REMARK SMILES Cc1cc(Cl)cc2c1O[C@H](C(F)(F)F)C(C(=O)OCCOCCOC(=O)c1ccc(-c3c4nc(c(-c5cc(S(=O)(=O)[O-])ccc5F)c5ccc([nH]5)c(-c5cc(S(=O)(=O)[O-])ccc5F)c5nc(c(-c6cc(S(=O)(=O)[O-])ccc6F)c6ccc3[nH]6)C=C5)C=C4)cc1)=C2
REMARK SMILES IDX 22 1 21 2 20 3 19 4 18 5 16 6 17 7 15 8 1 9 2 10 3 11 8 12
REMARK SMILES IDX 4 13 7 14 9 15 5 16 6 17 90 18 10 19 11 20 12 21 13 22 14 23
REMARK SMILES IDX 23 24 24 25 25 26 26 27 27 28 28 29 89 30 29 31 88 32 30 33
REMARK SMILES IDX 31 34 32 35 82 36 33 37 87 38 81 39 83 40 34 41 86 42 80 43
REMARK SMILES IDX 79 44 35 46 67 47 47 48 66 49 48 50 51 51 65 52 84 53 49 54
REMARK SMILES IDX 50 55 64 57 85 58 52 59 36 60 37 61 45 62 38 63 44 64 46 65
REMARK SMILES IDX 43 66 39 67 40 68 41 69 42 70 68 71 69 72 77 73 70 74 76 75
REMARK SMILES IDX 78 76 75 77 71 78 72 79 73 80 74 81 53 82 54 83 62 84 55 85
REMARK SMILES IDX 61 86 63 87 60 88 56 89 57 90 58 91 59 92
REMARK H PARENT 83 45 51 56
REMARK Flexibility Score: inf
ROOT
ATOM      1  C   UNL     1      -0.548  -7.560  -1.971  1.00  0.00     0.202 C 
ENDROOT
BRANCH   1   2
ATOM      2  O   UNL     1       0.285  -8.637  -2.401  1.00  0.00    -0.374 OA
BRANCH   2   3
ATOM      3  C   UNL     1       1.351  -9.041  -1.544  1.00  0.00     0.202 C 
BRANCH   3   4
ATOM      4  C   UNL     1       2.610  -8.169  -1.544  1.00  0.00     0.261 C 
BRANCH   4   5
ATOM      5  O   UNL     1       2.314  -6.800  -1.227  1.00  0.00    -0.460 OA
BRANCH   5   6
ATOM      6  C   UNL     1       2.459  -5.939  -2.260  1.00  0.00     0.338 C 
ATOM      7  O   UNL     1       2.904  -6.190  -3.371  1.00  0.00    -0.246 OA
BRANCH   6   8
ATOM      8  C   UNL     1       1.873  -4.632  -1.910  1.00  0.00     0.087 C 
ATOM      9  C   UNL     1       0.940  -0.000   0.033  1.00  0.00     0.048 C 
ATOM     10  C   UNL     1       0.591  -0.717  -1.241  1.00  0.00    -0.007 A 
ATOM     11  C   UNL     1      -0.029  -0.020  -2.290  1.00  0.00     0.027 A 
ATOM     12  C   UNL     1       0.934  -2.067  -1.425  1.00  0.00     0.131 A 
ATOM     13  C   UNL     1      -0.313  -0.666  -3.492  1.00  0.00     0.042 A 
ATOM     14  C   UNL     1       0.685  -2.694  -2.650  1.00  0.00     0.019 A 
ATOM     15  O   UNL     1       1.508  -2.711  -0.364  1.00  0.00    -0.475 OA
ATOM     16  Cl  UNL     1      -1.075   0.200  -4.770  1.00  0.00    -0.084 Cl
ATOM     17  C   UNL     1       0.040  -1.998  -3.677  1.00  0.00     0.032 A 
ATOM     18  C   UNL     1       1.169  -4.041  -2.883  1.00  0.00     0.027 C 
ATOM     19  C   UNL     1       2.103  -4.027  -0.554  1.00  0.00     0.316 C 
BRANCH  19  20
ATOM     20  C   UNL     1       3.591  -3.927  -0.187  1.00  0.00     0.430 C 
ATOM     21  F   UNL     1       3.758  -3.327   1.016  1.00  0.00    -0.167 F 
ATOM     22  F   UNL     1       4.174  -5.143  -0.103  1.00  0.00    -0.167 F 
ATOM     23  F   UNL     1       4.283  -3.205  -1.099  1.00  0.00    -0.167 F 
ENDBRANCH  19  20
ENDBRANCH   6   8
ENDBRANCH   5   6
ENDBRANCH   4   5
ENDBRANCH   3   4
ENDBRANCH   2   3
ENDBRANCH   1   2
BRANCH   1  24
ATOM     24  C   UNL     1      -1.511  -7.818  -0.804  1.00  0.00     0.261 C 
BRANCH  24  25
ATOM     25  O   UNL     1      -0.825  -8.021   0.444  1.00  0.00    -0.460 OA
BRANCH  25  26
ATOM     26  C   UNL     1      -0.950  -9.265   0.965  1.00  0.00     0.338 C 
ATOM     27  O   UNL     1      -1.612 -10.191   0.509  1.00  0.00    -0.246 OA
BRANCH  26  28
ATOM     28  C   UNL     1      -0.011  -9.435   2.086  1.00  0.00     0.060 A 
ATOM     29  C   UNL     1       0.957 -10.442   1.984  1.00  0.00     0.016 A 
ATOM     30  C   UNL     1      -0.123  -8.670   3.249  1.00  0.00     0.016 A 
ATOM     31  C   UNL     1       1.800 -10.708   3.059  1.00  0.00     0.010 A 
ATOM     32  C   UNL     1       0.717  -8.948   4.333  1.00  0.00     0.010 A 
ATOM     33  C   UNL     1       1.664  -9.985   4.252  1.00  0.00    -0.014 A 
BRANCH  33  34
ATOM     34  C   UNL     1       2.422 -10.414   5.453  1.00  0.00     0.031 A 
ATOM     35  C   UNL     1       1.734 -11.265   6.485  1.00  0.00     0.074 A 
ATOM     36  C   UNL     1       3.724 -10.101   5.588  1.00  0.00     0.049 A 
ATOM     37  N   UNL     1       2.204 -11.747   7.605  1.00  0.00    -0.248 NA
ATOM     38  C   UNL     1       0.333 -11.624   6.215  1.00  0.00     0.031 C 
ATOM     39  C   UNL     1       4.511  -9.336   4.622  1.00  0.00     0.029 A 
ATOM     40  N   UNL     1       4.617 -10.401   6.586  1.00  0.00    -0.354 N 
ATOM     41  C   UNL     1       1.163 -12.476   8.169  1.00  0.00     0.074 A 
ATOM     42  C   UNL     1       0.023 -12.336   7.288  1.00  0.00     0.031 C 
ATOM     43  C   UNL     1       5.775  -9.240   5.068  1.00  0.00     0.029 A 
ATOM     44  C   UNL     1       5.880  -9.902   6.367  1.00  0.00     0.049 A 
ATOM     45  H   UNL     1       4.376 -10.924   7.384  1.00  0.00     0.167 HD
ATOM     46  C   UNL     1       1.164 -13.211   9.307  1.00  0.00     0.034 A 
ATOM     47  C   UNL     1       6.989  -9.964   7.132  1.00  0.00     0.034 A 
ATOM     48  C   UNL     1       2.303 -13.341  10.179  1.00  0.00     0.049 A 
ATOM     49  C   UNL     1       6.931 -10.689   8.453  1.00  0.00     0.074 A 
ATOM     50  C   UNL     1       2.403 -14.055  11.360  1.00  0.00     0.029 A 
ATOM     51  N   UNL     1       3.536 -12.742   9.969  1.00  0.00    -0.354 N 
ATOM     52  N   UNL     1       5.929 -11.346   8.989  1.00  0.00    -0.248 NA
ATOM     53  C   UNL     1       8.150 -10.677   9.276  1.00  0.00     0.031 C 
ATOM     54  C   UNL     1       3.675 -13.839  11.895  1.00  0.00     0.029 A 
ATOM     55  C   UNL     1       4.393 -13.046  11.014  1.00  0.00     0.049 A 
ATOM     56  H   UNL     1       3.768 -12.184   9.192  1.00  0.00     0.167 HD
ATOM     57  C   UNL     1       6.405 -11.846  10.197  1.00  0.00     0.074 A 
ATOM     58  C   UNL     1       7.783 -11.416  10.315  1.00  0.00     0.031 C 
ATOM     59  C   UNL     1       5.761 -12.601  11.121  1.00  0.00     0.034 A 
BRANCH  46  60
ATOM     60  C   UNL     1      -0.112 -13.911   9.688  1.00  0.00     0.023 A 
ATOM     61  C   UNL     1      -0.599 -15.000   8.947  1.00  0.00     0.031 A 
ATOM     62  C   UNL     1      -0.836 -13.502  10.822  1.00  0.00     0.131 A 
ATOM     63  C   UNL     1      -1.797 -15.622   9.327  1.00  0.00     0.055 A 
ATOM     64  C   UNL     1      -1.994 -14.164  11.230  1.00  0.00     0.041 A 
ATOM     65  F   UNL     1      -0.424 -12.454  11.553  1.00  0.00    -0.206 F 
ATOM     66  C   UNL     1      -2.485 -15.227  10.478  1.00  0.00     0.022 A 
BRANCH  63  67
ATOM     67  S   UNL     1      -2.486 -16.910   8.254  1.00  0.00     0.124 S 
ATOM     68  O   UNL     1      -2.775 -16.155   7.037  1.00  0.00    -0.237 OA
ATOM     69  O   UNL     1      -1.391 -17.869   8.165  1.00  0.00    -0.237 OA
ATOM     70  O   UNL     1      -3.662 -17.374   8.987  1.00  0.00    -0.744 OA
ENDBRANCH  63  67
ENDBRANCH  46  60
BRANCH  47  71
ATOM     71  C   UNL     1       8.245  -9.303   6.681  1.00  0.00     0.023 A 
ATOM     72  C   UNL     1       9.379 -10.060   6.346  1.00  0.00     0.031 A 
ATOM     73  C   UNL     1       8.334  -7.902   6.592  1.00  0.00     0.131 A 
ATOM     74  C   UNL     1      10.561  -9.410   5.958  1.00  0.00     0.055 A 
ATOM     75  C   UNL     1       9.499  -7.263   6.168  1.00  0.00     0.041 A 
ATOM     76  F   UNL     1       7.277  -7.135   6.901  1.00  0.00    -0.206 F 
ATOM     77  C   UNL     1      10.625  -8.018   5.854  1.00  0.00     0.022 A 
BRANCH  74  78
ATOM     78  S   UNL     1      12.036 -10.413   5.624  1.00  0.00     0.124 S 
ATOM     79  O   UNL     1      12.290 -11.008   6.931  1.00  0.00    -0.237 OA
ATOM     80  O   UNL     1      11.558 -11.320   4.586  1.00  0.00    -0.237 OA
ATOM     81  O   UNL     1      13.022  -9.429   5.182  1.00  0.00    -0.744 OA
ENDBRANCH  74  78
ENDBRANCH  47  71
BRANCH  59  82
ATOM     82  C   UNL     1       6.537 -13.042  12.334  1.00  0.00     0.023 A 
ATOM     83  C   UNL     1       6.859 -12.144  13.364  1.00  0.00     0.031 A 
ATOM     84  C   UNL     1       6.883 -14.396  12.495  1.00  0.00     0.131 A 
ATOM     85  C   UNL     1       7.523 -12.609  14.509  1.00  0.00     0.055 A 
ATOM     86  C   UNL     1       7.506 -14.859  13.654  1.00  0.00     0.041 A 
ATOM     87  F   UNL     1       6.590 -15.293  11.541  1.00  0.00    -0.206 F 
ATOM     88  C   UNL     1       7.831 -13.963  14.668  1.00  0.00     0.022 A 
BRANCH  85  89
ATOM     89  S   UNL     1       7.990 -11.416  15.793  1.00  0.00     0.124 S 
ATOM     90  O   UNL     1       8.985 -10.602  15.101  1.00  0.00    -0.237 OA
ATOM     91  O   UNL     1       6.723 -10.757  16.090  1.00  0.00    -0.237 OA
ATOM     92  O   UNL     1       8.516 -12.257  16.867  1.00  0.00    -0.744 OA
ENDBRANCH  85  89
ENDBRANCH  59  82
ENDBRANCH  33  34
ENDBRANCH  26  28
ENDBRANCH  25  26
ENDBRANCH  24  25
ENDBRANCH   1  24
TORSDOF 18
