REMARK SMILES O=C(OCCOCCOC(=O)C1CCN(C2=[NH+]C(Cl)=[NH+]C3=[NH+]C=N[C@@H]32)CC1)c1ccc(-c2c3nc(c(-c4cc(S(=O)(=O)[O-])ccc4F)c4ccc([nH]4)c(-c4cc(S(=O)(=O)[O-])ccc4F)c4nc(c(-c5cc(S(=O)(=O)[O-])ccc5F)c5ccc2[nH]5)C=C4)C=C3)cc1
REMARK SMILES IDX 4 1 3 2 2 3 1 4 28 5 29 6 90 7 30 8 89 9 31 10 32 11 33 12
REMARK SMILES IDX 83 13 34 14 88 15 82 16 84 17 35 18 87 19 81 20 80 21 36 23
REMARK SMILES IDX 68 24 48 25 67 26 49 27 52 28 66 29 85 30 50 31 51 32 65 34
REMARK SMILES IDX 86 35 53 36 37 37 38 38 46 39 39 40 45 41 47 42 44 43 40 44
REMARK SMILES IDX 41 45 42 46 43 47 69 48 70 49 78 50 71 51 77 52 79 53 76 54
REMARK SMILES IDX 72 55 73 56 74 57 75 58 54 59 55 60 63 61 56 62 62 63 64 64
REMARK SMILES IDX 61 65 57 66 58 67 59 68 60 69 5 70 6 71 7 72 8 73 9 74 10 75
REMARK SMILES IDX 11 76 12 77 13 78 27 79 14 80 26 81 15 82 16 83 17 84 25 85
REMARK SMILES IDX 18 86 21 88 24 89 19 90 20 91 22 92 23 93
REMARK H PARENT 84 22 52 33 17 87 20 94 22 95
REMARK Flexibility Score: inf
ROOT
ATOM      1  C   UNL     1       4.492   0.720  -0.286  1.00  0.00     0.261 C 
ENDROOT
BRANCH   1   2
ATOM      2  O   UNL     1       3.158   1.185  -0.045  1.00  0.00    -0.460 OA
BRANCH   2   3
ATOM      3  C   UNL     1       2.001   0.693  -0.545  1.00  0.00     0.338 C 
ATOM      4  O   UNL     1       0.945   1.048  -0.014  1.00  0.00    -0.246 OA
BRANCH   3   5
ATOM      5  C   UNL     1       1.933  -0.228  -1.715  1.00  0.00     0.060 A 
ATOM      6  C   UNL     1       3.017  -0.863  -2.313  1.00  0.00     0.016 A 
ATOM      7  C   UNL     1       0.666  -0.400  -2.294  1.00  0.00     0.016 A 
ATOM      8  C   UNL     1       2.915  -1.342  -3.602  1.00  0.00     0.010 A 
ATOM      9  C   UNL     1       0.533  -1.008  -3.535  1.00  0.00     0.010 A 
ATOM     10  C   UNL     1       1.678  -1.360  -4.240  1.00  0.00    -0.014 A 
BRANCH  10  11
ATOM     11  C   UNL     1       1.681  -1.791  -5.633  1.00  0.00     0.031 A 
ATOM     12  C   UNL     1       2.442  -3.040  -5.925  1.00  0.00     0.074 A 
ATOM     13  C   UNL     1       1.035  -1.132  -6.613  1.00  0.00     0.049 A 
ATOM     14  N   UNL     1       3.442  -3.207  -6.730  1.00  0.00    -0.248 NA
ATOM     15  C   UNL     1       2.124  -4.224  -5.112  1.00  0.00     0.031 C 
ATOM     16  C   UNL     1       0.069  -0.038  -6.495  1.00  0.00     0.029 A 
ATOM     17  N   UNL     1       1.038  -1.404  -7.946  1.00  0.00    -0.354 N 
ATOM     18  C   UNL     1       3.774  -4.557  -6.659  1.00  0.00     0.074 A 
ATOM     19  C   UNL     1       3.023  -5.100  -5.556  1.00  0.00     0.031 C 
ATOM     20  C   UNL     1      -0.608   0.076  -7.657  1.00  0.00     0.029 A 
ATOM     21  C   UNL     1      -0.017  -0.826  -8.630  1.00  0.00     0.049 A 
ATOM     22  H   UNL     1       1.726  -1.958  -8.382  1.00  0.00     0.167 HD
ATOM     23  C   UNL     1       4.529  -5.179  -7.606  1.00  0.00     0.034 A 
ATOM     24  C   UNL     1      -0.442  -1.142  -9.877  1.00  0.00     0.034 A 
ATOM     25  C   UNL     1       5.330  -4.243  -8.352  1.00  0.00     0.049 A 
ATOM     26  C   UNL     1       0.696  -1.768 -10.591  1.00  0.00     0.074 A 
ATOM     27  C   UNL     1       6.332  -3.351  -8.016  1.00  0.00     0.029 A 
ATOM     28  N   UNL     1       4.928  -3.875  -9.614  1.00  0.00    -0.354 N 
ATOM     29  N   UNL     1       1.791  -1.129 -10.899  1.00  0.00    -0.248 NA
ATOM     30  C   UNL     1       0.813  -3.218 -10.579  1.00  0.00     0.031 C 
ATOM     31  C   UNL     1       6.114  -2.217  -8.851  1.00  0.00     0.029 A 
ATOM     32  C   UNL     1       5.023  -2.505  -9.674  1.00  0.00     0.049 A 
ATOM     33  H   UNL     1       4.630  -4.476 -10.334  1.00  0.00     0.167 HD
ATOM     34  C   UNL     1       2.813  -2.045 -10.705  1.00  0.00     0.074 A 
ATOM     35  C   UNL     1       2.143  -3.340 -10.620  1.00  0.00     0.031 C 
ATOM     36  C   UNL     1       4.074  -1.648 -10.360  1.00  0.00     0.034 A 
BRANCH  23  37
ATOM     37  C   UNL     1       4.347  -6.621  -8.018  1.00  0.00     0.023 A 
ATOM     38  C   UNL     1       5.249  -7.176  -8.948  1.00  0.00     0.031 A 
ATOM     39  C   UNL     1       3.192  -7.391  -7.748  1.00  0.00     0.131 A 
ATOM     40  C   UNL     1       4.964  -8.397  -9.588  1.00  0.00     0.055 A 
ATOM     41  C   UNL     1       2.949  -8.636  -8.333  1.00  0.00     0.041 A 
ATOM     42  F   UNL     1       2.190  -6.942  -6.982  1.00  0.00    -0.206 F 
ATOM     43  C   UNL     1       3.825  -9.136  -9.278  1.00  0.00     0.022 A 
BRANCH  40  44
ATOM     44  S   UNL     1       6.015  -8.924 -10.969  1.00  0.00     0.124 S 
ATOM     45  O   UNL     1       6.064  -7.718 -11.789  1.00  0.00    -0.237 OA
ATOM     46  O   UNL     1       7.250  -9.288 -10.283  1.00  0.00    -0.237 OA
ATOM     47  O   UNL     1       5.274 -10.041 -11.551  1.00  0.00    -0.744 OA
ENDBRANCH  40  44
ENDBRANCH  23  37
BRANCH  24  48
ATOM     48  C   UNL     1      -1.864  -1.258 -10.281  1.00  0.00     0.023 A 
ATOM     49  C   UNL     1      -2.275  -1.174 -11.621  1.00  0.00     0.031 A 
ATOM     50  C   UNL     1      -2.837  -1.664  -9.336  1.00  0.00     0.131 A 
ATOM     51  C   UNL     1      -3.612  -1.468 -11.968  1.00  0.00     0.055 A 
ATOM     52  C   UNL     1      -4.160  -1.935  -9.681  1.00  0.00     0.041 A 
ATOM     53  F   UNL     1      -2.513  -1.888  -8.052  1.00  0.00    -0.206 F 
ATOM     54  C   UNL     1      -4.553  -1.843 -11.004  1.00  0.00     0.022 A 
BRANCH  51  55
ATOM     55  S   UNL     1      -4.118  -1.464 -13.714  1.00  0.00     0.124 S 
ATOM     56  O   UNL     1      -4.078  -0.044 -14.044  1.00  0.00    -0.237 OA
ATOM     57  O   UNL     1      -3.099  -2.303 -14.336  1.00  0.00    -0.237 OA
ATOM     58  O   UNL     1      -5.457  -2.053 -13.682  1.00  0.00    -0.744 OA
ENDBRANCH  51  55
ENDBRANCH  24  48
BRANCH  36  59
ATOM     59  C   UNL     1       4.420  -0.173 -10.448  1.00  0.00     0.023 A 
ATOM     60  C   UNL     1       3.728   0.848  -9.757  1.00  0.00     0.031 A 
ATOM     61  C   UNL     1       5.582   0.192 -11.152  1.00  0.00     0.131 A 
ATOM     62  C   UNL     1       4.197   2.175  -9.799  1.00  0.00     0.055 A 
ATOM     63  C   UNL     1       6.054   1.505 -11.176  1.00  0.00     0.041 A 
ATOM     64  F   UNL     1       6.306  -0.737 -11.799  1.00  0.00    -0.206 F 
ATOM     65  C   UNL     1       5.359   2.504 -10.504  1.00  0.00     0.022 A 
BRANCH  62  66
ATOM     66  S   UNL     1       3.296   3.503  -8.937  1.00  0.00     0.124 S 
ATOM     67  O   UNL     1       1.909   3.289  -9.331  1.00  0.00    -0.237 OA
ATOM     68  O   UNL     1       3.611   3.240  -7.535  1.00  0.00    -0.237 OA
ATOM     69  O   UNL     1       3.898   4.726  -9.473  1.00  0.00    -0.744 OA
ENDBRANCH  62  66
ENDBRANCH  36  59
ENDBRANCH  10  11
ENDBRANCH   3   5
ENDBRANCH   2   3
ENDBRANCH   1   2
BRANCH   1  70
ATOM     70  C   UNL     1       4.876  -0.460   0.622  1.00  0.00     0.202 C 
BRANCH  70  71
ATOM     71  O   UNL     1       3.969  -1.549   0.744  1.00  0.00    -0.374 OA
BRANCH  71  72
ATOM     72  C   UNL     1       2.859  -1.422   1.640  1.00  0.00     0.202 C 
BRANCH  72  73
ATOM     73  C   UNL     1       3.132  -1.096   3.112  1.00  0.00     0.261 C 
BRANCH  73  74
ATOM     74  O   UNL     1       3.662   0.238   3.297  1.00  0.00    -0.463 OA
BRANCH  74  75
ATOM     75  C   UNL     1       4.765   0.313   4.081  1.00  0.00     0.309 C 
ATOM     76  O   UNL     1       5.279  -0.651   4.643  1.00  0.00    -0.252 OA
BRANCH  75  77
ATOM     77  C   UNL     1       5.367   1.705   4.212  1.00  0.00     0.108 C 
ATOM     78  C   UNL     1       4.581   2.905   3.676  1.00  0.00     0.070 C 
ATOM     79  C   UNL     1       6.828   1.695   3.740  1.00  0.00     0.070 C 
ATOM     80  C   UNL     1       4.867   3.276   2.229  1.00  0.00     0.277 C 
ATOM     81  C   UNL     1       7.009   2.001   2.262  1.00  0.00     0.277 C 
ATOM     82  N   UNL     1       6.290   3.211   1.914  1.00  0.00    -0.230 N 
ATOM     83  C   UNL     1       6.897   4.140   1.085  1.00  0.00     0.383 C 
ATOM     84  N   UNL     1       7.500   3.787  -0.017  1.00  0.00    -0.155 N 
ATOM     85  C   UNL     1       6.930   5.592   1.513  1.00  0.00     0.523 C 
ATOM     86  C   UNL     1       8.140   4.758  -0.756  1.00  0.00     0.414 C 
ATOM     87  H   UNL     1       7.498   2.848  -0.313  1.00  0.00     0.367 HD
ATOM     88  C   UNL     1       8.220   6.094   0.985  1.00  0.00     0.389 C 
ATOM     89  N   UNL     1       7.140   5.761   2.972  1.00  0.00     0.003 NA
ATOM     90  Cl  UNL     1       8.466   4.365  -2.387  1.00  0.00     0.028 Cl
ATOM     91  N   UNL     1       8.539   5.907  -0.312  1.00  0.00    -0.155 N 
ATOM     92  N   UNL     1       9.006   6.558   1.891  1.00  0.00    -0.169 N 
ATOM     93  C   UNL     1       8.312   6.321   3.050  1.00  0.00     0.532 C 
ATOM     94  H   UNL     1       9.021   6.569  -0.860  1.00  0.00     0.367 HD
ATOM     95  H   UNL     1       9.888   6.981   1.779  1.00  0.00     0.365 HD
ENDBRANCH  75  77
ENDBRANCH  74  75
ENDBRANCH  73  74
ENDBRANCH  72  73
ENDBRANCH  71  72
ENDBRANCH  70  71
ENDBRANCH   1  70
TORSDOF 17
