REMARK SMILES CC[C@@H](C(=O)OCCOCCOC(=O)c1ccc(-c2c3nc(c(-c4cc(S(=O)(=O)[O-])ccc4F)c4ccc([nH]4)c(-c4cc(S(=O)(=O)[O-])ccc4F)c4nc(c(-c5cc(S(=O)(=O)[O-])ccc5F)c5ccc2[nH]5)C=C4)C=C3)cc1)[N@@H+](C)Cc1cccc(C)n1
REMARK SMILES IDX 9 1 8 2 7 3 6 4 4 5 5 6 3 7 2 8 1 9 78 10 79 11 80 13 81 14
REMARK SMILES IDX 82 15 87 16 83 17 85 18 84 19 86 20 10 21 11 22 12 23 13 24
REMARK SMILES IDX 14 25 15 26 16 27 77 28 17 29 76 30 18 31 19 32 20 33 70 34
REMARK SMILES IDX 21 35 75 36 69 37 71 38 22 39 74 40 68 41 67 42 23 44 55 45
REMARK SMILES IDX 35 46 54 47 36 48 39 49 53 50 72 51 37 52 38 53 52 55 73 56
REMARK SMILES IDX 40 57 24 58 25 59 33 60 26 61 32 62 34 63 31 64 27 65 28 66
REMARK SMILES IDX 29 67 30 68 56 69 57 70 65 71 58 72 64 73 66 74 63 75 59 76
REMARK SMILES IDX 60 77 61 78 62 79 41 80 42 81 50 82 43 83 49 84 51 85 48 86
REMARK SMILES IDX 44 87 45 88 46 89 47 90
REMARK H PARENT 78 12 71 43 39 54
REMARK Flexibility Score: inf
ROOT
ATOM      1  O   UNL     1      -1.858  -3.347   2.862  1.00  0.00    -0.374 OA
ENDROOT
BRANCH   1   2
ATOM      2  C   UNL     1      -0.820  -2.708   3.603  1.00  0.00     0.202 C 
BRANCH   2   3
ATOM      3  C   UNL     1       0.622  -2.995   3.180  1.00  0.00     0.261 C 
BRANCH   3   4
ATOM      4  O   UNL     1       0.898  -2.469   1.871  1.00  0.00    -0.459 OA
BRANCH   4   5
ATOM      5  C   UNL     1       1.165  -3.384   0.901  1.00  0.00     0.364 C 
ATOM      6  O   UNL     1       1.303  -4.585   1.112  1.00  0.00    -0.245 OA
BRANCH   5   7
ATOM      7  C   UNL     1       1.345  -2.723  -0.485  1.00  0.00     0.294 C 
BRANCH   7   8
ATOM      8  C   UNL     1       0.646  -1.361  -0.736  1.00  0.00     0.074 C 
ATOM      9  C   UNL     1       1.223  -0.175   0.031  1.00  0.00     0.011 C 
ENDBRANCH   7   8
BRANCH   7  10
ATOM     10  N   UNL     1       1.006  -3.672  -1.579  1.00  0.00    -0.321 N 
ATOM     11  C   UNL     1       2.024  -4.660  -1.858  1.00  0.00     0.333 C 
ATOM     12  H   UNL     1       1.062  -3.055  -2.389  1.00  0.00     0.348 HD
BRANCH  10  13
ATOM     13  C   UNL     1      -0.400  -3.990  -1.873  1.00  0.00     0.320 C 
BRANCH  13  14
ATOM     14  C   UNL     1      -1.119  -5.285  -1.495  1.00  0.00     0.095 A 
ATOM     15  C   UNL     1      -0.515  -6.534  -1.407  1.00  0.00     0.030 A 
ATOM     16  N   UNL     1      -2.484  -5.179  -1.460  1.00  0.00    -0.252 NA
ATOM     17  C   UNL     1      -1.301  -7.679  -1.272  1.00  0.00     0.004 A 
ATOM     18  C   UNL     1      -3.240  -6.302  -1.336  1.00  0.00     0.038 A 
ATOM     19  C   UNL     1      -2.683  -7.567  -1.240  1.00  0.00     0.023 A 
ATOM     20  C   UNL     1      -4.731  -6.129  -1.326  1.00  0.00     0.067 C 
ENDBRANCH  13  14
ENDBRANCH  10  13
ENDBRANCH   7  10
ENDBRANCH   5   7
ENDBRANCH   4   5
ENDBRANCH   3   4
ENDBRANCH   2   3
ENDBRANCH   1   2
BRANCH   1  21
ATOM     21  C   UNL     1      -2.114  -2.895   1.534  1.00  0.00     0.202 C 
BRANCH  21  22
ATOM     22  C   UNL     1      -2.844  -1.556   1.359  1.00  0.00     0.261 C 
BRANCH  22  23
ATOM     23  O   UNL     1      -2.176  -0.458   2.004  1.00  0.00    -0.460 OA
BRANCH  23  24
ATOM     24  C   UNL     1      -2.812  -0.012   3.114  1.00  0.00     0.338 C 
ATOM     25  O   UNL     1      -3.904  -0.382   3.529  1.00  0.00    -0.246 OA
BRANCH  24  26
ATOM     26  C   UNL     1      -1.937   0.865   3.912  1.00  0.00     0.060 A 
ATOM     27  C   UNL     1      -1.804   0.546   5.269  1.00  0.00     0.016 A 
ATOM     28  C   UNL     1      -1.349   2.022   3.394  1.00  0.00     0.016 A 
ATOM     29  C   UNL     1      -1.164   1.427   6.133  1.00  0.00     0.010 A 
ATOM     30  C   UNL     1      -0.709   2.912   4.268  1.00  0.00     0.010 A 
ATOM     31  C   UNL     1      -0.668   2.644   5.649  1.00  0.00    -0.014 A 
BRANCH  31  32
ATOM     32  C   UNL     1      -0.334   3.697   6.641  1.00  0.00     0.031 A 
ATOM     33  C   UNL     1      -1.367   4.754   6.942  1.00  0.00     0.074 A 
ATOM     34  C   UNL     1       0.807   3.640   7.352  1.00  0.00     0.049 A 
ATOM     35  N   UNL     1      -1.346   5.711   7.833  1.00  0.00    -0.248 NA
ATOM     36  C   UNL     1      -2.591   4.721   6.125  1.00  0.00     0.031 C 
ATOM     37  C   UNL     1       1.854   2.633   7.185  1.00  0.00     0.029 A 
ATOM     38  N   UNL     1       1.264   4.434   8.373  1.00  0.00    -0.354 N 
ATOM     39  C   UNL     1      -2.554   6.388   7.691  1.00  0.00     0.074 A 
ATOM     40  C   UNL     1      -3.258   5.764   6.591  1.00  0.00     0.031 C 
ATOM     41  C   UNL     1       2.828   2.864   8.082  1.00  0.00     0.029 A 
ATOM     42  C   UNL     1       2.487   4.048   8.869  1.00  0.00     0.049 A 
ATOM     43  H   UNL     1       0.763   5.208   8.719  1.00  0.00     0.167 HD
ATOM     44  C   UNL     1      -3.041   7.422   8.421  1.00  0.00     0.034 A 
ATOM     45  C   UNL     1       3.245   4.593   9.842  1.00  0.00     0.034 A 
ATOM     46  C   UNL     1      -2.323   8.040   9.509  1.00  0.00     0.049 A 
ATOM     47  C   UNL     1       2.716   5.794  10.589  1.00  0.00     0.074 A 
ATOM     48  C   UNL     1      -2.716   9.093  10.316  1.00  0.00     0.029 A 
ATOM     49  N   UNL     1      -1.055   7.665   9.937  1.00  0.00    -0.354 N 
ATOM     50  N   UNL     1       1.569   6.419  10.450  1.00  0.00    -0.248 NA
ATOM     51  C   UNL     1       3.580   6.351  11.638  1.00  0.00     0.031 C 
ATOM     52  C   UNL     1      -1.660   9.400  11.182  1.00  0.00     0.029 A 
ATOM     53  C   UNL     1      -0.638   8.488  10.973  1.00  0.00     0.049 A 
ATOM     54  H   UNL     1      -0.529   6.923   9.560  1.00  0.00     0.167 HD
ATOM     55  C   UNL     1       1.565   7.426  11.412  1.00  0.00     0.074 A 
ATOM     56  C   UNL     1       2.812   7.305  12.141  1.00  0.00     0.031 C 
ATOM     57  C   UNL     1       0.620   8.367  11.675  1.00  0.00     0.034 A 
BRANCH  44  58
ATOM     58  C   UNL     1      -4.388   7.977   8.020  1.00  0.00     0.023 A 
ATOM     59  C   UNL     1      -5.563   7.207   8.100  1.00  0.00     0.031 A 
ATOM     60  C   UNL     1      -4.493   9.283   7.509  1.00  0.00     0.131 A 
ATOM     61  C   UNL     1      -6.773   7.722   7.607  1.00  0.00     0.055 A 
ATOM     62  C   UNL     1      -5.715   9.818   7.096  1.00  0.00     0.041 A 
ATOM     63  F   UNL     1      -3.403  10.057   7.385  1.00  0.00    -0.206 F 
ATOM     64  C   UNL     1      -6.862   9.031   7.129  1.00  0.00     0.022 A 
BRANCH  61  65
ATOM     65  S   UNL     1      -8.198   6.607   7.462  1.00  0.00     0.124 S 
ATOM     66  O   UNL     1      -7.671   5.570   6.579  1.00  0.00    -0.237 OA
ATOM     67  O   UNL     1      -8.431   6.212   8.846  1.00  0.00    -0.237 OA
ATOM     68  O   UNL     1      -9.234   7.451   6.871  1.00  0.00    -0.744 OA
ENDBRANCH  61  65
ENDBRANCH  44  58
BRANCH  45  69
ATOM     69  C   UNL     1       4.595   4.038  10.153  1.00  0.00     0.023 A 
ATOM     70  C   UNL     1       4.894   3.501  11.415  1.00  0.00     0.031 A 
ATOM     71  C   UNL     1       5.630   4.099   9.202  1.00  0.00     0.131 A 
ATOM     72  C   UNL     1       6.205   3.091  11.709  1.00  0.00     0.055 A 
ATOM     73  C   UNL     1       6.918   3.640   9.481  1.00  0.00     0.041 A 
ATOM     74  F   UNL     1       5.401   4.605   7.980  1.00  0.00    -0.206 F 
ATOM     75  C   UNL     1       7.215   3.145  10.746  1.00  0.00     0.022 A 
BRANCH  72  76
ATOM     76  S   UNL     1       6.595   2.567  13.402  1.00  0.00     0.124 S 
ATOM     77  O   UNL     1       6.222   3.747  14.172  1.00  0.00    -0.237 OA
ATOM     78  O   UNL     1       5.736   1.398  13.561  1.00  0.00    -0.237 OA
ATOM     79  O   UNL     1       8.027   2.282  13.348  1.00  0.00    -0.744 OA
ENDBRANCH  72  76
ENDBRANCH  45  69
BRANCH  57  80
ATOM     80  C   UNL     1       0.898   9.312  12.820  1.00  0.00     0.023 A 
ATOM     81  C   UNL     1       1.970  10.223  12.781  1.00  0.00     0.031 A 
ATOM     82  C   UNL     1       0.105   9.277  13.980  1.00  0.00     0.131 A 
ATOM     83  C   UNL     1       2.265  11.004  13.909  1.00  0.00     0.055 A 
ATOM     84  C   UNL     1       0.361  10.108  15.072  1.00  0.00     0.041 A 
ATOM     85  F   UNL     1      -0.931   8.429  14.075  1.00  0.00    -0.206 F 
ATOM     86  C   UNL     1       1.458  10.964  15.048  1.00  0.00     0.022 A 
BRANCH  83  87
ATOM     87  S   UNL     1       3.796  11.978  13.913  1.00  0.00     0.124 S 
ATOM     88  O   UNL     1       4.805  10.959  13.646  1.00  0.00    -0.237 OA
ATOM     89  O   UNL     1       3.557  12.936  12.838  1.00  0.00    -0.237 OA
ATOM     90  O   UNL     1       3.833  12.552  15.257  1.00  0.00    -0.744 OA
ENDBRANCH  83  87
ENDBRANCH  57  80
ENDBRANCH  31  32
ENDBRANCH  24  26
ENDBRANCH  23  24
ENDBRANCH  22  23
ENDBRANCH  21  22
ENDBRANCH   1  21
TORSDOF 21
