REMARK SMILES O=C(OCCOCCOC(=O)c1ccc(-c2c3nc(c(-c4cc(S(=O)(=O)[O-])ccc4F)c4ccc([nH]4)c(-c4cc(S(=O)(=O)[O-])ccc4F)c4nc(c(-c5cc(S(=O)(=O)[O-])ccc5F)c5ccc2[nH]5)C=C4)C=C3)cc1)C1=Cc2cc(OC(F)(F)F)ccc2O[C@@H]1C(F)(F)F
REMARK SMILES IDX 7 1 6 2 5 3 4 4 3 5 2 6 1 7 75 8 76 9 89 10 77 11 88 12
REMARK SMILES IDX 78 13 87 14 79 15 86 16 85 17 90 18 91 19 92 20 93 21 80 22
REMARK SMILES IDX 81 23 82 24 83 25 84 26 8 27 9 28 10 29 11 30 12 31 13 32
REMARK SMILES IDX 74 33 14 34 73 35 15 36 16 37 17 38 67 39 18 40 72 41 66 42
REMARK SMILES IDX 68 43 19 44 71 45 65 46 64 47 20 49 52 50 32 51 51 52 33 53
REMARK SMILES IDX 36 54 50 55 69 56 34 57 35 58 49 60 70 61 37 62 21 63 22 64
REMARK SMILES IDX 30 65 23 66 29 67 31 68 28 69 24 70 25 71 26 72 27 73 53 74
REMARK SMILES IDX 54 75 62 76 55 77 61 78 63 79 60 80 56 81 57 82 58 83 59 84
REMARK SMILES IDX 38 85 39 86 47 87 40 88 46 89 48 90 45 91 41 92 42 93 43 94
REMARK SMILES IDX 44 95
REMARK H PARENT 68 48 36 59
REMARK Flexibility Score: inf
ROOT
ATOM      1  C   UNL     1       2.750  -2.246   2.208  1.00  0.00     0.202 C 
ENDROOT
BRANCH   1   2
ATOM      2  O   UNL     1       3.965  -2.078   1.456  1.00  0.00    -0.374 OA
BRANCH   2   3
ATOM      3  C   UNL     1       4.309  -1.303   0.081  1.00  0.00     0.202 C 
BRANCH   3   4
ATOM      4  C   UNL     1       3.458   0.508  -0.791  1.00  0.00     0.261 C 
BRANCH   4   5
ATOM      5  O   UNL     1       2.488   0.569  -1.993  1.00  0.00    -0.460 OA
BRANCH   5   6
ATOM      6  C   UNL     1       2.641  -0.456  -2.837  1.00  0.00     0.338 C 
ATOM      7  O   UNL     1       2.014  -0.752  -3.821  1.00  0.00    -0.246 OA
BRANCH   6   8
ATOM      8  C   UNL     1       3.517  -1.215  -1.977  1.00  0.00     0.087 C 
ATOM      9  C   UNL     1       4.906  -0.693  -2.031  1.00  0.00     0.027 C 
ATOM     10  C   UNL     1       2.381  -1.172  -0.406  1.00  0.00     0.316 C 
ATOM     11  C   UNL     1       5.669   0.258  -0.690  1.00  0.00     0.021 A 
ATOM     12  O   UNL     1       3.155  -0.104   1.006  1.00  0.00    -0.475 OA
ATOM     13  C   UNL     1       6.909   0.805  -0.865  1.00  0.00     0.058 A 
ATOM     14  C   UNL     1       4.810   0.625   0.765  1.00  0.00     0.128 A 
ATOM     15  C   UNL     1       7.364   1.648   0.171  1.00  0.00     0.130 A 
ATOM     16  C   UNL     1       5.258   1.560   1.646  1.00  0.00     0.051 A 
ATOM     17  C   UNL     1       6.562   2.042   1.325  1.00  0.00     0.050 A 
BRANCH  10  18
ATOM     18  C   UNL     1       1.899  -2.686  -0.418  1.00  0.00     0.430 C 
ATOM     19  F   UNL     1       0.991  -3.018   0.517  1.00  0.00    -0.167 F 
ATOM     20  F   UNL     1       1.257  -2.890  -1.609  1.00  0.00    -0.167 F 
ATOM     21  F   UNL     1       2.890  -3.604  -0.406  1.00  0.00    -0.167 F 
ENDBRANCH  10  18
BRANCH  15  22
ATOM     22  O   UNL     1       8.641   2.099  -0.080  1.00  0.00    -0.406 OA
BRANCH  22  23
ATOM     23  C   UNL     1       9.451   2.477   1.023  1.00  0.00     0.573 C 
ATOM     24  F   UNL     1       9.125   3.717   1.433  1.00  0.00    -0.132 F 
ATOM     25  F   UNL     1       9.334   1.607   2.047  1.00  0.00    -0.132 F 
ATOM     26  F   UNL     1      10.741   2.480   0.617  1.00  0.00    -0.132 F 
ENDBRANCH  22  23
ENDBRANCH  15  22
ENDBRANCH   6   8
ENDBRANCH   5   6
ENDBRANCH   4   5
ENDBRANCH   3   4
ENDBRANCH   2   3
ENDBRANCH   1   2
BRANCH   1  27
ATOM     27  C   UNL     1       2.843  -2.001   3.712  1.00  0.00     0.261 C 
BRANCH  27  28
ATOM     28  O   UNL     1       3.352  -0.714   4.025  1.00  0.00    -0.460 OA
BRANCH  28  29
ATOM     29  C   UNL     1       4.686  -0.718   4.247  1.00  0.00     0.338 C 
ATOM     30  O   UNL     1       5.462  -1.640   4.072  1.00  0.00    -0.246 OA
BRANCH  29  31
ATOM     31  C   UNL     1       5.085   0.605   4.755  1.00  0.00     0.060 A 
ATOM     32  C   UNL     1       6.419   0.978   4.567  1.00  0.00     0.016 A 
ATOM     33  C   UNL     1       4.176   1.467   5.388  1.00  0.00     0.016 A 
ATOM     34  C   UNL     1       6.853   2.213   5.019  1.00  0.00     0.010 A 
ATOM     35  C   UNL     1       4.616   2.698   5.862  1.00  0.00     0.010 A 
ATOM     36  C   UNL     1       5.964   3.049   5.706  1.00  0.00    -0.014 A 
BRANCH  36  37
ATOM     37  C   UNL     1       6.549   4.136   6.507  1.00  0.00     0.031 A 
ATOM     38  C   UNL     1       6.959   3.793   7.909  1.00  0.00     0.074 A 
ATOM     39  C   UNL     1       6.809   5.331   5.957  1.00  0.00     0.049 A 
ATOM     40  N   UNL     1       7.612   4.510   8.780  1.00  0.00    -0.248 NA
ATOM     41  C   UNL     1       6.593   2.447   8.384  1.00  0.00     0.031 C 
ATOM     42  C   UNL     1       6.495   5.713   4.580  1.00  0.00     0.029 A 
ATOM     43  N   UNL     1       7.422   6.433   6.485  1.00  0.00    -0.354 N 
ATOM     44  C   UNL     1       7.752   3.697   9.898  1.00  0.00     0.074 A 
ATOM     45  C   UNL     1       7.075   2.453   9.614  1.00  0.00     0.031 C 
ATOM     46  C   UNL     1       6.939   6.965   4.368  1.00  0.00     0.029 A 
ATOM     47  C   UNL     1       7.536   7.477   5.599  1.00  0.00     0.049 A 
ATOM     48  H   UNL     1       7.750   6.475   7.412  1.00  0.00     0.167 HD
ATOM     49  C   UNL     1       8.399   3.969  11.055  1.00  0.00     0.034 A 
ATOM     50  C   UNL     1       8.062   8.704   5.782  1.00  0.00     0.034 A 
ATOM     51  C   UNL     1       9.021   5.239  11.321  1.00  0.00     0.049 A 
ATOM     52  C   UNL     1       8.673   9.023   7.127  1.00  0.00     0.074 A 
ATOM     53  C   UNL     1       9.681   5.654  12.462  1.00  0.00     0.029 A 
ATOM     54  N   UNL     1       9.036   6.313  10.437  1.00  0.00    -0.354 N 
ATOM     55  N   UNL     1       8.807   8.250   8.183  1.00  0.00    -0.248 NA
ATOM     56  C   UNL     1       9.219  10.373   7.298  1.00  0.00     0.031 C 
ATOM     57  C   UNL     1      10.006   7.005  12.306  1.00  0.00     0.029 A 
ATOM     58  C   UNL     1       9.658   7.402  11.023  1.00  0.00     0.049 A 
ATOM     59  H   UNL     1       8.660   6.301   9.527  1.00  0.00     0.167 HD
ATOM     60  C   UNL     1       9.501   9.008   9.125  1.00  0.00     0.074 A 
ATOM     61  C   UNL     1       9.760  10.292   8.504  1.00  0.00     0.031 C 
ATOM     62  C   UNL     1       9.900   8.675  10.381  1.00  0.00     0.034 A 
BRANCH  49  63
ATOM     63  C   UNL     1       8.368   2.907  12.126  1.00  0.00     0.023 A 
ATOM     64  C   UNL     1       8.939   1.635  11.933  1.00  0.00     0.031 A 
ATOM     65  C   UNL     1       7.690   3.148  13.333  1.00  0.00     0.131 A 
ATOM     66  C   UNL     1       8.748   0.631  12.896  1.00  0.00     0.055 A 
ATOM     67  C   UNL     1       7.586   2.174  14.326  1.00  0.00     0.041 A 
ATOM     68  F   UNL     1       7.090   4.327  13.556  1.00  0.00    -0.206 F 
ATOM     69  C   UNL     1       8.102   0.901  14.104  1.00  0.00     0.022 A 
BRANCH  66  70
ATOM     70  S   UNL     1       9.197  -1.075  12.472  1.00  0.00     0.124 S 
ATOM     71  O   UNL     1       8.380  -1.307  11.283  1.00  0.00    -0.237 OA
ATOM     72  O   UNL     1      10.635  -0.979  12.252  1.00  0.00    -0.237 OA
ATOM     73  O   UNL     1       8.796  -1.838  13.652  1.00  0.00    -0.744 OA
ENDBRANCH  66  70
ENDBRANCH  49  63
BRANCH  50  74
ATOM     74  C   UNL     1       8.021   9.724   4.694  1.00  0.00     0.023 A 
ATOM     75  C   UNL     1       9.198  10.287   4.175  1.00  0.00     0.031 A 
ATOM     76  C   UNL     1       6.793  10.208   4.207  1.00  0.00     0.131 A 
ATOM     77  C   UNL     1       9.122  11.340   3.249  1.00  0.00     0.055 A 
ATOM     78  C   UNL     1       6.723  11.210   3.239  1.00  0.00     0.041 A 
ATOM     79  F   UNL     1       5.635   9.711   4.671  1.00  0.00    -0.206 F 
ATOM     80  C   UNL     1       7.893  11.795   2.766  1.00  0.00     0.022 A 
BRANCH  77  81
ATOM     81  S   UNL     1      10.652  12.189   2.770  1.00  0.00     0.124 S 
ATOM     82  O   UNL     1      11.156  12.640   4.061  1.00  0.00    -0.237 OA
ATOM     83  O   UNL     1      11.403  11.118   2.124  1.00  0.00    -0.237 OA
ATOM     84  O   UNL     1      10.187  13.248   1.876  1.00  0.00    -0.744 OA
ENDBRANCH  77  81
ENDBRANCH  50  74
BRANCH  62  85
ATOM     85  C   UNL     1      10.727   9.693  11.133  1.00  0.00     0.023 A 
ATOM     86  C   UNL     1      10.223  10.957  11.482  1.00  0.00     0.031 A 
ATOM     87  C   UNL     1      12.055   9.391  11.488  1.00  0.00     0.131 A 
ATOM     88  C   UNL     1      11.068  11.901  12.085  1.00  0.00     0.055 A 
ATOM     89  C   UNL     1      12.861  10.302  12.169  1.00  0.00     0.041 A 
ATOM     90  F   UNL     1      12.593   8.200  11.178  1.00  0.00    -0.206 F 
ATOM     91  C   UNL     1      12.375  11.573  12.453  1.00  0.00     0.022 A 
BRANCH  88  92
ATOM     92  S   UNL     1      10.482  13.610  12.245  1.00  0.00     0.124 S 
ATOM     93  O   UNL     1      10.121  13.934  10.869  1.00  0.00    -0.237 OA
ATOM     94  O   UNL     1       9.370  13.472  13.180  1.00  0.00    -0.237 OA
ATOM     95  O   UNL     1      11.646  14.323  12.766  1.00  0.00    -0.744 OA
ENDBRANCH  88  92
ENDBRANCH  62  85
ENDBRANCH  36  37
ENDBRANCH  29  31
ENDBRANCH  28  29
ENDBRANCH  27  28
ENDBRANCH   1  27
TORSDOF 20
