REMARK SMILES CS(=O)(=O)c1ccc(-n2nc(C(F)(F)F)cc2-c2ccc(CC(=O)OCCOCCOC(=O)c3ccc(-c4c5nc(c(-c6cc(S(=O)(=O)[O-])ccc6F)c6ccc([nH]6)c(-c6cc(S(=O)(=O)[O-])ccc6F)c6nc(c(-c7cc(S(=O)(=O)[O-])ccc7F)c7ccc4[nH]7)C=C6)C=C5)cc3)cc2)cc1
REMARK SMILES IDX 27 1 26 2 25 3 23 4 24 5 22 6 21 7 18 8 19 9 98 10 20 11
REMARK SMILES IDX 97 12 17 13 9 14 10 15 11 16 16 17 8 18 5 19 6 20 100 21
REMARK SMILES IDX 7 22 99 23 2 24 1 25 3 26 4 27 12 28 13 29 14 30 15 31 28 32
REMARK SMILES IDX 29 33 30 34 31 35 32 36 33 37 34 38 35 39 96 40 36 41 95 42
REMARK SMILES IDX 37 43 38 44 39 45 89 46 40 47 94 48 88 49 90 50 41 51 93 52
REMARK SMILES IDX 87 53 86 54 42 56 74 57 54 58 73 59 55 60 58 61 72 62 91 63
REMARK SMILES IDX 56 64 57 65 71 67 92 68 59 69 43 70 44 71 52 72 45 73 51 74
REMARK SMILES IDX 53 75 50 76 46 77 47 78 48 79 49 80 75 81 76 82 84 83 77 84
REMARK SMILES IDX 83 85 85 86 82 87 78 88 79 89 80 90 81 91 60 92 61 93 69 94
REMARK SMILES IDX 62 95 68 96 70 97 67 98 63 99 64 100 65 101 66 102
REMARK H PARENT 90 55 58 66
REMARK Flexibility Score: inf
ROOT
ATOM      1  C   UNL     1       7.291  -0.050   0.216  1.00  0.00     0.202 C 
ENDROOT
BRANCH   1   2
ATOM      2  C   UNL     1       7.449   0.347   1.691  1.00  0.00     0.261 C 
BRANCH   2   3
ATOM      3  O   UNL     1       7.308   1.745   1.994  1.00  0.00    -0.463 OA
BRANCH   3   4
ATOM      4  C   UNL     1       8.479   2.433   2.069  1.00  0.00     0.310 C 
ATOM      5  O   UNL     1       9.587   1.939   1.875  1.00  0.00    -0.252 OA
BRANCH   4   6
ATOM      6  C   UNL     1       8.335   3.860   2.538  1.00  0.00     0.158 C 
BRANCH   6   7
ATOM      7  C   UNL     1       7.035   4.589   2.302  1.00  0.00    -0.037 A 
ATOM      8  C   UNL     1       4.726   6.165   1.932  1.00  0.00     0.000 A 
ATOM      9  C   UNL     1       5.665   6.021   0.903  1.00  0.00     0.010 A 
ATOM     10  C   UNL     1       4.951   5.514   3.150  1.00  0.00     0.010 A 
ATOM     11  C   UNL     1       6.801   5.233   1.081  1.00  0.00     0.005 A 
ATOM     12  C   UNL     1       6.094   4.728   3.332  1.00  0.00     0.005 A 
BRANCH   8  13
ATOM     13  C   UNL     1       3.552   7.015   1.740  1.00  0.00     0.075 A 
ATOM     14  N   UNL     1       2.769   7.102   0.584  1.00  0.00    -0.233 N 
ATOM     15  N   UNL     1       2.012   8.233   0.597  1.00  0.00    -0.163 NA
ATOM     16  C   UNL     1       2.083   8.690   1.864  1.00  0.00     0.167 A 
ATOM     17  C   UNL     1       3.034   7.955   2.606  1.00  0.00     0.064 A 
BRANCH  14  18
ATOM     18  C   UNL     1       2.651   6.147  -0.476  1.00  0.00     0.065 A 
ATOM     19  C   UNL     1       2.078   4.150  -2.383  1.00  0.00     0.067 A 
ATOM     20  C   UNL     1       2.614   3.805  -1.155  1.00  0.00     0.022 A 
ATOM     21  C   UNL     1       1.856   5.498  -2.683  1.00  0.00     0.022 A 
ATOM     22  C   UNL     1       2.924   4.797  -0.219  1.00  0.00     0.030 A 
ATOM     23  C   UNL     1       2.128   6.496  -1.728  1.00  0.00     0.030 A 
BRANCH  19  24
ATOM     24  S   UNL     1       1.516   2.897  -3.518  1.00  0.00     0.175 S 
ATOM     25  C   UNL     1       1.292   1.380  -2.628  1.00  0.00     0.163 C 
ATOM     26  O   UNL     1       2.592   2.696  -4.445  1.00  0.00    -0.224 OA
ATOM     27  O   UNL     1       0.189   3.319  -3.904  1.00  0.00    -0.224 OA
ENDBRANCH  19  24
ENDBRANCH  14  18
BRANCH  16  28
ATOM     28  C   UNL     1       1.331   9.879   2.400  1.00  0.00     0.435 C 
ATOM     29  F   UNL     1       1.038  10.816   1.464  1.00  0.00    -0.164 F 
ATOM     30  F   UNL     1       0.178   9.534   3.028  1.00  0.00    -0.164 F 
ATOM     31  F   UNL     1       2.073  10.525   3.351  1.00  0.00    -0.164 F 
ENDBRANCH  16  28
ENDBRANCH   8  13
ENDBRANCH   6   7
ENDBRANCH   4   6
ENDBRANCH   3   4
ENDBRANCH   2   3
ENDBRANCH   1   2
BRANCH   1  32
ATOM     32  O   UNL     1       7.691   0.883  -0.772  1.00  0.00    -0.374 OA
BRANCH  32  33
ATOM     33  C   UNL     1       6.891   2.050  -0.926  1.00  0.00     0.202 C 
BRANCH  33  34
ATOM     34  C   UNL     1       5.376   1.885  -0.958  1.00  0.00     0.261 C 
BRANCH  34  35
ATOM     35  O   UNL     1       4.785   1.662   0.341  1.00  0.00    -0.460 OA
BRANCH  35  36
ATOM     36  C   UNL     1       3.965   0.581   0.443  1.00  0.00     0.338 C 
ATOM     37  O   UNL     1       4.049  -0.455  -0.196  1.00  0.00    -0.246 OA
BRANCH  36  38
ATOM     38  C   UNL     1       2.728   0.977   1.155  1.00  0.00     0.060 A 
ATOM     39  C   UNL     1       1.558   0.386   0.675  1.00  0.00     0.016 A 
ATOM     40  C   UNL     1       2.669   2.117   1.966  1.00  0.00     0.016 A 
ATOM     41  C   UNL     1       0.366   1.078   0.790  1.00  0.00     0.010 A 
ATOM     42  C   UNL     1       1.459   2.805   2.087  1.00  0.00     0.010 A 
ATOM     43  C   UNL     1       0.333   2.338   1.408  1.00  0.00    -0.014 A 
BRANCH  43  44
ATOM     44  C   UNL     1      -0.970   3.014   1.467  1.00  0.00     0.031 A 
ATOM     45  C   UNL     1      -1.925   2.244   2.259  1.00  0.00     0.074 A 
ATOM     46  C   UNL     1      -1.368   4.148   0.847  1.00  0.00     0.049 A 
ATOM     47  N   UNL     1      -2.897   1.552   1.771  1.00  0.00    -0.248 NA
ATOM     48  C   UNL     1      -1.669   2.037   3.688  1.00  0.00     0.031 C 
ATOM     49  C   UNL     1      -0.513   4.981   0.033  1.00  0.00     0.029 A 
ATOM     50  N   UNL     1      -2.566   4.830   0.800  1.00  0.00    -0.354 N 
ATOM     51  C   UNL     1      -3.594   1.137   2.883  1.00  0.00     0.074 A 
ATOM     52  C   UNL     1      -2.687   1.232   3.999  1.00  0.00     0.031 C 
ATOM     53  C   UNL     1      -1.105   6.150  -0.266  1.00  0.00     0.029 A 
ATOM     54  C   UNL     1      -2.468   6.101   0.221  1.00  0.00     0.049 A 
ATOM     55  H   UNL     1      -3.411   4.458   1.143  1.00  0.00     0.167 HD
ATOM     56  C   UNL     1      -4.947   1.186   2.842  1.00  0.00     0.034 A 
ATOM     57  C   UNL     1      -3.401   7.067   0.011  1.00  0.00     0.034 A 
ATOM     58  C   UNL     1      -5.460   1.145   1.490  1.00  0.00     0.049 A 
ATOM     59  C   UNL     1      -4.691   6.398  -0.218  1.00  0.00     0.074 A 
ATOM     60  C   UNL     1      -5.558   0.192   0.498  1.00  0.00     0.029 A 
ATOM     61  N   UNL     1      -5.676   2.362   0.893  1.00  0.00    -0.354 N 
ATOM     62  N   UNL     1      -4.943   5.694  -1.287  1.00  0.00    -0.248 NA
ATOM     63  C   UNL     1      -5.622   6.218   0.888  1.00  0.00     0.031 C 
ATOM     64  C   UNL     1      -5.744   0.888  -0.733  1.00  0.00     0.029 A 
ATOM     65  C   UNL     1      -5.769   2.254  -0.477  1.00  0.00     0.049 A 
ATOM     66  H   UNL     1      -5.755   3.211   1.385  1.00  0.00     0.167 HD
ATOM     67  C   UNL     1      -5.767   4.688  -0.835  1.00  0.00     0.074 A 
ATOM     68  C   UNL     1      -6.284   5.146   0.446  1.00  0.00     0.031 C 
ATOM     69  C   UNL     1      -5.662   3.426  -1.333  1.00  0.00     0.034 A 
BRANCH  56  70
ATOM     70  C   UNL     1      -5.750   1.727   3.992  1.00  0.00     0.023 A 
ATOM     71  C   UNL     1      -7.135   1.525   3.971  1.00  0.00     0.031 A 
ATOM     72  C   UNL     1      -5.264   2.645   4.958  1.00  0.00     0.131 A 
ATOM     73  C   UNL     1      -7.967   2.220   4.864  1.00  0.00     0.055 A 
ATOM     74  C   UNL     1      -6.086   3.274   5.891  1.00  0.00     0.041 A 
ATOM     75  F   UNL     1      -3.992   3.063   4.983  1.00  0.00    -0.206 F 
ATOM     76  C   UNL     1      -7.452   3.076   5.837  1.00  0.00     0.022 A 
BRANCH  73  77
ATOM     77  S   UNL     1      -9.755   2.093   4.639  1.00  0.00     0.124 S 
ATOM     78  O   UNL     1      -9.914   2.535   3.259  1.00  0.00    -0.237 OA
ATOM     79  O   UNL     1      -9.987   0.675   4.895  1.00  0.00    -0.237 OA
ATOM     80  O   UNL     1     -10.286   3.003   5.652  1.00  0.00    -0.744 OA
ENDBRANCH  73  77
ENDBRANCH  56  70
BRANCH  57  81
ATOM     81  C   UNL     1      -3.208   8.543  -0.054  1.00  0.00     0.023 A 
ATOM     82  C   UNL     1      -4.138   9.428  -0.640  1.00  0.00     0.031 A 
ATOM     83  C   UNL     1      -2.178   9.130   0.711  1.00  0.00     0.131 A 
ATOM     84  C   UNL     1      -4.013  10.826  -0.449  1.00  0.00     0.055 A 
ATOM     85  C   UNL     1      -2.058  10.510   0.888  1.00  0.00     0.041 A 
ATOM     86  F   UNL     1      -1.306   8.368   1.388  1.00  0.00    -0.206 F 
ATOM     87  C   UNL     1      -2.977  11.366   0.311  1.00  0.00     0.022 A 
BRANCH  84  88
ATOM     88  S   UNL     1      -5.298  11.967  -1.053  1.00  0.00     0.124 S 
ATOM     89  O   UNL     1      -4.998  12.048  -2.477  1.00  0.00    -0.237 OA
ATOM     90  O   UNL     1      -6.530  11.280  -0.683  1.00  0.00    -0.237 OA
ATOM     91  O   UNL     1      -5.041  13.197  -0.300  1.00  0.00    -0.744 OA
ENDBRANCH  84  88
ENDBRANCH  57  81
BRANCH  69  92
ATOM     92  C   UNL     1      -5.374   3.272  -2.807  1.00  0.00     0.023 A 
ATOM     93  C   UNL     1      -4.206   3.684  -3.489  1.00  0.00     0.031 A 
ATOM     94  C   UNL     1      -6.391   2.659  -3.567  1.00  0.00     0.131 A 
ATOM     95  C   UNL     1      -4.097   3.458  -4.879  1.00  0.00     0.055 A 
ATOM     96  C   UNL     1      -6.271   2.428  -4.935  1.00  0.00     0.041 A 
ATOM     97  F   UNL     1      -7.534   2.265  -2.981  1.00  0.00    -0.206 F 
ATOM     98  C   UNL     1      -5.121   2.828  -5.596  1.00  0.00     0.022 A 
BRANCH  95  99
ATOM     99  S   UNL     1      -2.658   4.003  -5.858  1.00  0.00     0.124 S 
ATOM    100  O   UNL     1      -2.099   5.106  -5.086  1.00  0.00    -0.237 OA
ATOM    101  O   UNL     1      -1.876   2.771  -5.935  1.00  0.00    -0.237 OA
ATOM    102  O   UNL     1      -3.265   4.400  -7.131  1.00  0.00    -0.744 OA
ENDBRANCH  95  99
ENDBRANCH  69  92
ENDBRANCH  43  44
ENDBRANCH  36  38
ENDBRANCH  35  36
ENDBRANCH  34  35
ENDBRANCH  33  34
ENDBRANCH  32  33
ENDBRANCH   1  32
TORSDOF 22
