REMARK SMILES O=C(CCn1cc(/C=C2/[NH+]=C(S)N(c3ccccc3)C2=O)c(-c2ccc(Br)cc2)n1)OCCOCCOC(=O)c1ccc(-c2c3nc(c(-c4cc(S(=O)(=O)[O-])ccc4F)c4ccc([nH]4)c(-c4cc(S(=O)(=O)[O-])ccc4F)c4nc(c(-c5cc(S(=O)(=O)[O-])ccc5F)c5ccc2[nH]5)C=C4)C=C3)cc1
REMARK SMILES IDX 33 1 32 2 31 3 2 4 1 5 3 6 4 7 5 8 6 9 30 10 7 11 22 12 8 13
REMARK SMILES IDX 9 14 10 15 20 16 11 17 13 19 21 20 12 21 14 23 15 24 19 25
REMARK SMILES IDX 16 26 18 27 17 28 23 29 24 30 29 31 25 32 28 33 26 34 27 35
REMARK SMILES IDX 34 36 35 37 36 38 37 39 38 40 39 41 40 42 41 43 102 44 42 45
REMARK SMILES IDX 101 46 43 47 44 48 45 49 95 50 46 51 100 52 94 53 96 54
REMARK SMILES IDX 47 55 99 56 93 57 92 58 48 60 80 61 60 62 79 63 61 64 64 65
REMARK SMILES IDX 78 66 97 67 62 68 63 69 77 71 98 72 65 73 49 74 50 75 58 76
REMARK SMILES IDX 51 77 57 78 59 79 56 80 52 81 53 82 54 83 55 84 81 85 82 86
REMARK SMILES IDX 90 87 83 88 89 89 91 90 88 91 84 92 85 93 86 94 87 95 66 96
REMARK SMILES IDX 67 97 75 98 68 99 74 100 76 101 73 102 69 103 70 104 71 105
REMARK SMILES IDX 72 106
REMARK H PARENT 10 18 12 22 96 59 64 70
REMARK Flexibility Score: inf
ROOT
ATOM      1  C   UNL     1       4.061  -1.320  -0.494  1.00  0.00     0.202 C 
ENDROOT
BRANCH   1   2
ATOM      2  C   UNL     1       3.250  -0.884   0.731  1.00  0.00     0.261 C 
BRANCH   2   3
ATOM      3  O   UNL     1       2.181   0.037   0.501  1.00  0.00    -0.463 OA
BRANCH   3   4
ATOM      4  C   UNL     1       2.397   1.360   0.387  1.00  0.00     0.307 C 
ATOM      5  O   UNL     1       1.551   2.154   0.801  1.00  0.00    -0.252 OA
BRANCH   4   6
ATOM      6  C   UNL     1       3.588   1.858  -0.388  1.00  0.00     0.146 C 
BRANCH   6   7
ATOM      7  C   UNL     1       4.607   2.633   0.444  1.00  0.00     0.156 C 
BRANCH   7   8
ATOM      8  N   UNL     1       5.637   1.874   1.139  1.00  0.00    -0.271 N 
ATOM      9  C   UNL     1       6.486   2.321   2.118  1.00  0.00     0.117 A 
ATOM     10  N   UNL     1       5.803   0.577   0.892  1.00  0.00    -0.172 NA
ATOM     11  C   UNL     1       7.133   1.199   2.603  1.00  0.00     0.025 A 
ATOM     12  C   UNL     1       6.548   0.110   1.898  1.00  0.00     0.100 A 
BRANCH  11  13
ATOM     13  C   UNL     1       8.001   1.145   3.736  1.00  0.00     0.072 C 
ATOM     14  C   UNL     1       8.951   0.231   3.999  1.00  0.00     0.217 C 
ATOM     15  N   UNL     1       9.480   0.039   5.250  1.00  0.00    -0.228 N 
ATOM     16  C   UNL     1       9.483  -0.844   3.095  1.00  0.00     0.386 C 
ATOM     17  C   UNL     1      10.022  -1.142   5.181  1.00  0.00     0.321 C 
ATOM     18  H   UNL     1       9.456   0.652   6.020  1.00  0.00     0.313 HD
ATOM     19  N   UNL     1       9.953  -1.794   3.978  1.00  0.00    -0.149 N 
ATOM     20  O   UNL     1       9.561  -0.760   1.886  1.00  0.00    -0.236 OA
BRANCH  17  21
ATOM     21  S   UNL     1      10.895  -1.720   6.564  1.00  0.00    -0.055 SA
ATOM     22  H   UNL     1      10.758  -0.836   7.588  1.00  0.00     0.116 HD
ENDBRANCH  17  21
BRANCH  19  23
ATOM     23  C   UNL     1      10.248  -3.151   3.620  1.00  0.00     0.137 A 
ATOM     24  C   UNL     1      10.261  -4.191   4.567  1.00  0.00     0.052 A 
ATOM     25  C   UNL     1      10.424  -3.535   2.278  1.00  0.00     0.052 A 
ATOM     26  C   UNL     1      10.492  -5.527   4.204  1.00  0.00     0.004 A 
ATOM     27  C   UNL     1      10.625  -4.874   1.906  1.00  0.00     0.004 A 
ATOM     28  C   UNL     1      10.671  -5.870   2.871  1.00  0.00     0.000 A 
ENDBRANCH  19  23
ENDBRANCH  11  13
BRANCH  12  29
ATOM     29  C   UNL     1       6.519  -1.307   2.282  1.00  0.00     0.003 A 
ATOM     30  C   UNL     1       6.040  -1.636   3.563  1.00  0.00     0.011 A 
ATOM     31  C   UNL     1       6.975  -2.332   1.446  1.00  0.00     0.011 A 
ATOM     32  C   UNL     1       6.069  -2.951   4.025  1.00  0.00     0.016 A 
ATOM     33  C   UNL     1       7.008  -3.654   1.912  1.00  0.00     0.016 A 
ATOM     34  C   UNL     1       6.563  -3.955   3.199  1.00  0.00     0.018 A 
ATOM     35  Br  UNL     1       6.639  -5.730   3.843  1.00  0.00    -0.051 Br
ENDBRANCH  12  29
ENDBRANCH   7   8
ENDBRANCH   6   7
ENDBRANCH   4   6
ENDBRANCH   3   4
ENDBRANCH   2   3
ENDBRANCH   1   2
BRANCH   1  36
ATOM     36  O   UNL     1       3.636  -0.947  -1.800  1.00  0.00    -0.374 OA
BRANCH  36  37
ATOM     37  C   UNL     1       2.321  -1.235  -2.243  1.00  0.00     0.202 C 
BRANCH  37  38
ATOM     38  C   UNL     1       2.116  -2.648  -2.758  1.00  0.00     0.261 C 
BRANCH  38  39
ATOM     39  O   UNL     1       2.263  -3.541  -1.673  1.00  0.00    -0.460 OA
BRANCH  39  40
ATOM     40  C   UNL     1       3.511  -4.044  -1.547  1.00  0.00     0.338 C 
ATOM     41  O   UNL     1       4.455  -3.902  -2.298  1.00  0.00    -0.246 OA
BRANCH  40  42
ATOM     42  C   UNL     1       3.567  -4.769  -0.266  1.00  0.00     0.060 A 
ATOM     43  C   UNL     1       4.713  -5.545  -0.126  1.00  0.00     0.016 A 
ATOM     44  C   UNL     1       2.357  -5.056   0.380  1.00  0.00     0.016 A 
ATOM     45  C   UNL     1       4.507  -6.850   0.203  1.00  0.00     0.010 A 
ATOM     46  C   UNL     1       2.145  -6.362   0.694  1.00  0.00     0.010 A 
ATOM     47  C   UNL     1       3.189  -7.245   0.439  1.00  0.00    -0.014 A 
BRANCH  47  48
ATOM     48  C   UNL     1       2.913  -8.655   0.436  1.00  0.00     0.031 A 
ATOM     49  C   UNL     1       3.462  -9.276   1.653  1.00  0.00     0.074 A 
ATOM     50  C   UNL     1       2.177  -9.192  -0.555  1.00  0.00     0.049 A 
ATOM     51  N   UNL     1       4.450 -10.100   1.741  1.00  0.00    -0.248 NA
ATOM     52  C   UNL     1       3.073  -8.667   2.942  1.00  0.00     0.031 C 
ATOM     53  C   UNL     1       1.477  -8.515  -1.654  1.00  0.00     0.029 A 
ATOM     54  N   UNL     1       1.785 -10.477  -0.706  1.00  0.00    -0.354 N 
ATOM     55  C   UNL     1       4.596 -10.325   3.103  1.00  0.00     0.074 A 
ATOM     56  C   UNL     1       3.965  -9.220   3.759  1.00  0.00     0.031 C 
ATOM     57  C   UNL     1       0.552  -9.353  -2.178  1.00  0.00     0.029 A 
ATOM     58  C   UNL     1       0.680 -10.649  -1.538  1.00  0.00     0.049 A 
ATOM     59  H   UNL     1       2.242 -11.230  -0.265  1.00  0.00     0.167 HD
ATOM     60  C   UNL     1       4.882 -11.572   3.559  1.00  0.00     0.034 A 
ATOM     61  C   UNL     1      -0.127 -11.746  -1.535  1.00  0.00     0.034 A 
ATOM     62  C   UNL     1       5.517 -12.355   2.517  1.00  0.00     0.049 A 
ATOM     63  C   UNL     1       0.676 -12.838  -0.902  1.00  0.00     0.074 A 
ATOM     64  C   UNL     1       6.665 -12.181   1.766  1.00  0.00     0.029 A 
ATOM     65  N   UNL     1       4.744 -13.255   1.809  1.00  0.00    -0.354 N 
ATOM     66  N   UNL     1       1.775 -13.308  -1.439  1.00  0.00    -0.248 NA
ATOM     67  C   UNL     1       0.593 -12.989   0.548  1.00  0.00     0.031 C 
ATOM     68  C   UNL     1       6.303 -12.572   0.443  1.00  0.00     0.029 A 
ATOM     69  C   UNL     1       4.995 -13.064   0.469  1.00  0.00     0.049 A 
ATOM     70  H   UNL     1       4.124 -13.915   2.195  1.00  0.00     0.167 HD
ATOM     71  C   UNL     1       2.678 -13.428  -0.389  1.00  0.00     0.074 A 
ATOM     72  C   UNL     1       1.872 -13.274   0.823  1.00  0.00     0.031 C 
ATOM     73  C   UNL     1       4.029 -13.319  -0.588  1.00  0.00     0.034 A 
BRANCH  60  74
ATOM     74  C   UNL     1       4.178 -12.186   4.753  1.00  0.00     0.023 A 
ATOM     75  C   UNL     1       4.486 -13.528   5.025  1.00  0.00     0.031 A 
ATOM     76  C   UNL     1       3.047 -11.670   5.436  1.00  0.00     0.131 A 
ATOM     77  C   UNL     1       3.626 -14.320   5.801  1.00  0.00     0.055 A 
ATOM     78  C   UNL     1       2.225 -12.450   6.250  1.00  0.00     0.041 A 
ATOM     79  F   UNL     1       2.616 -10.411   5.317  1.00  0.00    -0.206 F 
ATOM     80  C   UNL     1       2.489 -13.795   6.406  1.00  0.00     0.022 A 
BRANCH  77  81
ATOM     81  S   UNL     1       3.932 -16.100   5.846  1.00  0.00     0.124 S 
ATOM     82  O   UNL     1       4.014 -16.416   4.424  1.00  0.00    -0.237 OA
ATOM     83  O   UNL     1       5.181 -16.165   6.595  1.00  0.00    -0.237 OA
ATOM     84  O   UNL     1       2.758 -16.625   6.538  1.00  0.00    -0.744 OA
ENDBRANCH  77  81
ENDBRANCH  60  74
BRANCH  61  85
ATOM     85  C   UNL     1      -1.622 -11.716  -1.594  1.00  0.00     0.023 A 
ATOM     86  C   UNL     1      -2.414 -12.826  -1.965  1.00  0.00     0.031 A 
ATOM     87  C   UNL     1      -2.319 -10.598  -1.074  1.00  0.00     0.131 A 
ATOM     88  C   UNL     1      -3.827 -12.774  -1.829  1.00  0.00     0.055 A 
ATOM     89  C   UNL     1      -3.709 -10.552  -0.947  1.00  0.00     0.041 A 
ATOM     90  F   UNL     1      -1.664  -9.530  -0.593  1.00  0.00    -0.206 F 
ATOM     91  C   UNL     1      -4.470 -11.644  -1.319  1.00  0.00     0.022 A 
BRANCH  88  92
ATOM     92  S   UNL     1      -4.863 -14.215  -2.256  1.00  0.00     0.124 S 
ATOM     93  O   UNL     1      -4.683 -14.311  -3.700  1.00  0.00    -0.237 OA
ATOM     94  O   UNL     1      -4.269 -15.279  -1.455  1.00  0.00    -0.237 OA
ATOM     95  O   UNL     1      -6.205 -13.810  -1.833  1.00  0.00    -0.744 OA
ENDBRANCH  88  92
ENDBRANCH  61  85
BRANCH  73  96
ATOM     96  C   UNL     1       4.551 -13.271  -2.016  1.00  0.00     0.023 A 
ATOM     97  C   UNL     1       4.226 -12.281  -2.977  1.00  0.00     0.031 A 
ATOM     98  C   UNL     1       5.543 -14.204  -2.362  1.00  0.00     0.131 A 
ATOM     99  C   UNL     1       4.886 -12.262  -4.226  1.00  0.00     0.055 A 
ATOM    100  C   UNL     1       6.208 -14.168  -3.587  1.00  0.00     0.041 A 
ATOM    101  F   UNL     1       5.920 -15.150  -1.486  1.00  0.00    -0.206 F 
ATOM    102  C   UNL     1       5.878 -13.199  -4.527  1.00  0.00     0.022 A 
BRANCH  99 103
ATOM    103  S   UNL     1       4.458 -11.025  -5.498  1.00  0.00     0.124 S 
ATOM    104  O   UNL     1       3.001 -11.066  -5.534  1.00  0.00    -0.237 OA
ATOM    105  O   UNL     1       5.051  -9.803  -4.962  1.00  0.00    -0.237 OA
ATOM    106  O   UNL     1       5.111 -11.538  -6.705  1.00  0.00    -0.744 OA
ENDBRANCH  99 103
ENDBRANCH  73  96
ENDBRANCH  47  48
ENDBRANCH  40  42
ENDBRANCH  39  40
ENDBRANCH  38  39
ENDBRANCH  37  38
ENDBRANCH  36  37
ENDBRANCH   1  36
TORSDOF 23
