REMARK SMILES NS(=O)(=O)c1ccc(-c2cc(Cl)cc3c2O[C@@H](C(F)(F)F)C(C(=O)OCCOCCOC(=O)c2ccc(-c4c5nc(c(-c6cc(S(=O)(=O)[O-])ccc6F)c6ccc([nH]6)c(-c6cc(S(=O)(=O)[O-])ccc6F)c6nc(c(-c7cc(S(=O)(=O)[O-])ccc7F)c7ccc4[nH]7)C=C6)C=C5)cc2)=C3)cc1
REMARK SMILES IDX 28 1 27 2 26 3 25 4 23 5 24 6 22 7 9 8 10 9 15 10 11 11
REMARK SMILES IDX 14 12 16 13 12 14 13 15 97 16 17 17 8 18 5 19 6 20 99 21
REMARK SMILES IDX 7 22 98 23 2 24 3 25 4 26 1 27 18 30 19 31 20 32 21 33 29 34
REMARK SMILES IDX 30 35 31 36 32 37 33 38 34 39 35 40 96 41 36 42 95 43 37 44
REMARK SMILES IDX 38 45 39 46 89 47 40 48 94 49 88 50 90 51 41 52 93 53 87 54
REMARK SMILES IDX 86 55 42 57 74 58 54 59 73 60 55 61 58 62 72 63 91 64 56 65
REMARK SMILES IDX 57 66 71 68 92 69 59 70 43 71 44 72 52 73 45 74 51 75 53 76
REMARK SMILES IDX 50 77 46 78 47 79 48 80 49 81 75 82 76 83 84 84 77 85 83 86
REMARK SMILES IDX 85 87 82 88 78 89 79 90 80 91 81 92 60 93 61 94 69 95 62 96
REMARK SMILES IDX 68 97 70 98 67 99 63 100 64 101 65 102 66 103
REMARK H PARENT 1 28 1 29 90 56 58 67
REMARK Flexibility Score: inf
ROOT
ATOM      1  O   UNL     1       3.700   6.212  -9.938  1.00  0.00    -0.374 OA
ENDROOT
BRANCH   1   2
ATOM      2  C   UNL     1       3.566   7.470 -10.585  1.00  0.00     0.202 C 
BRANCH   2   3
ATOM      3  C   UNL     1       3.032   8.659  -9.770  1.00  0.00     0.261 C 
BRANCH   3   4
ATOM      4  O   UNL     1       3.154   8.477  -8.349  1.00  0.00    -0.460 OA
BRANCH   4   5
ATOM      5  C   UNL     1       2.102   8.885  -7.615  1.00  0.00     0.338 C 
ATOM      6  O   UNL     1       1.130   9.494  -8.045  1.00  0.00    -0.246 OA
BRANCH   5   7
ATOM      7  C   UNL     1       2.135   8.370  -6.226  1.00  0.00     0.087 C 
ATOM      8  C   UNL     1       2.748   4.291  -5.700  1.00  0.00     0.026 A 
ATOM      9  C   UNL     1       2.390   3.715  -6.940  1.00  0.00     0.033 A 
ATOM     10  C   UNL     1       2.529   5.682  -5.609  1.00  0.00     0.135 A 
ATOM     11  C   UNL     1       1.525   4.378  -7.811  1.00  0.00     0.042 A 
ATOM     12  C   UNL     1       1.458   6.244  -6.321  1.00  0.00     0.019 A 
ATOM     13  O   UNL     1       3.617   6.540  -5.329  1.00  0.00    -0.475 OA
ATOM     14  Cl  UNL     1       1.042   3.615  -9.272  1.00  0.00    -0.084 Cl
ATOM     15  C   UNL     1       0.975   5.601  -7.454  1.00  0.00     0.032 A 
ATOM     16  C   UNL     1       1.042   7.623  -5.995  1.00  0.00     0.027 C 
ATOM     17  C   UNL     1       3.338   8.002  -5.384  1.00  0.00     0.316 C 
BRANCH   8  18
ATOM     18  C   UNL     1       2.525   3.343  -4.537  1.00  0.00    -0.015 A 
ATOM     19  C   UNL     1       1.470   1.295  -2.849  1.00  0.00     0.082 A 
ATOM     20  C   UNL     1       2.499   1.005  -3.744  1.00  0.00     0.022 A 
ATOM     21  C   UNL     1       0.996   2.603  -2.743  1.00  0.00     0.022 A 
ATOM     22  C   UNL     1       3.030   2.022  -4.560  1.00  0.00     0.010 A 
ATOM     23  C   UNL     1       1.527   3.612  -3.571  1.00  0.00     0.010 A 
BRANCH  19  24
ATOM     24  S   UNL     1       0.667  -0.013  -1.958  1.00  0.00     0.238 S 
ATOM     25  O   UNL     1       1.204  -1.289  -2.381  1.00  0.00    -0.207 OA
ATOM     26  O   UNL     1      -0.752   0.243  -1.911  1.00  0.00    -0.207 OA
BRANCH  24  27
ATOM     27  N   UNL     1       1.225   0.201  -0.389  1.00  0.00    -0.225 NA
ATOM     28  H   UNL     1       0.818  -0.511   0.217  1.00  0.00     0.137 HD
ATOM     29  H   UNL     1       0.954   1.126  -0.056  1.00  0.00     0.137 HD
ENDBRANCH  24  27
ENDBRANCH  19  24
ENDBRANCH   8  18
BRANCH  17  30
ATOM     30  C   UNL     1       4.554   8.945  -5.526  1.00  0.00     0.430 C 
ATOM     31  F   UNL     1       4.263  10.131  -4.920  1.00  0.00    -0.167 F 
ATOM     32  F   UNL     1       5.647   8.456  -4.897  1.00  0.00    -0.167 F 
ATOM     33  F   UNL     1       4.912   9.235  -6.789  1.00  0.00    -0.167 F 
ENDBRANCH  17  30
ENDBRANCH   5   7
ENDBRANCH   4   5
ENDBRANCH   3   4
ENDBRANCH   2   3
ENDBRANCH   1   2
BRANCH   1  34
ATOM     34  C   UNL     1       4.668   6.089  -8.898  1.00  0.00     0.202 C 
BRANCH  34  35
ATOM     35  C   UNL     1       6.152   6.240  -9.244  1.00  0.00     0.261 C 
BRANCH  35  36
ATOM     36  O   UNL     1       6.497   7.546  -9.727  1.00  0.00    -0.460 OA
BRANCH  36  37
ATOM     37  C   UNL     1       6.889   7.581 -11.025  1.00  0.00     0.338 C 
ATOM     38  O   UNL     1       6.942   6.648 -11.807  1.00  0.00    -0.246 OA
BRANCH  37  39
ATOM     39  C   UNL     1       7.104   8.979 -11.429  1.00  0.00     0.060 A 
ATOM     40  C   UNL     1       6.334   9.502 -12.476  1.00  0.00     0.016 A 
ATOM     41  C   UNL     1       8.125   9.729 -10.845  1.00  0.00     0.016 A 
ATOM     42  C   UNL     1       6.608  10.777 -12.969  1.00  0.00     0.010 A 
ATOM     43  C   UNL     1       8.403  11.000 -11.347  1.00  0.00     0.010 A 
ATOM     44  C   UNL     1       7.668  11.516 -12.431  1.00  0.00    -0.014 A 
BRANCH  44  45
ATOM     45  C   UNL     1       8.144  12.752 -13.095  1.00  0.00     0.031 A 
ATOM     46  C   UNL     1       9.389  12.676 -13.935  1.00  0.00     0.074 A 
ATOM     47  C   UNL     1       7.500  13.921 -12.927  1.00  0.00     0.049 A 
ATOM     48  N   UNL     1      10.099  13.638 -14.459  1.00  0.00    -0.248 NA
ATOM     49  C   UNL     1       9.907  11.325 -14.203  1.00  0.00     0.031 C 
ATOM     50  C   UNL     1       6.250  14.098 -12.191  1.00  0.00     0.029 A 
ATOM     51  N   UNL     1       7.826  15.185 -13.349  1.00  0.00    -0.354 N 
ATOM     52  C   UNL     1      11.159  13.013 -15.107  1.00  0.00     0.074 A 
ATOM     53  C   UNL     1      11.015  11.591 -14.876  1.00  0.00     0.031 C 
ATOM     54  C   UNL     1       5.924  15.402 -12.195  1.00  0.00     0.029 A 
ATOM     55  C   UNL     1       6.970  16.156 -12.884  1.00  0.00     0.049 A 
ATOM     56  H   UNL     1       8.598  15.378 -13.928  1.00  0.00     0.167 HD
ATOM     57  C   UNL     1      12.156  13.577 -15.833  1.00  0.00     0.034 A 
ATOM     58  C   UNL     1       7.050  17.500 -12.970  1.00  0.00     0.034 A 
ATOM     59  C   UNL     1      12.284  14.999 -16.036  1.00  0.00     0.049 A 
ATOM     60  C   UNL     1       8.230  18.115 -13.689  1.00  0.00     0.074 A 
ATOM     61  C   UNL     1      13.255  15.685 -16.742  1.00  0.00     0.029 A 
ATOM     62  N   UNL     1      11.414  15.955 -15.525  1.00  0.00    -0.354 N 
ATOM     63  N   UNL     1       9.244  17.519 -14.278  1.00  0.00    -0.248 NA
ATOM     64  C   UNL     1       8.276  19.581 -13.759  1.00  0.00     0.031 C 
ATOM     65  C   UNL     1      13.017  17.055 -16.596  1.00  0.00     0.029 A 
ATOM     66  C   UNL     1      11.842  17.224 -15.880  1.00  0.00     0.049 A 
ATOM     67  H   UNL     1      10.611  15.759 -14.990  1.00  0.00     0.167 HD
ATOM     68  C   UNL     1      10.014  18.539 -14.833  1.00  0.00     0.074 A 
ATOM     69  C   UNL     1       9.352  19.784 -14.506  1.00  0.00     0.031 C 
ATOM     70  C   UNL     1      11.159  18.455 -15.558  1.00  0.00     0.034 A 
BRANCH  57  71
ATOM     71  C   UNL     1      13.205  12.657 -16.408  1.00  0.00     0.023 A 
ATOM     72  C   UNL     1      12.885  11.674 -17.361  1.00  0.00     0.031 A 
ATOM     73  C   UNL     1      14.541  12.745 -15.978  1.00  0.00     0.131 A 
ATOM     74  C   UNL     1      13.870  10.775 -17.797  1.00  0.00     0.055 A 
ATOM     75  C   UNL     1      15.534  11.903 -16.482  1.00  0.00     0.041 A 
ATOM     76  F   UNL     1      14.903  13.645 -15.050  1.00  0.00    -0.206 F 
ATOM     77  C   UNL     1      15.198  10.900 -17.386  1.00  0.00     0.022 A 
BRANCH  74  78
ATOM     78  S   UNL     1      13.358   9.349 -18.794  1.00  0.00     0.124 S 
ATOM     79  O   UNL     1      12.406   8.692 -17.902  1.00  0.00    -0.237 OA
ATOM     80  O   UNL     1      12.791   9.980 -19.980  1.00  0.00    -0.237 OA
ATOM     81  O   UNL     1      14.605   8.618 -19.012  1.00  0.00    -0.744 OA
ENDBRANCH  74  78
ENDBRANCH  57  71
BRANCH  58  82
ATOM     82  C   UNL     1       6.016  18.367 -12.334  1.00  0.00     0.023 A 
ATOM     83  C   UNL     1       5.239  19.244 -13.107  1.00  0.00     0.031 A 
ATOM     84  C   UNL     1       5.838  18.387 -10.939  1.00  0.00     0.131 A 
ATOM     85  C   UNL     1       4.367  20.146 -12.479  1.00  0.00     0.055 A 
ATOM     86  C   UNL     1       4.919  19.240 -10.323  1.00  0.00     0.041 A 
ATOM     87  F   UNL     1       6.557  17.574 -10.149  1.00  0.00    -0.206 F 
ATOM     88  C   UNL     1       4.189  20.139 -11.094  1.00  0.00     0.022 A 
BRANCH  85  89
ATOM     89  S   UNL     1       3.556  21.413 -13.492  1.00  0.00     0.124 S 
ATOM     90  O   UNL     1       4.702  22.083 -14.097  1.00  0.00    -0.237 OA
ATOM     91  O   UNL     1       2.738  20.605 -14.390  1.00  0.00    -0.237 OA
ATOM     92  O   UNL     1       2.813  22.205 -12.516  1.00  0.00    -0.744 OA
ENDBRANCH  85  89
ENDBRANCH  58  82
BRANCH  70  93
ATOM     93  C   UNL     1      11.719  19.736 -16.129  1.00  0.00     0.023 A 
ATOM     94  C   UNL     1      12.252  20.752 -15.318  1.00  0.00     0.031 A 
ATOM     95  C   UNL     1      11.736  19.926 -17.524  1.00  0.00     0.131 A 
ATOM     96  C   UNL     1      12.740  21.930 -15.905  1.00  0.00     0.055 A 
ATOM     97  C   UNL     1      12.279  21.072 -18.105  1.00  0.00     0.041 A 
ATOM     98  F   UNL     1      11.236  18.990 -18.346  1.00  0.00    -0.206 F 
ATOM     99  C   UNL     1      12.775  22.087 -17.294  1.00  0.00     0.022 A 
BRANCH  96 100
ATOM    100  S   UNL     1      13.257  23.295 -14.829  1.00  0.00     0.124 S 
ATOM    101  O   UNL     1      12.037  23.567 -14.076  1.00  0.00    -0.237 OA
ATOM    102  O   UNL     1      14.353  22.698 -14.072  1.00  0.00    -0.237 OA
ATOM    103  O   UNL     1      13.653  24.343 -15.768  1.00  0.00    -0.744 OA
ENDBRANCH  96 100
ENDBRANCH  70  93
ENDBRANCH  44  45
ENDBRANCH  37  39
ENDBRANCH  36  37
ENDBRANCH  35  36
ENDBRANCH  34  35
ENDBRANCH   1  34
TORSDOF 21
