REMARK SMILES Cc1ccnc(C(=O)c2[nH]c3ccc(OC(F)(F)F)cc3c2CC(=O)OCCOCCOC(=O)c2ccc(-c3c4nc(c(-c5cc(S(=O)(=O)[O-])ccc5F)c5ccc([nH]5)c(-c5cc(S(=O)(=O)[O-])ccc5F)c5nc(c(-c6cc(S(=O)(=O)[O-])ccc6F)c6ccc3[nH]6)C=C5)C=C4)cc2)c1
REMARK SMILES IDX 29 1 28 2 27 3 26 4 24 5 25 6 23 7 22 8 9 9 10 10 11 11
REMARK SMILES IDX 21 13 12 14 20 15 13 16 14 17 7 18 8 19 6 20 1 21 2 22 3 23
REMARK SMILES IDX 98 24 4 25 5 26 15 27 16 28 17 29 18 30 19 31 30 32 31 33
REMARK SMILES IDX 32 34 33 35 34 36 35 37 36 38 97 39 37 40 96 41 38 42 39 43
REMARK SMILES IDX 40 44 90 45 41 46 95 47 89 48 91 49 42 50 94 51 88 52 87 53
REMARK SMILES IDX 43 55 75 56 55 57 74 58 56 59 59 60 73 61 92 62 57 63 58 64
REMARK SMILES IDX 72 66 93 67 60 68 44 69 45 70 53 71 46 72 52 73 54 74 51 75
REMARK SMILES IDX 47 76 48 77 49 78 50 79 76 80 77 81 85 82 78 83 84 84 86 85
REMARK SMILES IDX 83 86 79 87 80 88 81 89 82 90 61 91 62 92 70 93 63 94 69 95
REMARK SMILES IDX 71 96 68 97 64 98 65 99 66 100 67 101
REMARK H PARENT 10 12 91 54 59 65
REMARK Flexibility Score: inf
ROOT
ATOM      1  O   UNL     1       5.902  -3.302   0.366  1.00  0.00    -0.374 OA
ENDROOT
BRANCH   1   2
ATOM      2  C   UNL     1       6.020  -4.723   0.309  1.00  0.00     0.202 C 
BRANCH   2   3
ATOM      3  C   UNL     1       5.353  -5.552   1.414  1.00  0.00     0.261 C 
BRANCH   3   4
ATOM      4  O   UNL     1       3.914  -5.419   1.451  1.00  0.00    -0.463 OA
BRANCH   4   5
ATOM      5  C   UNL     1       3.398  -5.034   2.650  1.00  0.00     0.310 C 
ATOM      6  O   UNL     1       4.073  -4.859   3.664  1.00  0.00    -0.252 OA
BRANCH   5   7
ATOM      7  C   UNL     1       1.891  -4.916   2.705  1.00  0.00     0.161 C 
BRANCH   7   8
ATOM      8  C   UNL     1       1.107  -4.819   1.422  1.00  0.00     0.000 A 
ATOM      9  C   UNL     1       0.821  -3.669   0.679  1.00  0.00     0.093 A 
ATOM     10  N   UNL     1       0.104  -4.085  -0.425  1.00  0.00    -0.352 N 
ATOM     11  C   UNL     1      -0.348  -5.373  -0.246  1.00  0.00     0.046 A 
ATOM     12  H   UNL     1      -0.061  -3.539  -1.227  1.00  0.00     0.167 HD
ATOM     13  C   UNL     1       0.288  -5.867   0.887  1.00  0.00     0.008 A 
ATOM     14  C   UNL     1      -1.266  -6.132  -0.983  1.00  0.00     0.030 A 
ATOM     15  C   UNL     1      -0.022  -7.174   1.314  1.00  0.00     0.057 A 
ATOM     16  C   UNL     1      -1.594  -7.411  -0.504  1.00  0.00     0.049 A 
ATOM     17  C   UNL     1      -0.996  -7.925   0.645  1.00  0.00     0.130 A 
BRANCH   9  18
ATOM     18  C   UNL     1       1.210  -2.298   0.997  1.00  0.00     0.227 C 
ATOM     19  O   UNL     1       2.078  -2.051   1.834  1.00  0.00    -0.285 OA
BRANCH  18  20
ATOM     20  C   UNL     1       0.518  -1.121   0.385  1.00  0.00     0.113 A 
ATOM     21  C   UNL     1      -2.960   0.287  -0.118  1.00  0.00     0.044 C 
ATOM     22  C   UNL     1      -1.468   0.141  -0.079  1.00  0.00    -0.047 A 
ATOM     23  C   UNL     1      -0.653   1.252  -0.311  1.00  0.00     0.023 A 
ATOM     24  C   UNL     1      -0.869  -1.071   0.284  1.00  0.00     0.036 A 
ATOM     25  C   UNL     1       0.720   1.103  -0.211  1.00  0.00     0.112 A 
ATOM     26  N   UNL     1       1.321  -0.057   0.117  1.00  0.00    -0.253 NA
ENDBRANCH  18  20
ENDBRANCH   9  18
BRANCH  17  27
ATOM     27  O   UNL     1      -1.264  -9.128   1.235  1.00  0.00    -0.406 OA
BRANCH  27  28
ATOM     28  C   UNL     1      -2.425  -9.825   0.823  1.00  0.00     0.573 C 
ATOM     29  F   UNL     1      -3.524  -9.039   0.894  1.00  0.00    -0.132 F 
ATOM     30  F   UNL     1      -2.291 -10.294  -0.434  1.00  0.00    -0.132 F 
ATOM     31  F   UNL     1      -2.619 -10.875   1.652  1.00  0.00    -0.132 F 
ENDBRANCH  27  28
ENDBRANCH  17  27
ENDBRANCH   7   8
ENDBRANCH   5   7
ENDBRANCH   4   5
ENDBRANCH   3   4
ENDBRANCH   2   3
ENDBRANCH   1   2
BRANCH   1  32
ATOM     32  C   UNL     1       4.599  -2.757   0.187  1.00  0.00     0.202 C 
BRANCH  32  33
ATOM     33  C   UNL     1       4.037  -2.714  -1.242  1.00  0.00     0.261 C 
BRANCH  33  34
ATOM     34  O   UNL     1       4.093  -3.976  -1.922  1.00  0.00    -0.460 OA
BRANCH  34  35
ATOM     35  C   UNL     1       5.013  -4.035  -2.917  1.00  0.00     0.338 C 
ATOM     36  O   UNL     1       5.689  -3.116  -3.358  1.00  0.00    -0.246 OA
BRANCH  35  37
ATOM     37  C   UNL     1       5.223  -5.437  -3.308  1.00  0.00     0.060 A 
ATOM     38  C   UNL     1       6.506  -5.973  -3.145  1.00  0.00     0.016 A 
ATOM     39  C   UNL     1       4.191  -6.204  -3.854  1.00  0.00     0.016 A 
ATOM     40  C   UNL     1       6.768  -7.281  -3.541  1.00  0.00     0.010 A 
ATOM     41  C   UNL     1       4.461  -7.512  -4.265  1.00  0.00     0.010 A 
ATOM     42  C   UNL     1       5.753  -8.050  -4.125  1.00  0.00    -0.014 A 
BRANCH  42  43
ATOM     43  C   UNL     1       6.070  -9.387  -4.676  1.00  0.00     0.031 A 
ATOM     44  C   UNL     1       6.287  -9.533  -6.155  1.00  0.00     0.074 A 
ATOM     45  C   UNL     1       6.175 -10.446  -3.853  1.00  0.00     0.049 A 
ATOM     46  N   UNL     1       6.517 -10.611  -6.856  1.00  0.00    -0.248 NA
ATOM     47  C   UNL     1       6.232  -8.295  -6.949  1.00  0.00     0.031 C 
ATOM     48  C   UNL     1       6.033 -10.396  -2.397  1.00  0.00     0.029 A 
ATOM     49  N   UNL     1       6.419 -11.769  -4.120  1.00  0.00    -0.354 N 
ATOM     50  C   UNL     1       6.628 -10.186  -8.176  1.00  0.00     0.074 A 
ATOM     51  C   UNL     1       6.412  -8.755  -8.179  1.00  0.00     0.031 C 
ATOM     52  C   UNL     1       6.188 -11.635  -1.901  1.00  0.00     0.029 A 
ATOM     53  C   UNL     1       6.389 -12.572  -3.003  1.00  0.00     0.049 A 
ATOM     54  H   UNL     1       6.598 -12.111  -5.026  1.00  0.00     0.167 HD
ATOM     55  C   UNL     1       6.888 -10.930  -9.280  1.00  0.00     0.034 A 
ATOM     56  C   UNL     1       6.482 -13.912  -2.893  1.00  0.00     0.034 A 
ATOM     57  C   UNL     1       7.090 -12.358  -9.246  1.00  0.00     0.049 A 
ATOM     58  C   UNL     1       6.669 -14.726  -4.153  1.00  0.00     0.074 A 
ATOM     59  C   UNL     1       7.392 -13.209 -10.294  1.00  0.00     0.029 A 
ATOM     60  N   UNL     1       6.991 -13.149  -8.108  1.00  0.00    -0.354 N 
ATOM     61  N   UNL     1       6.798 -14.311  -5.393  1.00  0.00    -0.248 NA
ATOM     62  C   UNL     1       6.722 -16.185  -3.998  1.00  0.00     0.031 C 
ATOM     63  C   UNL     1       7.387 -14.520  -9.806  1.00  0.00     0.029 A 
ATOM     64  C   UNL     1       7.172 -14.483  -8.438  1.00  0.00     0.049 A 
ATOM     65  H   UNL     1       6.818 -12.811  -7.200  1.00  0.00     0.167 HD
ATOM     66  C   UNL     1       6.974 -15.460  -6.161  1.00  0.00     0.074 A 
ATOM     67  C   UNL     1       6.958 -16.578  -5.241  1.00  0.00     0.031 C 
ATOM     68  C   UNL     1       7.134 -15.584  -7.504  1.00  0.00     0.034 A 
BRANCH  55  69
ATOM     69  C   UNL     1       6.905 -10.225 -10.614  1.00  0.00     0.023 A 
ATOM     70  C   UNL     1       7.867  -9.251 -10.934  1.00  0.00     0.031 A 
ATOM     71  C   UNL     1       5.935 -10.535 -11.585  1.00  0.00     0.131 A 
ATOM     72  C   UNL     1       7.805  -8.585 -12.168  1.00  0.00     0.055 A 
ATOM     73  C   UNL     1       5.924  -9.922 -12.839  1.00  0.00     0.041 A 
ATOM     74  F   UNL     1       4.975 -11.437 -11.327  1.00  0.00    -0.206 F 
ATOM     75  C   UNL     1       6.857  -8.933 -13.133  1.00  0.00     0.022 A 
BRANCH  72  76
ATOM     76  S   UNL     1       8.906  -7.171 -12.451  1.00  0.00     0.124 S 
ATOM     77  O   UNL     1       8.524  -6.277 -11.361  1.00  0.00    -0.237 OA
ATOM     78  O   UNL     1      10.229  -7.776 -12.349  1.00  0.00    -0.237 OA
ATOM     79  O   UNL     1       8.534  -6.708 -13.786  1.00  0.00    -0.744 OA
ENDBRANCH  72  76
ENDBRANCH  55  69
BRANCH  56  80
ATOM     80  C   UNL     1       6.350 -14.583  -1.566  1.00  0.00     0.023 A 
ATOM     81  C   UNL     1       7.390 -15.371  -1.047  1.00  0.00     0.031 A 
ATOM     82  C   UNL     1       5.154 -14.506  -0.829  1.00  0.00     0.131 A 
ATOM     83  C   UNL     1       7.196 -16.093   0.141  1.00  0.00     0.055 A 
ATOM     84  C   UNL     1       4.989 -15.175   0.386  1.00  0.00     0.041 A 
ATOM     85  F   UNL     1       4.122 -13.775  -1.280  1.00  0.00    -0.206 F 
ATOM     86  C   UNL     1       6.009 -15.988   0.869  1.00  0.00     0.022 A 
BRANCH  83  87
ATOM     87  S   UNL     1       8.479 -17.265   0.661  1.00  0.00     0.124 S 
ATOM     88  O   UNL     1       8.580 -18.131  -0.509  1.00  0.00    -0.237 OA
ATOM     89  O   UNL     1       9.614 -16.382   0.906  1.00  0.00    -0.237 OA
ATOM     90  O   UNL     1       7.907 -17.889   1.852  1.00  0.00    -0.744 OA
ENDBRANCH  83  87
ENDBRANCH  56  80
BRANCH  68  91
ATOM     91  C   UNL     1       7.330 -16.980  -8.043  1.00  0.00     0.023 A 
ATOM     92  C   UNL     1       6.307 -17.942  -7.984  1.00  0.00     0.031 A 
ATOM     93  C   UNL     1       8.557 -17.353  -8.620  1.00  0.00     0.131 A 
ATOM     94  C   UNL     1       6.548 -19.246  -8.440  1.00  0.00     0.055 A 
ATOM     95  C   UNL     1       8.768 -18.632  -9.135  1.00  0.00     0.041 A 
ATOM     96  F   UNL     1       9.570 -16.475  -8.701  1.00  0.00    -0.206 F 
ATOM     97  C   UNL     1       7.764 -19.592  -9.034  1.00  0.00     0.022 A 
BRANCH  94  98
ATOM     98  S   UNL     1       5.280 -20.512  -8.160  1.00  0.00     0.124 S 
ATOM     99  O   UNL     1       5.161 -20.505  -6.706  1.00  0.00    -0.237 OA
ATOM    100  O   UNL     1       4.138 -19.980  -8.896  1.00  0.00    -0.237 OA
ATOM    101  O   UNL     1       5.873 -21.722  -8.728  1.00  0.00    -0.744 OA
ENDBRANCH  94  98
ENDBRANCH  68  91
ENDBRANCH  42  43
ENDBRANCH  35  37
ENDBRANCH  34  35
ENDBRANCH  33  34
ENDBRANCH  32  33
ENDBRANCH   1  32
TORSDOF 22
