REMARK SMILES C=C(C)COc1ccc2nc(C)n(-c3cccc(C(=O)OCCOCCOC(=O)c4ccc(-c5c6nc(c(-c7cc(S(=O)(=O)[O-])ccc7F)c7ccc([nH]7)c(-c7cc(S(=O)(=O)[O-])ccc7F)c7nc(c(-c8cc(S(=O)(=O)[O-])ccc8F)c8ccc5[nH]8)C=C7)C=C6)cc4)c3)c(=O)c2c1
REMARK SMILES IDX 23 1 22 2 21 3 19 4 20 5 18 6 14 7 15 8 93 9 16 10 17 11
REMARK SMILES IDX 13 12 6 13 7 14 97 15 8 16 96 17 9 18 94 19 10 20 95 21
REMARK SMILES IDX 11 22 12 23 5 24 4 25 2 26 1 27 3 28 24 29 25 30 26 31 27 32
REMARK SMILES IDX 28 33 29 34 30 35 31 36 92 37 32 38 91 39 33 40 34 41 35 42
REMARK SMILES IDX 85 43 36 44 90 45 84 46 86 47 37 48 89 49 83 50 82 51 38 53
REMARK SMILES IDX 70 54 50 55 69 56 51 57 54 58 68 59 87 60 52 61 53 62 67 64
REMARK SMILES IDX 88 65 55 66 39 67 40 68 48 69 41 70 47 71 49 72 46 73 42 74
REMARK SMILES IDX 43 75 44 76 45 77 71 78 72 79 80 80 73 81 79 82 81 83 78 84
REMARK SMILES IDX 74 85 75 86 76 87 77 88 56 89 57 90 65 91 58 92 64 93 66 94
REMARK SMILES IDX 63 95 59 96 60 97 61 98 62 99
REMARK H PARENT 86 52 54 63
REMARK Flexibility Score: inf
ROOT
ATOM      1  C   UNL     1      -2.503  -9.877  -8.905  1.00  0.00     0.202 C 
ENDROOT
BRANCH   1   2
ATOM      2  C   UNL     1      -1.138  -9.986  -8.216  1.00  0.00     0.261 C 
BRANCH   2   3
ATOM      3  O   UNL     1      -0.495  -8.707  -8.095  1.00  0.00    -0.460 OA
BRANCH   3   4
ATOM      4  C   UNL     1       0.611  -8.545  -8.863  1.00  0.00     0.338 C 
ATOM      5  O   UNL     1       1.170  -9.399  -9.532  1.00  0.00    -0.246 OA
BRANCH   4   6
ATOM      6  C   UNL     1       0.950  -7.104  -8.966  1.00  0.00     0.062 A 
ATOM      7  C   UNL     1       0.978  -4.826  -8.129  1.00  0.00     0.051 A 
ATOM      8  C   UNL     1       1.511  -4.401  -9.358  1.00  0.00     0.027 A 
ATOM      9  C   UNL     1       0.717  -6.191  -7.930  1.00  0.00     0.042 A 
ATOM     10  C   UNL     1       1.742  -5.311 -10.389  1.00  0.00     0.003 A 
ATOM     11  C   UNL     1       1.457  -6.659 -10.194  1.00  0.00     0.016 A 
BRANCH   7  12
ATOM     12  N   UNL     1       0.710  -3.876  -7.094  1.00  0.00    -0.264 N 
ATOM     13  C   UNL     1       1.361  -2.180  -2.585  1.00  0.00     0.120 A 
ATOM     14  C   UNL     1       0.627  -1.054  -2.954  1.00  0.00     0.049 A 
ATOM     15  C   UNL     1       1.602  -3.191  -3.513  1.00  0.00     0.062 A 
ATOM     16  C   UNL     1       0.088  -0.957  -4.234  1.00  0.00     0.033 A 
ATOM     17  C   UNL     1       1.060  -3.079  -4.802  1.00  0.00     0.070 A 
ATOM     18  C   UNL     1       0.307  -1.967  -5.167  1.00  0.00     0.078 A 
ATOM     19  C   UNL     1       1.290  -4.110  -5.834  1.00  0.00     0.266 A 
ATOM     20  N   UNL     1      -0.245  -1.814  -6.436  1.00  0.00    -0.234 NA
ATOM     21  O   UNL     1       2.007  -5.069  -5.553  1.00  0.00    -0.268 OA
ATOM     22  C   UNL     1      -0.053  -2.740  -7.320  1.00  0.00     0.113 A 
ATOM     23  C   UNL     1      -0.772  -2.520  -8.637  1.00  0.00     0.088 C 
BRANCH  13  24
ATOM     24  O   UNL     1       1.948  -2.258  -1.349  1.00  0.00    -0.489 OA
BRANCH  24  25
ATOM     25  C   UNL     1       0.995  -2.500  -0.296  1.00  0.00     0.260 C 
BRANCH  25  26
ATOM     26  C   UNL     1       0.336  -1.226   0.196  1.00  0.00    -0.043 C 
ATOM     27  C   UNL     1       1.030  -0.109   0.475  1.00  0.00     0.011 C 
ATOM     28  C   UNL     1      -1.163  -1.271   0.297  1.00  0.00     0.042 C 
ENDBRANCH  25  26
ENDBRANCH  24  25
ENDBRANCH  13  24
ENDBRANCH   7  12
ENDBRANCH   4   6
ENDBRANCH   3   4
ENDBRANCH   2   3
ENDBRANCH   1   2
BRANCH   1  29
ATOM     29  O   UNL     1      -2.531  -9.329 -10.222  1.00  0.00    -0.374 OA
BRANCH  29  30
ATOM     30  C   UNL     1      -2.436  -7.910 -10.350  1.00  0.00     0.202 C 
BRANCH  30  31
ATOM     31  C   UNL     1      -3.672  -7.074  -9.994  1.00  0.00     0.261 C 
BRANCH  31  32
ATOM     32  O   UNL     1      -3.998  -7.132  -8.596  1.00  0.00    -0.460 OA
BRANCH  32  33
ATOM     33  C   UNL     1      -5.108  -7.854  -8.294  1.00  0.00     0.338 C 
ATOM     34  O   UNL     1      -5.866  -8.398  -9.083  1.00  0.00    -0.246 OA
BRANCH  33  35
ATOM     35  C   UNL     1      -5.160  -8.072  -6.835  1.00  0.00     0.060 A 
ATOM     36  C   UNL     1      -5.066  -7.008  -5.937  1.00  0.00     0.016 A 
ATOM     37  C   UNL     1      -5.323  -9.383  -6.367  1.00  0.00     0.016 A 
ATOM     38  C   UNL     1      -5.155  -7.260  -4.566  1.00  0.00     0.010 A 
ATOM     39  C   UNL     1      -5.415  -9.632  -4.997  1.00  0.00     0.010 A 
ATOM     40  C   UNL     1      -5.348  -8.570  -4.085  1.00  0.00    -0.014 A 
BRANCH  40  41
ATOM     41  C   UNL     1      -5.615  -8.799  -2.642  1.00  0.00     0.031 A 
ATOM     42  C   UNL     1      -4.604  -9.446  -1.743  1.00  0.00     0.074 A 
ATOM     43  C   UNL     1      -6.811  -8.421  -2.148  1.00  0.00     0.049 A 
ATOM     44  N   UNL     1      -4.657  -9.623  -0.448  1.00  0.00    -0.248 NA
ATOM     45  C   UNL     1      -3.384  -9.970  -2.373  1.00  0.00     0.031 C 
ATOM     46  C   UNL     1      -7.888  -7.833  -2.945  1.00  0.00     0.029 A 
ATOM     47  N   UNL     1      -7.320  -8.461  -0.874  1.00  0.00    -0.354 N 
ATOM     48  C   UNL     1      -3.473 -10.260  -0.100  1.00  0.00     0.074 A 
ATOM     49  C   UNL     1      -2.745 -10.489  -1.331  1.00  0.00     0.031 C 
ATOM     50  C   UNL     1      -8.915  -7.533  -2.138  1.00  0.00     0.029 A 
ATOM     51  C   UNL     1      -8.590  -7.941  -0.773  1.00  0.00     0.049 A 
ATOM     52  H   UNL     1      -6.825  -8.828  -0.107  1.00  0.00     0.167 HD
ATOM     53  C   UNL     1      -3.030 -10.597   1.136  1.00  0.00     0.034 A 
ATOM     54  C   UNL     1      -9.403  -7.800   0.295  1.00  0.00     0.034 A 
ATOM     55  C   UNL     1      -3.780 -10.370   2.349  1.00  0.00     0.049 A 
ATOM     56  C   UNL     1      -8.895  -8.201   1.656  1.00  0.00     0.074 A 
ATOM     57  C   UNL     1      -3.390 -10.627   3.652  1.00  0.00     0.029 A 
ATOM     58  N   UNL     1      -5.066  -9.851   2.416  1.00  0.00    -0.354 N 
ATOM     59  N   UNL     1      -7.721  -8.685   1.987  1.00  0.00    -0.248 NA
ATOM     60  C   UNL     1      -9.807  -8.021   2.794  1.00  0.00     0.031 C 
ATOM     61  C   UNL     1      -4.465 -10.346   4.495  1.00  0.00     0.029 A 
ATOM     62  C   UNL     1      -5.495  -9.818   3.735  1.00  0.00     0.049 A 
ATOM     63  H   UNL     1      -5.595  -9.550   1.643  1.00  0.00     0.167 HD
ATOM     64  C   UNL     1      -7.744  -8.842   3.370  1.00  0.00     0.074 A 
ATOM     65  C   UNL     1      -9.039  -8.374   3.817  1.00  0.00     0.031 C 
ATOM     66  C   UNL     1      -6.780  -9.335   4.188  1.00  0.00     0.034 A 
BRANCH  53  67
ATOM     67  C   UNL     1      -1.662 -11.223   1.277  1.00  0.00     0.023 A 
ATOM     68  C   UNL     1      -1.523 -12.496   1.864  1.00  0.00     0.031 A 
ATOM     69  C   UNL     1      -0.493 -10.493   0.993  1.00  0.00     0.131 A 
ATOM     70  C   UNL     1      -0.249 -12.977   2.192  1.00  0.00     0.055 A 
ATOM     71  C   UNL     1       0.776 -11.000   1.275  1.00  0.00     0.041 A 
ATOM     72  F   UNL     1      -0.570  -9.270   0.444  1.00  0.00    -0.206 F 
ATOM     73  C   UNL     1       0.901 -12.241   1.893  1.00  0.00     0.022 A 
BRANCH  70  74
ATOM     74  S   UNL     1      -0.039 -14.534   3.100  1.00  0.00     0.124 S 
ATOM     75  O   UNL     1       0.794 -15.307   2.181  1.00  0.00    -0.237 OA
ATOM     76  O   UNL     1       0.628 -14.087   4.320  1.00  0.00    -0.237 OA
ATOM     77  O   UNL     1      -1.401 -15.028   3.269  1.00  0.00    -0.744 OA
ENDBRANCH  70  74
ENDBRANCH  53  67
BRANCH  54  78
ATOM     78  C   UNL     1     -10.748  -7.181   0.103  1.00  0.00     0.023 A 
ATOM     79  C   UNL     1     -11.698  -7.772  -0.750  1.00  0.00     0.031 A 
ATOM     80  C   UNL     1     -11.058  -5.934   0.672  1.00  0.00     0.131 A 
ATOM     81  C   UNL     1     -12.874  -7.082  -1.070  1.00  0.00     0.055 A 
ATOM     82  C   UNL     1     -12.268  -5.287   0.414  1.00  0.00     0.041 A 
ATOM     83  F   UNL     1     -10.178  -5.321   1.478  1.00  0.00    -0.206 F 
ATOM     84  C   UNL     1     -13.175  -5.853  -0.477  1.00  0.00     0.022 A 
BRANCH  81  85
ATOM     85  S   UNL     1     -13.978  -7.687  -2.376  1.00  0.00     0.124 S 
ATOM     86  O   UNL     1     -15.240  -7.845  -1.661  1.00  0.00    -0.237 OA
ATOM     87  O   UNL     1     -13.930  -6.587  -3.337  1.00  0.00    -0.237 OA
ATOM     88  O   UNL     1     -13.344  -8.924  -2.818  1.00  0.00    -0.744 OA
ENDBRANCH  81  85
ENDBRANCH  54  78
BRANCH  66  89
ATOM     89  C   UNL     1      -7.048  -9.401   5.676  1.00  0.00     0.023 A 
ATOM     90  C   UNL     1      -6.208  -8.709   6.572  1.00  0.00     0.031 A 
ATOM     91  C   UNL     1      -8.013 -10.270   6.214  1.00  0.00     0.131 A 
ATOM     92  C   UNL     1      -6.311  -8.940   7.950  1.00  0.00     0.055 A 
ATOM     93  C   UNL     1      -8.153 -10.450   7.592  1.00  0.00     0.041 A 
ATOM     94  F   UNL     1      -8.831 -10.964   5.407  1.00  0.00    -0.206 F 
ATOM     95  C   UNL     1      -7.288  -9.797   8.465  1.00  0.00     0.022 A 
BRANCH  92  96
ATOM     96  S   UNL     1      -5.117  -8.221   9.112  1.00  0.00     0.124 S 
ATOM     97  O   UNL     1      -5.983  -7.429   9.983  1.00  0.00    -0.237 OA
ATOM     98  O   UNL     1      -4.535  -9.411   9.727  1.00  0.00    -0.237 OA
ATOM     99  O   UNL     1      -4.218  -7.449   8.262  1.00  0.00    -0.744 OA
ENDBRANCH  92  96
ENDBRANCH  66  89
ENDBRANCH  40  41
ENDBRANCH  33  35
ENDBRANCH  32  33
ENDBRANCH  31  32
ENDBRANCH  30  31
ENDBRANCH  29  30
ENDBRANCH   1  29
TORSDOF 21
