REMARK SMILES Cc1cc(C)c2c(O[C@@H](C)C(=O)OCCOCCOC(=O)c3ccc(-c4c5nc(c(-c6cc(S(=O)(=O)[O-])ccc6F)c6ccc([nH]6)c(-c6cc(S(=O)(=O)[O-])ccc6F)c6nc(c(-c7cc(S(=O)(=O)[O-])ccc7F)c7ccc4[nH]7)C=C6)C=C5)cc3)nsc2n1
REMARK SMILES IDX 17 1 16 2 15 3 14 4 13 5 11 6 12 7 9 8 10 9 8 10 7 11 1 12
REMARK SMILES IDX 2 13 3 14 88 15 4 16 87 17 5 18 6 19 86 20 85 21 18 22 19 23
REMARK SMILES IDX 20 24 21 25 22 26 23 27 84 28 24 29 83 30 25 31 26 32 27 33
REMARK SMILES IDX 77 34 28 35 82 36 76 37 78 38 29 39 81 40 75 41 74 42 30 44
REMARK SMILES IDX 62 45 42 46 61 47 43 48 46 49 60 50 79 51 44 52 45 53 59 55
REMARK SMILES IDX 80 56 47 57 31 58 32 59 40 60 33 61 39 62 41 63 38 64 34 65
REMARK SMILES IDX 35 66 36 67 37 68 63 69 64 70 72 71 65 72 71 73 73 74 70 75
REMARK SMILES IDX 66 76 67 77 68 78 69 79 48 80 49 81 57 82 50 83 56 84 58 85
REMARK SMILES IDX 55 86 51 87 52 88 53 89 54 90
REMARK H PARENT 78 43 46 54
REMARK Flexibility Score: inf
ROOT
ATOM      1  C   UNL     1      -1.720   5.612   5.250  1.00  0.00     0.202 C 
ENDROOT
BRANCH   1   2
ATOM      2  O   UNL     1      -1.668   4.384   5.965  1.00  0.00    -0.374 OA
BRANCH   2   3
ATOM      3  C   UNL     1      -1.243   3.205   5.288  1.00  0.00     0.202 C 
BRANCH   3   4
ATOM      4  C   UNL     1      -2.017   2.799   4.039  1.00  0.00     0.261 C 
BRANCH   4   5
ATOM      5  O   UNL     1      -1.962   3.795   3.004  1.00  0.00    -0.461 OA
BRANCH   5   6
ATOM      6  C   UNL     1      -3.148   4.168   2.447  1.00  0.00     0.347 C 
ATOM      7  O   UNL     1      -4.248   3.752   2.795  1.00  0.00    -0.248 OA
BRANCH   6   8
ATOM      8  C   UNL     1      -2.958   5.204   1.334  1.00  0.00     0.281 C 
ATOM      9  C   UNL     1      -3.868   5.032   0.121  1.00  0.00     0.066 C 
BRANCH   8  10
ATOM     10  O   UNL     1      -1.691   5.630   0.931  1.00  0.00    -0.462 OA
BRANCH  10  11
ATOM     11  C   UNL     1      -0.777   4.811   0.359  1.00  0.00     0.236 A 
ATOM     12  C   UNL     1       1.579  -0.340  -0.090  1.00  0.00     0.067 C 
ATOM     13  C   UNL     1       0.813   0.945  -0.003  1.00  0.00     0.039 A 
ATOM     14  C   UNL     1      -0.525   0.927   0.337  1.00  0.00     0.027 A 
ATOM     15  N   UNL     1       1.458   2.062  -0.341  1.00  0.00    -0.240 NA
ATOM     16  C   UNL     1      -1.291   2.117   0.396  1.00  0.00    -0.034 A 
ATOM     17  C   UNL     1       0.745   3.195  -0.203  1.00  0.00     0.147 A 
ATOM     18  C   UNL     1      -2.759   1.851   0.617  1.00  0.00     0.045 C 
ATOM     19  C   UNL     1      -0.588   3.359   0.216  1.00  0.00     0.078 A 
ATOM     20  S   UNL     1       1.456   4.681  -0.604  1.00  0.00    -0.012 S 
ATOM     21  N   UNL     1       0.194   5.597  -0.106  1.00  0.00    -0.153 NA
ENDBRANCH  10  11
ENDBRANCH   8  10
ENDBRANCH   6   8
ENDBRANCH   5   6
ENDBRANCH   4   5
ENDBRANCH   3   4
ENDBRANCH   2   3
ENDBRANCH   1   2
BRANCH   1  22
ATOM     22  C   UNL     1      -0.433   6.213   4.688  1.00  0.00     0.261 C 
BRANCH  22  23
ATOM     23  O   UNL     1       0.412   5.307   3.993  1.00  0.00    -0.460 OA
BRANCH  23  24
ATOM     24  C   UNL     1       1.462   4.910   4.757  1.00  0.00     0.338 C 
ATOM     25  O   UNL     1       1.446   4.708   5.958  1.00  0.00    -0.246 OA
BRANCH  24  26
ATOM     26  C   UNL     1       2.691   4.940   3.960  1.00  0.00     0.060 A 
ATOM     27  C   UNL     1       3.847   4.449   4.566  1.00  0.00     0.016 A 
ATOM     28  C   UNL     1       2.737   5.690   2.776  1.00  0.00     0.016 A 
ATOM     29  C   UNL     1       5.067   4.852   4.068  1.00  0.00     0.010 A 
ATOM     30  C   UNL     1       3.958   6.085   2.276  1.00  0.00     0.010 A 
ATOM     31  C   UNL     1       5.107   5.725   2.971  1.00  0.00    -0.014 A 
BRANCH  31  32
ATOM     32  C   UNL     1       6.409   6.118   2.468  1.00  0.00     0.031 A 
ATOM     33  C   UNL     1       7.136   4.971   1.885  1.00  0.00     0.074 A 
ATOM     34  C   UNL     1       6.881   7.380   2.474  1.00  0.00     0.049 A 
ATOM     35  N   UNL     1       8.125   4.337   2.417  1.00  0.00    -0.248 NA
ATOM     36  C   UNL     1       6.563   4.308   0.702  1.00  0.00     0.031 C 
ATOM     37  C   UNL     1       6.178   8.612   2.828  1.00  0.00     0.029 A 
ATOM     38  N   UNL     1       8.106   7.832   2.087  1.00  0.00    -0.354 N 
ATOM     39  C   UNL     1       8.470   3.356   1.501  1.00  0.00     0.074 A 
ATOM     40  C   UNL     1       7.355   3.239   0.600  1.00  0.00     0.031 C 
ATOM     41  C   UNL     1       6.915   9.678   2.433  1.00  0.00     0.029 A 
ATOM     42  C   UNL     1       8.194   9.213   1.917  1.00  0.00     0.049 A 
ATOM     43  H   UNL     1       8.871   7.230   1.938  1.00  0.00     0.167 HD
ATOM     44  C   UNL     1       9.760   2.939   1.399  1.00  0.00     0.034 A 
ATOM     45  C   UNL     1       9.229   9.908   1.364  1.00  0.00     0.034 A 
ATOM     46  C   UNL     1      10.513   3.286   2.584  1.00  0.00     0.049 A 
ATOM     47  C   UNL     1      10.433   9.050   1.524  1.00  0.00     0.074 A 
ATOM     48  C   UNL     1      10.375   3.002   3.931  1.00  0.00     0.029 A 
ATOM     49  N   UNL     1      11.347   4.380   2.519  1.00  0.00    -0.354 N 
ATOM     50  N   UNL     1      10.938   8.744   2.689  1.00  0.00    -0.248 NA
ATOM     51  C   UNL     1      10.761   8.131   0.444  1.00  0.00     0.031 C 
ATOM     52  C   UNL     1      10.717   4.213   4.600  1.00  0.00     0.029 A 
ATOM     53  C   UNL     1      11.129   5.141   3.641  1.00  0.00     0.049 A 
ATOM     54  H   UNL     1      11.986   4.581   1.797  1.00  0.00     0.167 HD
ATOM     55  C   UNL     1      11.261   7.398   2.594  1.00  0.00     0.074 A 
ATOM     56  C   UNL     1      11.210   7.097   1.163  1.00  0.00     0.031 C 
ATOM     57  C   UNL     1      11.259   6.586   3.692  1.00  0.00     0.034 A 
BRANCH  44  58
ATOM     58  C   UNL     1      10.424   2.597   0.089  1.00  0.00     0.023 A 
ATOM     59  C   UNL     1      11.755   2.147   0.141  1.00  0.00     0.031 A 
ATOM     60  C   UNL     1       9.944   2.958  -1.193  1.00  0.00     0.131 A 
ATOM     61  C   UNL     1      12.563   2.158  -1.007  1.00  0.00     0.055 A 
ATOM     62  C   UNL     1      10.734   2.907  -2.342  1.00  0.00     0.041 A 
ATOM     63  F   UNL     1       8.725   3.469  -1.398  1.00  0.00    -0.206 F 
ATOM     64  C   UNL     1      12.062   2.536  -2.250  1.00  0.00     0.022 A 
BRANCH  61  65
ATOM     65  S   UNL     1      14.328   1.810  -0.817  1.00  0.00     0.124 S 
ATOM     66  O   UNL     1      14.737   2.863   0.105  1.00  0.00    -0.237 OA
ATOM     67  O   UNL     1      14.310   0.453  -0.281  1.00  0.00    -0.237 OA
ATOM     68  O   UNL     1      14.845   1.933  -2.178  1.00  0.00    -0.744 OA
ENDBRANCH  61  65
ENDBRANCH  44  58
BRANCH  45  69
ATOM     69  C   UNL     1       9.170  11.088   0.443  1.00  0.00     0.023 A 
ATOM     70  C   UNL     1      10.317  11.827   0.058  1.00  0.00     0.031 A 
ATOM     71  C   UNL     1       7.989  11.356  -0.287  1.00  0.00     0.131 A 
ATOM     72  C   UNL     1      10.249  12.768  -1.002  1.00  0.00     0.055 A 
ATOM     73  C   UNL     1       7.928  12.286  -1.329  1.00  0.00     0.041 A 
ATOM     74  F   UNL     1       6.864  10.659  -0.075  1.00  0.00    -0.206 F 
ATOM     75  C   UNL     1       9.061  12.989  -1.699  1.00  0.00     0.022 A 
BRANCH  72  76
ATOM     76  S   UNL     1      11.741  13.653  -1.579  1.00  0.00     0.124 S 
ATOM     77  O   UNL     1      11.944  14.638  -0.523  1.00  0.00    -0.237 OA
ATOM     78  O   UNL     1      12.729  12.585  -1.670  1.00  0.00    -0.237 OA
ATOM     79  O   UNL     1      11.328  14.212  -2.868  1.00  0.00    -0.744 OA
ENDBRANCH  72  76
ENDBRANCH  45  69
BRANCH  57  80
ATOM     80  C   UNL     1      11.201   7.214   5.070  1.00  0.00     0.023 A 
ATOM     81  C   UNL     1      10.111   7.952   5.586  1.00  0.00     0.031 A 
ATOM     82  C   UNL     1      12.243   6.878   5.953  1.00  0.00     0.131 A 
ATOM     83  C   UNL     1      10.096   8.317   6.950  1.00  0.00     0.055 A 
ATOM     84  C   UNL     1      12.212   7.220   7.303  1.00  0.00     0.041 A 
ATOM     85  F   UNL     1      13.290   6.154   5.524  1.00  0.00    -0.206 F 
ATOM     86  C   UNL     1      11.136   7.939   7.808  1.00  0.00     0.022 A 
BRANCH  83  87
ATOM     87  S   UNL     1       8.696   9.253   7.653  1.00  0.00     0.124 S 
ATOM     88  O   UNL     1       8.700  10.488   6.877  1.00  0.00    -0.237 OA
ATOM     89  O   UNL     1       7.564   8.359   7.432  1.00  0.00    -0.237 OA
ATOM     90  O   UNL     1       9.066   9.421   9.060  1.00  0.00    -0.744 OA
ENDBRANCH  83  87
ENDBRANCH  57  80
ENDBRANCH  31  32
ENDBRANCH  24  26
ENDBRANCH  23  24
ENDBRANCH  22  23
ENDBRANCH   1  22
TORSDOF 19
