REMARK SMILES O=C(OCCOCCOC(=O)c1ccc(-c2ccc(Cl)cc2)cc1F)c1ccc(-c2c3nc(c(-c4cc(S(=O)(=O)[O-])ccc4F)c4ccc([nH]4)c(-c4cc(S(=O)(=O)[O-])ccc4F)c4nc(c(-c5cc(S(=O)(=O)[O-])ccc5F)c5ccc2[nH]5)C=C4)C=C3)cc1
REMARK SMILES IDX 5 1 4 2 3 3 2 4 1 5 26 6 27 7 88 8 28 9 87 10 29 11 30 12
REMARK SMILES IDX 31 13 81 14 32 15 86 16 80 17 82 18 33 19 85 20 79 21 78 22
REMARK SMILES IDX 34 24 66 25 46 26 65 27 47 28 50 29 64 30 83 31 48 32 49 33
REMARK SMILES IDX 63 35 84 36 51 37 35 38 36 39 44 40 37 41 43 42 45 43 42 44
REMARK SMILES IDX 38 45 39 46 40 47 41 48 67 49 68 50 76 51 69 52 75 53 77 54
REMARK SMILES IDX 74 55 70 56 71 57 72 58 73 59 52 60 53 61 61 62 54 63 60 64
REMARK SMILES IDX 62 65 59 66 55 67 56 68 57 69 58 70 6 71 7 72 8 73 9 74
REMARK SMILES IDX 10 75 11 76 12 77 13 78 24 79 14 80 23 81 25 82 15 83 16 84
REMARK SMILES IDX 17 85 22 86 18 87 21 88 19 89 20 90
REMARK H PARENT 82 23 50 34
REMARK Flexibility Score: inf
ROOT
ATOM      1  C   UNL     1       4.339  -0.932  -1.472  1.00  0.00     0.202 C 
ENDROOT
BRANCH   1   2
ATOM      2  C   UNL     1       4.051  -1.449  -0.058  1.00  0.00     0.261 C 
BRANCH   2   3
ATOM      3  O   UNL     1       2.675  -1.228   0.292  1.00  0.00    -0.460 OA
BRANCH   3   4
ATOM      4  C   UNL     1       2.138  -0.206   1.000  1.00  0.00     0.338 C 
ATOM      5  O   UNL     1       0.916  -0.184   1.149  1.00  0.00    -0.246 OA
BRANCH   4   6
ATOM      6  C   UNL     1       2.937   0.896   1.621  1.00  0.00     0.060 A 
ATOM      7  C   UNL     1       4.191   1.325   1.186  1.00  0.00     0.016 A 
ATOM      8  C   UNL     1       2.338   1.599   2.682  1.00  0.00     0.016 A 
ATOM      9  C   UNL     1       4.869   2.353   1.816  1.00  0.00     0.010 A 
ATOM     10  C   UNL     1       3.000   2.661   3.308  1.00  0.00     0.010 A 
ATOM     11  C   UNL     1       4.285   3.016   2.889  1.00  0.00    -0.014 A 
BRANCH  11  12
ATOM     12  C   UNL     1       5.146   3.947   3.635  1.00  0.00     0.031 A 
ATOM     13  C   UNL     1       5.772   3.446   4.901  1.00  0.00     0.074 A 
ATOM     14  C   UNL     1       5.516   5.107   3.062  1.00  0.00     0.049 A 
ATOM     15  N   UNL     1       6.595   4.052   5.710  1.00  0.00    -0.248 NA
ATOM     16  C   UNL     1       5.449   2.062   5.296  1.00  0.00     0.031 C 
ATOM     17  C   UNL     1       5.067   5.575   1.747  1.00  0.00     0.029 A 
ATOM     18  N   UNL     1       6.393   6.072   3.476  1.00  0.00    -0.354 N 
ATOM     19  C   UNL     1       6.876   3.133   6.713  1.00  0.00     0.074 A 
ATOM     20  C   UNL     1       6.131   1.931   6.423  1.00  0.00     0.031 C 
ATOM     21  C   UNL     1       5.703   6.719   1.448  1.00  0.00     0.029 A 
ATOM     22  C   UNL     1       6.545   7.102   2.575  1.00  0.00     0.049 A 
ATOM     23  H   UNL     1       6.870   6.034   4.336  1.00  0.00     0.167 HD
ATOM     24  C   UNL     1       7.691   3.292   7.779  1.00  0.00     0.034 A 
ATOM     25  C   UNL     1       7.264   8.238   2.676  1.00  0.00     0.034 A 
ATOM     26  C   UNL     1       8.420   4.505   8.026  1.00  0.00     0.049 A 
ATOM     27  C   UNL     1       8.050   8.449   3.945  1.00  0.00     0.074 A 
ATOM     28  C   UNL     1       9.215   4.830   9.107  1.00  0.00     0.029 A 
ATOM     29  N   UNL     1       8.439   5.595   7.164  1.00  0.00    -0.354 N 
ATOM     30  N   UNL     1       8.223   7.619   4.950  1.00  0.00    -0.248 NA
ATOM     31  C   UNL     1       8.711   9.748   4.113  1.00  0.00     0.031 C 
ATOM     32  C   UNL     1       9.669   6.140   8.925  1.00  0.00     0.029 A 
ATOM     33  C   UNL     1       9.208   6.608   7.702  1.00  0.00     0.049 A 
ATOM     34  H   UNL     1       7.973   5.639   6.298  1.00  0.00     0.167 HD
ATOM     35  C   UNL     1       9.011   8.296   5.871  1.00  0.00     0.074 A 
ATOM     36  C   UNL     1       9.297   9.596   5.293  1.00  0.00     0.031 C 
ATOM     37  C   UNL     1       9.455   7.890   7.087  1.00  0.00     0.034 A 
BRANCH  24  38
ATOM     38  C   UNL     1       7.756   2.168   8.775  1.00  0.00     0.023 A 
ATOM     39  C   UNL     1       8.398   0.954   8.484  1.00  0.00     0.031 A 
ATOM     40  C   UNL     1       7.132   2.308  10.027  1.00  0.00     0.131 A 
ATOM     41  C   UNL     1       8.368  -0.091   9.421  1.00  0.00     0.055 A 
ATOM     42  C   UNL     1       7.155   1.287  10.977  1.00  0.00     0.041 A 
ATOM     43  F   UNL     1       6.476   3.438  10.340  1.00  0.00    -0.206 F 
ATOM     44  C   UNL     1       7.771   0.076  10.675  1.00  0.00     0.022 A 
BRANCH  41  45
ATOM     45  S   UNL     1       9.054  -1.704   8.957  1.00  0.00     0.124 S 
ATOM     46  O   UNL     1       8.110  -2.140   7.930  1.00  0.00    -0.237 OA
ATOM     47  O   UNL     1      10.391  -1.362   8.488  1.00  0.00    -0.237 OA
ATOM     48  O   UNL     1       9.008  -2.468  10.202  1.00  0.00    -0.744 OA
ENDBRANCH  41  45
ENDBRANCH  24  38
BRANCH  25  49
ATOM     49  C   UNL     1       7.197   9.278   1.608  1.00  0.00     0.023 A 
ATOM     50  C   UNL     1       8.334   9.665   0.882  1.00  0.00     0.031 A 
ATOM     51  C   UNL     1       5.978   9.919   1.311  1.00  0.00     0.131 A 
ATOM     52  C   UNL     1       8.231  10.675  -0.092  1.00  0.00     0.055 A 
ATOM     53  C   UNL     1       5.873  10.889   0.313  1.00  0.00     0.041 A 
ATOM     54  F   UNL     1       4.860   9.595   1.979  1.00  0.00    -0.206 F 
ATOM     55  C   UNL     1       7.006  11.278  -0.391  1.00  0.00     0.022 A 
BRANCH  52  56
ATOM     56  S   UNL     1       9.737  11.234  -0.938  1.00  0.00     0.124 S 
ATOM     57  O   UNL     1      10.526  11.753   0.174  1.00  0.00    -0.237 OA
ATOM     58  O   UNL     1      10.220  10.001  -1.549  1.00  0.00    -0.237 OA
ATOM     59  O   UNL     1       9.246  12.242  -1.877  1.00  0.00    -0.744 OA
ENDBRANCH  52  56
ENDBRANCH  25  49
BRANCH  37  60
ATOM     60  C   UNL     1      10.293   8.858   7.869  1.00  0.00     0.023 A 
ATOM     61  C   UNL     1       9.708   9.958   8.513  1.00  0.00     0.031 A 
ATOM     62  C   UNL     1      11.666   8.620   8.049  1.00  0.00     0.131 A 
ATOM     63  C   UNL     1      10.502  10.794   9.308  1.00  0.00     0.055 A 
ATOM     64  C   UNL     1      12.441   9.430   8.876  1.00  0.00     0.041 A 
ATOM     65  F   UNL     1      12.260   7.572   7.457  1.00  0.00    -0.206 F 
ATOM     66  C   UNL     1      11.859  10.525   9.510  1.00  0.00     0.022 A 
BRANCH  63  67
ATOM     67  S   UNL     1       9.735  12.244  10.077  1.00  0.00     0.124 S 
ATOM     68  O   UNL     1       9.414  13.067   8.915  1.00  0.00    -0.237 OA
ATOM     69  O   UNL     1       8.595  11.666  10.781  1.00  0.00    -0.237 OA
ATOM     70  O   UNL     1      10.790  12.772  10.939  1.00  0.00    -0.744 OA
ENDBRANCH  63  67
ENDBRANCH  37  60
ENDBRANCH  11  12
ENDBRANCH   4   6
ENDBRANCH   3   4
ENDBRANCH   2   3
ENDBRANCH   1   2
BRANCH   1  71
ATOM     71  O   UNL     1       4.086   0.462  -1.662  1.00  0.00    -0.374 OA
BRANCH  71  72
ATOM     72  C   UNL     1       2.740   0.817  -1.999  1.00  0.00     0.202 C 
BRANCH  72  73
ATOM     73  C   UNL     1       2.714   1.532  -3.348  1.00  0.00     0.261 C 
BRANCH  73  74
ATOM     74  O   UNL     1       3.175   0.605  -4.340  1.00  0.00    -0.460 OA
BRANCH  74  75
ATOM     75  C   UNL     1       4.511   0.625  -4.548  1.00  0.00     0.341 C 
ATOM     76  O   UNL     1       5.302   1.504  -4.250  1.00  0.00    -0.246 OA
BRANCH  75  77
ATOM     77  C   UNL     1       4.931  -0.700  -5.020  1.00  0.00     0.095 A 
ATOM     78  C   UNL     1       6.116  -1.246  -4.508  1.00  0.00     0.019 A 
ATOM     79  C   UNL     1       4.189  -1.405  -5.958  1.00  0.00     0.138 A 
ATOM     80  C   UNL     1       6.575  -2.477  -4.979  1.00  0.00     0.010 A 
ATOM     81  C   UNL     1       4.651  -2.623  -6.438  1.00  0.00     0.049 A 
ATOM     82  F   UNL     1       3.058  -0.906  -6.477  1.00  0.00    -0.206 F 
ATOM     83  C   UNL     1       5.874  -3.148  -5.991  1.00  0.00    -0.015 A 
BRANCH  83  84
ATOM     84  C   UNL     1       6.492  -4.253  -6.721  1.00  0.00    -0.018 A 
ATOM     85  C   UNL     1       6.964  -3.998  -8.022  1.00  0.00     0.010 A 
ATOM     86  C   UNL     1       6.647  -5.537  -6.185  1.00  0.00     0.010 A 
ATOM     87  C   UNL     1       7.565  -4.999  -8.779  1.00  0.00     0.021 A 
ATOM     88  C   UNL     1       7.250  -6.545  -6.947  1.00  0.00     0.021 A 
ATOM     89  C   UNL     1       7.702  -6.272  -8.238  1.00  0.00     0.041 A 
ATOM     90  Cl  UNL     1       8.436  -7.513  -9.176  1.00  0.00    -0.084 Cl
ENDBRANCH  83  84
ENDBRANCH  75  77
ENDBRANCH  74  75
ENDBRANCH  73  74
ENDBRANCH  72  73
ENDBRANCH  71  72
ENDBRANCH   1  71
TORSDOF 18
