REMARK SMILES NS(=O)(=O)c1ccc(N2N=C(C(=O)OCCOCCOC(=O)c3ccc(-c4c5nc(c(-c6cc(S(=O)(=O)[O-])ccc6F)c6ccc([nH]6)c(-c6cc(S(=O)(=O)[O-])ccc6F)c6nc(c(-c7cc(S(=O)(=O)[O-])ccc7F)c7ccc4[nH]7)C=C6)C=C5)cc3)C[C@H]2c2ccco2)cc1
REMARK SMILES IDX 17 1 16 2 15 3 14 4 12 5 13 6 11 7 9 8 10 9 87 10 86 11 8 12
REMARK SMILES IDX 5 13 6 14 94 15 7 16 93 17 2 18 3 19 4 20 1 21 88 24 89 25
REMARK SMILES IDX 92 26 90 27 91 28 18 29 19 30 20 31 21 32 22 33 23 34 24 35
REMARK SMILES IDX 85 36 25 37 84 38 26 39 27 40 28 41 78 42 29 43 83 44 77 45
REMARK SMILES IDX 79 46 30 47 82 48 76 49 75 50 31 52 63 53 43 54 62 55 44 56
REMARK SMILES IDX 47 57 61 58 80 59 45 60 46 61 60 63 81 64 48 65 32 66 33 67
REMARK SMILES IDX 41 68 34 69 40 70 42 71 39 72 35 73 36 74 37 75 38 76 64 77
REMARK SMILES IDX 65 78 73 79 66 80 72 81 74 82 71 83 67 84 68 85 69 86 70 87
REMARK SMILES IDX 49 88 50 89 58 90 51 91 57 92 59 93 56 94 52 95 53 96 54 97
REMARK SMILES IDX 55 98
REMARK H PARENT 1 22 1 23 79 51 47 62
REMARK Flexibility Score: inf
ROOT
ATOM      1  O   UNL     1       2.908 -10.797  -1.137  1.00  0.00    -0.374 OA
ENDROOT
BRANCH   1   2
ATOM      2  C   UNL     1       3.749 -11.677  -0.393  1.00  0.00     0.202 C 
BRANCH   2   3
ATOM      3  C   UNL     1       4.823 -11.041   0.494  1.00  0.00     0.261 C 
BRANCH   3   4
ATOM      4  O   UNL     1       4.247 -10.128   1.437  1.00  0.00    -0.459 OA
BRANCH   4   5
ATOM      5  C   UNL     1       4.646  -8.846   1.302  1.00  0.00     0.354 C 
ATOM      6  O   UNL     1       5.550  -8.406   0.617  1.00  0.00    -0.245 OA
BRANCH   5   7
ATOM      7  C   UNL     1       3.679  -7.950   2.033  1.00  0.00     0.148 C 
ATOM      8  N   UNL     1       2.404  -6.312   2.455  1.00  0.00    -0.254 N 
ATOM      9  N   UNL     1       3.224  -6.853   1.510  1.00  0.00    -0.169 NA
ATOM     10  C   UNL     1       2.571  -6.958   3.775  1.00  0.00     0.180 C 
ATOM     11  C   UNL     1       3.103  -8.339   3.356  1.00  0.00     0.101 C 
BRANCH   8  12
ATOM     12  C   UNL     1       1.957  -5.016   2.252  1.00  0.00     0.060 A 
ATOM     13  C   UNL     1       1.024  -2.402   1.816  1.00  0.00     0.082 A 
ATOM     14  C   UNL     1       0.252  -3.488   1.402  1.00  0.00     0.024 A 
ATOM     15  C   UNL     1       2.264  -2.605   2.421  1.00  0.00     0.024 A 
ATOM     16  C   UNL     1       0.726  -4.788   1.619  1.00  0.00     0.029 A 
ATOM     17  C   UNL     1       2.732  -3.906   2.609  1.00  0.00     0.029 A 
BRANCH  13  18
ATOM     18  S   UNL     1       0.425  -0.750   1.636  1.00  0.00     0.238 S 
ATOM     19  O   UNL     1       0.996   0.077   2.672  1.00  0.00    -0.207 OA
ATOM     20  O   UNL     1      -0.997  -0.778   1.371  1.00  0.00    -0.207 OA
BRANCH  18  21
ATOM     21  N   UNL     1       1.150  -0.263   0.205  1.00  0.00    -0.225 NA
ATOM     22  H   UNL     1       0.873   0.696  -0.008  1.00  0.00     0.137 HD
ATOM     23  H   UNL     1       0.854  -0.878  -0.553  1.00  0.00     0.137 HD
ENDBRANCH  18  21
ENDBRANCH  13  18
ENDBRANCH   8  12
BRANCH  10  24
ATOM     24  C   UNL     1       3.475  -6.282   4.773  1.00  0.00     0.128 A 
ATOM     25  C   UNL     1       3.321  -5.169   5.580  1.00  0.00     0.048 A 
ATOM     26  O   UNL     1       4.712  -6.825   4.989  1.00  0.00    -0.467 OA
ATOM     27  C   UNL     1       4.533  -5.012   6.295  1.00  0.00     0.042 A 
ATOM     28  C   UNL     1       5.337  -6.060   5.917  1.00  0.00     0.195 A 
ENDBRANCH  10  24
ENDBRANCH   5   7
ENDBRANCH   4   5
ENDBRANCH   3   4
ENDBRANCH   2   3
ENDBRANCH   1   2
BRANCH   1  29
ATOM     29  C   UNL     1       1.893 -10.076  -0.441  1.00  0.00     0.202 C 
BRANCH  29  30
ATOM     30  C   UNL     1       0.668 -10.842   0.081  1.00  0.00     0.261 C 
BRANCH  30  31
ATOM     31  O   UNL     1       0.990 -11.905   0.994  1.00  0.00    -0.460 OA
BRANCH  31  32
ATOM     32  C   UNL     1       0.862 -13.145   0.454  1.00  0.00     0.338 C 
ATOM     33  O   UNL     1       0.492 -13.414  -0.677  1.00  0.00    -0.246 OA
BRANCH  32  34
ATOM     34  C   UNL     1       1.414 -14.167   1.364  1.00  0.00     0.060 A 
ATOM     35  C   UNL     1       2.375 -15.040   0.839  1.00  0.00     0.016 A 
ATOM     36  C   UNL     1       0.934 -14.340   2.664  1.00  0.00     0.016 A 
ATOM     37  C   UNL     1       2.813 -16.128   1.589  1.00  0.00     0.010 A 
ATOM     38  C   UNL     1       1.377 -15.435   3.417  1.00  0.00     0.010 A 
ATOM     39  C   UNL     1       2.286 -16.358   2.867  1.00  0.00    -0.014 A 
BRANCH  39  40
ATOM     40  C   UNL     1       2.592 -17.642   3.552  1.00  0.00     0.031 A 
ATOM     41  C   UNL     1       1.544 -18.722   3.598  1.00  0.00     0.074 A 
ATOM     42  C   UNL     1       3.815 -17.865   4.067  1.00  0.00     0.049 A 
ATOM     43  N   UNL     1       1.606 -19.919   4.123  1.00  0.00    -0.248 NA
ATOM     44  C   UNL     1       0.251 -18.408   2.971  1.00  0.00     0.031 C 
ATOM     45  C   UNL     1       4.924 -16.911   4.047  1.00  0.00     0.029 A 
ATOM     46  N   UNL     1       4.334 -18.968   4.699  1.00  0.00    -0.354 N 
ATOM     47  C   UNL     1       0.362 -20.501   3.894  1.00  0.00     0.074 A 
ATOM     48  C   UNL     1      -0.447 -19.505   3.225  1.00  0.00     0.031 C 
ATOM     49  C   UNL     1       5.994 -17.473   4.632  1.00  0.00     0.029 A 
ATOM     50  C   UNL     1       5.638 -18.809   5.106  1.00  0.00     0.049 A 
ATOM     51  H   UNL     1       3.821 -19.794   4.848  1.00  0.00     0.167 HD
ATOM     52  C   UNL     1      -0.059 -21.754   4.201  1.00  0.00     0.034 A 
ATOM     53  C   UNL     1       6.447 -19.638   5.796  1.00  0.00     0.034 A 
ATOM     54  C   UNL     1       0.760 -22.733   4.875  1.00  0.00     0.049 A 
ATOM     55  C   UNL     1       5.930 -21.000   6.193  1.00  0.00     0.074 A 
ATOM     56  C   UNL     1       0.438 -24.035   5.221  1.00  0.00     0.029 A 
ATOM     57  N   UNL     1       2.060 -22.520   5.318  1.00  0.00    -0.354 N 
ATOM     58  N   UNL     1       4.755 -21.541   5.961  1.00  0.00    -0.248 NA
ATOM     59  C   UNL     1       6.855 -21.868   6.931  1.00  0.00     0.031 C 
ATOM     60  C   UNL     1       1.505 -24.575   5.947  1.00  0.00     0.029 A 
ATOM     61  C   UNL     1       2.537 -23.651   5.966  1.00  0.00     0.049 A 
ATOM     62  H   UNL     1       2.569 -21.686   5.191  1.00  0.00     0.167 HD
ATOM     63  C   UNL     1       4.818 -22.828   6.491  1.00  0.00     0.074 A 
ATOM     64  C   UNL     1       6.151 -22.984   7.035  1.00  0.00     0.031 C 
ATOM     65  C   UNL     1       3.864 -23.795   6.519  1.00  0.00     0.034 A 
BRANCH  52  66
ATOM     66  C   UNL     1      -1.488 -22.114   3.858  1.00  0.00     0.023 A 
ATOM     67  C   UNL     1      -1.952 -22.139   2.530  1.00  0.00     0.031 A 
ATOM     68  C   UNL     1      -2.406 -22.419   4.879  1.00  0.00     0.131 A 
ATOM     69  C   UNL     1      -3.308 -22.392   2.266  1.00  0.00     0.055 A 
ATOM     70  C   UNL     1      -3.732 -22.756   4.603  1.00  0.00     0.041 A 
ATOM     71  F   UNL     1      -2.031 -22.387   6.167  1.00  0.00    -0.206 F 
ATOM     72  C   UNL     1      -4.194 -22.729   3.291  1.00  0.00     0.022 A 
BRANCH  69  73
ATOM     73  S   UNL     1      -3.929 -22.125   0.583  1.00  0.00     0.124 S 
ATOM     74  O   UNL     1      -3.580 -20.725   0.358  1.00  0.00    -0.237 OA
ATOM     75  O   UNL     1      -3.174 -23.104  -0.190  1.00  0.00    -0.237 OA
ATOM     76  O   UNL     1      -5.361 -22.392   0.700  1.00  0.00    -0.744 OA
ENDBRANCH  69  73
ENDBRANCH  52  66
BRANCH  53  77
ATOM     77  C   UNL     1       7.820 -19.203   6.187  1.00  0.00     0.023 A 
ATOM     78  C   UNL     1       8.960 -19.885   5.733  1.00  0.00     0.031 A 
ATOM     79  C   UNL     1       8.008 -18.127   7.075  1.00  0.00     0.131 A 
ATOM     80  C   UNL     1      10.230 -19.520   6.209  1.00  0.00     0.055 A 
ATOM     81  C   UNL     1       9.277 -17.728   7.495  1.00  0.00     0.041 A 
ATOM     82  F   UNL     1       6.953 -17.441   7.544  1.00  0.00    -0.206 F 
ATOM     83  C   UNL     1      10.397 -18.436   7.073  1.00  0.00     0.022 A 
BRANCH  80  84
ATOM     84  S   UNL     1      11.654 -20.551   5.762  1.00  0.00     0.124 S 
ATOM     85  O   UNL     1      11.245 -21.856   6.268  1.00  0.00    -0.237 OA
ATOM     86  O   UNL     1      11.687 -20.406   4.310  1.00  0.00    -0.237 OA
ATOM     87  O   UNL     1      12.764 -19.923   6.475  1.00  0.00    -0.744 OA
ENDBRANCH  80  84
ENDBRANCH  53  77
BRANCH  65  88
ATOM     88  C   UNL     1       4.256 -25.131   7.112  1.00  0.00     0.023 A 
ATOM     89  C   UNL     1       4.633 -25.268   8.460  1.00  0.00     0.031 A 
ATOM     90  C   UNL     1       4.289 -26.282   6.302  1.00  0.00     0.131 A 
ATOM     91  C   UNL     1       5.107 -26.501   8.934  1.00  0.00     0.055 A 
ATOM     92  C   UNL     1       4.684 -27.524   6.800  1.00  0.00     0.041 A 
ATOM     93  F   UNL     1       3.945 -26.216   5.006  1.00  0.00    -0.206 F 
ATOM     94  C   UNL     1       5.115 -27.635   8.118  1.00  0.00     0.022 A 
BRANCH  91  95
ATOM     95  S   UNL     1       5.847 -26.569  10.589  1.00  0.00     0.124 S 
ATOM     96  O   UNL     1       6.882 -25.545  10.500  1.00  0.00    -0.237 OA
ATOM     97  O   UNL     1       4.712 -26.255  11.451  1.00  0.00    -0.237 OA
ATOM     98  O   UNL     1       6.340 -27.942  10.688  1.00  0.00    -0.744 OA
ENDBRANCH  91  95
ENDBRANCH  65  88
ENDBRANCH  39  40
ENDBRANCH  32  34
ENDBRANCH  31  32
ENDBRANCH  30  31
ENDBRANCH  29  30
ENDBRANCH   1  29
TORSDOF 21
