REMARK SMILES COc1ccc(CCc2nnc(NC(=O)[C@@H]3[C@@H](C(=O)OCCOCCOC(=O)c4ccc(-c5c6nc(c(-c7cc(S(=O)(=O)[O-])ccc7F)c7ccc([nH]7)c(-c7cc(S(=O)(=O)[O-])ccc7F)c7nc(c(-c8cc(S(=O)(=O)[O-])ccc8F)c8ccc5[nH]8)C=C7)C=C6)cc4)C3(C)C)s2)cc1
REMARK SMILES IDX 21 1 20 2 18 3 19 4 17 5 16 6 92 7 93 8 94 9 14 10 13 11
REMARK SMILES IDX 15 13 12 14 9 15 10 16 95 17 11 18 8 19 7 20 6 21 3 22 4 23
REMARK SMILES IDX 97 24 5 25 96 26 2 27 1 28 22 29 23 30 24 31 25 32 26 33
REMARK SMILES IDX 27 34 28 35 29 36 30 37 91 38 31 39 90 40 32 41 33 42 34 43
REMARK SMILES IDX 84 44 35 45 89 46 83 47 85 48 36 49 88 50 82 51 81 52 37 54
REMARK SMILES IDX 69 55 49 56 68 57 50 58 53 59 67 60 86 61 51 62 52 63 66 65
REMARK SMILES IDX 87 66 54 67 38 68 39 69 47 70 40 71 46 72 48 73 45 74 41 75
REMARK SMILES IDX 42 76 43 77 44 78 70 79 71 80 79 81 72 82 78 83 80 84 77 85
REMARK SMILES IDX 73 86 74 87 75 88 76 89 55 90 56 91 64 92 57 93 63 94 65 95
REMARK SMILES IDX 62 96 58 97 59 98 60 99 61 100
REMARK H PARENT 13 12 85 53 53 64
REMARK Flexibility Score: inf
ROOT
ATOM      1  C   UNL     1      -1.306   8.537  -0.915  1.00  0.00     0.261 C 
ENDROOT
BRANCH   1   2
ATOM      2  O   UNL     1      -2.227   7.517  -1.329  1.00  0.00    -0.463 OA
BRANCH   2   3
ATOM      3  C   UNL     1      -1.893   6.851  -2.462  1.00  0.00     0.310 C 
ATOM      4  O   UNL     1      -0.966   7.117  -3.206  1.00  0.00    -0.252 OA
BRANCH   3   5
ATOM      5  C   UNL     1      -2.733   5.658  -2.736  1.00  0.00     0.118 C 
ATOM      6  C   UNL     1      -4.197   5.879  -3.014  1.00  0.00     0.100 C 
ATOM      7  C   UNL     1      -3.787   4.946  -1.881  1.00  0.00    -0.009 C 
ATOM      8  C   UNL     1      -4.246   5.394  -0.510  1.00  0.00     0.013 C 
ATOM      9  C   UNL     1      -3.889   3.444  -2.052  1.00  0.00     0.013 C 
BRANCH   6  10
ATOM     10  C   UNL     1      -4.755   5.447  -4.327  1.00  0.00     0.230 C 
ATOM     11  N   UNL     1      -5.533   6.319  -5.046  1.00  0.00    -0.300 N 
ATOM     12  H   UNL     1      -6.104   5.946  -5.756  1.00  0.00     0.172 HD
ATOM     13  O   UNL     1      -4.605   4.297  -4.734  1.00  0.00    -0.274 OA
BRANCH  11  14
ATOM     14  C   UNL     1      -5.569   7.667  -4.845  1.00  0.00     0.212 A 
ATOM     15  C   UNL     1      -6.393   9.852  -4.558  1.00  0.00     0.119 A 
ATOM     16  N   UNL     1      -5.171   9.716  -4.085  1.00  0.00    -0.142 NA
ATOM     17  S   UNL     1      -6.956   8.470  -5.426  1.00  0.00    -0.080 S 
ATOM     18  N   UNL     1      -4.704   8.430  -4.227  1.00  0.00    -0.120 NA
BRANCH  15  19
ATOM     19  C   UNL     1      -7.269  11.034  -4.295  1.00  0.00     0.074 C 
BRANCH  19  20
ATOM     20  C   UNL     1      -8.171  10.820  -3.072  1.00  0.00     0.043 C 
BRANCH  20  21
ATOM     21  C   UNL     1      -7.419  10.606  -1.780  1.00  0.00    -0.047 A 
ATOM     22  C   UNL     1      -6.103  10.200   0.635  1.00  0.00     0.118 A 
ATOM     23  C   UNL     1      -6.346   9.112  -0.192  1.00  0.00     0.046 A 
ATOM     24  C   UNL     1      -6.437  11.492   0.243  1.00  0.00     0.046 A 
ATOM     25  C   UNL     1      -7.025   9.314  -1.389  1.00  0.00     0.007 A 
ATOM     26  C   UNL     1      -7.094  11.697  -0.966  1.00  0.00     0.007 A 
BRANCH  22  27
ATOM     27  O   UNL     1      -5.592   9.978   1.880  1.00  0.00    -0.497 OA
ATOM     28  C   UNL     1      -6.679   9.912   2.811  1.00  0.00     0.278 C 
ENDBRANCH  22  27
ENDBRANCH  20  21
ENDBRANCH  19  20
ENDBRANCH  15  19
ENDBRANCH  11  14
ENDBRANCH   6  10
ENDBRANCH   3   5
ENDBRANCH   2   3
ENDBRANCH   1   2
BRANCH   1  29
ATOM     29  C   UNL     1      -0.681   8.188   0.438  1.00  0.00     0.202 C 
BRANCH  29  30
ATOM     30  O   UNL     1       0.118   7.001   0.480  1.00  0.00    -0.374 OA
BRANCH  30  31
ATOM     31  C   UNL     1      -0.575   5.755   0.533  1.00  0.00     0.202 C 
BRANCH  31  32
ATOM     32  C   UNL     1      -1.141   5.316   1.891  1.00  0.00     0.261 C 
BRANCH  32  33
ATOM     33  O   UNL     1      -1.959   6.309   2.527  1.00  0.00    -0.460 OA
BRANCH  33  34
ATOM     34  C   UNL     1      -1.324   7.005   3.508  1.00  0.00     0.338 C 
ATOM     35  O   UNL     1      -0.196   6.812   3.927  1.00  0.00    -0.246 OA
BRANCH  34  36
ATOM     36  C   UNL     1      -2.146   8.158   3.927  1.00  0.00     0.060 A 
ATOM     37  C   UNL     1      -1.539   9.420   3.977  1.00  0.00     0.016 A 
ATOM     38  C   UNL     1      -3.474   8.005   4.317  1.00  0.00     0.016 A 
ATOM     39  C   UNL     1      -2.255  10.533   4.431  1.00  0.00     0.010 A 
ATOM     40  C   UNL     1      -4.181   9.121   4.776  1.00  0.00     0.010 A 
ATOM     41  C   UNL     1      -3.586  10.399   4.845  1.00  0.00    -0.014 A 
BRANCH  41  42
ATOM     42  C   UNL     1      -4.355  11.559   5.394  1.00  0.00     0.031 A 
ATOM     43  C   UNL     1      -4.866  11.515   6.813  1.00  0.00     0.074 A 
ATOM     44  C   UNL     1      -4.682  12.617   4.622  1.00  0.00     0.049 A 
ATOM     45  N   UNL     1      -5.633  12.367   7.449  1.00  0.00    -0.248 NA
ATOM     46  C   UNL     1      -4.484  10.341   7.609  1.00  0.00     0.031 C 
ATOM     47  C   UNL     1      -4.299  12.803   3.222  1.00  0.00     0.029 A 
ATOM     48  N   UNL     1      -5.472  13.712   4.894  1.00  0.00    -0.354 N 
ATOM     49  C   UNL     1      -5.801  11.843   8.727  1.00  0.00     0.074 A 
ATOM     50  C   UNL     1      -5.162  10.543   8.727  1.00  0.00     0.031 C 
ATOM     51  C   UNL     1      -4.895  13.910   2.746  1.00  0.00     0.029 A 
ATOM     52  C   UNL     1      -5.723  14.498   3.792  1.00  0.00     0.049 A 
ATOM     53  H   UNL     1      -5.824  13.913   5.791  1.00  0.00     0.167 HD
ATOM     54  C   UNL     1      -6.373  12.412   9.819  1.00  0.00     0.034 A 
ATOM     55  C   UNL     1      -6.548  15.551   3.628  1.00  0.00     0.034 A 
ATOM     56  C   UNL     1      -7.009  13.707   9.818  1.00  0.00     0.049 A 
ATOM     57  C   UNL     1      -7.294  16.109   4.812  1.00  0.00     0.074 A 
ATOM     58  C   UNL     1      -7.512  14.425  10.890  1.00  0.00     0.029 A 
ATOM     59  N   UNL     1      -7.254  14.471   8.685  1.00  0.00    -0.354 N 
ATOM     60  N   UNL     1      -7.333  15.669   6.047  1.00  0.00    -0.248 NA
ATOM     61  C   UNL     1      -8.066  17.337   4.584  1.00  0.00     0.031 C 
ATOM     62  C   UNL     1      -8.126  15.583  10.398  1.00  0.00     0.029 A 
ATOM     63  C   UNL     1      -7.941  15.629   9.026  1.00  0.00     0.049 A 
ATOM     64  H   UNL     1      -6.981  14.227   7.772  1.00  0.00     0.167 HD
ATOM     65  C   UNL     1      -8.072  16.613   6.759  1.00  0.00     0.074 A 
ATOM     66  C   UNL     1      -8.476  17.628   5.809  1.00  0.00     0.031 C 
ATOM     67  C   UNL     1      -8.355  16.646   8.087  1.00  0.00     0.034 A 
BRANCH  54  68
ATOM     68  C   UNL     1      -6.312  11.626  11.109  1.00  0.00     0.023 A 
ATOM     69  C   UNL     1      -5.078  11.252  11.674  1.00  0.00     0.031 A 
ATOM     70  C   UNL     1      -7.484  11.201  11.757  1.00  0.00     0.131 A 
ATOM     71  C   UNL     1      -5.043  10.386  12.775  1.00  0.00     0.055 A 
ATOM     72  C   UNL     1      -7.441  10.419  12.914  1.00  0.00     0.041 A 
ATOM     73  F   UNL     1      -8.692  11.515  11.263  1.00  0.00    -0.206 F 
ATOM     74  C   UNL     1      -6.216   9.988  13.417  1.00  0.00     0.022 A 
BRANCH  71  75
ATOM     75  S   UNL     1      -3.451   9.649  13.236  1.00  0.00     0.124 S 
ATOM     76  O   UNL     1      -3.073   8.971  11.998  1.00  0.00    -0.237 OA
ATOM     77  O   UNL     1      -2.655  10.816  13.596  1.00  0.00    -0.237 OA
ATOM     78  O   UNL     1      -3.795   8.759  14.344  1.00  0.00    -0.744 OA
ENDBRANCH  71  75
ENDBRANCH  54  68
BRANCH  55  79
ATOM     79  C   UNL     1      -6.734  16.161   2.281  1.00  0.00     0.023 A 
ATOM     80  C   UNL     1      -6.231  17.437   1.989  1.00  0.00     0.031 A 
ATOM     81  C   UNL     1      -7.488  15.501   1.295  1.00  0.00     0.131 A 
ATOM     82  C   UNL     1      -6.530  18.037   0.756  1.00  0.00     0.055 A 
ATOM     83  C   UNL     1      -7.749  16.087   0.055  1.00  0.00     0.041 A 
ATOM     84  F   UNL     1      -7.989  14.278   1.529  1.00  0.00    -0.206 F 
ATOM     85  C   UNL     1      -7.279  17.369  -0.215  1.00  0.00     0.022 A 
BRANCH  82  86
ATOM     86  S   UNL     1      -5.985  19.743   0.469  1.00  0.00     0.124 S 
ATOM     87  O   UNL     1      -6.673  20.458   1.539  1.00  0.00    -0.237 OA
ATOM     88  O   UNL     1      -4.537  19.624   0.604  1.00  0.00    -0.237 OA
ATOM     89  O   UNL     1      -6.462  20.029  -0.882  1.00  0.00    -0.744 OA
ENDBRANCH  82  86
ENDBRANCH  55  79
BRANCH  67  90
ATOM     90  C   UNL     1      -9.068  17.874   8.606  1.00  0.00     0.023 A 
ATOM     91  C   UNL     1     -10.375  18.205   8.208  1.00  0.00     0.031 A 
ATOM     92  C   UNL     1      -8.401  18.759   9.473  1.00  0.00     0.131 A 
ATOM     93  C   UNL     1     -10.943  19.423   8.615  1.00  0.00     0.055 A 
ATOM     94  C   UNL     1      -8.999  19.934   9.933  1.00  0.00     0.041 A 
ATOM     95  F   UNL     1      -7.148  18.502   9.883  1.00  0.00    -0.206 F 
ATOM     96  C   UNL     1     -10.271  20.281   9.489  1.00  0.00     0.022 A 
BRANCH  93  97
ATOM     97  S   UNL     1     -12.524  19.933   7.883  1.00  0.00     0.124 S 
ATOM     98  O   UNL     1     -12.213  19.925   6.457  1.00  0.00    -0.237 OA
ATOM     99  O   UNL     1     -13.432  18.888   8.342  1.00  0.00    -0.237 OA
ATOM    100  O   UNL     1     -12.759  21.256   8.460  1.00  0.00    -0.744 OA
ENDBRANCH  93  97
ENDBRANCH  67  90
ENDBRANCH  41  42
ENDBRANCH  34  36
ENDBRANCH  33  34
ENDBRANCH  32  33
ENDBRANCH  31  32
ENDBRANCH  30  31
ENDBRANCH  29  30
ENDBRANCH   1  29
TORSDOF 23
