REMARK SMILES O=C(OCCOCCOC(=O)c1ccc(-c2c3nc(c(-c4cc(S(=O)(=O)[O-])ccc4F)c4ccc([nH]4)c(-c4cc(S(=O)(=O)[O-])ccc4F)c4nc(c(-c5cc(S(=O)(=O)[O-])ccc5F)c5ccc2[nH]5)C=C4)C=C3)cc1)C1=Cc2cc(Cl)cc(-c3ccc(O)cc3)c2O[C@@H]1C(F)(F)F
REMARK SMILES IDX 7 1 6 2 5 3 4 4 3 5 2 6 1 7 75 8 76 9 92 10 77 11 91 12
REMARK SMILES IDX 78 13 90 14 79 15 82 16 80 17 81 18 93 19 94 20 95 21 96 22
REMARK SMILES IDX 83 23 84 24 89 25 85 26 88 27 86 28 87 29 8 31 9 32 10 33
REMARK SMILES IDX 11 34 12 35 13 36 74 37 14 38 73 39 15 40 16 41 17 42 67 43
REMARK SMILES IDX 18 44 72 45 66 46 68 47 19 48 71 49 65 50 64 51 20 53 52 54
REMARK SMILES IDX 32 55 51 56 33 57 36 58 50 59 69 60 34 61 35 62 49 64 70 65
REMARK SMILES IDX 37 66 21 67 22 68 30 69 23 70 29 71 31 72 28 73 24 74 25 75
REMARK SMILES IDX 26 76 27 77 53 78 54 79 62 80 55 81 61 82 63 83 60 84 56 85
REMARK SMILES IDX 57 86 58 87 59 88 38 89 39 90 47 91 40 92 46 93 48 94 45 95
REMARK SMILES IDX 41 96 42 97 43 98 44 99
REMARK H PARENT 87 30 68 52 36 63
REMARK Flexibility Score: inf
ROOT
ATOM      1  C   UNL     1       2.744   1.953  -2.332  1.00  0.00     0.202 C 
ENDROOT
BRANCH   1   2
ATOM      2  O   UNL     1       3.992   1.747  -1.623  1.00  0.00    -0.374 OA
BRANCH   2   3
ATOM      3  C   UNL     1       4.399   0.928  -0.261  1.00  0.00     0.202 C 
BRANCH   3   4
ATOM      4  C   UNL     1       3.486  -0.835   0.631  1.00  0.00     0.261 C 
BRANCH   4   5
ATOM      5  O   UNL     1       2.494  -0.822   1.855  1.00  0.00    -0.460 OA
BRANCH   5   6
ATOM      6  C   UNL     1       2.636   0.245   2.650  1.00  0.00     0.338 C 
ATOM      7  O   UNL     1       2.013   0.606   3.614  1.00  0.00    -0.246 OA
BRANCH   6   8
ATOM      8  C   UNL     1       3.540   0.928   1.766  1.00  0.00     0.087 C 
ATOM      9  C   UNL     1       4.898   0.395   1.902  1.00  0.00     0.027 C 
ATOM     10  C   UNL     1       2.464   0.825   0.159  1.00  0.00     0.316 C 
ATOM     11  C   UNL     1       5.691  -0.629   0.648  1.00  0.00     0.019 A 
ATOM     12  O   UNL     1       3.310  -0.285  -1.205  1.00  0.00    -0.475 OA
ATOM     13  C   UNL     1       6.836  -1.253   1.065  1.00  0.00     0.032 A 
ATOM     14  C   UNL     1       4.939  -1.063  -0.875  1.00  0.00     0.135 A 
ATOM     15  C   UNL     1       7.270  -2.282   0.238  1.00  0.00     0.042 A 
ATOM     16  C   UNL     1       5.544  -2.055  -1.702  1.00  0.00     0.026 A 
ATOM     17  Cl  UNL     1       8.681  -3.153   0.743  1.00  0.00    -0.084 Cl
ATOM     18  C   UNL     1       6.644  -2.673  -1.006  1.00  0.00     0.033 A 
BRANCH  10  19
ATOM     19  C   UNL     1       1.986   2.361   0.215  1.00  0.00     0.430 C 
ATOM     20  F   UNL     1       1.003   2.688  -0.647  1.00  0.00    -0.167 F 
ATOM     21  F   UNL     1       1.431   2.585   1.446  1.00  0.00    -0.167 F 
ATOM     22  F   UNL     1       2.974   3.281   0.127  1.00  0.00    -0.167 F 
ENDBRANCH  10  19
BRANCH  16  23
ATOM     23  C   UNL     1       5.244  -2.553  -3.206  1.00  0.00    -0.014 A 
ATOM     24  C   UNL     1       3.608  -3.333  -3.128  1.00  0.00     0.012 A 
ATOM     25  C   UNL     1       5.954  -2.177  -5.083  1.00  0.00     0.012 A 
ATOM     26  C   UNL     1       2.739  -3.675  -4.628  1.00  0.00     0.047 A 
ATOM     27  C   UNL     1       4.944  -2.574  -6.514  1.00  0.00     0.047 A 
ATOM     28  C   UNL     1       3.391  -3.300  -6.229  1.00  0.00     0.115 A 
BRANCH  28  29
ATOM     29  O   UNL     1       2.639  -3.654  -7.316  1.00  0.00    -0.508 OA
ATOM     30  H   UNL     1       1.797  -4.048  -7.195  1.00  0.00     0.293 HD
ENDBRANCH  28  29
ENDBRANCH  16  23
ENDBRANCH   6   8
ENDBRANCH   5   6
ENDBRANCH   4   5
ENDBRANCH   3   4
ENDBRANCH   2   3
ENDBRANCH   1   2
BRANCH   1  31
ATOM     31  C   UNL     1       2.785   1.886  -3.857  1.00  0.00     0.261 C 
BRANCH  31  32
ATOM     32  O   UNL     1       3.453   0.719  -4.255  1.00  0.00    -0.460 OA
BRANCH  32  33
ATOM     33  C   UNL     1       4.786   0.816  -4.102  1.00  0.00     0.338 C 
ATOM     34  O   UNL     1       5.486   1.800  -3.970  1.00  0.00    -0.246 OA
BRANCH  33  35
ATOM     35  C   UNL     1       5.231  -0.550  -4.040  1.00  0.00     0.060 A 
ATOM     36  C   UNL     1       6.897  -0.934  -3.560  1.00  0.00     0.016 A 
ATOM     37  C   UNL     1       4.160  -1.890  -4.622  1.00  0.00     0.016 A 
ATOM     38  C   UNL     1       7.579  -2.585  -3.669  1.00  0.00     0.010 A 
ATOM     39  C   UNL     1       4.980  -3.741  -4.702  1.00  0.00     0.010 A 
ATOM     40  C   UNL     1       6.676  -3.983  -4.228  1.00  0.00    -0.014 A 
BRANCH  40  41
ATOM     41  C   UNL     1       7.208  -5.324  -4.611  1.00  0.00     0.031 A 
ATOM     42  C   UNL     1       7.647  -5.612  -6.036  1.00  0.00     0.074 A 
ATOM     43  C   UNL     1       6.915  -6.364  -3.806  1.00  0.00     0.049 A 
ATOM     44  N   UNL     1       7.901  -6.761  -6.619  1.00  0.00    -0.248 NA
ATOM     45  C   UNL     1       7.749  -4.465  -6.946  1.00  0.00     0.031 C 
ATOM     46  C   UNL     1       6.291  -6.250  -2.490  1.00  0.00     0.029 A 
ATOM     47  N   UNL     1       7.025  -7.719  -4.003  1.00  0.00    -0.354 N 
ATOM     48  C   UNL     1       8.184  -6.470  -7.954  1.00  0.00     0.074 A 
ATOM     49  C   UNL     1       7.990  -5.047  -8.114  1.00  0.00     0.031 C 
ATOM     50  C   UNL     1       6.054  -7.477  -2.004  1.00  0.00     0.029 A 
ATOM     51  C   UNL     1       6.492  -8.470  -2.979  1.00  0.00     0.049 A 
ATOM     52  H   UNL     1       7.444  -8.116  -4.800  1.00  0.00     0.167 HD
ATOM     53  C   UNL     1       8.602  -7.300  -8.947  1.00  0.00     0.034 A 
ATOM     54  C   UNL     1       6.358  -9.803  -2.839  1.00  0.00     0.034 A 
ATOM     55  C   UNL     1       8.780  -8.722  -8.775  1.00  0.00     0.049 A 
ATOM     56  C   UNL     1       6.873 -10.712  -3.927  1.00  0.00     0.074 A 
ATOM     57  C   UNL     1       9.354  -9.634  -9.647  1.00  0.00     0.029 A 
ATOM     58  N   UNL     1       8.356  -9.445  -7.670  1.00  0.00    -0.354 N 
ATOM     59  N   UNL     1       7.365 -10.398  -5.103  1.00  0.00    -0.248 NA
ATOM     60  C   UNL     1       6.850 -12.155  -3.652  1.00  0.00     0.031 C 
ATOM     61  C   UNL     1       9.199 -10.915  -9.107  1.00  0.00     0.029 A 
ATOM     62  C   UNL     1       8.613 -10.794  -7.858  1.00  0.00     0.049 A 
ATOM     63  H   UNL     1       7.933  -9.057  -6.870  1.00  0.00     0.167 HD
ATOM     64  C   UNL     1       7.754 -11.603  -5.683  1.00  0.00     0.074 A 
ATOM     65  C   UNL     1       7.458 -12.643  -4.722  1.00  0.00     0.031 C 
ATOM     66  C   UNL     1       8.312 -11.829  -6.900  1.00  0.00     0.034 A 
BRANCH  53  67
ATOM     67  C   UNL     1       8.944  -6.705 -10.298  1.00  0.00     0.023 A 
ATOM     68  C   UNL     1       9.967  -5.750 -10.433  1.00  0.00     0.031 A 
ATOM     69  C   UNL     1       8.307  -7.144 -11.474  1.00  0.00     0.131 A 
ATOM     70  C   UNL     1      10.288  -5.229 -11.696  1.00  0.00     0.055 A 
ATOM     71  C   UNL     1       8.684  -6.680 -12.739  1.00  0.00     0.041 A 
ATOM     72  F   UNL     1       7.314  -8.046 -11.419  1.00  0.00    -0.206 F 
ATOM     73  C   UNL     1       9.675  -5.709 -12.854  1.00  0.00     0.022 A 
BRANCH  70  74
ATOM     74  S   UNL     1      11.448  -3.838 -11.785  1.00  0.00     0.124 S 
ATOM     75  O   UNL     1      10.766  -2.835 -10.970  1.00  0.00    -0.237 OA
ATOM     76  O   UNL     1      12.664  -4.404 -11.215  1.00  0.00    -0.237 OA
ATOM     77  O   UNL     1      11.509  -3.533 -13.213  1.00  0.00    -0.744 OA
ENDBRANCH  70  74
ENDBRANCH  53  67
BRANCH  54  78
ATOM     78  C   UNL     1       5.766 -10.378  -1.597  1.00  0.00     0.023 A 
ATOM     79  C   UNL     1       6.557 -11.153  -0.736  1.00  0.00     0.031 A 
ATOM     80  C   UNL     1       4.407 -10.217  -1.278  1.00  0.00     0.131 A 
ATOM     81  C   UNL     1       5.971 -11.811   0.353  1.00  0.00     0.055 A 
ATOM     82  C   UNL     1       3.842 -10.817  -0.149  1.00  0.00     0.041 A 
ATOM     83  F   UNL     1       3.608  -9.470  -2.056  1.00  0.00    -0.206 F 
ATOM     84  C   UNL     1       4.621 -11.638   0.662  1.00  0.00     0.022 A 
BRANCH  81  85
ATOM     85  S   UNL     1       6.978 -13.003   1.276  1.00  0.00     0.124 S 
ATOM     86  O   UNL     1       7.419 -13.901   0.214  1.00  0.00    -0.237 OA
ATOM     87  O   UNL     1       8.004 -12.145   1.857  1.00  0.00    -0.237 OA
ATOM     88  O   UNL     1       6.033 -13.579   2.230  1.00  0.00    -0.744 OA
ENDBRANCH  81  85
ENDBRANCH  54  78
BRANCH  66  89
ATOM     89  C   UNL     1       8.682 -13.252  -7.239  1.00  0.00     0.023 A 
ATOM     90  C   UNL     1       7.710 -14.258  -7.368  1.00  0.00     0.031 A 
ATOM     91  C   UNL     1      10.030 -13.609  -7.426  1.00  0.00     0.131 A 
ATOM     92  C   UNL     1       8.103 -15.583  -7.607  1.00  0.00     0.055 A 
ATOM     93  C   UNL     1      10.409 -14.914  -7.740  1.00  0.00     0.041 A 
ATOM     94  F   UNL     1      11.004 -12.691  -7.308  1.00  0.00    -0.206 F 
ATOM     95  C   UNL     1       9.444 -15.914  -7.817  1.00  0.00     0.022 A 
BRANCH  92  96
ATOM     96  S   UNL     1       6.846 -16.888  -7.531  1.00  0.00     0.124 S 
ATOM     97  O   UNL     1       6.334 -16.735  -6.173  1.00  0.00    -0.237 OA
ATOM     98  O   UNL     1       5.932 -16.505  -8.603  1.00  0.00    -0.237 OA
ATOM     99  O   UNL     1       7.607 -18.112  -7.774  1.00  0.00    -0.744 OA
ENDBRANCH  92  96
ENDBRANCH  66  89
ENDBRANCH  40  41
ENDBRANCH  33  35
ENDBRANCH  32  33
ENDBRANCH  31  32
ENDBRANCH   1  31
TORSDOF 20
