REMARK SMILES COc1ccc(/C=C/C(=O)Nc2cc(Cl)ccc2C(=O)OCCOCCOC(=O)c2ccc(-c3c4nc(c(-c5cc(S(=O)(=O)[O-])ccc5F)c5ccc([nH]5)c(-c5cc(S(=O)(=O)[O-])ccc5F)c5nc(c(-c6cc(S(=O)(=O)[O-])ccc6F)c6ccc3[nH]6)C=C5)C=C4)cc2)cc1
REMARK SMILES IDX 23 1 22 2 21 3 19 4 20 5 18 6 12 7 13 8 14 9 17 10 15 11
REMARK SMILES IDX 16 12 11 13 9 14 10 15 8 17 7 18 6 19 3 20 4 21 94 22 5 23
REMARK SMILES IDX 93 24 2 25 1 26 24 27 25 28 26 29 27 30 28 31 29 32 30 33
REMARK SMILES IDX 31 34 92 35 32 36 91 37 33 38 34 39 35 40 85 41 36 42 90 43
REMARK SMILES IDX 84 44 86 45 37 46 89 47 83 48 82 49 38 51 70 52 50 53 69 54
REMARK SMILES IDX 51 55 54 56 68 57 87 58 52 59 53 60 67 62 88 63 55 64 39 65
REMARK SMILES IDX 40 66 48 67 41 68 47 69 49 70 46 71 42 72 43 73 44 74 45 75
REMARK SMILES IDX 71 76 72 77 80 78 73 79 79 80 81 81 78 82 74 83 75 84 76 85
REMARK SMILES IDX 77 86 56 87 57 88 65 89 58 90 64 91 66 92 63 93 59 94 60 95
REMARK SMILES IDX 61 96 62 97
REMARK H PARENT 11 16 86 50 54 61
REMARK Flexibility Score: inf
ROOT
ATOM      1  C   UNL     1       1.963   4.685  -7.048  1.00  0.00     0.202 C 
ENDROOT
BRANCH   1   2
ATOM      2  C   UNL     1       1.620   5.015  -5.594  1.00  0.00     0.261 C 
BRANCH   2   3
ATOM      3  O   UNL     1       2.580   5.848  -4.917  1.00  0.00    -0.460 OA
BRANCH   3   4
ATOM      4  C   UNL     1       3.300   5.195  -3.972  1.00  0.00     0.340 C 
ATOM      5  O   UNL     1       3.314   3.983  -3.798  1.00  0.00    -0.246 OA
BRANCH   4   6
ATOM      6  C   UNL     1       4.234   6.080  -3.227  1.00  0.00     0.083 A 
ATOM      7  C   UNL     1       4.058   7.430  -2.867  1.00  0.00     0.057 A 
ATOM      8  C   UNL     1       5.147   8.104  -2.269  1.00  0.00     0.047 A 
ATOM      9  C   UNL     1       6.334   7.442  -1.950  1.00  0.00     0.043 A 
ATOM     10  C   UNL     1       5.451   5.432  -2.899  1.00  0.00     0.019 A 
ATOM     11  Cl  UNL     1       7.599   8.283  -1.144  1.00  0.00    -0.084 Cl
ATOM     12  C   UNL     1       6.488   6.100  -2.253  1.00  0.00     0.021 A 
BRANCH   7  13
ATOM     13  N   UNL     1       2.906   8.241  -2.986  1.00  0.00    -0.322 N 
ATOM     14  C   UNL     1       1.564   8.001  -2.978  1.00  0.00     0.248 C 
ATOM     15  O   UNL     1       0.786   8.910  -3.259  1.00  0.00    -0.270 OA
ATOM     16  H   UNL     1       3.122   9.194  -3.101  1.00  0.00     0.170 HD
BRANCH  14  17
ATOM     17  C   UNL     1       1.021   6.684  -2.611  1.00  0.00     0.072 C 
ATOM     18  C   UNL     1       1.439   5.986  -1.546  1.00  0.00     0.014 C 
BRANCH  18  19
ATOM     19  C   UNL     1       1.114   4.563  -1.379  1.00  0.00    -0.025 A 
ATOM     20  C   UNL     1       0.716   1.787  -1.231  1.00  0.00     0.118 A 
ATOM     21  C   UNL     1      -0.288   2.615  -1.729  1.00  0.00     0.047 A 
ATOM     22  C   UNL     1       1.928   2.338  -0.821  1.00  0.00     0.047 A 
ATOM     23  C   UNL     1      -0.099   3.998  -1.788  1.00  0.00     0.012 A 
ATOM     24  C   UNL     1       2.118   3.721  -0.878  1.00  0.00     0.012 A 
BRANCH  20  25
ATOM     25  O   UNL     1       0.444   0.447  -1.222  1.00  0.00    -0.497 OA
ATOM     26  C   UNL     1       0.929  -0.224  -0.063  1.00  0.00     0.278 C 
ENDBRANCH  20  25
ENDBRANCH  18  19
ENDBRANCH  14  17
ENDBRANCH   7  13
ENDBRANCH   4   6
ENDBRANCH   3   4
ENDBRANCH   2   3
ENDBRANCH   1   2
BRANCH   1  27
ATOM     27  O   UNL     1       3.224   4.094  -7.333  1.00  0.00    -0.374 OA
BRANCH  27  28
ATOM     28  C   UNL     1       4.401   4.860  -7.105  1.00  0.00     0.202 C 
BRANCH  28  29
ATOM     29  C   UNL     1       4.629   6.141  -7.918  1.00  0.00     0.261 C 
BRANCH  29  30
ATOM     30  O   UNL     1       3.593   7.130  -7.785  1.00  0.00    -0.460 OA
BRANCH  30  31
ATOM     31  C   UNL     1       2.875   7.339  -8.916  1.00  0.00     0.338 C 
ATOM     32  O   UNL     1       3.019   6.766  -9.992  1.00  0.00    -0.246 OA
BRANCH  31  33
ATOM     33  C   UNL     1       1.762   8.271  -8.676  1.00  0.00     0.060 A 
ATOM     34  C   UNL     1       0.460   7.820  -8.925  1.00  0.00     0.016 A 
ATOM     35  C   UNL     1       2.003   9.611  -8.367  1.00  0.00     0.016 A 
ATOM     36  C   UNL     1      -0.604   8.720  -8.913  1.00  0.00     0.010 A 
ATOM     37  C   UNL     1       0.934  10.515  -8.366  1.00  0.00     0.010 A 
ATOM     38  C   UNL     1      -0.368  10.080  -8.677  1.00  0.00    -0.014 A 
BRANCH  38  39
ATOM     39  C   UNL     1      -1.456  11.063  -8.906  1.00  0.00     0.031 A 
ATOM     40  C   UNL     1      -1.502  11.812 -10.212  1.00  0.00     0.074 A 
ATOM     41  C   UNL     1      -2.406  11.263  -7.975  1.00  0.00     0.049 A 
ATOM     42  N   UNL     1      -2.331  12.742 -10.609  1.00  0.00    -0.248 NA
ATOM     43  C   UNL     1      -0.469  11.464 -11.200  1.00  0.00     0.031 C 
ATOM     44  C   UNL     1      -2.488  10.566  -6.692  1.00  0.00     0.029 A 
ATOM     45  N   UNL     1      -3.480  12.117  -7.963  1.00  0.00    -0.354 N 
ATOM     46  C   UNL     1      -1.921  13.095 -11.890  1.00  0.00     0.074 A 
ATOM     47  C   UNL     1      -0.749  12.300 -12.189  1.00  0.00     0.031 C 
ATOM     48  C   UNL     1      -3.551  11.029  -6.013  1.00  0.00     0.029 A 
ATOM     49  C   UNL     1      -4.200  12.081  -6.792  1.00  0.00     0.049 A 
ATOM     50  H   UNL     1      -3.713  12.701  -8.722  1.00  0.00     0.167 HD
ATOM     51  C   UNL     1      -2.475  13.996 -12.740  1.00  0.00     0.034 A 
ATOM     52  C   UNL     1      -5.244  12.833  -6.386  1.00  0.00     0.034 A 
ATOM     53  C   UNL     1      -3.638  14.790 -12.422  1.00  0.00     0.049 A 
ATOM     54  C   UNL     1      -5.792  13.888  -7.317  1.00  0.00     0.074 A 
ATOM     55  C   UNL     1      -4.290  15.720 -13.213  1.00  0.00     0.029 A 
ATOM     56  N   UNL     1      -4.315  14.757 -11.210  1.00  0.00    -0.354 N 
ATOM     57  N   UNL     1      -5.399  14.208  -8.529  1.00  0.00    -0.248 NA
ATOM     58  C   UNL     1      -6.928  14.679  -6.825  1.00  0.00     0.031 C 
ATOM     59  C   UNL     1      -5.317  16.297 -12.457  1.00  0.00     0.029 A 
ATOM     60  C   UNL     1      -5.355  15.675 -11.219  1.00  0.00     0.049 A 
ATOM     61  H   UNL     1      -4.090  14.168 -10.454  1.00  0.00     0.167 HD
ATOM     62  C   UNL     1      -6.259  15.218  -8.953  1.00  0.00     0.074 A 
ATOM     63  C   UNL     1      -7.198  15.443  -7.873  1.00  0.00     0.031 C 
ATOM     64  C   UNL     1      -6.275  15.897 -10.129  1.00  0.00     0.034 A 
BRANCH  51  65
ATOM     65  C   UNL     1      -1.793  14.207 -14.070  1.00  0.00     0.023 A 
ATOM     66  C   UNL     1      -1.732  13.193 -15.043  1.00  0.00     0.031 A 
ATOM     67  C   UNL     1      -1.177  15.437 -14.361  1.00  0.00     0.131 A 
ATOM     68  C   UNL     1      -1.019  13.407 -16.233  1.00  0.00     0.055 A 
ATOM     69  C   UNL     1      -0.531  15.668 -15.577  1.00  0.00     0.041 A 
ATOM     70  F   UNL     1      -1.184  16.434 -13.463  1.00  0.00    -0.206 F 
ATOM     71  C   UNL     1      -0.438  14.646 -16.517  1.00  0.00     0.022 A 
BRANCH  68  72
ATOM     72  S   UNL     1      -0.755  12.006 -17.354  1.00  0.00     0.124 S 
ATOM     73  O   UNL     1      -0.040  11.068 -16.492  1.00  0.00    -0.237 OA
ATOM     74  O   UNL     1      -2.116  11.630 -17.717  1.00  0.00    -0.237 OA
ATOM     75  O   UNL     1       0.044  12.578 -18.436  1.00  0.00    -0.744 OA
ENDBRANCH  68  72
ENDBRANCH  51  65
BRANCH  52  76
ATOM     76  C   UNL     1      -5.812  12.660  -5.019  1.00  0.00     0.023 A 
ATOM     77  C   UNL     1      -7.138  12.238  -4.828  1.00  0.00     0.031 A 
ATOM     78  C   UNL     1      -5.051  12.977  -3.879  1.00  0.00     0.131 A 
ATOM     79  C   UNL     1      -7.676  12.187  -3.532  1.00  0.00     0.055 A 
ATOM     80  C   UNL     1      -5.573  12.873  -2.589  1.00  0.00     0.041 A 
ATOM     81  F   UNL     1      -3.780  13.392  -4.005  1.00  0.00    -0.206 F 
ATOM     82  C   UNL     1      -6.899  12.489  -2.411  1.00  0.00     0.022 A 
BRANCH  79  83
ATOM     83  S   UNL     1      -9.439  11.809  -3.337  1.00  0.00     0.124 S 
ATOM     84  O   UNL     1     -10.059  12.857  -4.139  1.00  0.00    -0.237 OA
ATOM     85  O   UNL     1      -9.520  10.455  -3.876  1.00  0.00    -0.237 OA
ATOM     86  O   UNL     1      -9.653  11.917  -1.895  1.00  0.00    -0.744 OA
ENDBRANCH  79  83
ENDBRANCH  52  76
BRANCH  64  87
ATOM     87  C   UNL     1      -7.375  16.914 -10.318  1.00  0.00     0.023 A 
ATOM     88  C   UNL     1      -7.425  18.099  -9.562  1.00  0.00     0.031 A 
ATOM     89  C   UNL     1      -8.393  16.686 -11.260  1.00  0.00     0.131 A 
ATOM     90  C   UNL     1      -8.502  18.985  -9.724  1.00  0.00     0.055 A 
ATOM     91  C   UNL     1      -9.431  17.598 -11.457  1.00  0.00     0.041 A 
ATOM     92  F   UNL     1      -8.395  15.570 -12.007  1.00  0.00    -0.206 F 
ATOM     93  C   UNL     1      -9.496  18.749 -10.677  1.00  0.00     0.022 A 
BRANCH  90  94
ATOM     94  S   UNL     1      -8.633  20.410  -8.610  1.00  0.00     0.124 S 
ATOM     95  O   UNL     1      -8.691  19.769  -7.300  1.00  0.00    -0.237 OA
ATOM     96  O   UNL     1      -7.411  21.151  -8.904  1.00  0.00    -0.237 OA
ATOM     97  O   UNL     1      -9.870  21.065  -9.034  1.00  0.00    -0.744 OA
ENDBRANCH  90  94
ENDBRANCH  64  87
ENDBRANCH  38  39
ENDBRANCH  31  33
ENDBRANCH  30  31
ENDBRANCH  29  30
ENDBRANCH  28  29
ENDBRANCH  27  28
ENDBRANCH   1  27
TORSDOF 21
