REMARK SMILES COc1cc2cc(C(=O)OCCOCCOC(=O)c3ccc(-c4c5nc(c(-c6cc(S(=O)(=O)[O-])ccc6F)c6ccc([nH]6)c(-c6cc(S(=O)(=O)[O-])ccc6F)c6nc(c(-c7cc(S(=O)(=O)[O-])ccc7F)c7ccc4[nH]7)C=C6)C=C5)cc3)n(Cc3ccccc3)c2c(OC)c1OC
REMARK SMILES IDX 14 1 13 2 12 3 11 4 10 5 8 6 9 7 7 8 3 9 4 10 94 11 5 12
REMARK SMILES IDX 91 13 6 14 90 15 82 16 2 17 1 18 95 19 96 20 92 21 93 22
REMARK SMILES IDX 83 23 84 24 85 25 89 26 86 27 88 28 87 29 15 30 16 31 17 32
REMARK SMILES IDX 18 33 19 34 20 35 81 36 21 37 80 38 22 39 23 40 24 41 74 42
REMARK SMILES IDX 25 43 79 44 73 45 75 46 26 47 78 48 72 49 71 50 27 52 59 53
REMARK SMILES IDX 39 54 58 55 40 56 43 57 57 58 76 59 41 60 42 61 56 63 77 64
REMARK SMILES IDX 44 65 28 66 29 67 37 68 30 69 36 70 38 71 35 72 31 73 32 74
REMARK SMILES IDX 33 75 34 76 60 77 61 78 69 79 62 80 68 81 70 82 67 83 63 84
REMARK SMILES IDX 64 85 65 86 66 87 45 88 46 89 54 90 47 91 53 92 55 93 52 94
REMARK SMILES IDX 48 95 49 96 50 97 51 98
REMARK H PARENT 75 51 43 62
REMARK Flexibility Score: inf
ROOT
ATOM      1  C   UNL     1      -1.376  -4.532  -8.274  1.00  0.00     0.202 C 
ENDROOT
BRANCH   1   2
ATOM      2  O   UNL     1      -2.085  -3.719  -9.214  1.00  0.00    -0.374 OA
BRANCH   2   3
ATOM      3  C   UNL     1      -1.346  -3.088 -10.258  1.00  0.00     0.202 C 
BRANCH   3   4
ATOM      4  C   UNL     1      -0.488  -1.853  -9.932  1.00  0.00     0.261 C 
BRANCH   4   5
ATOM      5  O   UNL     1       0.246  -1.941  -8.700  1.00  0.00    -0.459 OA
BRANCH   5   6
ATOM      6  C   UNL     1      -0.403  -1.341  -7.665  1.00  0.00     0.355 C 
ATOM      7  O   UNL     1      -1.479  -0.763  -7.766  1.00  0.00    -0.244 OA
BRANCH   6   8
ATOM      8  C   UNL     1       0.228  -1.578  -6.380  1.00  0.00     0.129 A 
ATOM      9  C   UNL     1       1.092  -1.456  -1.829  1.00  0.00     0.165 A 
ATOM     10  C   UNL     1       0.038  -1.578  -2.731  1.00  0.00     0.061 A 
ATOM     11  C   UNL     1       2.419  -1.387  -2.282  1.00  0.00     0.205 A 
ATOM     12  C   UNL     1       0.313  -1.623  -4.108  1.00  0.00     0.008 A 
ATOM     13  C   UNL     1       2.720  -1.448  -3.673  1.00  0.00     0.189 A 
ATOM     14  C   UNL     1      -0.533  -1.681  -5.228  1.00  0.00     0.044 A 
ATOM     15  C   UNL     1       1.629  -1.582  -4.577  1.00  0.00     0.096 A 
ATOM     16  N   UNL     1       1.559  -1.702  -5.981  1.00  0.00    -0.327 N 
BRANCH   9  17
ATOM     17  O   UNL     1       0.812  -1.556  -0.487  1.00  0.00    -0.493 OA
ATOM     18  C   UNL     1       0.226  -0.363   0.036  1.00  0.00     0.278 C 
ENDBRANCH   9  17
BRANCH  11  19
ATOM     19  O   UNL     1       3.469  -1.393  -1.389  1.00  0.00    -0.490 OA
ATOM     20  C   UNL     1       3.411  -0.384  -0.385  1.00  0.00     0.278 C 
ENDBRANCH  11  19
BRANCH  13  21
ATOM     21  O   UNL     1       3.976  -1.419  -4.216  1.00  0.00    -0.491 OA
ATOM     22  C   UNL     1       5.010  -0.773  -3.489  1.00  0.00     0.278 C 
ENDBRANCH  13  21
BRANCH  16  23
ATOM     23  C   UNL     1       2.727  -1.789  -6.872  1.00  0.00     0.158 C 
BRANCH  23  24
ATOM     24  C   UNL     1       3.288  -3.193  -7.024  1.00  0.00    -0.028 A 
ATOM     25  C   UNL     1       2.488  -4.238  -7.495  1.00  0.00     0.005 A 
ATOM     26  C   UNL     1       4.644  -3.474  -6.798  1.00  0.00     0.005 A 
ATOM     27  C   UNL     1       3.006  -5.516  -7.731  1.00  0.00     0.000 A 
ATOM     28  C   UNL     1       5.170  -4.753  -7.037  1.00  0.00     0.000 A 
ATOM     29  C   UNL     1       4.351  -5.774  -7.510  1.00  0.00     0.000 A 
ENDBRANCH  23  24
ENDBRANCH  16  23
ENDBRANCH   6   8
ENDBRANCH   5   6
ENDBRANCH   4   5
ENDBRANCH   3   4
ENDBRANCH   2   3
ENDBRANCH   1   2
BRANCH   1  30
ATOM     30  C   UNL     1      -0.611  -5.755  -8.807  1.00  0.00     0.261 C 
BRANCH  30  31
ATOM     31  O   UNL     1       0.476  -5.325  -9.637  1.00  0.00    -0.460 OA
BRANCH  31  32
ATOM     32  C   UNL     1       0.784  -6.122 -10.689  1.00  0.00     0.338 C 
ATOM     33  O   UNL     1       0.565  -7.317 -10.792  1.00  0.00    -0.246 OA
BRANCH  32  34
ATOM     34  C   UNL     1       1.075  -5.192 -11.800  1.00  0.00     0.060 A 
ATOM     35  C   UNL     1       1.928  -4.098 -11.622  1.00  0.00     0.016 A 
ATOM     36  C   UNL     1       0.220  -5.265 -12.909  1.00  0.00     0.016 A 
ATOM     37  C   UNL     1       1.857  -3.039 -12.524  1.00  0.00     0.010 A 
ATOM     38  C   UNL     1       0.141  -4.196 -13.796  1.00  0.00     0.010 A 
ATOM     39  C   UNL     1       0.927  -3.062 -13.584  1.00  0.00    -0.014 A 
BRANCH  39  40
ATOM     40  C   UNL     1       0.980  -1.982 -14.580  1.00  0.00     0.031 A 
ATOM     41  C   UNL     1       2.298  -1.923 -15.265  1.00  0.00     0.074 A 
ATOM     42  C   UNL     1      -0.039  -1.200 -15.005  1.00  0.00     0.049 A 
ATOM     43  N   UNL     1       3.195  -0.998 -15.172  1.00  0.00    -0.248 NA
ATOM     44  C   UNL     1       2.743  -3.126 -15.987  1.00  0.00     0.031 C 
ATOM     45  C   UNL     1      -1.458  -1.308 -14.659  1.00  0.00     0.029 A 
ATOM     46  N   UNL     1      -0.033  -0.188 -15.932  1.00  0.00    -0.354 N 
ATOM     47  C   UNL     1       4.229  -1.398 -16.015  1.00  0.00     0.074 A 
ATOM     48  C   UNL     1       3.989  -2.787 -16.314  1.00  0.00     0.031 C 
ATOM     49  C   UNL     1      -2.191  -0.575 -15.530  1.00  0.00     0.029 A 
ATOM     50  C   UNL     1      -1.297   0.167 -16.405  1.00  0.00     0.049 A 
ATOM     51  H   UNL     1       0.793   0.251 -16.238  1.00  0.00     0.167 HD
ATOM     52  C   UNL     1       5.052  -0.490 -16.610  1.00  0.00     0.034 A 
ATOM     53  C   UNL     1      -1.597   0.965 -17.466  1.00  0.00     0.034 A 
ATOM     54  C   UNL     1       4.944   0.801 -15.983  1.00  0.00     0.049 A 
ATOM     55  C   UNL     1      -0.418   1.798 -17.775  1.00  0.00     0.074 A 
ATOM     56  C   UNL     1       5.179   1.311 -14.723  1.00  0.00     0.029 A 
ATOM     57  N   UNL     1       4.177   1.733 -16.634  1.00  0.00    -0.354 N 
ATOM     58  N   UNL     1       0.001   2.779 -17.033  1.00  0.00    -0.248 NA
ATOM     59  C   UNL     1       0.537   1.291 -18.745  1.00  0.00     0.031 C 
ATOM     60  C   UNL     1       4.192   2.322 -14.537  1.00  0.00     0.029 A 
ATOM     61  C   UNL     1       3.441   2.421 -15.709  1.00  0.00     0.049 A 
ATOM     62  H   UNL     1       4.160   1.883 -17.607  1.00  0.00     0.167 HD
ATOM     63  C   UNL     1       1.377   2.655 -17.072  1.00  0.00     0.074 A 
ATOM     64  C   UNL     1       1.649   1.834 -18.250  1.00  0.00     0.031 C 
ATOM     65  C   UNL     1       2.130   2.977 -15.980  1.00  0.00     0.034 A 
BRANCH  52  66
ATOM     66  C   UNL     1       5.619  -0.671 -18.003  1.00  0.00     0.023 A 
ATOM     67  C   UNL     1       5.182  -1.676 -18.888  1.00  0.00     0.031 A 
ATOM     68  C   UNL     1       6.445   0.321 -18.569  1.00  0.00     0.131 A 
ATOM     69  C   UNL     1       5.559  -1.691 -20.236  1.00  0.00     0.055 A 
ATOM     70  C   UNL     1       6.760   0.351 -19.934  1.00  0.00     0.041 A 
ATOM     71  F   UNL     1       6.915   1.335 -17.825  1.00  0.00    -0.206 F 
ATOM     72  C   UNL     1       6.317  -0.660 -20.777  1.00  0.00     0.022 A 
BRANCH  69  73
ATOM     73  S   UNL     1       5.046  -3.058 -21.313  1.00  0.00     0.124 S 
ATOM     74  O   UNL     1       4.328  -2.355 -22.370  1.00  0.00    -0.237 OA
ATOM     75  O   UNL     1       6.336  -3.628 -21.694  1.00  0.00    -0.237 OA
ATOM     76  O   UNL     1       4.234  -3.897 -20.437  1.00  0.00    -0.744 OA
ENDBRANCH  69  73
ENDBRANCH  52  66
BRANCH  53  77
ATOM     77  C   UNL     1      -2.629   0.744 -18.514  1.00  0.00     0.023 A 
ATOM     78  C   UNL     1      -3.059  -0.564 -18.783  1.00  0.00     0.031 A 
ATOM     79  C   UNL     1      -2.892   1.723 -19.496  1.00  0.00     0.131 A 
ATOM     80  C   UNL     1      -3.630  -0.883 -20.022  1.00  0.00     0.055 A 
ATOM     81  C   UNL     1      -3.487   1.407 -20.724  1.00  0.00     0.041 A 
ATOM     82  F   UNL     1      -2.484   2.991 -19.323  1.00  0.00    -0.206 F 
ATOM     83  C   UNL     1      -3.838   0.090 -21.001  1.00  0.00     0.022 A 
BRANCH  80  84
ATOM     84  S   UNL     1      -3.994  -2.613 -20.426  1.00  0.00     0.124 S 
ATOM     85  O   UNL     1      -5.321  -2.518 -21.029  1.00  0.00    -0.237 OA
ATOM     86  O   UNL     1      -2.907  -2.936 -21.342  1.00  0.00    -0.237 OA
ATOM     87  O   UNL     1      -3.953  -3.280 -19.128  1.00  0.00    -0.744 OA
ENDBRANCH  80  84
ENDBRANCH  53  77
BRANCH  65  88
ATOM     88  C   UNL     1       1.485   3.781 -14.870  1.00  0.00     0.023 A 
ATOM     89  C   UNL     1       2.196   4.898 -14.401  1.00  0.00     0.031 A 
ATOM     90  C   UNL     1       0.319   3.416 -14.167  1.00  0.00     0.131 A 
ATOM     91  C   UNL     1       1.766   5.589 -13.263  1.00  0.00     0.055 A 
ATOM     92  C   UNL     1      -0.151   4.156 -13.076  1.00  0.00     0.041 A 
ATOM     93  F   UNL     1      -0.362   2.299 -14.460  1.00  0.00    -0.206 F 
ATOM     94  C   UNL     1       0.583   5.240 -12.609  1.00  0.00     0.022 A 
BRANCH  91  95
ATOM     95  S   UNL     1       2.819   6.860 -12.520  1.00  0.00     0.124 S 
ATOM     96  O   UNL     1       2.027   8.071 -12.715  1.00  0.00    -0.237 OA
ATOM     97  O   UNL     1       2.933   6.400 -11.137  1.00  0.00    -0.237 OA
ATOM     98  O   UNL     1       4.056   6.791 -13.294  1.00  0.00    -0.744 OA
ENDBRANCH  91  95
ENDBRANCH  65  88
ENDBRANCH  39  40
ENDBRANCH  32  34
ENDBRANCH  31  32
ENDBRANCH  30  31
ENDBRANCH   1  30
TORSDOF 22
