REMARK SMILES Cc1cc(SCC(=O)OCCOCCOC(=O)c2ccc(-c3c4nc(c(-c5cc(S(=O)(=O)[O-])ccc5F)c5ccc([nH]5)c(-c5cc(S(=O)(=O)[O-])ccc5F)c5nc(c(-c6cc(S(=O)(=O)[O-])ccc6F)c6ccc3[nH]6)C=C5)C=C4)cc2)c2cc(C(F)(F)F)ccc2n1
REMARK SMILES IDX 12 1 11 2 10 3 9 4 7 5 8 6 6 7 5 8 4 9 1 10 2 11 3 12 91 13
REMARK SMILES IDX 90 14 81 15 89 16 82 17 88 18 83 19 84 20 85 21 86 22 87 23
REMARK SMILES IDX 13 24 14 25 15 26 16 27 17 28 18 29 19 30 80 31 20 32 79 33
REMARK SMILES IDX 21 34 22 35 23 36 73 37 24 38 78 39 72 40 74 41 25 42 77 43
REMARK SMILES IDX 71 44 70 45 26 47 58 48 38 49 57 50 39 51 42 52 56 53 75 54
REMARK SMILES IDX 40 55 41 56 55 58 76 59 43 60 27 61 28 62 36 63 29 64 35 65
REMARK SMILES IDX 37 66 34 67 30 68 31 69 32 70 33 71 59 72 60 73 68 74 61 75
REMARK SMILES IDX 67 76 69 77 66 78 62 79 63 80 64 81 65 82 44 83 45 84 53 85
REMARK SMILES IDX 46 86 52 87 54 88 51 89 47 90 48 91 49 92 50 93
REMARK H PARENT 74 46 42 57
REMARK Flexibility Score: inf
ROOT
ATOM      1  O   UNL     1      -4.261   2.202  -3.093  1.00  0.00    -0.374 OA
ENDROOT
BRANCH   1   2
ATOM      2  C   UNL     1      -3.583   3.237  -3.806  1.00  0.00     0.202 C 
BRANCH   2   3
ATOM      3  C   UNL     1      -3.258   4.524  -3.034  1.00  0.00     0.261 C 
BRANCH   3   4
ATOM      4  O   UNL     1      -2.346   4.332  -1.930  1.00  0.00    -0.463 OA
BRANCH   4   5
ATOM      5  C   UNL     1      -2.829   4.628  -0.694  1.00  0.00     0.316 C 
ATOM      6  O   UNL     1      -3.978   5.005  -0.474  1.00  0.00    -0.251 OA
BRANCH   5   7
ATOM      7  C   UNL     1      -1.834   4.511   0.443  1.00  0.00     0.197 C 
BRANCH   7   8
ATOM      8  S   UNL     1      -0.289   3.614   0.118  1.00  0.00    -0.114 SA
BRANCH   8   9
ATOM      9  C   UNL     1      -0.567   1.875   0.545  1.00  0.00     0.019 A 
ATOM     10  C   UNL     1      -3.373  -0.607   1.091  1.00  0.00     0.067 C 
ATOM     11  C   UNL     1      -2.005  -0.002   0.976  1.00  0.00     0.039 A 
ATOM     12  C   UNL     1      -1.832   1.373   0.863  1.00  0.00     0.039 A 
ATOM     13  N   UNL     1      -0.991  -0.876   0.820  1.00  0.00    -0.253 NA
ATOM     14  C   UNL     1       0.239  -0.410   0.565  1.00  0.00     0.072 A 
ATOM     15  C   UNL     1       0.530   0.964   0.444  1.00  0.00     0.014 A 
ATOM     16  C   UNL     1       1.253  -1.343   0.392  1.00  0.00     0.029 A 
ATOM     17  C   UNL     1       1.889   1.332   0.226  1.00  0.00     0.024 A 
ATOM     18  C   UNL     1       2.578  -0.967   0.157  1.00  0.00     0.015 A 
ATOM     19  C   UNL     1       2.916   0.383   0.101  1.00  0.00     0.056 A 
BRANCH  19  20
ATOM     20  C   UNL     1       4.347   0.832  -0.073  1.00  0.00     0.416 C 
ATOM     21  F   UNL     1       4.535   1.567  -1.201  1.00  0.00    -0.166 F 
ATOM     22  F   UNL     1       4.766   1.614   0.962  1.00  0.00    -0.166 F 
ATOM     23  F   UNL     1       5.236  -0.198  -0.139  1.00  0.00    -0.166 F 
ENDBRANCH  19  20
ENDBRANCH   8   9
ENDBRANCH   7   8
ENDBRANCH   5   7
ENDBRANCH   4   5
ENDBRANCH   3   4
ENDBRANCH   2   3
ENDBRANCH   1   2
BRANCH   1  24
ATOM     24  C   UNL     1      -3.522   1.514  -2.090  1.00  0.00     0.202 C 
BRANCH  24  25
ATOM     25  C   UNL     1      -2.453   0.519  -2.550  1.00  0.00     0.261 C 
BRANCH  25  26
ATOM     26  O   UNL     1      -1.483   1.103  -3.420  1.00  0.00    -0.460 OA
BRANCH  26  27
ATOM     27  C   UNL     1      -1.447   0.535  -4.646  1.00  0.00     0.338 C 
ATOM     28  O   UNL     1      -2.079  -0.439  -5.034  1.00  0.00    -0.246 OA
BRANCH  27  29
ATOM     29  C   UNL     1      -0.648   1.371  -5.546  1.00  0.00     0.060 A 
ATOM     30  C   UNL     1      -1.271   1.819  -6.715  1.00  0.00     0.016 A 
ATOM     31  C   UNL     1       0.697   1.645  -5.287  1.00  0.00     0.016 A 
ATOM     32  C   UNL     1      -0.527   2.497  -7.671  1.00  0.00     0.010 A 
ATOM     33  C   UNL     1       1.443   2.322  -6.251  1.00  0.00     0.010 A 
ATOM     34  C   UNL     1       0.841   2.712  -7.461  1.00  0.00    -0.014 A 
BRANCH  34  35
ATOM     35  C   UNL     1       1.668   3.189  -8.589  1.00  0.00     0.031 A 
ATOM     36  C   UNL     1       2.434   2.177  -9.393  1.00  0.00     0.074 A 
ATOM     37  C   UNL     1       1.683   4.494  -8.910  1.00  0.00     0.049 A 
ATOM     38  N   UNL     1       3.228   2.357 -10.414  1.00  0.00    -0.248 NA
ATOM     39  C   UNL     1       2.283   0.770  -8.985  1.00  0.00     0.031 C 
ATOM     40  C   UNL     1       0.930   5.539  -8.215  1.00  0.00     0.029 A 
ATOM     41  N   UNL     1       2.352   5.161  -9.900  1.00  0.00    -0.354 N 
ATOM     42  C   UNL     1       3.669   1.088 -10.776  1.00  0.00     0.074 A 
ATOM     43  C   UNL     1       3.090   0.154  -9.834  1.00  0.00     0.031 C 
ATOM     44  C   UNL     1       1.185   6.721  -8.802  1.00  0.00     0.029 A 
ATOM     45  C   UNL     1       2.144   6.520  -9.885  1.00  0.00     0.049 A 
ATOM     46  H   UNL     1       2.927   4.711 -10.561  1.00  0.00     0.167 HD
ATOM     47  C   UNL     1       4.475   0.738 -11.808  1.00  0.00     0.034 A 
ATOM     48  C   UNL     1       2.689   7.488 -10.648  1.00  0.00     0.034 A 
ATOM     49  C   UNL     1       5.055   1.697 -12.716  1.00  0.00     0.049 A 
ATOM     50  C   UNL     1       3.658   7.084 -11.733  1.00  0.00     0.074 A 
ATOM     51  C   UNL     1       5.894   1.472 -13.792  1.00  0.00     0.029 A 
ATOM     52  N   UNL     1       4.862   3.072 -12.643  1.00  0.00    -0.354 N 
ATOM     53  N   UNL     1       4.069   5.881 -12.069  1.00  0.00    -0.248 NA
ATOM     54  C   UNL     1       4.230   8.163 -12.546  1.00  0.00     0.031 C 
ATOM     55  C   UNL     1       6.261   2.712 -14.326  1.00  0.00     0.029 A 
ATOM     56  C   UNL     1       5.590   3.709 -13.634  1.00  0.00     0.049 A 
ATOM     57  H   UNL     1       4.291   3.527 -11.982  1.00  0.00     0.167 HD
ATOM     58  C   UNL     1       4.921   6.059 -13.154  1.00  0.00     0.074 A 
ATOM     59  C   UNL     1       4.957   7.483 -13.421  1.00  0.00     0.031 C 
ATOM     60  C   UNL     1       5.609   5.134 -13.872  1.00  0.00     0.034 A 
BRANCH  47  61
ATOM     61  C   UNL     1       4.809  -0.726 -11.960  1.00  0.00     0.023 A 
ATOM     62  C   UNL     1       3.820  -1.686 -12.240  1.00  0.00     0.031 A 
ATOM     63  C   UNL     1       6.128  -1.177 -11.777  1.00  0.00     0.131 A 
ATOM     64  C   UNL     1       4.150  -3.050 -12.255  1.00  0.00     0.055 A 
ATOM     65  C   UNL     1       6.465  -2.529 -11.871  1.00  0.00     0.041 A 
ATOM     66  F   UNL     1       7.111  -0.312 -11.481  1.00  0.00    -0.206 F 
ATOM     67  C   UNL     1       5.471  -3.477 -12.097  1.00  0.00     0.022 A 
BRANCH  64  68
ATOM     68  S   UNL     1       2.808  -4.269 -12.341  1.00  0.00     0.124 S 
ATOM     69  O   UNL     1       2.034  -3.939 -11.147  1.00  0.00    -0.237 OA
ATOM     70  O   UNL     1       2.179  -3.955 -13.619  1.00  0.00    -0.237 OA
ATOM     71  O   UNL     1       3.506  -5.552 -12.288  1.00  0.00    -0.744 OA
ENDBRANCH  64  68
ENDBRANCH  47  61
BRANCH  48  72
ATOM     72  C   UNL     1       2.366   8.921 -10.398  1.00  0.00     0.023 A 
ATOM     73  C   UNL     1       1.722   9.703 -11.369  1.00  0.00     0.031 A 
ATOM     74  C   UNL     1       2.739   9.544  -9.192  1.00  0.00     0.131 A 
ATOM     75  C   UNL     1       1.510  11.072 -11.138  1.00  0.00     0.055 A 
ATOM     76  C   UNL     1       2.479  10.893  -8.945  1.00  0.00     0.041 A 
ATOM     77  F   UNL     1       3.357   8.843  -8.228  1.00  0.00    -0.206 F 
ATOM     78  C   UNL     1       1.872  11.669  -9.928  1.00  0.00     0.022 A 
BRANCH  75  79
ATOM     79  S   UNL     1       0.831  12.085 -12.480  1.00  0.00     0.124 S 
ATOM     80  O   UNL     1       1.795  11.847 -13.549  1.00  0.00    -0.237 OA
ATOM     81  O   UNL     1      -0.491  11.494 -12.664  1.00  0.00    -0.237 OA
ATOM     82  O   UNL     1       0.836  13.435 -11.923  1.00  0.00    -0.744 OA
ENDBRANCH  75  79
ENDBRANCH  48  72
BRANCH  60  83
ATOM     83  C   UNL     1       6.414   5.639 -15.042  1.00  0.00     0.023 A 
ATOM     84  C   UNL     1       7.563   6.429 -14.865  1.00  0.00     0.031 A 
ATOM     85  C   UNL     1       6.024   5.319 -16.355  1.00  0.00     0.131 A 
ATOM     86  C   UNL     1       8.253   6.914 -15.985  1.00  0.00     0.055 A 
ATOM     87  C   UNL     1       6.748   5.756 -17.463  1.00  0.00     0.041 A 
ATOM     88  F   UNL     1       4.934   4.567 -16.579  1.00  0.00    -0.206 F 
ATOM     89  C   UNL     1       7.864   6.568 -17.282  1.00  0.00     0.022 A 
BRANCH  86  90
ATOM     90  S   UNL     1       9.626   8.072 -15.727  1.00  0.00     0.124 S 
ATOM     91  O   UNL     1       8.965   9.177 -15.040  1.00  0.00    -0.237 OA
ATOM     92  O   UNL     1      10.553   7.284 -14.921  1.00  0.00    -0.237 OA
ATOM     93  O   UNL     1      10.083   8.369 -17.083  1.00  0.00    -0.744 OA
ENDBRANCH  86  90
ENDBRANCH  60  83
ENDBRANCH  34  35
ENDBRANCH  27  29
ENDBRANCH  26  27
ENDBRANCH  25  26
ENDBRANCH  24  25
ENDBRANCH   1  24
TORSDOF 20
