REMARK SMILES Cc1cc(C)c(NC(=O)C[C@H](C(=O)OCCOCCOC(=O)c2ccc(-c3c4nc(c(-c5cc(S(=O)(=O)[O-])ccc5F)c5ccc([nH]5)c(-c5cc(S(=O)(=O)[O-])ccc5F)c5nc(c(-c6cc(S(=O)(=O)[O-])ccc6F)c6ccc3[nH]6)C=C5)C=C4)cc2)[NH+]2CC[NH+](C)CC2)c(C)c1
REMARK SMILES IDX 17 1 16 2 15 3 14 4 12 5 13 6 11 7 10 8 8 9 7 10 9 12 6 13
REMARK SMILES IDX 1 14 2 15 3 16 95 17 4 18 93 19 5 20 94 21 86 22 87 23 92 24
REMARK SMILES IDX 88 26 91 27 89 28 90 29 18 31 19 32 20 33 21 34 22 35 23 36
REMARK SMILES IDX 24 37 85 38 25 39 84 40 26 41 27 42 28 43 78 44 29 45 83 46
REMARK SMILES IDX 77 47 79 48 30 49 82 50 76 51 75 52 31 54 63 55 43 56 62 57
REMARK SMILES IDX 44 58 47 59 61 60 80 61 45 62 46 63 60 65 81 66 48 67 32 68
REMARK SMILES IDX 33 69 41 70 34 71 40 72 42 73 39 74 35 75 36 76 37 77 38 78
REMARK SMILES IDX 64 79 65 80 73 81 66 82 72 83 74 84 71 85 67 86 68 87 69 88
REMARK SMILES IDX 70 89 49 90 50 91 58 92 51 93 57 94 59 95 56 96 52 97 53 98
REMARK SMILES IDX 54 99 55 100
REMARK H PARENT 7 11 86 25 89 30 79 53 47 64
REMARK Flexibility Score: inf
ROOT
ATOM      1  O   UNL     1      -6.075  -1.776  -0.949  1.00  0.00    -0.374 OA
ENDROOT
BRANCH   1   2
ATOM      2  C   UNL     1      -5.017  -1.861  -1.895  1.00  0.00     0.202 C 
BRANCH   2   3
ATOM      3  C   UNL     1      -3.914  -0.795  -1.859  1.00  0.00     0.261 C 
BRANCH   3   4
ATOM      4  O   UNL     1      -3.492  -0.438  -0.532  1.00  0.00    -0.459 OA
BRANCH   4   5
ATOM      5  C   UNL     1      -3.740   0.865  -0.177  1.00  0.00     0.365 C 
ATOM      6  O   UNL     1      -4.237   1.676  -0.948  1.00  0.00    -0.245 OA
BRANCH   5   7
ATOM      7  C   UNL     1      -3.395   1.111   1.333  1.00  0.00     0.304 C 
BRANCH   7   8
ATOM      8  C   UNL     1      -1.906   0.721   1.544  1.00  0.00     0.177 C 
BRANCH   8   9
ATOM      9  C   UNL     1      -0.846   1.671   2.081  1.00  0.00     0.231 C 
ATOM     10  N   UNL     1      -0.462   2.846   1.512  1.00  0.00    -0.325 N 
ATOM     11  H   UNL     1       0.323   3.270   1.928  1.00  0.00     0.169 HD
ATOM     12  O   UNL     1      -0.274   1.371   3.142  1.00  0.00    -0.274 OA
BRANCH  10  13
ATOM     13  C   UNL     1      -1.006   3.551   0.428  1.00  0.00     0.047 A 
ATOM     14  C   UNL     1      -3.728   5.496  -2.245  1.00  0.00     0.044 C 
ATOM     15  C   UNL     1      -2.648   4.898  -1.397  1.00  0.00    -0.050 A 
ATOM     16  C   UNL     1      -2.141   3.631  -1.696  1.00  0.00     0.009 A 
ATOM     17  C   UNL     1      -2.170   5.560  -0.267  1.00  0.00     0.009 A 
ATOM     18  C   UNL     1      -1.284   2.960  -0.809  1.00  0.00    -0.027 A 
ATOM     19  C   UNL     1      -1.302   4.916   0.628  1.00  0.00    -0.027 A 
ATOM     20  C   UNL     1      -0.607   1.711  -1.300  1.00  0.00     0.046 C 
ATOM     21  C   UNL     1      -0.750   5.699   1.790  1.00  0.00     0.046 C 
ENDBRANCH  10  13
ENDBRANCH   8   9
ENDBRANCH   7   8
BRANCH   7  22
ATOM     22  N   UNL     1      -3.880   2.439   1.782  1.00  0.00    -0.313 N 
ATOM     23  C   UNL     1      -3.650   2.788   3.193  1.00  0.00     0.325 C 
ATOM     24  C   UNL     1      -5.323   2.684   1.539  1.00  0.00     0.325 C 
ATOM     25  H   UNL     1      -3.294   3.029   1.192  1.00  0.00     0.349 HD
ATOM     26  C   UNL     1      -3.943   4.300   3.409  1.00  0.00     0.324 C 
ATOM     27  C   UNL     1      -5.607   4.198   1.651  1.00  0.00     0.324 C 
ATOM     28  N   UNL     1      -5.255   4.802   2.952  1.00  0.00    -0.328 N 
ATOM     29  C   UNL     1      -6.295   4.595   3.947  1.00  0.00     0.333 C 
ATOM     30  H   UNL     1      -5.182   5.812   2.825  1.00  0.00     0.348 HD
ENDBRANCH   7  22
ENDBRANCH   5   7
ENDBRANCH   4   5
ENDBRANCH   3   4
ENDBRANCH   2   3
ENDBRANCH   1   2
BRANCH   1  31
ATOM     31  C   UNL     1      -5.767  -1.934   0.433  1.00  0.00     0.202 C 
BRANCH  31  32
ATOM     32  C   UNL     1      -5.063  -3.213   0.913  1.00  0.00     0.261 C 
BRANCH  32  33
ATOM     33  O   UNL     1      -3.781  -3.454   0.305  1.00  0.00    -0.460 OA
BRANCH  33  34
ATOM     34  C   UNL     1      -3.715  -4.596  -0.426  1.00  0.00     0.338 C 
ATOM     35  O   UNL     1      -4.620  -5.396  -0.619  1.00  0.00    -0.246 OA
BRANCH  34  36
ATOM     36  C   UNL     1      -2.422  -4.697  -1.121  1.00  0.00     0.060 A 
ATOM     37  C   UNL     1      -2.422  -4.715  -2.523  1.00  0.00     0.016 A 
ATOM     38  C   UNL     1      -1.245  -4.926  -0.407  1.00  0.00     0.016 A 
ATOM     39  C   UNL     1      -1.248  -5.002  -3.218  1.00  0.00     0.010 A 
ATOM     40  C   UNL     1      -0.072  -5.226  -1.107  1.00  0.00     0.010 A 
ATOM     41  C   UNL     1      -0.076  -5.300  -2.512  1.00  0.00    -0.014 A 
BRANCH  41  42
ATOM     42  C   UNL     1       1.105  -5.847  -3.225  1.00  0.00     0.031 A 
ATOM     43  C   UNL     1       1.339  -7.332  -3.205  1.00  0.00     0.074 A 
ATOM     44  C   UNL     1       1.964  -5.032  -3.860  1.00  0.00     0.049 A 
ATOM     45  N   UNL     1       2.358  -8.020  -3.647  1.00  0.00    -0.248 NA
ATOM     46  C   UNL     1       0.280  -8.146  -2.590  1.00  0.00     0.031 C 
ATOM     47  C   UNL     1       1.816  -3.583  -3.981  1.00  0.00     0.029 A 
ATOM     48  N   UNL     1       3.147  -5.306  -4.499  1.00  0.00    -0.354 N 
ATOM     49  C   UNL     1       2.076  -9.349  -3.347  1.00  0.00     0.074 A 
ATOM     50  C   UNL     1       0.800  -9.361  -2.662  1.00  0.00     0.031 C 
ATOM     51  C   UNL     1       2.889  -3.089  -4.621  1.00  0.00     0.029 A 
ATOM     52  C   UNL     1       3.817  -4.180  -4.915  1.00  0.00     0.049 A 
ATOM     53  H   UNL     1       3.483  -6.220  -4.645  1.00  0.00     0.167 HD
ATOM     54  C   UNL     1       2.816 -10.454  -3.618  1.00  0.00     0.034 A 
ATOM     55  C   UNL     1       5.056  -4.040  -5.429  1.00  0.00     0.034 A 
ATOM     56  C   UNL     1       4.091 -10.415  -4.293  1.00  0.00     0.049 A 
ATOM     57  C   UNL     1       5.900  -5.270  -5.656  1.00  0.00     0.074 A 
ATOM     58  C   UNL     1       4.907 -11.471  -4.658  1.00  0.00     0.029 A 
ATOM     59  N   UNL     1       4.746  -9.254  -4.685  1.00  0.00    -0.354 N 
ATOM     60  N   UNL     1       5.617  -6.525  -5.389  1.00  0.00    -0.248 NA
ATOM     61  C   UNL     1       7.225  -5.068  -6.256  1.00  0.00     0.031 C 
ATOM     62  C   UNL     1       6.087 -10.946  -5.198  1.00  0.00     0.029 A 
ATOM     63  C   UNL     1       5.974  -9.566  -5.248  1.00  0.00     0.049 A 
ATOM     64  H   UNL     1       4.390  -8.342  -4.579  1.00  0.00     0.167 HD
ATOM     65  C   UNL     1       6.719  -7.263  -5.814  1.00  0.00     0.074 A 
ATOM     66  C   UNL     1       7.670  -6.313  -6.355  1.00  0.00     0.031 C 
ATOM     67  C   UNL     1       6.919  -8.605  -5.772  1.00  0.00     0.034 A 
BRANCH  54  68
ATOM     68  C   UNL     1       2.291 -11.778  -3.116  1.00  0.00     0.023 A 
ATOM     69  C   UNL     1       1.072 -12.316  -3.567  1.00  0.00     0.031 A 
ATOM     70  C   UNL     1       2.996 -12.490  -2.129  1.00  0.00     0.131 A 
ATOM     71  C   UNL     1       0.555 -13.476  -2.971  1.00  0.00     0.055 A 
ATOM     72  C   UNL     1       2.517 -13.690  -1.600  1.00  0.00     0.041 A 
ATOM     73  F   UNL     1       4.155 -12.017  -1.643  1.00  0.00    -0.206 F 
ATOM     74  C   UNL     1       1.280 -14.180  -2.007  1.00  0.00     0.022 A 
BRANCH  71  75
ATOM     75  S   UNL     1      -1.154 -13.957  -3.349  1.00  0.00     0.124 S 
ATOM     76  O   UNL     1      -1.887 -12.742  -3.002  1.00  0.00    -0.237 OA
ATOM     77  O   UNL     1      -1.083 -14.276  -4.770  1.00  0.00    -0.237 OA
ATOM     78  O   UNL     1      -1.394 -15.094  -2.464  1.00  0.00    -0.744 OA
ENDBRANCH  71  75
ENDBRANCH  54  68
BRANCH  55  79
ATOM     79  C   UNL     1       5.595  -2.678  -5.699  1.00  0.00     0.023 A 
ATOM     80  C   UNL     1       5.854  -2.236  -7.005  1.00  0.00     0.031 A 
ATOM     81  C   UNL     1       5.864  -1.796  -4.636  1.00  0.00     0.131 A 
ATOM     82  C   UNL     1       6.389  -0.955  -7.213  1.00  0.00     0.055 A 
ATOM     83  C   UNL     1       6.355  -0.508  -4.851  1.00  0.00     0.041 A 
ATOM     84  F   UNL     1       5.629  -2.170  -3.368  1.00  0.00    -0.206 F 
ATOM     85  C   UNL     1       6.628  -0.083  -6.147  1.00  0.00     0.022 A 
BRANCH  82  86
ATOM     86  S   UNL     1       6.815  -0.454  -8.904  1.00  0.00     0.124 S 
ATOM     87  O   UNL     1       7.818  -1.449  -9.265  1.00  0.00    -0.237 OA
ATOM     88  O   UNL     1       5.529  -0.561  -9.585  1.00  0.00    -0.237 OA
ATOM     89  O   UNL     1       7.317   0.909  -8.739  1.00  0.00    -0.744 OA
ENDBRANCH  82  86
ENDBRANCH  55  79
BRANCH  67  90
ATOM     90  C   UNL     1       8.197  -9.135  -6.375  1.00  0.00     0.023 A 
ATOM     91  C   UNL     1       9.448  -8.925  -5.771  1.00  0.00     0.031 A 
ATOM     92  C   UNL     1       8.151  -9.892  -7.561  1.00  0.00     0.131 A 
ATOM     93  C   UNL     1      10.608  -9.440  -6.373  1.00  0.00     0.055 A 
ATOM     94  C   UNL     1       9.300 -10.443  -8.127  1.00  0.00     0.041 A 
ATOM     95  F   UNL     1       6.981 -10.121  -8.178  1.00  0.00    -0.206 F 
ATOM     96  C   UNL     1      10.539 -10.212  -7.537  1.00  0.00     0.022 A 
BRANCH  93  97
ATOM     97  S   UNL     1      12.222  -9.045  -5.646  1.00  0.00     0.124 S 
ATOM     98  O   UNL     1      12.258  -7.590  -5.761  1.00  0.00    -0.237 OA
ATOM     99  O   UNL     1      12.095  -9.575  -4.292  1.00  0.00    -0.237 OA
ATOM    100  O   UNL     1      13.169  -9.758  -6.502  1.00  0.00    -0.744 OA
ENDBRANCH  93  97
ENDBRANCH  67  90
ENDBRANCH  41  42
ENDBRANCH  34  36
ENDBRANCH  33  34
ENDBRANCH  32  33
ENDBRANCH  31  32
ENDBRANCH   1  31
TORSDOF 21
