REMARK SMILES CCCCCCCCNC(=O)Oc1cccc(-c2ccc([C@@H](C)C(=O)OCCOCCOC(=O)c3ccc(-c4c5nc(c(-c6cc(S(=O)(=O)[O-])ccc6F)c6ccc([nH]6)c(-c6cc(S(=O)(=O)[O-])ccc6F)c6nc(c(-c7cc(S(=O)(=O)[O-])ccc7F)c7ccc4[nH]7)C=C6)C=C5)cc3)cc2F)c1
REMARK SMILES IDX 24 1 25 2 22 3 23 4 21 5 18 6 19 7 99 8 20 9 98 10 100 11
REMARK SMILES IDX 17 12 13 13 14 14 101 15 15 16 16 17 12 18 10 19 9 20 11 22
REMARK SMILES IDX 8 23 7 24 6 25 5 26 4 27 3 28 2 29 1 30 26 31 27 32 28 33
REMARK SMILES IDX 29 34 30 35 31 36 32 37 33 38 34 39 35 40 36 41 97 42 37 43
REMARK SMILES IDX 96 44 38 45 39 46 40 47 90 48 41 49 95 50 89 51 91 52 42 53
REMARK SMILES IDX 94 54 88 55 87 56 43 58 75 59 55 60 74 61 56 62 59 63 73 64
REMARK SMILES IDX 92 65 57 66 58 67 72 69 93 70 60 71 44 72 45 73 53 74 46 75
REMARK SMILES IDX 52 76 54 77 51 78 47 79 48 80 49 81 50 82 76 83 77 84 85 85
REMARK SMILES IDX 78 86 84 87 86 88 83 89 79 90 80 91 81 92 82 93 61 94 62 95
REMARK SMILES IDX 70 96 63 97 69 98 71 99 68 100 64 101 65 102 66 103 67 104
REMARK H PARENT 9 21 91 57 59 68
REMARK Flexibility Score: inf
ROOT
ATOM      1  C   UNL     1     -11.041  12.961  -2.446  1.00  0.00     0.313 C 
ATOM      2  O   UNL     1     -11.685  13.533  -1.572  1.00  0.00    -0.252 OA
ENDROOT
BRANCH   1   3
ATOM      3  C   UNL     1      -9.653  13.434  -2.851  1.00  0.00     0.126 C 
ATOM      4  C   UNL     1      -9.787  14.601  -3.826  1.00  0.00     0.025 C 
BRANCH   3   5
ATOM      5  C   UNL     1      -8.655  12.393  -3.347  1.00  0.00    -0.031 A 
ATOM      6  C   UNL     1      -6.608  10.663  -4.340  1.00  0.00     0.018 A 
ATOM      7  C   UNL     1      -7.810  10.854  -5.042  1.00  0.00     0.012 A 
ATOM      8  C   UNL     1      -6.483  11.311  -3.106  1.00  0.00     0.131 A 
ATOM      9  C   UNL     1      -8.815  11.706  -4.558  1.00  0.00     0.005 A 
ATOM     10  C   UNL     1      -7.480  12.158  -2.614  1.00  0.00     0.044 A 
ATOM     11  F   UNL     1      -5.363  11.175  -2.377  1.00  0.00    -0.206 F 
BRANCH   6  12
ATOM     12  C   UNL     1      -5.505   9.874  -4.921  1.00  0.00    -0.012 A 
ATOM     13  C   UNL     1      -3.825   8.127  -4.794  1.00  0.00     0.133 A 
ATOM     14  C   UNL     1      -3.351   8.444  -6.064  1.00  0.00     0.047 A 
ATOM     15  C   UNL     1      -4.878   8.837  -4.211  1.00  0.00     0.056 A 
ATOM     16  C   UNL     1      -3.959   9.469  -6.779  1.00  0.00     0.004 A 
ATOM     17  C   UNL     1      -5.026  10.174  -6.212  1.00  0.00     0.009 A 
BRANCH  13  18
ATOM     18  O   UNL     1      -3.125   7.134  -4.093  1.00  0.00    -0.410 OA
BRANCH  18  19
ATOM     19  C   UNL     1      -3.844   6.031  -3.668  1.00  0.00     0.412 C 
ATOM     20  N   UNL     1      -3.066   5.064  -3.099  1.00  0.00    -0.321 N 
ATOM     21  H   UNL     1      -3.532   4.263  -2.767  1.00  0.00     0.167 HD
ATOM     22  O   UNL     1      -5.062   5.876  -3.774  1.00  0.00    -0.224 OA
BRANCH  20  23
ATOM     23  C   UNL     1      -1.626   5.093  -2.933  1.00  0.00     0.119 C 
BRANCH  23  24
ATOM     24  C   UNL     1      -1.220   5.000  -1.462  1.00  0.00     0.021 C 
BRANCH  24  25
ATOM     25  C   UNL     1      -1.610   3.687  -0.770  1.00  0.00     0.002 C 
BRANCH  25  26
ATOM     26  C   UNL     1      -1.020   2.417  -1.395  1.00  0.00     0.000 C 
BRANCH  26  27
ATOM     27  C   UNL     1       0.510   2.340  -1.386  1.00  0.00    -0.000 C 
BRANCH  27  28
ATOM     28  C   UNL     1       1.152   2.304   0.006  1.00  0.00    -0.000 C 
BRANCH  28  29
ATOM     29  C   UNL     1       0.720   1.136   0.897  1.00  0.00    -0.003 C 
ATOM     30  C   UNL     1       1.060  -0.227   0.314  1.00  0.00     0.004 C 
ENDBRANCH  28  29
ENDBRANCH  27  28
ENDBRANCH  26  27
ENDBRANCH  25  26
ENDBRANCH  24  25
ENDBRANCH  23  24
ENDBRANCH  20  23
ENDBRANCH  18  19
ENDBRANCH  13  18
ENDBRANCH   6  12
ENDBRANCH   3   5
ENDBRANCH   1   3
BRANCH   1  31
ATOM     31  O   UNL     1     -11.484  11.893  -3.156  1.00  0.00    -0.463 OA
BRANCH  31  32
ATOM     32  C   UNL     1     -12.738  11.329  -2.733  1.00  0.00     0.261 C 
BRANCH  32  33
ATOM     33  C   UNL     1     -12.552   9.924  -2.155  1.00  0.00     0.202 C 
BRANCH  33  34
ATOM     34  O   UNL     1     -11.796   9.831  -0.948  1.00  0.00    -0.374 OA
BRANCH  34  35
ATOM     35  C   UNL     1     -10.374   9.914  -1.054  1.00  0.00     0.202 C 
BRANCH  35  36
ATOM     36  C   UNL     1      -9.634   8.687  -1.602  1.00  0.00     0.261 C 
BRANCH  36  37
ATOM     37  O   UNL     1      -9.906   8.452  -2.994  1.00  0.00    -0.460 OA
BRANCH  37  38
ATOM     38  C   UNL     1     -10.659   7.352  -3.248  1.00  0.00     0.338 C 
ATOM     39  O   UNL     1     -11.091   6.556  -2.432  1.00  0.00    -0.246 OA
BRANCH  38  40
ATOM     40  C   UNL     1     -11.081   7.353  -4.663  1.00  0.00     0.060 A 
ATOM     41  C   UNL     1     -12.450   7.218  -4.932  1.00  0.00     0.016 A 
ATOM     42  C   UNL     1     -10.157   7.418  -5.707  1.00  0.00     0.016 A 
ATOM     43  C   UNL     1     -12.899   7.105  -6.247  1.00  0.00     0.010 A 
ATOM     44  C   UNL     1     -10.609   7.295  -7.026  1.00  0.00     0.010 A 
ATOM     45  C   UNL     1     -11.977   7.107  -7.301  1.00  0.00    -0.014 A 
BRANCH  45  46
ATOM     46  C   UNL     1     -12.421   6.758  -8.675  1.00  0.00     0.031 A 
ATOM     47  C   UNL     1     -12.165   5.366  -9.185  1.00  0.00     0.074 A 
ATOM     48  C   UNL     1     -13.053   7.657  -9.450  1.00  0.00     0.049 A 
ATOM     49  N   UNL     1     -12.368   4.866 -10.376  1.00  0.00    -0.248 NA
ATOM     50  C   UNL     1     -11.599   4.413  -8.218  1.00  0.00     0.031 C 
ATOM     51  C   UNL     1     -13.419   9.012  -9.042  1.00  0.00     0.029 A 
ATOM     52  N   UNL     1     -13.489   7.567 -10.749  1.00  0.00    -0.354 N 
ATOM     53  C   UNL     1     -11.946   3.542 -10.308  1.00  0.00     0.074 A 
ATOM     54  C   UNL     1     -11.445   3.331  -8.966  1.00  0.00     0.031 C 
ATOM     55  C   UNL     1     -14.010   9.633 -10.078  1.00  0.00     0.029 A 
ATOM     56  C   UNL     1     -14.019   8.740 -11.235  1.00  0.00     0.049 A 
ATOM     57  H   UNL     1     -13.427   6.742 -11.282  1.00  0.00     0.167 HD
ATOM     58  C   UNL     1     -11.978   2.591 -11.274  1.00  0.00     0.034 A 
ATOM     59  C   UNL     1     -14.428   9.064 -12.478  1.00  0.00     0.034 A 
ATOM     60  C   UNL     1     -12.469   2.824 -12.611  1.00  0.00     0.049 A 
ATOM     61  C   UNL     1     -14.348   8.024 -13.572  1.00  0.00     0.074 A 
ATOM     62  C   UNL     1     -12.554   1.932 -13.666  1.00  0.00     0.029 A 
ATOM     63  N   UNL     1     -12.946   4.040 -13.082  1.00  0.00    -0.354 N 
ATOM     64  N   UNL     1     -13.936   6.779 -13.501  1.00  0.00    -0.248 NA
ATOM     65  C   UNL     1     -14.787   8.434 -14.914  1.00  0.00     0.031 C 
ATOM     66  C   UNL     1     -13.007   2.626 -14.792  1.00  0.00     0.029 A 
ATOM     67  C   UNL     1     -13.290   3.931 -14.421  1.00  0.00     0.049 A 
ATOM     68  H   UNL     1     -13.028   4.861 -12.544  1.00  0.00     0.167 HD
ATOM     69  C   UNL     1     -14.104   6.248 -14.778  1.00  0.00     0.074 A 
ATOM     70  C   UNL     1     -14.655   7.306 -15.598  1.00  0.00     0.031 C 
ATOM     71  C   UNL     1     -13.836   4.996 -15.229  1.00  0.00     0.034 A 
BRANCH  58  72
ATOM     72  C   UNL     1     -11.411   1.234 -10.931  1.00  0.00     0.023 A 
ATOM     73  C   UNL     1     -11.984   0.418  -9.940  1.00  0.00     0.031 A 
ATOM     74  C   UNL     1     -10.258   0.764 -11.585  1.00  0.00     0.131 A 
ATOM     75  C   UNL     1     -11.363  -0.788  -9.582  1.00  0.00     0.055 A 
ATOM     76  C   UNL     1      -9.691  -0.475 -11.280  1.00  0.00     0.041 A 
ATOM     77  F   UNL     1      -9.652   1.508 -12.523  1.00  0.00    -0.206 F 
ATOM     78  C   UNL     1     -10.235  -1.252 -10.262  1.00  0.00     0.022 A 
BRANCH  75  79
ATOM     79  S   UNL     1     -11.965  -1.671  -8.116  1.00  0.00     0.124 S 
ATOM     80  O   UNL     1     -11.819  -0.654  -7.077  1.00  0.00    -0.237 OA
ATOM     81  O   UNL     1     -13.332  -2.011  -8.491  1.00  0.00    -0.237 OA
ATOM     82  O   UNL     1     -11.049  -2.805  -7.999  1.00  0.00    -0.744 OA
ENDBRANCH  75  79
ENDBRANCH  58  72
BRANCH  59  83
ATOM     83  C   UNL     1     -14.903  10.446 -12.782  1.00  0.00     0.023 A 
ATOM     84  C   UNL     1     -16.215  10.684 -13.217  1.00  0.00     0.031 A 
ATOM     85  C   UNL     1     -14.028  11.545 -12.696  1.00  0.00     0.131 A 
ATOM     86  C   UNL     1     -16.604  11.980 -13.593  1.00  0.00     0.055 A 
ATOM     87  C   UNL     1     -14.435  12.841 -13.018  1.00  0.00     0.041 A 
ATOM     88  F   UNL     1     -12.759  11.374 -12.290  1.00  0.00    -0.206 F 
ATOM     89  C   UNL     1     -15.727  13.062 -13.482  1.00  0.00     0.022 A 
BRANCH  86  90
ATOM     90  S   UNL     1     -18.249  12.217 -14.319  1.00  0.00     0.124 S 
ATOM     91  O   UNL     1     -18.193  11.331 -15.476  1.00  0.00    -0.237 OA
ATOM     92  O   UNL     1     -19.123  11.797 -13.229  1.00  0.00    -0.237 OA
ATOM     93  O   UNL     1     -18.282  13.646 -14.626  1.00  0.00    -0.744 OA
ENDBRANCH  86  90
ENDBRANCH  59  83
BRANCH  71  94
ATOM     94  C   UNL     1     -14.195   4.682 -16.662  1.00  0.00     0.023 A 
ATOM     95  C   UNL     1     -13.511   5.257 -17.747  1.00  0.00     0.031 A 
ATOM     96  C   UNL     1     -15.232   3.773 -16.941  1.00  0.00     0.131 A 
ATOM     97  C   UNL     1     -13.897   4.947 -19.060  1.00  0.00     0.055 A 
ATOM     98  C   UNL     1     -15.575   3.425 -18.248  1.00  0.00     0.041 A 
ATOM     99  F   UNL     1     -15.921   3.196 -15.944  1.00  0.00    -0.206 F 
ATOM    100  C   UNL     1     -14.912   4.020 -19.317  1.00  0.00     0.022 A 
BRANCH  97 101
ATOM    101  S   UNL     1     -13.100   5.819 -20.436  1.00  0.00     0.124 S 
ATOM    102  O   UNL     1     -13.440   7.209 -20.152  1.00  0.00    -0.237 OA
ATOM    103  O   UNL     1     -11.696   5.459 -20.265  1.00  0.00    -0.237 OA
ATOM    104  O   UNL     1     -13.743   5.253 -21.621  1.00  0.00    -0.744 OA
ENDBRANCH  97 101
ENDBRANCH  71  94
ENDBRANCH  45  46
ENDBRANCH  38  40
ENDBRANCH  37  38
ENDBRANCH  36  37
ENDBRANCH  35  36
ENDBRANCH  34  35
ENDBRANCH  33  34
ENDBRANCH  32  33
ENDBRANCH  31  32
ENDBRANCH   1  31
TORSDOF 28
