REMARK SMILES CC(C)[C@H](NC(=O)OCc1ccccc1)C(=O)NCC(=O)OCCOCCOC(=O)c1ccc(-c2c3nc(c(-c4cc(S(=O)(=O)[O-])ccc4F)c4ccc([nH]4)c(-c4cc(S(=O)(=O)[O-])ccc4F)c4nc(c(-c5cc(S(=O)(=O)[O-])ccc5F)c5ccc2[nH]5)C=C4)C=C3)cc1
REMARK SMILES IDX 23 1 22 2 20 3 21 4 19 5 18 6 16 7 17 8 4 10 2 11 1 12 3 13
REMARK SMILES IDX 5 14 6 15 7 17 8 18 9 19 10 20 11 21 15 22 12 23 14 24 13 25
REMARK SMILES IDX 24 26 25 27 26 28 27 29 28 30 29 31 30 32 31 33 32 34 93 35
REMARK SMILES IDX 33 36 92 37 34 38 35 39 36 40 86 41 37 42 91 43 85 44 87 45
REMARK SMILES IDX 38 46 90 47 84 48 83 49 39 51 71 52 51 53 70 54 52 55 55 56
REMARK SMILES IDX 69 57 88 58 53 59 54 60 68 62 89 63 56 64 40 65 41 66 49 67
REMARK SMILES IDX 42 68 48 69 50 70 47 71 43 72 44 73 45 74 46 75 72 76 73 77
REMARK SMILES IDX 81 78 74 79 80 80 82 81 79 82 75 83 76 84 77 85 78 86 57 87
REMARK SMILES IDX 58 88 66 89 59 90 65 91 67 92 64 93 60 94 61 95 62 96 63 97
REMARK H PARENT 18 9 5 16 87 50 55 61
REMARK Flexibility Score: inf
ROOT
ATOM      1  C   UNL     1       3.238  -3.132   3.329  1.00  0.00     0.261 C 
ENDROOT
BRANCH   1   2
ATOM      2  O   UNL     1       2.071  -2.734   2.255  1.00  0.00    -0.462 OA
BRANCH   2   3
ATOM      3  C   UNL     1       1.514  -3.663   1.446  1.00  0.00     0.325 C 
ATOM      4  O   UNL     1       2.147  -4.500   0.810  1.00  0.00    -0.250 OA
BRANCH   3   5
ATOM      5  C   UNL     1      -0.035  -3.694   1.519  1.00  0.00     0.238 C 
BRANCH   5   6
ATOM      6  N   UNL     1      -0.897  -2.830   2.337  1.00  0.00    -0.343 N 
ATOM      7  C   UNL     1      -1.370  -1.569   2.195  1.00  0.00     0.243 C 
ATOM      8  O   UNL     1      -2.273  -1.222   2.967  1.00  0.00    -0.273 OA
ATOM      9  H   UNL     1      -1.196  -3.262   3.170  1.00  0.00     0.164 HD
BRANCH   7  10
ATOM     10  C   UNL     1      -0.919  -0.643   1.058  1.00  0.00     0.177 C 
BRANCH  10  11
ATOM     11  C   UNL     1      -1.479  -1.144  -0.316  1.00  0.00     0.015 C 
ATOM     12  C   UNL     1      -0.420  -1.720  -1.267  1.00  0.00     0.010 C 
ATOM     13  C   UNL     1      -2.692  -2.093  -0.200  1.00  0.00     0.010 C 
ENDBRANCH  10  11
BRANCH  10  14
ATOM     14  N   UNL     1       0.522  -0.383   1.068  1.00  0.00    -0.309 N 
ATOM     15  C   UNL     1       1.267  -0.037   2.169  1.00  0.00     0.408 C 
ATOM     16  H   UNL     1       0.998  -0.464   0.210  1.00  0.00     0.167 HD
ATOM     17  O   UNL     1       2.404   0.401   2.057  1.00  0.00    -0.225 OA
BRANCH  15  18
ATOM     18  O   UNL     1       0.648  -0.328   3.334  1.00  0.00    -0.445 OA
BRANCH  18  19
ATOM     19  C   UNL     1       1.473  -0.416   4.501  1.00  0.00     0.270 C 
BRANCH  19  20
ATOM     20  C   UNL     1       2.224  -1.725   4.523  1.00  0.00    -0.011 A 
ATOM     21  C   UNL     1       1.376  -3.294   4.225  1.00  0.00     0.007 A 
ATOM     22  C   UNL     1       3.990  -1.738   4.796  1.00  0.00     0.007 A 
ATOM     23  C   UNL     1       2.335  -4.837   4.011  1.00  0.00     0.000 A 
ATOM     24  C   UNL     1       4.933  -3.251   4.628  1.00  0.00     0.000 A 
ATOM     25  C   UNL     1       4.115  -4.808   4.294  1.00  0.00     0.000 A 
ENDBRANCH  19  20
ENDBRANCH  18  19
ENDBRANCH  15  18
ENDBRANCH  10  14
ENDBRANCH   7  10
ENDBRANCH   5   6
ENDBRANCH   3   5
ENDBRANCH   2   3
ENDBRANCH   1   2
BRANCH   1  26
ATOM     26  C   UNL     1       2.951  -3.498   5.466  1.00  0.00     0.202 C 
BRANCH  26  27
ATOM     27  O   UNL     1       2.197  -4.689   6.259  1.00  0.00    -0.374 OA
BRANCH  27  28
ATOM     28  C   UNL     1       0.767  -4.818   6.393  1.00  0.00     0.202 C 
BRANCH  28  29
ATOM     29  C   UNL     1      -0.126  -3.716   7.002  1.00  0.00     0.261 C 
BRANCH  29  30
ATOM     30  O   UNL     1       0.490  -2.459   7.240  1.00  0.00    -0.460 OA
BRANCH  30  31
ATOM     31  C   UNL     1       1.353  -2.451   8.287  1.00  0.00     0.338 C 
ATOM     32  O   UNL     1       1.546  -3.354   9.079  1.00  0.00    -0.246 OA
BRANCH  31  33
ATOM     33  C   UNL     1       2.170  -1.223   8.161  1.00  0.00     0.060 A 
ATOM     34  C   UNL     1       3.563  -1.346   8.230  1.00  0.00     0.016 A 
ATOM     35  C   UNL     1       1.583   0.014   7.875  1.00  0.00     0.016 A 
ATOM     36  C   UNL     1       4.372  -0.225   8.038  1.00  0.00     0.010 A 
ATOM     37  C   UNL     1       2.392   1.136   7.678  1.00  0.00     0.010 A 
ATOM     38  C   UNL     1       3.790   1.029   7.801  1.00  0.00    -0.014 A 
BRANCH  38  39
ATOM     39  C   UNL     1       4.592   2.253   8.059  1.00  0.00     0.031 A 
ATOM     40  C   UNL     1       4.519   2.807   9.458  1.00  0.00     0.074 A 
ATOM     41  C   UNL     1       5.377   2.837   7.135  1.00  0.00     0.049 A 
ATOM     42  N   UNL     1       5.099   3.857   9.974  1.00  0.00    -0.248 NA
ATOM     43  C   UNL     1       3.661   2.068  10.401  1.00  0.00     0.031 C 
ATOM     44  C   UNL     1       5.565   2.377   5.761  1.00  0.00     0.029 A 
ATOM     45  N   UNL     1       6.172   3.956   7.223  1.00  0.00    -0.354 N 
ATOM     46  C   UNL     1       4.680   3.898  11.299  1.00  0.00     0.074 A 
ATOM     47  C   UNL     1       3.751   2.809  11.489  1.00  0.00     0.031 C 
ATOM     48  C   UNL     1       6.428   3.203   5.138  1.00  0.00     0.029 A 
ATOM     49  C   UNL     1       6.825   4.274   6.053  1.00  0.00     0.049 A 
ATOM     50  H   UNL     1       6.266   4.482   8.050  1.00  0.00     0.167 HD
ATOM     51  C   UNL     1       5.047   4.756  12.279  1.00  0.00     0.034 A 
ATOM     52  C   UNL     1       7.631   5.318   5.756  1.00  0.00     0.034 A 
ATOM     53  C   UNL     1       5.941   5.863  12.069  1.00  0.00     0.049 A 
ATOM     54  C   UNL     1       7.933   6.338   6.838  1.00  0.00     0.074 A 
ATOM     55  C   UNL     1       6.365   6.809  12.983  1.00  0.00     0.029 A 
ATOM     56  N   UNL     1       6.529   6.187  10.854  1.00  0.00    -0.354 N 
ATOM     57  N   UNL     1       7.537   6.362   8.091  1.00  0.00    -0.248 NA
ATOM     58  C   UNL     1       8.797   7.467   6.465  1.00  0.00     0.031 C 
ATOM     59  C   UNL     1       7.131   7.758  12.301  1.00  0.00     0.029 A 
ATOM     60  C   UNL     1       7.282   7.341  10.987  1.00  0.00     0.049 A 
ATOM     61  H   UNL     1       6.425   5.673  10.021  1.00  0.00     0.167 HD
ATOM     62  C   UNL     1       8.147   7.479   8.664  1.00  0.00     0.074 A 
ATOM     63  C   UNL     1       8.938   8.098   7.621  1.00  0.00     0.031 C 
ATOM     64  C   UNL     1       8.071   7.945   9.938  1.00  0.00     0.034 A 
BRANCH  51  65
ATOM     65  C   UNL     1       4.416   4.555  13.634  1.00  0.00     0.023 A 
ATOM     66  C   UNL     1       4.608   3.372  14.371  1.00  0.00     0.031 A 
ATOM     67  C   UNL     1       3.550   5.527  14.162  1.00  0.00     0.131 A 
ATOM     68  C   UNL     1       3.874   3.155  15.546  1.00  0.00     0.055 A 
ATOM     69  C   UNL     1       2.899   5.347  15.382  1.00  0.00     0.041 A 
ATOM     70  F   UNL     1       3.299   6.659  13.485  1.00  0.00    -0.206 F 
ATOM     71  C   UNL     1       3.045   4.147  16.073  1.00  0.00     0.022 A 
BRANCH  68  72
ATOM     72  S   UNL     1       3.875   1.493  16.271  1.00  0.00     0.124 S 
ATOM     73  O   UNL     1       3.361   0.690  15.163  1.00  0.00    -0.237 OA
ATOM     74  O   UNL     1       5.280   1.294  16.606  1.00  0.00    -0.237 OA
ATOM     75  O   UNL     1       2.971   1.617  17.412  1.00  0.00    -0.744 OA
ENDBRANCH  68  72
ENDBRANCH  51  65
BRANCH  52  76
ATOM     76  C   UNL     1       8.187   5.500   4.378  1.00  0.00     0.023 A 
ATOM     77  C   UNL     1       9.574   5.545   4.143  1.00  0.00     0.031 A 
ATOM     78  C   UNL     1       7.335   5.729   3.283  1.00  0.00     0.131 A 
ATOM     79  C   UNL     1      10.062   5.867   2.864  1.00  0.00     0.055 A 
ATOM     80  C   UNL     1       7.825   5.983   1.999  1.00  0.00     0.041 A 
ATOM     81  F   UNL     1       6.002   5.720   3.446  1.00  0.00    -0.206 F 
ATOM     82  C   UNL     1       9.197   6.067   1.787  1.00  0.00     0.022 A 
BRANCH  79  83
ATOM     83  S   UNL     1      11.845   6.138   2.649  1.00  0.00     0.124 S 
ATOM     84  O   UNL     1      12.095   7.222   3.592  1.00  0.00    -0.237 OA
ATOM     85  O   UNL     1      12.396   4.835   3.006  1.00  0.00    -0.237 OA
ATOM     86  O   UNL     1      11.967   6.498   1.238  1.00  0.00    -0.744 OA
ENDBRANCH  79  83
ENDBRANCH  52  76
BRANCH  64  87
ATOM     87  C   UNL     1       8.927   9.137  10.305  1.00  0.00     0.023 A 
ATOM     88  C   UNL     1       8.743  10.404   9.726  1.00  0.00     0.031 A 
ATOM     89  C   UNL     1       9.944   8.995  11.268  1.00  0.00     0.131 A 
ATOM     90  C   UNL     1       9.601  11.460  10.070  1.00  0.00     0.055 A 
ATOM     91  C   UNL     1      10.741  10.069  11.665  1.00  0.00     0.041 A 
ATOM     92  F   UNL     1      10.173   7.808  11.852  1.00  0.00    -0.206 F 
ATOM     93  C   UNL     1      10.582  11.307  11.053  1.00  0.00     0.022 A 
BRANCH  90  94
ATOM     94  S   UNL     1       9.501  13.007   9.127  1.00  0.00     0.124 S 
ATOM     95  O   UNL     1       9.698  12.540   7.759  1.00  0.00    -0.237 OA
ATOM     96  O   UNL     1       8.160  13.483   9.451  1.00  0.00    -0.237 OA
ATOM     97  O   UNL     1      10.593  13.812   9.672  1.00  0.00    -0.744 OA
ENDBRANCH  90  94
ENDBRANCH  64  87
ENDBRANCH  38  39
ENDBRANCH  31  33
ENDBRANCH  30  31
ENDBRANCH  29  30
ENDBRANCH  28  29
ENDBRANCH  27  28
ENDBRANCH  26  27
ENDBRANCH   1  26
TORSDOF 24
