REMARK SMILES O=C(OCCOCCOCCOC(=O)[C@H]1CC=CC[C@@H]1C(=O)N[C@@H]1CCCN(c2ccccc2F)C1=O)c1ccc(-c2c3nc(c(-c4cc(S(=O)(=O)[O-])ccc4F)c4ccc([nH]4)c(-c4cc(S(=O)(=O)[O-])ccc4F)c4nc(c(-c5cc(S(=O)(=O)[O-])ccc5F)c5ccc2[nH]5)C=C4)C=C3)cc1
REMARK SMILES IDX 7 1 6 2 5 3 4 4 3 5 2 6 1 7 38 8 39 9 100 10 40 11 99 12
REMARK SMILES IDX 41 13 42 14 43 15 93 16 44 17 98 18 92 19 94 20 45 21 97 22
REMARK SMILES IDX 91 23 90 24 46 26 78 27 58 28 77 29 59 30 62 31 76 32 95 33
REMARK SMILES IDX 60 34 61 35 75 37 96 38 63 39 47 40 48 41 56 42 49 43 55 44
REMARK SMILES IDX 57 45 54 46 50 47 51 48 52 49 53 50 79 51 80 52 88 53 81 54
REMARK SMILES IDX 87 55 89 56 86 57 82 58 83 59 84 60 85 61 64 62 65 63 73 64
REMARK SMILES IDX 66 65 72 66 74 67 71 68 67 69 68 70 69 71 70 72 8 73 9 74
REMARK SMILES IDX 10 75 11 76 12 77 13 78 14 79 15 80 16 81 20 82 17 83 19 84
REMARK SMILES IDX 18 85 21 86 22 87 23 88 24 90 25 91 36 92 26 93 28 94 37 95
REMARK SMILES IDX 27 96 29 97 30 98 34 99 31 100 33 101 35 102 32 103
REMARK H PARENT 94 25 62 36 23 89
REMARK Flexibility Score: inf
ROOT
ATOM      1  C   UNL     1       4.704   3.417  -0.233  1.00  0.00     0.188 C 
ENDROOT
BRANCH   1   2
ATOM      2  O   UNL     1       4.638   2.136   0.374  1.00  0.00    -0.376 OA
BRANCH   2   3
ATOM      3  C   UNL     1       5.218   1.907   1.648  1.00  0.00     0.202 C 
BRANCH   3   4
ATOM      4  C   UNL     1       6.496   2.646   2.109  1.00  0.00     0.261 C 
BRANCH   4   5
ATOM      5  O   UNL     1       6.998   3.713   1.281  1.00  0.00    -0.460 OA
BRANCH   5   6
ATOM      6  C   UNL     1       8.092   3.693   0.470  1.00  0.00     0.338 C 
ATOM      7  O   UNL     1       8.882   4.633   0.506  1.00  0.00    -0.246 OA
BRANCH   6   8
ATOM      8  C   UNL     1       8.168   2.728  -0.680  1.00  0.00     0.060 A 
ATOM      9  C   UNL     1       7.419   1.558  -0.764  1.00  0.00     0.016 A 
ATOM     10  C   UNL     1       9.016   3.036  -1.762  1.00  0.00     0.016 A 
ATOM     11  C   UNL     1       7.473   0.726  -1.875  1.00  0.00     0.010 A 
ATOM     12  C   UNL     1       9.132   2.171  -2.863  1.00  0.00     0.010 A 
ATOM     13  C   UNL     1       8.374   0.996  -2.900  1.00  0.00    -0.014 A 
BRANCH  13  14
ATOM     14  C   UNL     1       8.697  -0.137  -3.791  1.00  0.00     0.031 A 
ATOM     15  C   UNL     1       9.790  -1.063  -3.333  1.00  0.00     0.074 A 
ATOM     16  C   UNL     1       7.897  -0.456  -4.823  1.00  0.00     0.049 A 
ATOM     17  N   UNL     1      10.217  -2.171  -3.869  1.00  0.00    -0.248 NA
ATOM     18  C   UNL     1      10.459  -0.712  -2.065  1.00  0.00     0.031 C 
ATOM     19  C   UNL     1       6.697   0.283  -5.207  1.00  0.00     0.029 A 
ATOM     20  N   UNL     1       7.940  -1.505  -5.704  1.00  0.00    -0.354 N 
ATOM     21  C   UNL     1      11.190  -2.654  -3.003  1.00  0.00     0.074 A 
ATOM     22  C   UNL     1      11.303  -1.718  -1.910  1.00  0.00     0.031 C 
ATOM     23  C   UNL     1       6.114  -0.341  -6.244  1.00  0.00     0.029 A 
ATOM     24  C   UNL     1       6.923  -1.487  -6.632  1.00  0.00     0.049 A 
ATOM     25  H   UNL     1       8.632  -2.204  -5.676  1.00  0.00     0.167 HD
ATOM     26  C   UNL     1      11.925  -3.781  -3.119  1.00  0.00     0.034 A 
ATOM     27  C   UNL     1       6.697  -2.292  -7.689  1.00  0.00     0.034 A 
ATOM     28  C   UNL     1      11.810  -4.671  -4.240  1.00  0.00     0.049 A 
ATOM     29  C   UNL     1       7.649  -3.441  -7.902  1.00  0.00     0.074 A 
ATOM     30  C   UNL     1      12.571  -5.783  -4.541  1.00  0.00     0.029 A 
ATOM     31  N   UNL     1      10.871  -4.534  -5.255  1.00  0.00    -0.354 N 
ATOM     32  N   UNL     1       8.649  -3.828  -7.141  1.00  0.00    -0.248 NA
ATOM     33  C   UNL     1       7.460  -4.254  -9.109  1.00  0.00     0.031 C 
ATOM     34  C   UNL     1      12.136  -6.279  -5.773  1.00  0.00     0.029 A 
ATOM     35  C   UNL     1      11.053  -5.524  -6.202  1.00  0.00     0.049 A 
ATOM     36  H   UNL     1      10.178  -3.836  -5.294  1.00  0.00     0.167 HD
ATOM     37  C   UNL     1       9.198  -4.940  -7.767  1.00  0.00     0.074 A 
ATOM     38  C   UNL     1       8.413  -5.167  -8.966  1.00  0.00     0.031 C 
ATOM     39  C   UNL     1      10.250  -5.708  -7.387  1.00  0.00     0.034 A 
BRANCH  26  40
ATOM     40  C   UNL     1      12.969  -4.037  -2.068  1.00  0.00     0.023 A 
ATOM     41  C   UNL     1      12.629  -4.411  -0.756  1.00  0.00     0.031 A 
ATOM     42  C   UNL     1      14.329  -3.865  -2.379  1.00  0.00     0.131 A 
ATOM     43  C   UNL     1      13.639  -4.567   0.206  1.00  0.00     0.055 A 
ATOM     44  C   UNL     1      15.331  -4.077  -1.433  1.00  0.00     0.041 A 
ATOM     45  F   UNL     1      14.702  -3.472  -3.607  1.00  0.00    -0.206 F 
ATOM     46  C   UNL     1      14.989  -4.426  -0.130  1.00  0.00     0.022 A 
BRANCH  43  47
ATOM     47  S   UNL     1      13.167  -4.882   1.930  1.00  0.00     0.124 S 
ATOM     48  O   UNL     1      12.520  -3.623   2.293  1.00  0.00    -0.237 OA
ATOM     49  O   UNL     1      12.289  -6.040   1.815  1.00  0.00    -0.237 OA
ATOM     50  O   UNL     1      14.445  -5.134   2.594  1.00  0.00    -0.744 OA
ENDBRANCH  43  47
ENDBRANCH  26  40
BRANCH  27  51
ATOM     51  C   UNL     1       5.593  -1.997  -8.652  1.00  0.00     0.023 A 
ATOM     52  C   UNL     1       4.527  -2.887  -8.855  1.00  0.00     0.031 A 
ATOM     53  C   UNL     1       5.609  -0.810  -9.413  1.00  0.00     0.131 A 
ATOM     54  C   UNL     1       3.534  -2.587  -9.806  1.00  0.00     0.055 A 
ATOM     55  C   UNL     1       4.603  -0.500 -10.329  1.00  0.00     0.041 A 
ATOM     56  F   UNL     1       6.604   0.080  -9.266  1.00  0.00    -0.206 F 
ATOM     57  C   UNL     1       3.559  -1.395 -10.535  1.00  0.00     0.022 A 
BRANCH  54  58
ATOM     58  S   UNL     1       2.220  -3.800 -10.118  1.00  0.00     0.124 S 
ATOM     59  O   UNL     1       2.983  -4.949 -10.594  1.00  0.00    -0.237 OA
ATOM     60  O   UNL     1       1.610  -3.932  -8.799  1.00  0.00    -0.237 OA
ATOM     61  O   UNL     1       1.385  -3.147 -11.124  1.00  0.00    -0.744 OA
ENDBRANCH  54  58
ENDBRANCH  27  51
BRANCH  39  62
ATOM     62  C   UNL     1      10.600  -6.878  -8.262  1.00  0.00     0.023 A 
ATOM     63  C   UNL     1      11.207  -6.695  -9.512  1.00  0.00     0.031 A 
ATOM     64  C   UNL     1      10.400  -8.189  -7.795  1.00  0.00     0.131 A 
ATOM     65  C   UNL     1      11.580  -7.812 -10.270  1.00  0.00     0.055 A 
ATOM     66  C   UNL     1      10.820  -9.296  -8.529  1.00  0.00     0.041 A 
ATOM     67  F   UNL     1       9.829  -8.408  -6.599  1.00  0.00    -0.206 F 
ATOM     68  C   UNL     1      11.411  -9.110  -9.777  1.00  0.00     0.022 A 
BRANCH  65  69
ATOM     69  S   UNL     1      12.268  -7.547 -11.924  1.00  0.00     0.124 S 
ATOM     70  O   UNL     1      11.141  -6.939 -12.625  1.00  0.00    -0.237 OA
ATOM     71  O   UNL     1      13.402  -6.668 -11.659  1.00  0.00    -0.237 OA
ATOM     72  O   UNL     1      12.620  -8.895 -12.368  1.00  0.00    -0.744 OA
ENDBRANCH  65  69
ENDBRANCH  39  62
ENDBRANCH  13  14
ENDBRANCH   6   8
ENDBRANCH   5   6
ENDBRANCH   4   5
ENDBRANCH   3   4
ENDBRANCH   2   3
ENDBRANCH   1   2
BRANCH   1  73
ATOM     73  C   UNL     1       3.954   4.548   0.473  1.00  0.00     0.188 C 
BRANCH  73  74
ATOM     74  O   UNL     1       2.527   4.594   0.394  1.00  0.00    -0.376 OA
BRANCH  74  75
ATOM     75  C   UNL     1       1.851   3.342   0.354  1.00  0.00     0.202 C 
BRANCH  75  76
ATOM     76  C   UNL     1       1.655   2.818  -1.073  1.00  0.00     0.261 C 
BRANCH  76  77
ATOM     77  O   UNL     1       2.436   3.598  -1.990  1.00  0.00    -0.463 OA
BRANCH  77  78
ATOM     78  C   UNL     1       2.238   3.359  -3.293  1.00  0.00     0.310 C 
ATOM     79  O   UNL     1       1.397   2.560  -3.713  1.00  0.00    -0.252 OA
BRANCH  78  80
ATOM     80  C   UNL     1       3.142   4.189  -4.196  1.00  0.00     0.115 C 
ATOM     81  C   UNL     1       2.227   4.899  -5.184  1.00  0.00     0.043 C 
ATOM     82  C   UNL     1       4.122   5.187  -3.595  1.00  0.00     0.097 C 
ATOM     83  C   UNL     1       1.553   6.095  -4.598  1.00  0.00    -0.030 C 
ATOM     84  C   UNL     1       3.366   6.361  -2.906  1.00  0.00     0.041 C 
ATOM     85  C   UNL     1       2.061   6.745  -3.546  1.00  0.00    -0.030 C 
BRANCH  82  86
ATOM     86  C   UNL     1       5.190   5.765  -4.547  1.00  0.00     0.224 C 
ATOM     87  O   UNL     1       5.990   6.599  -4.092  1.00  0.00    -0.275 OA
ATOM     88  N   UNL     1       5.271   5.614  -5.893  1.00  0.00    -0.344 N 
ATOM     89  H   UNL     1       5.157   6.474  -6.358  1.00  0.00     0.164 HD
BRANCH  88  90
ATOM     90  C   UNL     1       5.490   4.485  -6.870  1.00  0.00     0.172 C 
ATOM     91  C   UNL     1       5.817   5.155  -8.232  1.00  0.00     0.037 C 
ATOM     92  C   UNL     1       4.474   3.312  -7.049  1.00  0.00     0.249 C 
ATOM     93  C   UNL     1       5.130   4.524  -9.432  1.00  0.00     0.025 C 
ATOM     94  N   UNL     1       3.485   3.452  -8.026  1.00  0.00    -0.308 N 
ATOM     95  O   UNL     1       4.508   2.369  -6.259  1.00  0.00    -0.272 OA
ATOM     96  C   UNL     1       3.646   4.383  -9.123  1.00  0.00     0.126 C 
BRANCH  94  97
ATOM     97  C   UNL     1       2.260   2.724  -7.916  1.00  0.00     0.080 A 
ATOM     98  C   UNL     1       2.269   1.340  -7.727  1.00  0.00     0.029 A 
ATOM     99  C   UNL     1       1.039   3.404  -7.790  1.00  0.00     0.146 A 
ATOM    100  C   UNL     1       1.111   0.669  -7.324  1.00  0.00     0.002 A 
ATOM    101  C   UNL     1      -0.097   2.754  -7.306  1.00  0.00     0.041 A 
ATOM    102  F   UNL     1       0.987   4.739  -7.938  1.00  0.00    -0.205 F 
ATOM    103  C   UNL     1      -0.055   1.384  -7.058  1.00  0.00     0.003 A 
ENDBRANCH  94  97
ENDBRANCH  88  90
ENDBRANCH  82  86
ENDBRANCH  78  80
ENDBRANCH  77  78
ENDBRANCH  76  77
ENDBRANCH  75  76
ENDBRANCH  74  75
ENDBRANCH  73  74
ENDBRANCH   1  73
TORSDOF 23
