REMARK SMILES CC1(C)CCC[C@@](C)(CCC(=O)OCCOCCOCCOC(=O)c2ccc(-c3c4nc(c(-c5cc(S(=O)(=O)[O-])ccc5F)c5ccc([nH]5)c(-c5cc(S(=O)(=O)[O-])ccc5F)c5nc(c(-c6cc(S(=O)(=O)[O-])ccc6F)c6ccc3[nH]6)C=C5)C=C4)cc2)C1=O
REMARK SMILES IDX 18 1 17 2 16 3 15 4 14 5 13 6 11 7 12 8 10 9 9 10 7 11 1 12
REMARK SMILES IDX 2 13 3 14 4 15 88 16 5 17 89 18 6 19 8 20 19 21 20 22 21 23
REMARK SMILES IDX 22 24 23 25 24 26 25 27 26 28 87 29 27 30 86 31 28 32 29 33
REMARK SMILES IDX 30 34 80 35 31 36 85 37 79 38 81 39 32 40 84 41 78 42 77 43
REMARK SMILES IDX 33 45 65 46 45 47 64 48 46 49 49 50 63 51 82 52 47 53 48 54
REMARK SMILES IDX 62 56 83 57 50 58 34 59 35 60 43 61 36 62 42 63 44 64 41 65
REMARK SMILES IDX 37 66 38 67 39 68 40 69 66 70 67 71 75 72 68 73 74 74 76 75
REMARK SMILES IDX 73 76 69 77 70 78 71 79 72 80 51 81 52 82 60 83 53 84 59 85
REMARK SMILES IDX 61 86 58 87 54 88 55 89 56 90 57 91
REMARK H PARENT 81 44 49 55
REMARK Flexibility Score: inf
ROOT
ATOM      1  C   UNL     1       3.800  -4.338  -3.967  1.00  0.00     0.188 C 
ENDROOT
BRANCH   1   2
ATOM      2  C   UNL     1       4.994  -3.941  -3.085  1.00  0.00     0.188 C 
BRANCH   2   3
ATOM      3  O   UNL     1       5.586  -4.987  -2.318  1.00  0.00    -0.376 OA
BRANCH   3   4
ATOM      4  C   UNL     1       4.759  -5.604  -1.324  1.00  0.00     0.202 C 
BRANCH   4   5
ATOM      5  C   UNL     1       4.112  -4.664  -0.293  1.00  0.00     0.261 C 
BRANCH   5   6
ATOM      6  O   UNL     1       3.183  -3.756  -0.914  1.00  0.00    -0.463 OA
BRANCH   6   7
ATOM      7  C   UNL     1       3.202  -2.482  -0.456  1.00  0.00     0.305 C 
ATOM      8  O   UNL     1       3.816  -2.089   0.529  1.00  0.00    -0.252 OA
BRANCH   7   9
ATOM      9  C   UNL     1       2.505  -1.536  -1.410  1.00  0.00     0.124 C 
BRANCH   9  10
ATOM     10  C   UNL     1       1.032  -1.727  -1.799  1.00  0.00     0.026 C 
BRANCH  10  11
ATOM     11  C   UNL     1       0.012  -2.374  -0.822  1.00  0.00     0.027 C 
ATOM     12  C   UNL     1       0.956   0.262   0.912  1.00  0.00     0.019 C 
ATOM     13  C   UNL     1       0.127  -0.931   1.403  1.00  0.00     0.024 C 
ATOM     14  C   UNL     1       0.462  -1.119   2.895  1.00  0.00     0.019 C 
ATOM     15  C   UNL     1      -1.373  -0.653   1.231  1.00  0.00     0.014 C 
ATOM     16  C   UNL     1       0.413  -2.251   0.659  1.00  0.00     0.144 C 
ATOM     17  C   UNL     1      -1.761  -0.532  -0.242  1.00  0.00     0.002 C 
ATOM     18  O   UNL     1       0.923  -3.211   1.244  1.00  0.00    -0.298 OA
ATOM     19  C   UNL     1      -1.423  -1.801  -1.022  1.00  0.00     0.014 C 
ATOM     20  C   UNL     1      -0.107  -3.876  -1.197  1.00  0.00     0.020 C 
ENDBRANCH  10  11
ENDBRANCH   9  10
ENDBRANCH   7   9
ENDBRANCH   6   7
ENDBRANCH   5   6
ENDBRANCH   4   5
ENDBRANCH   3   4
ENDBRANCH   2   3
ENDBRANCH   1   2
BRANCH   1  21
ATOM     21  O   UNL     1       2.877  -5.212  -3.330  1.00  0.00    -0.376 OA
BRANCH  21  22
ATOM     22  C   UNL     1       1.722  -5.613  -4.064  1.00  0.00     0.202 C 
BRANCH  22  23
ATOM     23  C   UNL     1       1.976  -6.143  -5.483  1.00  0.00     0.261 C 
BRANCH  23  24
ATOM     24  O   UNL     1       2.476  -5.150  -6.397  1.00  0.00    -0.460 OA
BRANCH  24  25
ATOM     25  C   UNL     1       1.772  -3.995  -6.515  1.00  0.00     0.338 C 
ATOM     26  O   UNL     1       0.638  -3.796  -6.141  1.00  0.00    -0.246 OA
BRANCH  25  27
ATOM     27  C   UNL     1       2.727  -2.936  -6.942  1.00  0.00     0.060 A 
ATOM     28  C   UNL     1       2.567  -1.645  -6.420  1.00  0.00     0.016 A 
ATOM     29  C   UNL     1       3.821  -3.228  -7.763  1.00  0.00     0.016 A 
ATOM     30  C   UNL     1       3.485  -0.641  -6.741  1.00  0.00     0.010 A 
ATOM     31  C   UNL     1       4.737  -2.225  -8.083  1.00  0.00     0.010 A 
ATOM     32  C   UNL     1       4.561  -0.919  -7.595  1.00  0.00    -0.014 A 
BRANCH  32  33
ATOM     33  C   UNL     1       5.399   0.177  -8.141  1.00  0.00     0.031 A 
ATOM     34  C   UNL     1       5.069   0.698  -9.513  1.00  0.00     0.074 A 
ATOM     35  C   UNL     1       6.441   0.682  -7.455  1.00  0.00     0.049 A 
ATOM     36  N   UNL     1       5.708   1.570 -10.247  1.00  0.00    -0.248 NA
ATOM     37  C   UNL     1       3.854   0.153 -10.141  1.00  0.00     0.031 C 
ATOM     38  C   UNL     1       6.839   0.287  -6.104  1.00  0.00     0.029 A 
ATOM     39  N   UNL     1       7.368   1.630  -7.813  1.00  0.00    -0.354 N 
ATOM     40  C   UNL     1       4.980   1.673 -11.427  1.00  0.00     0.074 A 
ATOM     41  C   UNL     1       3.868   0.753 -11.321  1.00  0.00     0.031 C 
ATOM     42  C   UNL     1       7.941   0.976  -5.756  1.00  0.00     0.029 A 
ATOM     43  C   UNL     1       8.353   1.827  -6.872  1.00  0.00     0.049 A 
ATOM     44  H   UNL     1       7.332   2.123  -8.665  1.00  0.00     0.167 HD
ATOM     45  C   UNL     1       5.215   2.465 -12.500  1.00  0.00     0.034 A 
ATOM     46  C   UNL     1       9.474   2.579  -6.924  1.00  0.00     0.034 A 
ATOM     47  C   UNL     1       6.332   3.369 -12.603  1.00  0.00     0.049 A 
ATOM     48  C   UNL     1       9.762   3.385  -8.174  1.00  0.00     0.074 A 
ATOM     49  C   UNL     1       6.647   4.231 -13.638  1.00  0.00     0.029 A 
ATOM     50  N   UNL     1       7.326   3.516 -11.646  1.00  0.00    -0.354 N 
ATOM     51  N   UNL     1       9.053   3.492  -9.274  1.00  0.00    -0.248 NA
ATOM     52  C   UNL     1      11.004   4.173  -8.185  1.00  0.00     0.031 C 
ATOM     53  C   UNL     1       7.869   4.843 -13.341  1.00  0.00     0.029 A 
ATOM     54  C   UNL     1       8.276   4.426 -12.084  1.00  0.00     0.049 A 
ATOM     55  H   UNL     1       7.354   3.044 -10.783  1.00  0.00     0.167 HD
ATOM     56  C   UNL     1       9.746   4.385 -10.089  1.00  0.00     0.074 A 
ATOM     57  C   UNL     1      10.919   4.799  -9.349  1.00  0.00     0.031 C 
ATOM     58  C   UNL     1       9.443   4.828 -11.336  1.00  0.00     0.034 A 
BRANCH  45  59
ATOM     59  C   UNL     1       4.273   2.345 -13.670  1.00  0.00     0.023 A 
ATOM     60  C   UNL     1       2.926   2.737 -13.580  1.00  0.00     0.031 A 
ATOM     61  C   UNL     1       4.730   1.821 -14.891  1.00  0.00     0.131 A 
ATOM     62  C   UNL     1       2.071   2.550 -14.676  1.00  0.00     0.055 A 
ATOM     63  C   UNL     1       3.892   1.704 -16.000  1.00  0.00     0.041 A 
ATOM     64  F   UNL     1       6.000   1.405 -15.023  1.00  0.00    -0.206 F 
ATOM     65  C   UNL     1       2.551   2.061 -15.894  1.00  0.00     0.022 A 
BRANCH  62  66
ATOM     66  S   UNL     1       0.296   2.849 -14.454  1.00  0.00     0.124 S 
ATOM     67  O   UNL     1      -0.035   1.889 -13.403  1.00  0.00    -0.237 OA
ATOM     68  O   UNL     1       0.258   4.255 -14.069  1.00  0.00    -0.237 OA
ATOM     69  O   UNL     1      -0.269   2.545 -15.766  1.00  0.00    -0.744 OA
ENDBRANCH  62  66
ENDBRANCH  45  59
BRANCH  46  70
ATOM     70  C   UNL     1      10.457   2.573  -5.798  1.00  0.00     0.023 A 
ATOM     71  C   UNL     1      10.783   3.753  -5.110  1.00  0.00     0.031 A 
ATOM     72  C   UNL     1      11.164   1.403  -5.466  1.00  0.00     0.131 A 
ATOM     73  C   UNL     1      11.832   3.753  -4.176  1.00  0.00     0.055 A 
ATOM     74  C   UNL     1      12.163   1.394  -4.490  1.00  0.00     0.041 A 
ATOM     75  F   UNL     1      10.902   0.247  -6.097  1.00  0.00    -0.206 F 
ATOM     76  C   UNL     1      12.515   2.579  -3.852  1.00  0.00     0.022 A 
BRANCH  73  77
ATOM     77  S   UNL     1      12.377   5.340  -3.483  1.00  0.00     0.124 S 
ATOM     78  O   UNL     1      12.698   6.095  -4.689  1.00  0.00    -0.237 OA
ATOM     79  O   UNL     1      11.191   5.772  -2.751  1.00  0.00    -0.237 OA
ATOM     80  O   UNL     1      13.522   4.973  -2.652  1.00  0.00    -0.744 OA
ENDBRANCH  73  77
ENDBRANCH  46  70
BRANCH  58  81
ATOM     81  C   UNL     1      10.366   5.852 -11.954  1.00  0.00     0.023 A 
ATOM     82  C   UNL     1      11.689   5.542 -12.311  1.00  0.00     0.031 A 
ATOM     83  C   UNL     1       9.909   7.162 -12.188  1.00  0.00     0.131 A 
ATOM     84  C   UNL     1      12.525   6.541 -12.834  1.00  0.00     0.055 A 
ATOM     85  C   UNL     1      10.726   8.135 -12.765  1.00  0.00     0.041 A 
ATOM     86  F   UNL     1       8.654   7.516 -11.866  1.00  0.00    -0.206 F 
ATOM     87  C   UNL     1      12.047   7.830 -13.079  1.00  0.00     0.022 A 
BRANCH  84  88
ATOM     88  S   UNL     1      14.277   6.157 -13.112  1.00  0.00     0.124 S 
ATOM     89  O   UNL     1      14.715   5.759 -11.778  1.00  0.00    -0.237 OA
ATOM     90  O   UNL     1      14.209   5.090 -14.105  1.00  0.00    -0.237 OA
ATOM     91  O   UNL     1      14.832   7.419 -13.597  1.00  0.00    -0.744 OA
ENDBRANCH  84  88
ENDBRANCH  58  81
ENDBRANCH  32  33
ENDBRANCH  25  27
ENDBRANCH  24  25
ENDBRANCH  23  24
ENDBRANCH  22  23
ENDBRANCH  21  22
ENDBRANCH   1  21
TORSDOF 22
