REMARK SMILES O=C(OCCOCCOCCOC(=O)[C@H]1CC=CC[C@H]1C(=O)Nc1ccc(S(=O)(=O)N2CCCC2)cc1)c1ccc(-c2c3nc(c(-c4cc(S(=O)(=O)[O-])ccc4F)c4ccc([nH]4)c(-c4cc(S(=O)(=O)[O-])ccc4F)c4nc(c(-c5cc(S(=O)(=O)[O-])ccc5F)c5ccc2[nH]5)C=C4)C=C3)cc1
REMARK SMILES IDX 8 1 7 2 6 3 5 4 4 5 3 6 2 7 1 8 38 9 39 10 100 11 40 12
REMARK SMILES IDX 99 13 41 14 42 15 43 16 93 17 44 18 98 19 92 20 94 21 45 22
REMARK SMILES IDX 97 23 91 24 90 25 46 27 78 28 58 29 77 30 59 31 62 32 76 33
REMARK SMILES IDX 95 34 60 35 61 36 75 38 96 39 63 40 47 41 48 42 56 43 49 44
REMARK SMILES IDX 55 45 57 46 54 47 50 48 51 49 52 50 53 51 79 52 80 53 88 54
REMARK SMILES IDX 81 55 87 56 89 57 86 58 82 59 83 60 84 61 85 62 64 63 65 64
REMARK SMILES IDX 73 65 66 66 72 67 74 68 71 69 67 70 68 71 69 72 70 73 9 74
REMARK SMILES IDX 10 75 11 76 12 77 13 78 14 79 15 80 16 81 20 82 17 83 19 84
REMARK SMILES IDX 18 85 21 86 22 87 23 88 24 90 25 91 37 92 26 93 36 94 27 95
REMARK SMILES IDX 28 96 29 97 30 98 31 99 32 100 35 101 33 102 34 103
REMARK H PARENT 94 26 62 37 23 89
REMARK Flexibility Score: inf
ROOT
ATOM      1  C   UNL     1       1.645  -3.256  -0.032  1.00  0.00     0.188 C 
ENDROOT
BRANCH   1   2
ATOM      2  C   UNL     1       2.072  -2.413   1.179  1.00  0.00     0.188 C 
BRANCH   2   3
ATOM      3  O   UNL     1       3.272  -1.654   0.953  1.00  0.00    -0.376 OA
BRANCH   3   4
ATOM      4  C   UNL     1       3.532  -0.731   2.026  1.00  0.00     0.202 C 
BRANCH   4   5
ATOM      5  C   UNL     1       3.205   0.724   1.650  1.00  0.00     0.261 C 
BRANCH   5   6
ATOM      6  O   UNL     1       1.819   0.811   1.256  1.00  0.00    -0.460 OA
BRANCH   6   7
ATOM      7  C   UNL     1       1.290   1.607   0.297  1.00  0.00     0.338 C 
ATOM      8  O   UNL     1       0.077   1.795   0.258  1.00  0.00    -0.246 OA
BRANCH   7   9
ATOM      9  C   UNL     1       2.139   2.264  -0.729  1.00  0.00     0.060 A 
ATOM     10  C   UNL     1       3.104   1.567  -1.460  1.00  0.00     0.016 A 
ATOM     11  C   UNL     1       1.851   3.590  -1.077  1.00  0.00     0.016 A 
ATOM     12  C   UNL     1       3.846   2.217  -2.457  1.00  0.00     0.010 A 
ATOM     13  C   UNL     1       2.559   4.226  -2.103  1.00  0.00     0.010 A 
ATOM     14  C   UNL     1       3.582   3.553  -2.788  1.00  0.00    -0.014 A 
BRANCH  14  15
ATOM     15  C   UNL     1       4.385   4.282  -3.810  1.00  0.00     0.031 A 
ATOM     16  C   UNL     1       5.294   5.389  -3.372  1.00  0.00     0.074 A 
ATOM     17  C   UNL     1       4.277   3.998  -5.121  1.00  0.00     0.049 A 
ATOM     18  N   UNL     1       5.869   6.321  -4.085  1.00  0.00    -0.248 NA
ATOM     19  C   UNL     1       5.543   5.483  -1.929  1.00  0.00     0.031 C 
ATOM     20  C   UNL     1       3.429   2.950  -5.668  1.00  0.00     0.029 A 
ATOM     21  N   UNL     1       4.880   4.548  -6.226  1.00  0.00    -0.354 N 
ATOM     22  C   UNL     1       6.460   7.182  -3.169  1.00  0.00     0.074 A 
ATOM     23  C   UNL     1       6.210   6.623  -1.854  1.00  0.00     0.031 C 
ATOM     24  C   UNL     1       3.631   2.870  -6.993  1.00  0.00     0.029 A 
ATOM     25  C   UNL     1       4.541   3.930  -7.409  1.00  0.00     0.049 A 
ATOM     26  H   UNL     1       5.497   5.314  -6.176  1.00  0.00     0.167 HD
ATOM     27  C   UNL     1       7.095   8.357  -3.414  1.00  0.00     0.034 A 
ATOM     28  C   UNL     1       4.886   4.210  -8.684  1.00  0.00     0.034 A 
ATOM     29  C   UNL     1       7.323   8.874  -4.744  1.00  0.00     0.049 A 
ATOM     30  C   UNL     1       5.665   5.477  -8.940  1.00  0.00     0.074 A 
ATOM     31  C   UNL     1       7.878  10.083  -5.125  1.00  0.00     0.029 A 
ATOM     32  N   UNL     1       7.008   8.198  -5.919  1.00  0.00    -0.354 N 
ATOM     33  N   UNL     1       6.109   6.357  -8.071  1.00  0.00    -0.248 NA
ATOM     34  C   UNL     1       5.931   5.829 -10.341  1.00  0.00     0.031 C 
ATOM     35  C   UNL     1       7.851  10.158  -6.525  1.00  0.00     0.029 A 
ATOM     36  C   UNL     1       7.346   8.967  -7.022  1.00  0.00     0.049 A 
ATOM     37  H   UNL     1       6.602   7.302  -5.962  1.00  0.00     0.167 HD
ATOM     38  C   UNL     1       6.671   7.384  -8.821  1.00  0.00     0.074 A 
ATOM     39  C   UNL     1       6.559   6.991 -10.212  1.00  0.00     0.031 C 
ATOM     40  C   UNL     1       7.205   8.559  -8.401  1.00  0.00     0.034 A 
BRANCH  27  41
ATOM     41  C   UNL     1       7.434   9.198  -2.206  1.00  0.00     0.023 A 
ATOM     42  C   UNL     1       8.311   8.748  -1.205  1.00  0.00     0.031 A 
ATOM     43  C   UNL     1       6.744  10.405  -1.981  1.00  0.00     0.131 A 
ATOM     44  C   UNL     1       8.367   9.422   0.025  1.00  0.00     0.055 A 
ATOM     45  C   UNL     1       6.890  11.130  -0.797  1.00  0.00     0.041 A 
ATOM     46  F   UNL     1       5.873  10.875  -2.888  1.00  0.00    -0.206 F 
ATOM     47  C   UNL     1       7.683  10.623   0.228  1.00  0.00     0.022 A 
BRANCH  44  48
ATOM     48  S   UNL     1       9.147   8.578   1.431  1.00  0.00     0.124 S 
ATOM     49  O   UNL     1       8.382   7.333   1.486  1.00  0.00    -0.237 OA
ATOM     50  O   UNL     1      10.533   8.457   0.997  1.00  0.00    -0.237 OA
ATOM     51  O   UNL     1       8.917   9.489   2.550  1.00  0.00    -0.744 OA
ENDBRANCH  44  48
ENDBRANCH  27  41
BRANCH  28  52
ATOM     52  C   UNL     1       4.432   3.339  -9.814  1.00  0.00     0.023 A 
ATOM     53  C   UNL     1       5.358   2.670 -10.635  1.00  0.00     0.031 A 
ATOM     54  C   UNL     1       3.065   3.161 -10.097  1.00  0.00     0.131 A 
ATOM     55  C   UNL     1       4.905   1.866 -11.697  1.00  0.00     0.055 A 
ATOM     56  C   UNL     1       2.620   2.311 -11.111  1.00  0.00     0.041 A 
ATOM     57  F   UNL     1       2.132   3.790  -9.365  1.00  0.00    -0.206 F 
ATOM     58  C   UNL     1       3.543   1.662 -11.923  1.00  0.00     0.022 A 
BRANCH  55  59
ATOM     59  S   UNL     1       6.122   1.133 -12.828  1.00  0.00     0.124 S 
ATOM     60  O   UNL     1       6.744   2.322 -13.403  1.00  0.00    -0.237 OA
ATOM     61  O   UNL     1       6.953   0.349 -11.921  1.00  0.00    -0.237 OA
ATOM     62  O   UNL     1       5.303   0.351 -13.752  1.00  0.00    -0.744 OA
ENDBRANCH  55  59
ENDBRANCH  28  52
BRANCH  40  63
ATOM     63  C   UNL     1       7.715   9.497  -9.465  1.00  0.00     0.023 A 
ATOM     64  C   UNL     1       6.837  10.217 -10.294  1.00  0.00     0.031 A 
ATOM     65  C   UNL     1       9.097   9.696  -9.623  1.00  0.00     0.131 A 
ATOM     66  C   UNL     1       7.354  11.086 -11.267  1.00  0.00     0.055 A 
ATOM     67  C   UNL     1       9.604  10.591 -10.566  1.00  0.00     0.041 A 
ATOM     68  F   UNL     1       9.974   9.032  -8.853  1.00  0.00    -0.206 F 
ATOM     69  C   UNL     1       8.732  11.288 -11.398  1.00  0.00     0.022 A 
BRANCH  66  70
ATOM     70  S   UNL     1       6.207  11.934 -12.388  1.00  0.00     0.124 S 
ATOM     71  O   UNL     1       5.608  10.817 -13.111  1.00  0.00    -0.237 OA
ATOM     72  O   UNL     1       5.327  12.640 -11.462  1.00  0.00    -0.237 OA
ATOM     73  O   UNL     1       7.079  12.793 -13.187  1.00  0.00    -0.744 OA
ENDBRANCH  66  70
ENDBRANCH  40  63
ENDBRANCH  14  15
ENDBRANCH   7   9
ENDBRANCH   6   7
ENDBRANCH   5   6
ENDBRANCH   4   5
ENDBRANCH   3   4
ENDBRANCH   2   3
ENDBRANCH   1   2
BRANCH   1  74
ATOM     74  O   UNL     1       2.269  -4.516  -0.310  1.00  0.00    -0.376 OA
BRANCH  74  75
ATOM     75  C   UNL     1       3.652  -4.587  -0.689  1.00  0.00     0.202 C 
BRANCH  75  76
ATOM     76  C   UNL     1       4.018  -4.799  -2.350  1.00  0.00     0.261 C 
BRANCH  76  77
ATOM     77  O   UNL     1       4.305  -3.384  -3.748  1.00  0.00    -0.463 OA
BRANCH  77  78
ATOM     78  C   UNL     1       4.675  -2.201  -4.448  1.00  0.00     0.310 C 
ATOM     79  O   UNL     1       5.574  -1.445  -4.086  1.00  0.00    -0.252 OA
BRANCH  78  80
ATOM     80  C   UNL     1       3.529  -1.762  -5.426  1.00  0.00     0.116 C 
ATOM     81  C   UNL     1       3.885  -0.364  -5.954  1.00  0.00     0.043 C 
ATOM     82  C   UNL     1       3.270  -2.643  -6.653  1.00  0.00     0.097 C 
ATOM     83  C   UNL     1       5.031  -0.438  -6.919  1.00  0.00    -0.030 C 
ATOM     84  C   UNL     1       4.580  -2.868  -7.417  1.00  0.00     0.041 C 
ATOM     85  C   UNL     1       5.370  -1.580  -7.541  1.00  0.00    -0.030 C 
BRANCH  82  86
ATOM     86  C   UNL     1       2.316  -3.846  -6.549  1.00  0.00     0.228 C 
ATOM     87  O   UNL     1       1.856  -4.382  -7.561  1.00  0.00    -0.274 OA
ATOM     88  N   UNL     1       1.883  -4.304  -5.329  1.00  0.00    -0.326 N 
ATOM     89  H   UNL     1       0.948  -4.590  -5.214  1.00  0.00     0.169 HD
BRANCH  88  90
ATOM     90  C   UNL     1       2.767  -4.365  -4.253  1.00  0.00     0.041 A 
ATOM     91  C   UNL     1       4.354  -5.112  -4.634  1.00  0.00     0.027 A 
ATOM     92  C   UNL     1       2.637  -3.138  -2.929  1.00  0.00     0.027 A 
ATOM     93  C   UNL     1       5.826  -4.623  -3.761  1.00  0.00     0.024 A 
ATOM     94  C   UNL     1       4.149  -2.633  -2.017  1.00  0.00     0.024 A 
ATOM     95  C   UNL     1       5.735  -3.428  -2.421  1.00  0.00     0.082 A 
BRANCH  95  96
ATOM     96  S   UNL     1       7.194  -3.439  -1.406  1.00  0.00     0.243 S 
ATOM     97  O   UNL     1       6.838  -4.239  -0.249  1.00  0.00    -0.207 OA
ATOM     98  O   UNL     1       8.281  -3.865  -2.264  1.00  0.00    -0.207 OA
BRANCH  96  99
ATOM     99  N   UNL     1       7.540  -1.907  -0.897  1.00  0.00    -0.198 NA
ATOM    100  C   UNL     1       6.861  -1.294   0.231  1.00  0.00     0.102 C 
ATOM    101  C   UNL     1       8.023  -0.877  -1.818  1.00  0.00     0.102 C 
ATOM    102  C   UNL     1       6.310  -0.000  -0.324  1.00  0.00     0.018 C 
ATOM    103  C   UNL     1       7.120   0.319  -1.570  1.00  0.00     0.018 C 
ENDBRANCH  96  99
ENDBRANCH  95  96
ENDBRANCH  88  90
ENDBRANCH  82  86
ENDBRANCH  78  80
ENDBRANCH  77  78
ENDBRANCH  76  77
ENDBRANCH  75  76
ENDBRANCH  74  75
ENDBRANCH   1  74
TORSDOF 24
