REMARK SMILES CCc1cccc(-c2ccc([C@@H](C)C(=O)OCCOCCOCCOC(=O)c3ccc(-c4c5nc(c(-c6cc(S(=O)(=O)[O-])ccc6F)c6ccc([nH]6)c(-c6cc(S(=O)(=O)[O-])ccc6F)c6nc(c(-c7cc(S(=O)(=O)[O-])ccc7F)c7ccc4[nH]7)C=C6)C=C5)cc3)cc2)c1
REMARK SMILES IDX 20 1 19 2 18 3 17 4 16 5 14 6 15 7 12 8 13 9 11 10 8 11 9 12
REMARK SMILES IDX 92 13 10 14 91 15 7 16 3 17 4 18 93 19 5 20 6 21 2 22 1 23
REMARK SMILES IDX 21 24 22 25 23 26 24 27 25 28 26 29 27 30 28 31 29 32 90 33
REMARK SMILES IDX 30 34 89 35 31 36 32 37 33 38 83 39 34 40 88 41 82 42 84 43
REMARK SMILES IDX 35 44 87 45 81 46 80 47 36 49 68 50 48 51 67 52 49 53 52 54
REMARK SMILES IDX 66 55 85 56 50 57 51 58 65 60 86 61 53 62 37 63 38 64 46 65
REMARK SMILES IDX 39 66 45 67 47 68 44 69 40 70 41 71 42 72 43 73 69 74 70 75
REMARK SMILES IDX 78 76 71 77 77 78 79 79 76 80 72 81 73 82 74 83 75 84 54 85
REMARK SMILES IDX 55 86 63 87 56 88 62 89 64 90 61 91 57 92 58 93 59 94 60 95
REMARK H PARENT 84 48 52 59
REMARK Flexibility Score: inf
ROOT
ATOM      1  C   UNL     1       7.354  -1.946   4.797  1.00  0.00     0.188 C 
ENDROOT
BRANCH   1   2
ATOM      2  O   UNL     1       8.775  -2.038   4.824  1.00  0.00    -0.376 OA
BRANCH   2   3
ATOM      3  C   UNL     1       9.419  -3.085   4.111  1.00  0.00     0.202 C 
BRANCH   3   4
ATOM      4  C   UNL     1       9.034  -4.536   4.437  1.00  0.00     0.261 C 
BRANCH   4   5
ATOM      5  O   UNL     1       7.623  -4.841   4.353  1.00  0.00    -0.463 OA
BRANCH   5   6
ATOM      6  C   UNL     1       7.037  -5.302   5.486  1.00  0.00     0.313 C 
ATOM      7  O   UNL     1       7.666  -5.530   6.519  1.00  0.00    -0.252 OA
BRANCH   6   8
ATOM      8  C   UNL     1       5.521  -5.521   5.432  1.00  0.00     0.126 C 
ATOM      9  C   UNL     1       5.231  -6.972   5.816  1.00  0.00     0.025 C 
BRANCH   8  10
ATOM     10  C   UNL     1       4.697  -5.130   4.204  1.00  0.00    -0.034 A 
ATOM     11  C   UNL     1       3.057  -4.347   1.985  1.00  0.00    -0.018 A 
ATOM     12  C   UNL     1       4.188  -5.168   1.817  1.00  0.00     0.009 A 
ATOM     13  C   UNL     1       2.760  -3.927   3.287  1.00  0.00     0.009 A 
ATOM     14  C   UNL     1       4.989  -5.564   2.905  1.00  0.00     0.005 A 
ATOM     15  C   UNL     1       3.558  -4.316   4.375  1.00  0.00     0.005 A 
BRANCH  11  16
ATOM     16  C   UNL     1       2.176  -3.997   0.849  1.00  0.00    -0.018 A 
ATOM     17  C   UNL     1       0.967  -2.344  -0.521  1.00  0.00    -0.048 A 
ATOM     18  C   UNL     1       0.423  -3.395  -1.275  1.00  0.00     0.004 A 
ATOM     19  C   UNL     1       1.850  -2.660   0.531  1.00  0.00     0.012 A 
ATOM     20  C   UNL     1       0.734  -4.720  -0.982  1.00  0.00     0.001 A 
ATOM     21  C   UNL     1       1.599  -5.015   0.071  1.00  0.00     0.009 A 
BRANCH  17  22
ATOM     22  C   UNL     1       0.570  -0.935  -0.907  1.00  0.00     0.032 C 
ATOM     23  C   UNL     1       0.955   0.189   0.043  1.00  0.00     0.009 C 
ENDBRANCH  17  22
ENDBRANCH  11  16
ENDBRANCH   8  10
ENDBRANCH   6   8
ENDBRANCH   5   6
ENDBRANCH   4   5
ENDBRANCH   3   4
ENDBRANCH   2   3
ENDBRANCH   1   2
BRANCH   1  24
ATOM     24  C   UNL     1       6.595  -2.324   3.516  1.00  0.00     0.188 C 
BRANCH  24  25
ATOM     25  O   UNL     1       7.411  -2.488   2.374  1.00  0.00    -0.376 OA
BRANCH  25  26
ATOM     26  C   UNL     1       7.069  -1.699   1.251  1.00  0.00     0.202 C 
BRANCH  26  27
ATOM     27  C   UNL     1       7.353  -0.202   1.435  1.00  0.00     0.261 C 
BRANCH  27  28
ATOM     28  O   UNL     1       6.742   0.410   2.589  1.00  0.00    -0.460 OA
BRANCH  28  29
ATOM     29  C   UNL     1       5.397   0.548   2.565  1.00  0.00     0.338 C 
ATOM     30  O   UNL     1       4.654   0.236   1.642  1.00  0.00    -0.246 OA
BRANCH  29  31
ATOM     31  C   UNL     1       4.935   0.930   3.919  1.00  0.00     0.060 A 
ATOM     32  C   UNL     1       4.006   0.110   4.575  1.00  0.00     0.016 A 
ATOM     33  C   UNL     1       5.401   2.092   4.539  1.00  0.00     0.016 A 
ATOM     34  C   UNL     1       3.509   0.474   5.829  1.00  0.00     0.010 A 
ATOM     35  C   UNL     1       4.888   2.464   5.789  1.00  0.00     0.010 A 
ATOM     36  C   UNL     1       3.912   1.677   6.427  1.00  0.00    -0.014 A 
BRANCH  36  37
ATOM     37  C   UNL     1       3.176   2.192   7.617  1.00  0.00     0.031 A 
ATOM     38  C   UNL     1       2.129   3.259   7.411  1.00  0.00     0.074 A 
ATOM     39  C   UNL     1       3.384   1.689   8.849  1.00  0.00     0.049 A 
ATOM     40  N   UNL     1       1.372   3.865   8.289  1.00  0.00    -0.248 NA
ATOM     41  C   UNL     1       1.907   3.696   6.023  1.00  0.00     0.031 C 
ATOM     42  C   UNL     1       4.327   0.622   9.179  1.00  0.00     0.029 A 
ATOM     43  N   UNL     1       2.807   2.009  10.056  1.00  0.00    -0.354 N 
ATOM     44  C   UNL     1       0.576   4.746   7.562  1.00  0.00     0.074 A 
ATOM     45  C   UNL     1       0.983   4.631   6.177  1.00  0.00     0.031 C 
ATOM     46  C   UNL     1       4.261   0.374  10.500  1.00  0.00     0.029 A 
ATOM     47  C   UNL     1       3.302   1.288  11.119  1.00  0.00     0.049 A 
ATOM     48  H   UNL     1       2.104   2.692  10.150  1.00  0.00     0.167 HD
ATOM     49  C   UNL     1      -0.416   5.560   8.000  1.00  0.00     0.034 A 
ATOM     50  C   UNL     1       3.027   1.371  12.438  1.00  0.00     0.034 A 
ATOM     51  C   UNL     1      -0.806   5.685   9.383  1.00  0.00     0.049 A 
ATOM     52  C   UNL     1       1.997   2.375  12.915  1.00  0.00     0.074 A 
ATOM     53  C   UNL     1      -1.785   6.497   9.932  1.00  0.00     0.029 A 
ATOM     54  N   UNL     1      -0.238   4.985  10.438  1.00  0.00    -0.354 N 
ATOM     55  N   UNL     1       1.254   3.200  12.212  1.00  0.00    -0.248 NA
ATOM     56  C   UNL     1       1.761   2.445  14.364  1.00  0.00     0.031 C 
ATOM     57  C   UNL     1      -1.760   6.340  11.322  1.00  0.00     0.029 A 
ATOM     58  C   UNL     1      -0.827   5.365  11.635  1.00  0.00     0.049 A 
ATOM     59  H   UNL     1       0.479   4.316  10.350  1.00  0.00     0.167 HD
ATOM     60  C   UNL     1       0.434   3.850  13.135  1.00  0.00     0.074 A 
ATOM     61  C   UNL     1       0.756   3.303  14.434  1.00  0.00     0.031 C 
ATOM     62  C   UNL     1      -0.502   4.813  12.929  1.00  0.00     0.034 A 
BRANCH  49  63
ATOM     63  C   UNL     1      -1.127   6.406   6.971  1.00  0.00     0.023 A 
ATOM     64  C   UNL     1      -1.906   5.826   5.954  1.00  0.00     0.031 A 
ATOM     65  C   UNL     1      -1.026   7.808   7.006  1.00  0.00     0.131 A 
ATOM     66  C   UNL     1      -2.508   6.641   4.984  1.00  0.00     0.055 A 
ATOM     67  C   UNL     1      -1.692   8.617   6.083  1.00  0.00     0.041 A 
ATOM     68  F   UNL     1      -0.276   8.416   7.938  1.00  0.00    -0.206 F 
ATOM     69  C   UNL     1      -2.430   8.033   5.057  1.00  0.00     0.022 A 
BRANCH  66  70
ATOM     70  S   UNL     1      -3.294   5.850   3.553  1.00  0.00     0.124 S 
ATOM     71  O   UNL     1      -2.174   5.115   2.970  1.00  0.00    -0.237 OA
ATOM     72  O   UNL     1      -4.336   5.039   4.172  1.00  0.00    -0.237 OA
ATOM     73  O   UNL     1      -3.771   6.978   2.756  1.00  0.00    -0.744 OA
ENDBRANCH  66  70
ENDBRANCH  49  63
BRANCH  50  74
ATOM     74  C   UNL     1       3.747   0.518  13.435  1.00  0.00     0.023 A 
ATOM     75  C   UNL     1       3.044  -0.344  14.293  1.00  0.00     0.031 A 
ATOM     76  C   UNL     1       5.135   0.644  13.627  1.00  0.00     0.131 A 
ATOM     77  C   UNL     1       3.713  -0.981  15.351  1.00  0.00     0.055 A 
ATOM     78  C   UNL     1       5.808  -0.051  14.634  1.00  0.00     0.041 A 
ATOM     79  F   UNL     1       5.858   1.462  12.847  1.00  0.00    -0.206 F 
ATOM     80  C   UNL     1       5.093  -0.853  15.518  1.00  0.00     0.022 A 
BRANCH  77  81
ATOM     81  S   UNL     1       2.727  -1.859  16.597  1.00  0.00     0.124 S 
ATOM     82  O   UNL     1       1.811  -0.814  17.038  1.00  0.00    -0.237 OA
ATOM     83  O   UNL     1       2.139  -2.938  15.811  1.00  0.00    -0.237 OA
ATOM     84  O   UNL     1       3.720  -2.277  17.584  1.00  0.00    -0.744 OA
ENDBRANCH  77  81
ENDBRANCH  50  74
BRANCH  62  85
ATOM     85  C   UNL     1      -1.285   5.285  14.134  1.00  0.00     0.023 A 
ATOM     86  C   UNL     1      -0.665   5.935  15.216  1.00  0.00     0.031 A 
ATOM     87  C   UNL     1      -2.670   5.047  14.217  1.00  0.00     0.131 A 
ATOM     88  C   UNL     1      -1.409   6.248  16.365  1.00  0.00     0.055 A 
ATOM     89  C   UNL     1      -3.419   5.430  15.331  1.00  0.00     0.041 A 
ATOM     90  F   UNL     1      -3.319   4.431  13.216  1.00  0.00    -0.206 F 
ATOM     91  C   UNL     1      -2.785   6.016  16.422  1.00  0.00     0.022 A 
BRANCH  88  92
ATOM     92  S   UNL     1      -0.527   6.842  17.836  1.00  0.00     0.124 S 
ATOM     93  O   UNL     1       0.440   5.774  18.062  1.00  0.00    -0.237 OA
ATOM     94  O   UNL     1       0.023   8.113  17.376  1.00  0.00    -0.237 OA
ATOM     95  O   UNL     1      -1.579   6.952  18.845  1.00  0.00    -0.744 OA
ENDBRANCH  88  92
ENDBRANCH  62  85
ENDBRANCH  36  37
ENDBRANCH  29  31
ENDBRANCH  28  29
ENDBRANCH  27  28
ENDBRANCH  26  27
ENDBRANCH  25  26
ENDBRANCH  24  25
ENDBRANCH   1  24
TORSDOF 23
