REMARK SMILES CC[NH+]1CCC2(CC1)OC[C@H](C(=O)OCCOCCOCCOC(=O)c1ccc(-c3c4nc(c(-c5cc(S(=O)(=O)[O-])ccc5F)c5ccc([nH]5)c(-c5cc(S(=O)(=O)[O-])ccc5F)c5nc(c(-c6cc(S(=O)(=O)[O-])ccc6F)c6ccc3[nH]6)C=C5)C=C4)cc1)N2C(=O)c1ccccc1
REMARK SMILES IDX 19 1 18 2 17 3 16 4 15 5 14 6 12 7 13 8 11 9 3 10 4 11 8 12
REMARK SMILES IDX 5 14 7 15 6 16 9 17 89 18 10 19 2 20 1 21 90 22 91 23 92 24
REMARK SMILES IDX 93 25 97 26 94 27 96 28 95 29 20 30 21 31 22 32 23 33 24 34
REMARK SMILES IDX 25 35 26 36 27 37 88 38 28 39 87 40 29 41 30 42 31 43 81 44
REMARK SMILES IDX 32 45 86 46 80 47 82 48 33 49 85 50 79 51 78 52 34 54 66 55
REMARK SMILES IDX 46 56 65 57 47 58 50 59 64 60 83 61 48 62 49 63 63 65 84 66
REMARK SMILES IDX 51 67 35 68 36 69 44 70 37 71 43 72 45 73 42 74 38 75 39 76
REMARK SMILES IDX 40 77 41 78 67 79 68 80 76 81 69 82 75 83 77 84 74 85 70 86
REMARK SMILES IDX 71 87 72 88 73 89 52 90 53 91 61 92 54 93 60 94 62 95 59 96
REMARK SMILES IDX 55 97 56 98 57 99 58 100
REMARK H PARENT 3 13 82 53 50 64
REMARK Flexibility Score: inf
ROOT
ATOM      1  C   UNL     1       2.122  -4.219   1.381  1.00  0.00     0.188 C 
ENDROOT
BRANCH   1   2
ATOM      2  C   UNL     1       1.198  -4.898   2.414  1.00  0.00     0.188 C 
BRANCH   2   3
ATOM      3  O   UNL     1       1.740  -5.986   3.155  1.00  0.00    -0.376 OA
BRANCH   3   4
ATOM      4  C   UNL     1       2.429  -6.982   2.407  1.00  0.00     0.202 C 
BRANCH   4   5
ATOM      5  C   UNL     1       1.563  -7.720   1.386  1.00  0.00     0.261 C 
BRANCH   5   6
ATOM      6  O   UNL     1       1.205  -6.873   0.272  1.00  0.00    -0.462 OA
BRANCH   6   7
ATOM      7  C   UNL     1       0.231  -7.385  -0.521  1.00  0.00     0.331 C 
ATOM      8  O   UNL     1      -0.304  -8.473  -0.306  1.00  0.00    -0.250 OA
BRANCH   7   9
ATOM      9  C   UNL     1      -0.198  -6.498  -1.706  1.00  0.00     0.224 C 
ATOM     10  N   UNL     1       0.278  -1.248  -2.212  1.00  0.00    -0.335 N 
ATOM     11  C   UNL     1       0.575  -2.076  -1.064  1.00  0.00     0.267 C 
ATOM     12  C   UNL     1      -0.374  -1.895  -3.352  1.00  0.00     0.267 C 
ATOM     13  H   UNL     1       1.233  -1.082  -2.527  1.00  0.00     0.348 HD
ATOM     14  C   UNL     1      -0.436  -3.164  -0.808  1.00  0.00     0.120 C 
ATOM     15  C   UNL     1      -0.954  -3.318  -3.233  1.00  0.00     0.120 C 
ATOM     16  C   UNL     1      -0.612  -4.119  -1.974  1.00  0.00     0.155 C 
ATOM     17  O   UNL     1      -1.853  -4.799  -1.633  1.00  0.00    -0.352 OA
ATOM     18  N   UNL     1       0.389  -5.205  -2.060  1.00  0.00    -0.293 N 
ATOM     19  C   UNL     1      -1.668  -6.205  -1.527  1.00  0.00     0.200 C 
BRANCH  10  20
ATOM     20  C   UNL     1      -0.272   0.088  -1.937  1.00  0.00     0.258 C 
ATOM     21  C   UNL     1       0.522   0.926  -0.935  1.00  0.00     0.071 C 
ENDBRANCH  10  20
BRANCH  18  22
ATOM     22  C   UNL     1       1.675  -5.264  -2.586  1.00  0.00     0.256 C 
ATOM     23  O   UNL     1       2.369  -6.279  -2.497  1.00  0.00    -0.269 OA
BRANCH  22  24
ATOM     24  C   UNL     1       2.254  -4.159  -3.366  1.00  0.00     0.040 A 
ATOM     25  C   UNL     1       1.912  -4.014  -4.715  1.00  0.00     0.014 A 
ATOM     26  C   UNL     1       3.255  -3.359  -2.810  1.00  0.00     0.014 A 
ATOM     27  C   UNL     1       2.463  -2.971  -5.462  1.00  0.00     0.001 A 
ATOM     28  C   UNL     1       3.791  -2.306  -3.554  1.00  0.00     0.001 A 
ATOM     29  C   UNL     1       3.379  -2.100  -4.871  1.00  0.00     0.000 A 
ENDBRANCH  22  24
ENDBRANCH  18  22
ENDBRANCH   7   9
ENDBRANCH   6   7
ENDBRANCH   5   6
ENDBRANCH   4   5
ENDBRANCH   3   4
ENDBRANCH   2   3
ENDBRANCH   1   2
BRANCH   1  30
ATOM     30  O   UNL     1       3.493  -4.059   1.720  1.00  0.00    -0.376 OA
BRANCH  30  31
ATOM     31  C   UNL     1       3.756  -3.431   2.969  1.00  0.00     0.202 C 
BRANCH  31  32
ATOM     32  C   UNL     1       3.260  -1.986   3.078  1.00  0.00     0.261 C 
BRANCH  32  33
ATOM     33  O   UNL     1       1.821  -1.906   3.071  1.00  0.00    -0.460 OA
BRANCH  33  34
ATOM     34  C   UNL     1       1.345  -0.638   3.102  1.00  0.00     0.338 C 
ATOM     35  O   UNL     1       2.038   0.367   3.252  1.00  0.00    -0.246 OA
BRANCH  34  36
ATOM     36  C   UNL     1      -0.126  -0.576   2.893  1.00  0.00     0.060 A 
ATOM     37  C   UNL     1      -0.838  -1.575   2.226  1.00  0.00     0.016 A 
ATOM     38  C   UNL     1      -0.804   0.583   3.273  1.00  0.00     0.016 A 
ATOM     39  C   UNL     1      -2.174  -1.373   1.846  1.00  0.00     0.010 A 
ATOM     40  C   UNL     1      -2.163   0.743   2.973  1.00  0.00     0.010 A 
ATOM     41  C   UNL     1      -2.864  -0.213   2.215  1.00  0.00    -0.014 A 
BRANCH  41  42
ATOM     42  C   UNL     1      -4.276   0.062   1.793  1.00  0.00     0.031 A 
ATOM     43  C   UNL     1      -4.607   1.378   1.127  1.00  0.00     0.074 A 
ATOM     44  C   UNL     1      -5.281  -0.812   2.014  1.00  0.00     0.049 A 
ATOM     45  N   UNL     1      -5.755   1.998   1.024  1.00  0.00    -0.248 NA
ATOM     46  C   UNL     1      -3.481   2.098   0.513  1.00  0.00     0.031 C 
ATOM     47  C   UNL     1      -5.137  -2.168   2.544  1.00  0.00     0.029 A 
ATOM     48  N   UNL     1      -6.641  -0.673   1.837  1.00  0.00    -0.354 N 
ATOM     49  C   UNL     1      -5.477   3.219   0.414  1.00  0.00     0.074 A 
ATOM     50  C   UNL     1      -4.052   3.239   0.154  1.00  0.00     0.031 C 
ATOM     51  C   UNL     1      -6.348  -2.737   2.637  1.00  0.00     0.029 A 
ATOM     52  C   UNL     1      -7.366  -1.750   2.300  1.00  0.00     0.049 A 
ATOM     53  H   UNL     1      -7.054   0.118   1.422  1.00  0.00     0.167 HD
ATOM     54  C   UNL     1      -6.331   4.233   0.121  1.00  0.00     0.034 A 
ATOM     55  C   UNL     1      -8.689  -1.905   2.517  1.00  0.00     0.034 A 
ATOM     56  C   UNL     1      -7.759   4.170   0.333  1.00  0.00     0.049 A 
ATOM     57  C   UNL     1      -9.618  -0.748   2.250  1.00  0.00     0.074 A 
ATOM     58  C   UNL     1      -8.716   5.137   0.073  1.00  0.00     0.029 A 
ATOM     59  N   UNL     1      -8.440   3.071   0.841  1.00  0.00    -0.354 N 
ATOM     60  N   UNL     1      -9.336   0.453   1.801  1.00  0.00    -0.248 NA
ATOM     61  C   UNL     1     -11.042  -0.961   2.546  1.00  0.00     0.031 C 
ATOM     62  C   UNL     1      -9.963   4.645   0.476  1.00  0.00     0.029 A 
ATOM     63  C   UNL     1      -9.797   3.344   0.921  1.00  0.00     0.049 A 
ATOM     64  H   UNL     1      -8.019   2.221   1.106  1.00  0.00     0.167 HD
ATOM     65  C   UNL     1     -10.550   1.133   1.752  1.00  0.00     0.074 A 
ATOM     66  C   UNL     1     -11.568   0.203   2.194  1.00  0.00     0.031 C 
ATOM     67  C   UNL     1     -10.801   2.414   1.379  1.00  0.00     0.034 A 
BRANCH  54  68
ATOM     68  C   UNL     1      -5.735   5.528  -0.380  1.00  0.00     0.023 A 
ATOM     69  C   UNL     1      -5.088   5.633  -1.622  1.00  0.00     0.031 A 
ATOM     70  C   UNL     1      -5.803   6.682   0.424  1.00  0.00     0.131 A 
ATOM     71  C   UNL     1      -4.480   6.844  -1.994  1.00  0.00     0.055 A 
ATOM     72  C   UNL     1      -5.264   7.903   0.015  1.00  0.00     0.041 A 
ATOM     73  F   UNL     1      -6.391   6.639   1.631  1.00  0.00    -0.206 F 
ATOM     74  C   UNL     1      -4.585   7.986  -1.195  1.00  0.00     0.022 A 
BRANCH  71  75
ATOM     75  S   UNL     1      -3.433   6.872  -3.475  1.00  0.00     0.124 S 
ATOM     76  O   UNL     1      -2.443   5.845  -3.157  1.00  0.00    -0.237 OA
ATOM     77  O   UNL     1      -4.377   6.540  -4.536  1.00  0.00    -0.237 OA
ATOM     78  O   UNL     1      -2.914   8.238  -3.505  1.00  0.00    -0.744 OA
ENDBRANCH  71  75
ENDBRANCH  54  68
BRANCH  55  79
ATOM     79  C   UNL     1      -9.208  -3.164   3.130  1.00  0.00     0.023 A 
ATOM     80  C   UNL     1     -10.103  -3.997   2.441  1.00  0.00     0.031 A 
ATOM     81  C   UNL     1      -8.842  -3.531   4.439  1.00  0.00     0.131 A 
ATOM     82  C   UNL     1     -10.623  -5.138   3.073  1.00  0.00     0.055 A 
ATOM     83  C   UNL     1      -9.315  -4.698   5.041  1.00  0.00     0.041 A 
ATOM     84  F   UNL     1      -7.998  -2.765   5.150  1.00  0.00    -0.206 F 
ATOM     85  C   UNL     1     -10.221  -5.504   4.360  1.00  0.00     0.022 A 
BRANCH  82  86
ATOM     86  S   UNL     1     -11.902  -6.101   2.219  1.00  0.00     0.124 S 
ATOM     87  O   UNL     1     -12.943  -5.099   2.017  1.00  0.00    -0.237 OA
ATOM     88  O   UNL     1     -11.197  -6.544   1.020  1.00  0.00    -0.237 OA
ATOM     89  O   UNL     1     -12.228  -7.158   3.174  1.00  0.00    -0.744 OA
ENDBRANCH  82  86
ENDBRANCH  55  79
BRANCH  67  90
ATOM     90  C   UNL     1     -12.243   2.857   1.393  1.00  0.00     0.023 A 
ATOM     91  C   UNL     1     -12.957   3.012   2.595  1.00  0.00     0.031 A 
ATOM     92  C   UNL     1     -12.920   3.096   0.184  1.00  0.00     0.131 A 
ATOM     93  C   UNL     1     -14.321   3.339   2.558  1.00  0.00     0.055 A 
ATOM     94  C   UNL     1     -14.263   3.475   0.157  1.00  0.00     0.041 A 
ATOM     95  F   UNL     1     -12.286   2.960  -0.992  1.00  0.00    -0.206 F 
ATOM     96  C   UNL     1     -14.975   3.585   1.348  1.00  0.00     0.022 A 
BRANCH  93  97
ATOM     97  S   UNL     1     -15.258   3.348   4.112  1.00  0.00     0.124 S 
ATOM     98  O   UNL     1     -15.065   1.983   4.591  1.00  0.00    -0.237 OA
ATOM     99  O   UNL     1     -14.585   4.393   4.877  1.00  0.00    -0.237 OA
ATOM    100  O   UNL     1     -16.620   3.670   3.690  1.00  0.00    -0.744 OA
ENDBRANCH  93  97
ENDBRANCH  67  90
ENDBRANCH  41  42
ENDBRANCH  34  36
ENDBRANCH  33  34
ENDBRANCH  32  33
ENDBRANCH  31  32
ENDBRANCH  30  31
ENDBRANCH   1  30
TORSDOF 23
