REMARK SMILES C[C@@](NC(=O)c1cc(Br)c[nH]1)(C(=O)OCCOCCOCCOC(=O)c1ccc(-c2c3nc(c(-c4cc(S(=O)(=O)[O-])ccc4F)c4ccc([nH]4)c(-c4cc(S(=O)(=O)[O-])ccc4F)c4nc(c(-c5cc(S(=O)(=O)[O-])ccc5F)c5ccc2[nH]5)C=C4)C=C3)cc1)C(F)(F)F
REMARK SMILES IDX 19 1 18 2 17 3 16 4 15 5 14 6 12 7 13 8 2 9 1 10 3 11 4 12
REMARK SMILES IDX 5 14 6 15 7 16 11 17 8 18 10 19 9 21 89 22 90 23 91 24 92 25
REMARK SMILES IDX 20 26 21 27 22 28 23 29 24 30 25 31 26 32 27 33 88 34 28 35
REMARK SMILES IDX 87 36 29 37 30 38 31 39 81 40 32 41 86 42 80 43 82 44 33 45
REMARK SMILES IDX 85 46 79 47 78 48 34 50 66 51 46 52 65 53 47 54 50 55 64 56
REMARK SMILES IDX 83 57 48 58 49 59 63 61 84 62 51 63 35 64 36 65 44 66 37 67
REMARK SMILES IDX 43 68 45 69 42 70 38 71 39 72 40 73 41 74 67 75 68 76 76 77
REMARK SMILES IDX 69 78 75 79 77 80 74 81 70 82 71 83 72 84 73 85 52 86 53 87
REMARK SMILES IDX 61 88 54 89 60 90 62 91 59 92 55 93 56 94 57 95 58 96
REMARK H PARENT 3 13 11 20 82 49 50 60
REMARK Flexibility Score: inf
ROOT
ATOM      1  C   UNL     1      -1.461   1.815  -0.172  1.00  0.00     0.188 C 
ENDROOT
BRANCH   1   2
ATOM      2  C   UNL     1      -2.575   1.659  -1.222  1.00  0.00     0.188 C 
BRANCH   2   3
ATOM      3  O   UNL     1      -3.781   1.106  -0.723  1.00  0.00    -0.376 OA
BRANCH   3   4
ATOM      4  C   UNL     1      -3.925  -0.293  -0.910  1.00  0.00     0.202 C 
BRANCH   4   5
ATOM      5  C   UNL     1      -3.056  -1.138   0.020  1.00  0.00     0.261 C 
BRANCH   5   6
ATOM      6  O   UNL     1      -1.623  -1.139  -0.162  1.00  0.00    -0.461 OA
BRANCH   6   7
ATOM      7  C   UNL     1      -1.040  -1.303  -1.379  1.00  0.00     0.341 C 
ATOM      8  O   UNL     1      -1.651  -1.334  -2.438  1.00  0.00    -0.249 OA
BRANCH   7   9
ATOM      9  C   UNL     1       0.457  -1.608  -1.232  1.00  0.00     0.231 C 
ATOM     10  C   UNL     1       1.048  -1.109   0.104  1.00  0.00     0.058 C 
BRANCH   9  11
ATOM     11  N   UNL     1       0.796  -3.064  -1.414  1.00  0.00    -0.328 N 
ATOM     12  C   UNL     1       0.139  -4.161  -0.925  1.00  0.00     0.268 C 
ATOM     13  H   UNL     1       1.596  -3.252  -1.957  1.00  0.00     0.165 HD
ATOM     14  O   UNL     1       0.800  -5.039  -0.379  1.00  0.00    -0.268 OA
BRANCH  12  15
ATOM     15  C   UNL     1      -1.279  -4.282  -1.165  1.00  0.00     0.105 A 
ATOM     16  C   UNL     1      -2.258  -4.793  -0.325  1.00  0.00     0.049 A 
ATOM     17  N   UNL     1      -1.908  -3.989  -2.363  1.00  0.00    -0.356 N 
ATOM     18  C   UNL     1      -3.492  -4.684  -0.996  1.00  0.00     0.036 A 
ATOM     19  C   UNL     1      -3.264  -4.167  -2.243  1.00  0.00     0.098 A 
ATOM     20  H   UNL     1      -1.449  -3.694  -3.183  1.00  0.00     0.166 HD
ATOM     21  Br  UNL     1      -5.152  -5.099  -0.240  1.00  0.00    -0.049 Br
ENDBRANCH  12  15
ENDBRANCH   9  11
BRANCH   9  22
ATOM     22  C   UNL     1       1.100  -0.776  -2.363  1.00  0.00     0.422 C 
ATOM     23  F   UNL     1       0.759   0.530  -2.305  1.00  0.00    -0.168 F 
ATOM     24  F   UNL     1       2.455  -0.839  -2.268  1.00  0.00    -0.168 F 
ATOM     25  F   UNL     1       0.780  -1.244  -3.589  1.00  0.00    -0.168 F 
ENDBRANCH   9  22
ENDBRANCH   7   9
ENDBRANCH   6   7
ENDBRANCH   5   6
ENDBRANCH   4   5
ENDBRANCH   3   4
ENDBRANCH   2   3
ENDBRANCH   1   2
BRANCH   1  26
ATOM     26  O   UNL     1      -1.743   1.763   1.218  1.00  0.00    -0.376 OA
BRANCH  26  27
ATOM     27  C   UNL     1      -2.926   2.376   1.705  1.00  0.00     0.202 C 
BRANCH  27  28
ATOM     28  C   UNL     1      -3.195   3.865   1.425  1.00  0.00     0.261 C 
BRANCH  28  29
ATOM     29  O   UNL     1      -2.910   4.310   0.091  1.00  0.00    -0.460 OA
BRANCH  29  30
ATOM     30  C   UNL     1      -1.736   4.974  -0.074  1.00  0.00     0.338 C 
ATOM     31  O   UNL     1      -0.940   5.274   0.799  1.00  0.00    -0.246 OA
BRANCH  30  32
ATOM     32  C   UNL     1      -1.441   5.062  -1.525  1.00  0.00     0.060 A 
ATOM     33  C   UNL     1      -0.219   4.549  -1.993  1.00  0.00     0.016 A 
ATOM     34  C   UNL     1      -2.363   5.603  -2.421  1.00  0.00     0.016 A 
ATOM     35  C   UNL     1       0.085   4.572  -3.354  1.00  0.00     0.010 A 
ATOM     36  C   UNL     1      -2.036   5.675  -3.778  1.00  0.00     0.010 A 
ATOM     37  C   UNL     1      -0.801   5.184  -4.245  1.00  0.00    -0.014 A 
BRANCH  37  38
ATOM     38  C   UNL     1      -0.333   5.584  -5.595  1.00  0.00     0.031 A 
ATOM     39  C   UNL     1       0.254   6.960  -5.734  1.00  0.00     0.074 A 
ATOM     40  C   UNL     1      -0.453   4.782  -6.666  1.00  0.00     0.049 A 
ATOM     41  N   UNL     1       0.560   7.634  -6.810  1.00  0.00    -0.248 NA
ATOM     42  C   UNL     1       0.511   7.678  -4.475  1.00  0.00     0.031 C 
ATOM     43  C   UNL     1      -0.937   3.405  -6.644  1.00  0.00     0.029 A 
ATOM     44  N   UNL     1      -0.202   5.033  -7.993  1.00  0.00    -0.354 N 
ATOM     45  C   UNL     1       1.022   8.866  -6.359  1.00  0.00     0.074 A 
ATOM     46  C   UNL     1       0.934   8.850  -4.916  1.00  0.00     0.031 C 
ATOM     47  C   UNL     1      -0.993   2.946  -7.907  1.00  0.00     0.029 A 
ATOM     48  C   UNL     1      -0.599   4.014  -8.827  1.00  0.00     0.049 A 
ATOM     49  H   UNL     1       0.220   5.862  -8.316  1.00  0.00     0.167 HD
ATOM     50  C   UNL     1       1.469   9.918  -7.086  1.00  0.00     0.034 A 
ATOM     51  C   UNL     1      -0.688   3.973 -10.173  1.00  0.00     0.034 A 
ATOM     52  C   UNL     1       1.522   9.922  -8.526  1.00  0.00     0.049 A 
ATOM     53  C   UNL     1      -0.281   5.190 -10.975  1.00  0.00     0.074 A 
ATOM     54  C   UNL     1       1.966  10.923  -9.370  1.00  0.00     0.029 A 
ATOM     55  N   UNL     1       1.090   8.879  -9.337  1.00  0.00    -0.354 N 
ATOM     56  N   UNL     1       0.152   6.355 -10.547  1.00  0.00    -0.248 NA
ATOM     57  C   UNL     1      -0.377   5.089 -12.438  1.00  0.00     0.031 C 
ATOM     58  C   UNL     1       1.728  10.518 -10.688  1.00  0.00     0.029 A 
ATOM     59  C   UNL     1       1.220   9.228 -10.671  1.00  0.00     0.049 A 
ATOM     60  H   UNL     1       0.744   8.017  -9.010  1.00  0.00     0.167 HD
ATOM     61  C   UNL     1       0.408   7.112 -11.689  1.00  0.00     0.074 A 
ATOM     62  C   UNL     1       0.081   6.272 -12.823  1.00  0.00     0.031 C 
ATOM     63  C   UNL     1       0.883   8.380 -11.792  1.00  0.00     0.034 A 
BRANCH  50  64
ATOM     64  C   UNL     1       1.846  11.166  -6.324  1.00  0.00     0.023 A 
ATOM     65  C   UNL     1       2.887  11.174  -5.379  1.00  0.00     0.031 A 
ATOM     66  C   UNL     1       1.095  12.344  -6.487  1.00  0.00     0.131 A 
ATOM     67  C   UNL     1       3.084  12.300  -4.567  1.00  0.00     0.055 A 
ATOM     68  C   UNL     1       1.359  13.493  -5.740  1.00  0.00     0.041 A 
ATOM     69  F   UNL     1       0.070  12.388  -7.352  1.00  0.00    -0.206 F 
ATOM     70  C   UNL     1       2.345  13.470  -4.758  1.00  0.00     0.022 A 
BRANCH  67  71
ATOM     71  S   UNL     1       4.188  12.149  -3.134  1.00  0.00     0.124 S 
ATOM     72  O   UNL     1       3.596  11.017  -2.424  1.00  0.00    -0.237 OA
ATOM     73  O   UNL     1       5.482  11.906  -3.759  1.00  0.00    -0.237 OA
ATOM     74  O   UNL     1       4.051  13.438  -2.458  1.00  0.00    -0.744 OA
ENDBRANCH  67  71
ENDBRANCH  50  64
BRANCH  51  75
ATOM     75  C   UNL     1      -1.263   2.773 -10.848  1.00  0.00     0.023 A 
ATOM     76  C   UNL     1      -0.491   1.968 -11.700  1.00  0.00     0.031 A 
ATOM     77  C   UNL     1      -2.617   2.433 -10.667  1.00  0.00     0.131 A 
ATOM     78  C   UNL     1      -1.086   0.879 -12.361  1.00  0.00     0.055 A 
ATOM     79  C   UNL     1      -3.190   1.322 -11.288  1.00  0.00     0.041 A 
ATOM     80  F   UNL     1      -3.401   3.172  -9.867  1.00  0.00    -0.206 F 
ATOM     81  C   UNL     1      -2.425   0.543 -12.149  1.00  0.00     0.022 A 
BRANCH  78  82
ATOM     82  S   UNL     1      -0.097  -0.062 -13.556  1.00  0.00     0.124 S 
ATOM     83  O   UNL     1       0.236   0.963 -14.538  1.00  0.00    -0.237 OA
ATOM     84  O   UNL     1       1.005  -0.541 -12.728  1.00  0.00    -0.237 OA
ATOM     85  O   UNL     1      -1.019  -1.097 -14.020  1.00  0.00    -0.744 OA
ENDBRANCH  78  82
ENDBRANCH  51  75
BRANCH  63  86
ATOM     86  C   UNL     1       1.140   8.923 -13.177  1.00  0.00     0.023 A 
ATOM     87  C   UNL     1       0.097   9.234 -14.066  1.00  0.00     0.031 A 
ATOM     88  C   UNL     1       2.462   9.176 -13.591  1.00  0.00     0.131 A 
ATOM     89  C   UNL     1       0.396   9.753 -15.336  1.00  0.00     0.055 A 
ATOM     90  C   UNL     1       2.748   9.742 -14.834  1.00  0.00     0.041 A 
ATOM     91  F   UNL     1       3.496   8.897 -12.782  1.00  0.00    -0.206 F 
ATOM     92  C   UNL     1       1.713  10.027 -15.717  1.00  0.00     0.022 A 
BRANCH  89  93
ATOM     93  S   UNL     1      -0.957  10.019 -16.515  1.00  0.00     0.124 S 
ATOM     94  O   UNL     1      -1.495   8.671 -16.669  1.00  0.00    -0.237 OA
ATOM     95  O   UNL     1      -1.809  10.969 -15.807  1.00  0.00    -0.237 OA
ATOM     96  O   UNL     1      -0.283  10.555 -17.697  1.00  0.00    -0.744 OA
ENDBRANCH  89  93
ENDBRANCH  63  86
ENDBRANCH  37  38
ENDBRANCH  30  32
ENDBRANCH  29  30
ENDBRANCH  28  29
ENDBRANCH  27  28
ENDBRANCH  26  27
ENDBRANCH   1  26
TORSDOF 23
