REMARK SMILES CCOc1cncc(N(CC(=O)OCCOCCOCCOC(=O)c2ccc(-c3c4nc(c(-c5cc(S(=O)(=O)[O-])ccc5F)c5ccc([nH]5)c(-c5cc(S(=O)(=O)[O-])ccc5F)c5nc(c(-c6cc(S(=O)(=O)[O-])ccc6F)c6ccc3[nH]6)C=C5)C=C4)cc2)C(C)(C)C)n1
REMARK SMILES IDX 17 1 16 2 15 3 14 4 13 5 11 6 12 7 10 8 9 9 8 10 4 11 5 12
REMARK SMILES IDX 92 13 6 14 7 15 3 16 2 17 1 18 88 19 89 20 90 21 91 22 18 23
REMARK SMILES IDX 19 24 20 25 21 26 22 27 23 28 24 29 25 30 26 31 87 32 27 33
REMARK SMILES IDX 86 34 28 35 29 36 30 37 80 38 31 39 85 40 79 41 81 42 32 43
REMARK SMILES IDX 84 44 78 45 77 46 33 48 65 49 45 50 64 51 46 52 49 53 63 54
REMARK SMILES IDX 82 55 47 56 48 57 62 59 83 60 50 61 34 62 35 63 43 64 36 65
REMARK SMILES IDX 42 66 44 67 41 68 37 69 38 70 39 71 40 72 66 73 67 74 75 75
REMARK SMILES IDX 68 76 74 77 76 78 73 79 69 80 70 81 71 82 72 83 51 84 52 85
REMARK SMILES IDX 60 86 53 87 59 88 61 89 58 90 54 91 55 92 56 93 57 94
REMARK H PARENT 81 47 49 58
REMARK Flexibility Score: inf
ROOT
ATOM      1  C   UNL     1       6.228  -3.168  -8.297  1.00  0.00     0.188 C 
ENDROOT
BRANCH   1   2
ATOM      2  O   UNL     1       7.157  -4.208  -7.979  1.00  0.00    -0.376 OA
BRANCH   2   3
ATOM      3  C   UNL     1       6.952  -4.887  -6.743  1.00  0.00     0.202 C 
BRANCH   3   4
ATOM      4  C   UNL     1       7.330  -4.057  -5.516  1.00  0.00     0.261 C 
BRANCH   4   5
ATOM      5  O   UNL     1       6.519  -2.872  -5.398  1.00  0.00    -0.462 OA
BRANCH   5   6
ATOM      6  C   UNL     1       7.081  -1.891  -4.640  1.00  0.00     0.325 C 
ATOM      7  O   UNL     1       8.140  -2.013  -4.030  1.00  0.00    -0.250 OA
BRANCH   6   8
ATOM      8  C   UNL     1       6.304  -0.573  -4.672  1.00  0.00     0.241 C 
BRANCH   8   9
ATOM      9  N   UNL     1       4.839  -0.676  -4.452  1.00  0.00    -0.339 N 
BRANCH   9  10
ATOM     10  C   UNL     1       4.382  -1.023  -3.171  1.00  0.00     0.152 A 
ATOM     11  C   UNL     1       2.635  -1.256  -1.661  1.00  0.00     0.234 A 
ATOM     12  C   UNL     1       3.491  -1.659  -0.659  1.00  0.00     0.179 A 
ATOM     13  N   UNL     1       3.056  -0.960  -2.909  1.00  0.00    -0.193 NA
ATOM     14  N   UNL     1       4.818  -1.744  -0.855  1.00  0.00    -0.255 NA
ATOM     15  C   UNL     1       5.225  -1.419  -2.115  1.00  0.00     0.158 A 
BRANCH  11  16
ATOM     16  O   UNL     1       1.285  -1.217  -1.422  1.00  0.00    -0.477 OA
BRANCH  16  17
ATOM     17  C   UNL     1       0.850   0.133  -1.229  1.00  0.00     0.228 C 
ATOM     18  C   UNL     1       0.696   0.392   0.262  1.00  0.00     0.049 C 
ENDBRANCH  16  17
ENDBRANCH  11  16
ENDBRANCH   9  10
BRANCH   9  19
ATOM     19  C   UNL     1       3.869  -0.061  -5.428  1.00  0.00     0.034 C 
ATOM     20  C   UNL     1       2.729  -1.049  -5.775  1.00  0.00     0.034 C 
ATOM     21  C   UNL     1       3.306   1.274  -4.897  1.00  0.00     0.034 C 
ATOM     22  C   UNL     1       4.545   0.291  -6.764  1.00  0.00     0.034 C 
ENDBRANCH   9  19
ENDBRANCH   8   9
ENDBRANCH   6   8
ENDBRANCH   5   6
ENDBRANCH   4   5
ENDBRANCH   3   4
ENDBRANCH   2   3
ENDBRANCH   1   2
BRANCH   1  23
ATOM     23  C   UNL     1       4.760  -3.468  -7.985  1.00  0.00     0.188 C 
BRANCH  23  24
ATOM     24  O   UNL     1       4.377  -4.673  -8.652  1.00  0.00    -0.376 OA
BRANCH  24  25
ATOM     25  C   UNL     1       2.988  -4.701  -8.954  1.00  0.00     0.202 C 
BRANCH  25  26
ATOM     26  C   UNL     1       2.691  -4.162 -10.359  1.00  0.00     0.261 C 
BRANCH  26  27
ATOM     27  O   UNL     1       3.564  -3.102 -10.798  1.00  0.00    -0.460 OA
BRANCH  27  28
ATOM     28  C   UNL     1       3.117  -1.847 -10.607  1.00  0.00     0.338 C 
ATOM     29  O   UNL     1       2.101  -1.515 -10.004  1.00  0.00    -0.246 OA
BRANCH  28  30
ATOM     30  C   UNL     1       4.077  -0.880 -11.166  1.00  0.00     0.060 A 
ATOM     31  C   UNL     1       4.861  -0.130 -10.289  1.00  0.00     0.016 A 
ATOM     32  C   UNL     1       4.097  -0.601 -12.530  1.00  0.00     0.016 A 
ATOM     33  C   UNL     1       5.602   0.960 -10.744  1.00  0.00     0.010 A 
ATOM     34  C   UNL     1       4.869   0.470 -12.996  1.00  0.00     0.010 A 
ATOM     35  C   UNL     1       5.592   1.288 -12.103  1.00  0.00    -0.014 A 
BRANCH  35  36
ATOM     36  C   UNL     1       6.201   2.550 -12.604  1.00  0.00     0.031 A 
ATOM     37  C   UNL     1       5.291   3.595 -13.189  1.00  0.00     0.074 A 
ATOM     38  C   UNL     1       7.528   2.771 -12.562  1.00  0.00     0.049 A 
ATOM     39  N   UNL     1       5.563   4.579 -14.002  1.00  0.00    -0.248 NA
ATOM     40  C   UNL     1       3.872   3.495 -12.811  1.00  0.00     0.031 C 
ATOM     41  C   UNL     1       8.513   1.913 -11.905  1.00  0.00     0.029 A 
ATOM     42  N   UNL     1       8.278   3.782 -13.113  1.00  0.00    -0.354 N 
ATOM     43  C   UNL     1       4.339   5.175 -14.295  1.00  0.00     0.074 A 
ATOM     44  C   UNL     1       3.329   4.447 -13.555  1.00  0.00     0.031 C 
ATOM     45  C   UNL     1       9.739   2.424 -12.105  1.00  0.00     0.029 A 
ATOM     46  C   UNL     1       9.635   3.583 -12.987  1.00  0.00     0.049 A 
ATOM     47  H   UNL     1       7.885   4.570 -13.553  1.00  0.00     0.167 HD
ATOM     48  C   UNL     1       4.090   6.217 -15.127  1.00  0.00     0.034 A 
ATOM     49  C   UNL     1      10.670   4.210 -13.582  1.00  0.00     0.034 A 
ATOM     50  C   UNL     1       5.127   6.936 -15.825  1.00  0.00     0.049 A 
ATOM     51  C   UNL     1      10.379   5.314 -14.570  1.00  0.00     0.074 A 
ATOM     52  C   UNL     1       5.007   7.977 -16.728  1.00  0.00     0.029 A 
ATOM     53  N   UNL     1       6.487   6.689 -15.684  1.00  0.00    -0.354 N 
ATOM     54  N   UNL     1       9.216   5.789 -14.957  1.00  0.00    -0.248 NA
ATOM     55  C   UNL     1      11.534   5.950 -15.219  1.00  0.00     0.031 C 
ATOM     56  C   UNL     1       6.290   8.328 -17.166  1.00  0.00     0.029 A 
ATOM     57  C   UNL     1       7.214   7.550 -16.488  1.00  0.00     0.049 A 
ATOM     58  H   UNL     1       6.878   6.002 -15.097  1.00  0.00     0.167 HD
ATOM     59  C   UNL     1       9.504   6.796 -15.875  1.00  0.00     0.074 A 
ATOM     60  C   UNL     1      10.947   6.862 -15.982  1.00  0.00     0.031 C 
ATOM     61  C   UNL     1       8.654   7.599 -16.565  1.00  0.00     0.034 A 
BRANCH  48  62
ATOM     62  C   UNL     1       2.645   6.565 -15.388  1.00  0.00     0.023 A 
ATOM     63  C   UNL     1       1.797   7.056 -14.382  1.00  0.00     0.031 A 
ATOM     64  C   UNL     1       2.093   6.343 -16.664  1.00  0.00     0.131 A 
ATOM     65  C   UNL     1       0.429   7.236 -14.646  1.00  0.00     0.055 A 
ATOM     66  C   UNL     1       0.749   6.601 -16.942  1.00  0.00     0.041 A 
ATOM     67  F   UNL     1       2.847   5.851 -17.659  1.00  0.00    -0.206 F 
ATOM     68  C   UNL     1      -0.095   7.035 -15.925  1.00  0.00     0.022 A 
BRANCH  65  69
ATOM     69  S   UNL     1      -0.683   7.594 -13.259  1.00  0.00     0.124 S 
ATOM     70  O   UNL     1      -0.468   6.431 -12.401  1.00  0.00    -0.237 OA
ATOM     71  O   UNL     1      -0.165   8.862 -12.758  1.00  0.00    -0.237 OA
ATOM     72  O   UNL     1      -2.002   7.662 -13.884  1.00  0.00    -0.744 OA
ENDBRANCH  65  69
ENDBRANCH  48  62
BRANCH  49  73
ATOM     73  C   UNL     1      12.069   3.747 -13.347  1.00  0.00     0.023 A 
ATOM     74  C   UNL     1      13.019   4.580 -12.737  1.00  0.00     0.031 A 
ATOM     75  C   UNL     1      12.486   2.469 -13.764  1.00  0.00     0.131 A 
ATOM     76  C   UNL     1      14.343   4.138 -12.585  1.00  0.00     0.055 A 
ATOM     77  C   UNL     1      13.790   2.014 -13.563  1.00  0.00     0.041 A 
ATOM     78  F   UNL     1      11.621   1.633 -14.361  1.00  0.00    -0.206 F 
ATOM     79  C   UNL     1      14.731   2.855 -12.979  1.00  0.00     0.022 A 
BRANCH  76  80
ATOM     80  S   UNL     1      15.577   5.294 -11.929  1.00  0.00     0.124 S 
ATOM     81  O   UNL     1      15.500   6.388 -12.892  1.00  0.00    -0.237 OA
ATOM     82  O   UNL     1      15.052   5.573 -10.597  1.00  0.00    -0.237 OA
ATOM     83  O   UNL     1      16.817   4.522 -11.959  1.00  0.00    -0.744 OA
ENDBRANCH  76  80
ENDBRANCH  49  73
BRANCH  61  84
ATOM     84  C   UNL     1       9.270   8.663 -17.433  1.00  0.00     0.023 A 
ATOM     85  C   UNL     1       9.893   8.357 -18.654  1.00  0.00     0.031 A 
ATOM     86  C   UNL     1       9.206  10.010 -17.033  1.00  0.00     0.131 A 
ATOM     87  C   UNL     1      10.457   9.388 -19.421  1.00  0.00     0.055 A 
ATOM     88  C   UNL     1       9.732  11.033 -17.820  1.00  0.00     0.041 A 
ATOM     89  F   UNL     1       8.618  10.349 -15.874  1.00  0.00    -0.206 F 
ATOM     90  C   UNL     1      10.368  10.724 -19.019  1.00  0.00     0.022 A 
BRANCH  87  91
ATOM     91  S   UNL     1      11.347   8.959 -20.943  1.00  0.00     0.124 S 
ATOM     92  O   UNL     1      12.460   8.167 -20.430  1.00  0.00    -0.237 OA
ATOM     93  O   UNL     1      10.339   8.225 -21.701  1.00  0.00    -0.237 OA
ATOM     94  O   UNL     1      11.715  10.258 -21.503  1.00  0.00    -0.744 OA
ENDBRANCH  87  91
ENDBRANCH  61  84
ENDBRANCH  35  36
ENDBRANCH  28  30
ENDBRANCH  27  28
ENDBRANCH  26  27
ENDBRANCH  25  26
ENDBRANCH  24  25
ENDBRANCH  23  24
ENDBRANCH   1  23
TORSDOF 25
