REMARK SMILES Cc1ccccc1NC(=S)NN1C(=O)CS[C@H]1c1ccccc1C(=O)OCCOCCOCCOC(=O)c1ccc(-c2c3nc(c(-c4cc(S(=O)(=O)[O-])ccc4F)c4ccc([nH]4)c(-c4cc(S(=O)(=O)[O-])ccc4F)c4nc(c(-c5cc(S(=O)(=O)[O-])ccc5F)c5ccc2[nH]5)C=C4)C=C3)cc1
REMARK SMILES IDX 30 1 29 2 28 3 27 4 26 5 24 6 25 7 23 8 18 9 19 10 20 11
REMARK SMILES IDX 22 12 21 13 17 14 12 15 13 16 14 17 15 18 16 19 11 20 9 22
REMARK SMILES IDX 10 23 8 24 7 26 1 27 2 28 3 29 4 30 6 31 5 32 31 33 32 34
REMARK SMILES IDX 33 35 34 36 35 37 36 38 37 39 38 40 39 41 100 42 40 43 99 44
REMARK SMILES IDX 41 45 42 46 43 47 93 48 44 49 98 50 92 51 94 52 45 53 97 54
REMARK SMILES IDX 91 55 90 56 46 58 78 59 58 60 77 61 59 62 62 63 76 64 95 65
REMARK SMILES IDX 60 66 61 67 75 69 96 70 63 71 47 72 48 73 56 74 49 75 55 76
REMARK SMILES IDX 57 77 54 78 50 79 51 80 52 81 53 82 79 83 80 84 88 85 81 86
REMARK SMILES IDX 87 87 89 88 86 89 82 90 83 91 84 92 85 93 64 94 65 95 73 96
REMARK SMILES IDX 66 97 72 98 74 99 71 100 67 101 68 102 69 103 70 104
REMARK H PARENT 11 21 8 25 94 57 62 68
REMARK Flexibility Score: inf
ROOT
ATOM      1  C   UNL     1       1.901   6.013  -3.374  1.00  0.00     0.188 C 
ENDROOT
BRANCH   1   2
ATOM      2  O   UNL     1       2.571   4.882  -2.840  1.00  0.00    -0.376 OA
BRANCH   2   3
ATOM      3  C   UNL     1       2.182   4.677  -1.493  1.00  0.00     0.202 C 
BRANCH   3   4
ATOM      4  C   UNL     1       0.672   4.493  -1.252  1.00  0.00     0.261 C 
BRANCH   4   5
ATOM      5  O   UNL     1      -0.466   5.747  -1.284  1.00  0.00    -0.460 OA
BRANCH   5   6
ATOM      6  C   UNL     1      -1.770   6.273  -0.649  1.00  0.00     0.338 C 
ATOM      7  O   UNL     1      -2.011   7.432  -1.052  1.00  0.00    -0.246 OA
BRANCH   6   8
ATOM      8  C   UNL     1      -3.206   5.583   0.272  1.00  0.00     0.066 A 
ATOM      9  C   UNL     1      -3.997   4.142   0.251  1.00  0.00     0.001 A 
ATOM     10  C   UNL     1      -5.412   4.265   0.260  1.00  0.00     0.008 A 
ATOM     11  C   UNL     1      -6.054   5.501   0.441  1.00  0.00     0.000 A 
ATOM     12  C   UNL     1      -3.960   6.725   0.622  1.00  0.00     0.016 A 
ATOM     13  C   UNL     1      -5.351   6.684   0.676  1.00  0.00     0.001 A 
BRANCH   9  14
ATOM     14  C   UNL     1      -3.504   2.371   0.072  1.00  0.00     0.197 C 
ATOM     15  N   UNL     1      -2.191   1.401   0.570  1.00  0.00    -0.236 N 
ATOM     16  C   UNL     1      -2.453   0.054   0.811  1.00  0.00     0.252 C 
ATOM     17  O   UNL     1      -1.635  -0.821   1.079  1.00  0.00    -0.272 OA
ATOM     18  C   UNL     1      -3.872  -0.283   0.493  1.00  0.00     0.174 C 
ATOM     19  S   UNL     1      -4.885   1.203   0.676  1.00  0.00    -0.120 SA
BRANCH  15  20
ATOM     20  N   UNL     1      -0.658   1.646   0.321  1.00  0.00    -0.270 N 
ATOM     21  H   UNL     1      -0.493   2.381  -0.314  1.00  0.00     0.191 HD
BRANCH  20  22
ATOM     22  C   UNL     1       0.526   1.066   0.787  1.00  0.00     0.189 C 
ATOM     23  S   UNL     1       1.236   0.978   2.289  1.00  0.00    -0.039 S 
BRANCH  22  24
ATOM     24  N   UNL     1       1.466   0.866  -0.241  1.00  0.00    -0.331 N 
ATOM     25  H   UNL     1       2.211   1.488  -0.408  1.00  0.00     0.169 HD
BRANCH  24  26
ATOM     26  C   UNL     1       1.256  -0.300  -1.016  1.00  0.00     0.043 A 
ATOM     27  C   UNL     1       3.237  -1.509   0.016  1.00  0.00     0.046 C 
ATOM     28  C   UNL     1       1.898  -1.485  -0.660  1.00  0.00    -0.028 A 
ATOM     29  C   UNL     1       1.190  -2.674  -0.868  1.00  0.00     0.005 A 
ATOM     30  C   UNL     1      -0.061  -2.666  -1.499  1.00  0.00     0.000 A 
ATOM     31  C   UNL     1       0.155  -0.326  -1.856  1.00  0.00     0.026 A 
ATOM     32  C   UNL     1      -0.555  -1.493  -2.049  1.00  0.00     0.002 A 
ENDBRANCH  24  26
ENDBRANCH  22  24
ENDBRANCH  20  22
ENDBRANCH  15  20
ENDBRANCH   9  14
ENDBRANCH   6   8
ENDBRANCH   5   6
ENDBRANCH   4   5
ENDBRANCH   3   4
ENDBRANCH   2   3
ENDBRANCH   1   2
BRANCH   1  33
ATOM     33  C   UNL     1       0.603   5.640  -4.078  1.00  0.00     0.188 C 
BRANCH  33  34
ATOM     34  O   UNL     1       0.260   4.271  -3.918  1.00  0.00    -0.376 OA
BRANCH  34  35
ATOM     35  C   UNL     1       0.891   3.309  -4.741  1.00  0.00     0.202 C 
BRANCH  35  36
ATOM     36  C   UNL     1       0.238   3.353  -6.115  1.00  0.00     0.261 C 
BRANCH  36  37
ATOM     37  O   UNL     1      -1.137   2.898  -6.023  1.00  0.00    -0.460 OA
BRANCH  37  38
ATOM     38  C   UNL     1      -2.018   3.843  -5.604  1.00  0.00     0.338 C 
ATOM     39  O   UNL     1      -2.396   4.792  -6.284  1.00  0.00    -0.246 OA
BRANCH  38  40
ATOM     40  C   UNL     1      -2.379   3.638  -4.176  1.00  0.00     0.060 A 
ATOM     41  C   UNL     1      -2.948   4.660  -3.494  1.00  0.00     0.016 A 
ATOM     42  C   UNL     1      -1.935   2.580  -3.404  1.00  0.00     0.016 A 
ATOM     43  C   UNL     1      -2.801   4.681  -2.089  1.00  0.00     0.010 A 
ATOM     44  C   UNL     1      -1.700   2.720  -1.988  1.00  0.00     0.010 A 
ATOM     45  C   UNL     1      -1.952   3.839  -1.155  1.00  0.00    -0.014 A 
BRANCH  45  46
ATOM     46  C   UNL     1      -1.374   4.107   0.657  1.00  0.00     0.031 A 
ATOM     47  C   UNL     1      -1.999   3.411   2.067  1.00  0.00     0.074 A 
ATOM     48  C   UNL     1      -0.363   4.932   1.229  1.00  0.00     0.049 A 
ATOM     49  N   UNL     1      -1.292   2.543   2.728  1.00  0.00    -0.248 NA
ATOM     50  C   UNL     1      -3.336   3.509   2.739  1.00  0.00     0.031 C 
ATOM     51  C   UNL     1       0.483   4.640   2.408  1.00  0.00     0.029 A 
ATOM     52  N   UNL     1       0.340   6.064   0.784  1.00  0.00    -0.354 N 
ATOM     53  C   UNL     1      -2.049   1.856   3.640  1.00  0.00     0.074 A 
ATOM     54  C   UNL     1      -3.351   2.463   3.578  1.00  0.00     0.031 C 
ATOM     55  C   UNL     1       1.433   5.579   2.594  1.00  0.00     0.029 A 
ATOM     56  C   UNL     1       1.143   6.672   1.703  1.00  0.00     0.049 A 
ATOM     57  H   UNL     1       0.258   6.399  -0.138  1.00  0.00     0.167 HD
ATOM     58  C   UNL     1      -1.507   1.408   4.800  1.00  0.00     0.034 A 
ATOM     59  C   UNL     1       0.946   7.984   1.998  1.00  0.00     0.034 A 
ATOM     60  C   UNL     1      -0.527   2.353   5.298  1.00  0.00     0.049 A 
ATOM     61  C   UNL     1       0.394   7.955   3.420  1.00  0.00     0.074 A 
ATOM     62  C   UNL     1       0.841   2.404   5.493  1.00  0.00     0.029 A 
ATOM     63  N   UNL     1      -0.988   3.648   5.478  1.00  0.00    -0.354 N 
ATOM     64  N   UNL     1      -0.287   6.941   3.915  1.00  0.00    -0.248 NA
ATOM     65  C   UNL     1       0.820   8.897   4.446  1.00  0.00     0.031 C 
ATOM     66  C   UNL     1       1.198   3.780   5.679  1.00  0.00     0.029 A 
ATOM     67  C   UNL     1       0.033   4.537   5.692  1.00  0.00     0.049 A 
ATOM     68  H   UNL     1      -1.939   3.900   5.456  1.00  0.00     0.167 HD
ATOM     69  C   UNL     1      -0.147   6.948   5.278  1.00  0.00     0.074 A 
ATOM     70  C   UNL     1       0.475   8.236   5.565  1.00  0.00     0.031 C 
ATOM     71  C   UNL     1      -0.302   5.879   6.122  1.00  0.00     0.034 A 
BRANCH  58  72
ATOM     72  C   UNL     1      -1.523  -0.094   4.961  1.00  0.00     0.023 A 
ATOM     73  C   UNL     1      -0.582  -0.732   5.783  1.00  0.00     0.031 A 
ATOM     74  C   UNL     1      -2.424  -0.947   4.275  1.00  0.00     0.131 A 
ATOM     75  C   UNL     1      -0.502  -2.137   5.843  1.00  0.00     0.055 A 
ATOM     76  C   UNL     1      -2.337  -2.345   4.325  1.00  0.00     0.041 A 
ATOM     77  F   UNL     1      -3.432  -0.450   3.538  1.00  0.00    -0.206 F 
ATOM     78  C   UNL     1      -1.362  -2.949   5.105  1.00  0.00     0.022 A 
BRANCH  75  79
ATOM     79  S   UNL     1       0.743  -2.888   6.925  1.00  0.00     0.124 S 
ATOM     80  O   UNL     1       1.995  -2.506   6.282  1.00  0.00    -0.237 OA
ATOM     81  O   UNL     1       0.462  -2.254   8.210  1.00  0.00    -0.237 OA
ATOM     82  O   UNL     1       0.431  -4.316   6.869  1.00  0.00    -0.744 OA
ENDBRANCH  75  79
ENDBRANCH  58  72
BRANCH  59  83
ATOM     83  C   UNL     1       0.612   8.879   0.818  1.00  0.00     0.023 A 
ATOM     84  C   UNL     1       1.527   8.940  -0.282  1.00  0.00     0.031 A 
ATOM     85  C   UNL     1      -0.649   9.450   0.594  1.00  0.00     0.131 A 
ATOM     86  C   UNL     1       1.142   9.450  -1.548  1.00  0.00     0.055 A 
ATOM     87  C   UNL     1      -1.027   9.955  -0.672  1.00  0.00     0.041 A 
ATOM     88  F   UNL     1      -1.589   9.416   1.550  1.00  0.00    -0.206 F 
ATOM     89  C   UNL     1      -0.153   9.908  -1.758  1.00  0.00     0.022 A 
BRANCH  86  90
ATOM     90  S   UNL     1       2.262   9.432  -2.993  1.00  0.00     0.124 S 
ATOM     91  O   UNL     1       2.554  10.848  -3.186  1.00  0.00    -0.237 OA
ATOM     92  O   UNL     1       3.385   8.618  -2.541  1.00  0.00    -0.237 OA
ATOM     93  O   UNL     1       1.438   8.822  -4.037  1.00  0.00    -0.744 OA
ENDBRANCH  86  90
ENDBRANCH  59  83
BRANCH  71  94
ATOM     94  C   UNL     1      -0.898   6.031   7.501  1.00  0.00     0.023 A 
ATOM     95  C   UNL     1      -1.301   7.276   7.973  1.00  0.00     0.031 A 
ATOM     96  C   UNL     1      -1.223   4.923   8.330  1.00  0.00     0.131 A 
ATOM     97  C   UNL     1      -1.886   7.414   9.233  1.00  0.00     0.055 A 
ATOM     98  C   UNL     1      -1.918   5.052   9.532  1.00  0.00     0.041 A 
ATOM     99  F   UNL     1      -0.915   3.659   8.009  1.00  0.00    -0.206 F 
ATOM    100  C   UNL     1      -2.232   6.312  10.007  1.00  0.00     0.022 A 
BRANCH  97 101
ATOM    101  S   UNL     1      -2.047   9.095   9.856  1.00  0.00     0.124 S 
ATOM    102  O   UNL     1      -0.665   9.563   9.794  1.00  0.00    -0.237 OA
ATOM    103  O   UNL     1      -2.962   9.695   8.890  1.00  0.00    -0.237 OA
ATOM    104  O   UNL     1      -2.584   8.908  11.200  1.00  0.00    -0.744 OA
ENDBRANCH  97 101
ENDBRANCH  71  94
ENDBRANCH  45  46
ENDBRANCH  38  40
ENDBRANCH  37  38
ENDBRANCH  36  37
ENDBRANCH  35  36
ENDBRANCH  34  35
ENDBRANCH  33  34
ENDBRANCH   1  33
TORSDOF 25
