REMARK SMILES CN1C(=O)C[C@@H](C(=O)OCCOCCOCCOC(=O)c2ccc(-c3c4nc(c(-c5cc(S(=O)(=O)[O-])ccc5F)c5ccc([nH]5)c(-c5cc(S(=O)(=O)[O-])ccc5F)c5nc(c(-c6cc(S(=O)(=O)[O-])ccc6F)c6ccc3[nH]6)C=C5)C=C4)cc2)C12CCN(C(=O)c1ccccc1-n1cccn1)CC2
REMARK SMILES IDX 14 1 13 2 12 3 11 4 10 5 9 6 7 7 8 8 6 9 1 10 2 11 3 12
REMARK SMILES IDX 84 13 4 14 5 15 85 16 102 17 86 18 101 19 87 20 88 21 89 22
REMARK SMILES IDX 90 23 91 24 95 25 92 26 94 27 93 28 96 29 97 30 100 31 98 32
REMARK SMILES IDX 99 33 15 34 16 35 17 36 18 37 19 38 20 39 21 40 22 41 83 42
REMARK SMILES IDX 23 43 82 44 24 45 25 46 26 47 76 48 27 49 81 50 75 51 77 52
REMARK SMILES IDX 28 53 80 54 74 55 73 56 29 58 61 59 41 60 60 61 42 62 45 63
REMARK SMILES IDX 59 64 78 65 43 66 44 67 58 69 79 70 46 71 30 72 31 73 39 74
REMARK SMILES IDX 32 75 38 76 40 77 37 78 33 79 34 80 35 81 36 82 62 83 63 84
REMARK SMILES IDX 71 85 64 86 70 87 72 88 69 89 65 90 66 91 67 92 68 93 47 94
REMARK SMILES IDX 48 95 56 96 49 97 55 98 57 99 54 100 50 101 51 102 52 103
REMARK SMILES IDX 53 104
REMARK H PARENT 77 57 45 68
REMARK Flexibility Score: inf
ROOT
ATOM      1  C   UNL     1       2.096  -3.068  -5.165  1.00  0.00     0.188 C 
ENDROOT
BRANCH   1   2
ATOM      2  C   UNL     1       1.136  -4.096  -5.747  1.00  0.00     0.188 C 
BRANCH   2   3
ATOM      3  O   UNL     1      -0.007  -3.621  -6.452  1.00  0.00    -0.376 OA
BRANCH   3   4
ATOM      4  C   UNL     1      -0.376  -2.256  -6.322  1.00  0.00     0.202 C 
BRANCH   4   5
ATOM      5  C   UNL     1      -1.215  -1.898  -5.085  1.00  0.00     0.261 C 
BRANCH   5   6
ATOM      6  O   UNL     1      -0.543  -1.936  -3.797  1.00  0.00    -0.463 OA
BRANCH   6   7
ATOM      7  C   UNL     1      -0.696  -3.091  -3.107  1.00  0.00     0.311 C 
ATOM      8  O   UNL     1      -1.196  -4.104  -3.590  1.00  0.00    -0.252 OA
BRANCH   7   9
ATOM      9  C   UNL     1      -0.392  -3.041  -1.616  1.00  0.00     0.134 C 
ATOM     10  C   UNL     1       0.491   0.175   0.146  1.00  0.00     0.147 C 
ATOM     11  N   UNL     1      -0.070  -0.972  -0.546  1.00  0.00    -0.339 N 
ATOM     12  C   UNL     1      -1.442  -1.178  -0.549  1.00  0.00     0.223 C 
ATOM     13  C   UNL     1       0.693  -2.183  -0.899  1.00  0.00     0.060 C 
ATOM     14  O   UNL     1      -2.296  -0.378  -0.197  1.00  0.00    -0.275 OA
ATOM     15  C   UNL     1      -1.712  -2.595  -0.966  1.00  0.00     0.118 C 
ATOM     16  C   UNL     1       1.971  -1.836  -1.684  1.00  0.00     0.051 C 
ATOM     17  C   UNL     1       1.136  -2.908   0.416  1.00  0.00     0.051 C 
ATOM     18  C   UNL     1       2.892  -3.032  -1.886  1.00  0.00     0.122 C 
ATOM     19  C   UNL     1       2.132  -4.054   0.205  1.00  0.00     0.122 C 
ATOM     20  N   UNL     1       3.267  -3.656  -0.624  1.00  0.00    -0.338 N 
ATOM     21  C   UNL     1       4.543  -4.119  -0.245  1.00  0.00     0.256 C 
ATOM     22  O   UNL     1       4.712  -4.760   0.793  1.00  0.00    -0.269 OA
BRANCH  21  23
ATOM     23  C   UNL     1       5.765  -3.902  -1.071  1.00  0.00     0.065 A 
ATOM     24  C   UNL     1       6.476  -5.066  -1.425  1.00  0.00     0.016 A 
ATOM     25  C   UNL     1       6.266  -2.662  -1.489  1.00  0.00     0.077 A 
ATOM     26  C   UNL     1       7.611  -5.002  -2.243  1.00  0.00     0.001 A 
ATOM     27  C   UNL     1       7.383  -2.603  -2.349  1.00  0.00     0.029 A 
ATOM     28  C   UNL     1       8.053  -3.772  -2.719  1.00  0.00     0.002 A 
BRANCH  25  29
ATOM     29  N   UNL     1       5.724  -1.440  -1.038  1.00  0.00    -0.240 N 
ATOM     30  C   UNL     1       5.194  -1.154   0.201  1.00  0.00     0.115 A 
ATOM     31  N   UNL     1       5.704  -0.344  -1.847  1.00  0.00    -0.177 NA
ATOM     32  C   UNL     1       4.753   0.146   0.161  1.00  0.00     0.042 A 
ATOM     33  C   UNL     1       5.071   0.585  -1.131  1.00  0.00     0.135 A 
ENDBRANCH  25  29
ENDBRANCH  21  23
ENDBRANCH   7   9
ENDBRANCH   6   7
ENDBRANCH   5   6
ENDBRANCH   4   5
ENDBRANCH   3   4
ENDBRANCH   2   3
ENDBRANCH   1   2
BRANCH   1  34
ATOM     34  O   UNL     1       2.649  -2.221  -6.164  1.00  0.00    -0.376 OA
BRANCH  34  35
ATOM     35  C   UNL     1       4.046  -2.009  -5.991  1.00  0.00     0.202 C 
BRANCH  35  36
ATOM     36  C   UNL     1       4.818  -3.085  -6.774  1.00  0.00     0.261 C 
BRANCH  36  37
ATOM     37  O   UNL     1       4.612  -4.448  -6.323  1.00  0.00    -0.460 OA
BRANCH  37  38
ATOM     38  C   UNL     1       5.072  -4.677  -5.074  1.00  0.00     0.338 C 
ATOM     39  O   UNL     1       5.551  -3.825  -4.349  1.00  0.00    -0.246 OA
BRANCH  38  40
ATOM     40  C   UNL     1       4.767  -6.029  -4.579  1.00  0.00     0.060 A 
ATOM     41  C   UNL     1       3.874  -6.142  -3.510  1.00  0.00     0.016 A 
ATOM     42  C   UNL     1       5.495  -7.140  -4.989  1.00  0.00     0.016 A 
ATOM     43  C   UNL     1       3.736  -7.332  -2.808  1.00  0.00     0.010 A 
ATOM     44  C   UNL     1       5.326  -8.356  -4.310  1.00  0.00     0.010 A 
ATOM     45  C   UNL     1       4.461  -8.457  -3.202  1.00  0.00    -0.014 A 
BRANCH  45  46
ATOM     46  C   UNL     1       4.349  -9.720  -2.426  1.00  0.00     0.031 A 
ATOM     47  C   UNL     1       5.541 -10.248  -1.676  1.00  0.00     0.074 A 
ATOM     48  C   UNL     1       3.178 -10.383  -2.374  1.00  0.00     0.049 A 
ATOM     49  N   UNL     1       5.723 -11.417  -1.122  1.00  0.00    -0.248 NA
ATOM     50  C   UNL     1       6.679  -9.329  -1.532  1.00  0.00     0.031 C 
ATOM     51  C   UNL     1       1.917  -9.924  -2.961  1.00  0.00     0.029 A 
ATOM     52  N   UNL     1       2.859 -11.595  -1.812  1.00  0.00    -0.354 N 
ATOM     53  C   UNL     1       7.009 -11.391  -0.591  1.00  0.00     0.074 A 
ATOM     54  C   UNL     1       7.560 -10.086  -0.895  1.00  0.00     0.031 C 
ATOM     55  C   UNL     1       0.967 -10.845  -2.736  1.00  0.00     0.029 A 
ATOM     56  C   UNL     1       1.571 -11.998  -2.077  1.00  0.00     0.049 A 
ATOM     57  H   UNL     1       3.491 -12.123  -1.272  1.00  0.00     0.167 HD
ATOM     58  C   UNL     1       7.667 -12.373   0.074  1.00  0.00     0.034 A 
ATOM     59  C   UNL     1       0.964 -13.185  -1.879  1.00  0.00     0.034 A 
ATOM     60  C   UNL     1       7.095 -13.668   0.359  1.00  0.00     0.049 A 
ATOM     61  C   UNL     1       1.753 -14.307  -1.255  1.00  0.00     0.074 A 
ATOM     62  C   UNL     1       7.678 -14.749   0.998  1.00  0.00     0.029 A 
ATOM     63  N   UNL     1       5.806 -14.060   0.019  1.00  0.00    -0.354 N 
ATOM     64  N   UNL     1       2.996 -14.307  -0.831  1.00  0.00    -0.248 NA
ATOM     65  C   UNL     1       1.061 -15.592  -1.095  1.00  0.00     0.031 C 
ATOM     66  C   UNL     1       6.771 -15.815   0.978  1.00  0.00     0.029 A 
ATOM     67  C   UNL     1       5.589 -15.376   0.402  1.00  0.00     0.049 A 
ATOM     68  H   UNL     1       5.143 -13.488  -0.430  1.00  0.00     0.167 HD
ATOM     69  C   UNL     1       3.225 -15.585  -0.329  1.00  0.00     0.074 A 
ATOM     70  C   UNL     1       1.988 -16.322  -0.492  1.00  0.00     0.031 C 
ATOM     71  C   UNL     1       4.353 -16.102   0.221  1.00  0.00     0.034 A 
BRANCH  58  72
ATOM     72  C   UNL     1       9.107 -12.112   0.450  1.00  0.00     0.023 A 
ATOM     73  C   UNL     1       9.474 -11.124   1.380  1.00  0.00     0.031 A 
ATOM     74  C   UNL     1      10.135 -12.850  -0.166  1.00  0.00     0.131 A 
ATOM     75  C   UNL     1      10.833 -10.858   1.617  1.00  0.00     0.055 A 
ATOM     76  C   UNL     1      11.481 -12.633   0.132  1.00  0.00     0.041 A 
ATOM     77  F   UNL     1       9.847 -13.787  -1.083  1.00  0.00    -0.206 F 
ATOM     78  C   UNL     1      11.838 -11.623   1.019  1.00  0.00     0.022 A 
BRANCH  75  79
ATOM     79  S   UNL     1      11.278  -9.405   2.609  1.00  0.00     0.124 S 
ATOM     80  O   UNL     1      10.659  -8.327   1.843  1.00  0.00    -0.237 OA
ATOM     81  O   UNL     1      10.670  -9.707   3.900  1.00  0.00    -0.237 OA
ATOM     82  O   UNL     1      12.739  -9.412   2.591  1.00  0.00    -0.744 OA
ENDBRANCH  75  79
ENDBRANCH  58  72
BRANCH  59  83
ATOM     83  C   UNL     1      -0.431 -13.405  -2.358  1.00  0.00     0.023 A 
ATOM     84  C   UNL     1      -1.468 -13.707  -1.464  1.00  0.00     0.031 A 
ATOM     85  C   UNL     1      -0.738 -13.358  -3.732  1.00  0.00     0.131 A 
ATOM     86  C   UNL     1      -2.754 -13.986  -1.954  1.00  0.00     0.055 A 
ATOM     87  C   UNL     1      -2.030 -13.578  -4.209  1.00  0.00     0.041 A 
ATOM     88  F   UNL     1       0.219 -13.081  -4.633  1.00  0.00    -0.206 F 
ATOM     89  C   UNL     1      -3.046 -13.907  -3.317  1.00  0.00     0.022 A 
BRANCH  86  90
ATOM     90  S   UNL     1      -4.026 -14.538  -0.785  1.00  0.00     0.124 S 
ATOM     91  O   UNL     1      -3.409 -15.730  -0.216  1.00  0.00    -0.237 OA
ATOM     92  O   UNL     1      -4.140 -13.387   0.104  1.00  0.00    -0.237 OA
ATOM     93  O   UNL     1      -5.188 -14.781  -1.638  1.00  0.00    -0.744 OA
ENDBRANCH  86  90
ENDBRANCH  59  83
BRANCH  71  94
ATOM     94  C   UNL     1       4.274 -17.518   0.735  1.00  0.00     0.023 A 
ATOM     95  C   UNL     1       4.116 -18.614  -0.130  1.00  0.00     0.031 A 
ATOM     96  C   UNL     1       4.338 -17.769   2.118  1.00  0.00     0.131 A 
ATOM     97  C   UNL     1       3.971 -19.906   0.399  1.00  0.00     0.055 A 
ATOM     98  C   UNL     1       4.253 -19.062   2.635  1.00  0.00     0.041 A 
ATOM     99  F   UNL     1       4.485 -16.758   2.989  1.00  0.00    -0.206 F 
ATOM    100  C   UNL     1       4.055 -20.138   1.775  1.00  0.00     0.022 A 
BRANCH  97 101
ATOM    101  S   UNL     1       3.578 -21.271  -0.728  1.00  0.00     0.124 S 
ATOM    102  O   UNL     1       2.329 -20.816  -1.332  1.00  0.00    -0.237 OA
ATOM    103  O   UNL     1       4.741 -21.294  -1.609  1.00  0.00    -0.237 OA
ATOM    104  O   UNL     1       3.452 -22.425   0.161  1.00  0.00    -0.744 OA
ENDBRANCH  97 101
ENDBRANCH  71  94
ENDBRANCH  45  46
ENDBRANCH  38  40
ENDBRANCH  37  38
ENDBRANCH  36  37
ENDBRANCH  35  36
ENDBRANCH  34  35
ENDBRANCH   1  34
TORSDOF 22
