REMARK SMILES Cn1c(=O)c(=O)n(C)c2cc(S(=O)(=O)N3CCC[C@H]3C(=O)OCCOCCOCCOC(=O)c3ccc(-c4c5nc(c(-c6cc(S(=O)(=O)[O-])ccc6F)c6ccc([nH]6)c(-c6cc(S(=O)(=O)[O-])ccc6F)c6nc(c(-c7cc(S(=O)(=O)[O-])ccc7F)c7ccc4[nH]7)C=C6)C=C5)cc3)ccc21
REMARK SMILES IDX 27 1 26 2 25 3 24 4 23 5 22 6 20 7 21 8 19 9 15 10 16 11
REMARK SMILES IDX 17 12 18 13 12 14 13 15 14 16 11 17 1 18 2 19 3 20 99 21
REMARK SMILES IDX 4 22 5 23 9 24 98 25 6 26 7 27 10 28 97 29 8 30 28 31 29 32
REMARK SMILES IDX 30 33 31 34 32 35 33 36 34 37 35 38 96 39 36 40 95 41 37 42
REMARK SMILES IDX 38 43 39 44 89 45 40 46 94 47 88 48 90 49 41 50 93 51 87 52
REMARK SMILES IDX 86 53 42 55 74 56 54 57 73 58 55 59 58 60 72 61 91 62 56 63
REMARK SMILES IDX 57 64 71 66 92 67 59 68 43 69 44 70 52 71 45 72 51 73 53 74
REMARK SMILES IDX 50 75 46 76 47 77 48 78 49 79 75 80 76 81 84 82 77 83 83 84
REMARK SMILES IDX 85 85 82 86 78 87 79 88 80 89 81 90 60 91 61 92 69 93 62 94
REMARK SMILES IDX 68 95 70 96 67 97 63 98 64 99 65 100 66 101
REMARK H PARENT 90 54 58 65
REMARK Flexibility Score: inf
ROOT
ATOM      1  C   UNL     1       6.431   7.096   3.944  1.00  0.00     0.188 C 
ENDROOT
BRANCH   1   2
ATOM      2  C   UNL     1       6.872   6.086   5.017  1.00  0.00     0.188 C 
BRANCH   2   3
ATOM      3  O   UNL     1       8.248   5.803   5.263  1.00  0.00    -0.376 OA
BRANCH   3   4
ATOM      4  C   UNL     1       9.246   6.362   4.431  1.00  0.00     0.202 C 
BRANCH   4   5
ATOM      5  C   UNL     1       9.473   5.630   3.105  1.00  0.00     0.261 C 
BRANCH   5   6
ATOM      6  O   UNL     1       8.281   5.359   2.340  1.00  0.00    -0.462 OA
BRANCH   6   7
ATOM      7  C   UNL     1       7.740   4.130   2.542  1.00  0.00     0.324 C 
ATOM      8  O   UNL     1       8.230   3.277   3.279  1.00  0.00    -0.250 OA
BRANCH   7   9
ATOM      9  C   UNL     1       6.481   3.837   1.741  1.00  0.00     0.183 C 
ATOM     10  N   UNL     1       5.892   4.842   0.812  1.00  0.00    -0.184 NA
ATOM     11  C   UNL     1       6.329   4.532  -0.557  1.00  0.00     0.103 C 
ATOM     12  C   UNL     1       6.431   3.022  -0.581  1.00  0.00     0.019 C 
ATOM     13  C   UNL     1       6.817   2.632   0.837  1.00  0.00     0.034 C 
BRANCH  10  14
ATOM     14  S   UNL     1       4.324   5.447   1.059  1.00  0.00     0.243 S 
ATOM     15  O   UNL     1       4.122   6.482   0.065  1.00  0.00    -0.207 OA
ATOM     16  O   UNL     1       4.169   5.718   2.470  1.00  0.00    -0.207 OA
BRANCH  14  17
ATOM     17  C   UNL     1       3.123   4.170   0.694  1.00  0.00     0.084 A 
ATOM     18  C   UNL     1       0.595  -0.222   0.021  1.00  0.00     0.154 C 
ATOM     19  N   UNL     1       0.240   1.180  -0.159  1.00  0.00    -0.305 N 
ATOM     20  C   UNL     1      -1.011   1.474  -0.691  1.00  0.00     0.316 A 
ATOM     21  C   UNL     1       1.168   2.202   0.174  1.00  0.00     0.068 A 
ATOM     22  O   UNL     1      -1.813   0.619  -1.059  1.00  0.00    -0.263 OA
ATOM     23  C   UNL     1      -1.397   2.951  -0.827  1.00  0.00     0.316 A 
ATOM     24  C   UNL     1       0.882   3.552  -0.099  1.00  0.00     0.069 A 
ATOM     25  C   UNL     1       2.387   1.877   0.784  1.00  0.00     0.030 A 
ATOM     26  O   UNL     1      -2.539   3.225  -1.189  1.00  0.00    -0.263 OA
ATOM     27  N   UNL     1      -0.419   3.912  -0.554  1.00  0.00    -0.305 N 
ATOM     28  C   UNL     1       1.885   4.524   0.126  1.00  0.00     0.050 A 
ATOM     29  C   UNL     1       3.337   2.854   1.071  1.00  0.00     0.024 A 
ATOM     30  C   UNL     1      -0.810   5.310  -0.644  1.00  0.00     0.154 C 
ENDBRANCH  14  17
ENDBRANCH  10  14
ENDBRANCH   7   9
ENDBRANCH   6   7
ENDBRANCH   5   6
ENDBRANCH   4   5
ENDBRANCH   3   4
ENDBRANCH   2   3
ENDBRANCH   1   2
BRANCH   1  31
ATOM     31  O   UNL     1       7.194   8.297   3.942  1.00  0.00    -0.376 OA
BRANCH  31  32
ATOM     32  C   UNL     1       6.427   9.484   4.085  1.00  0.00     0.202 C 
BRANCH  32  33
ATOM     33  C   UNL     1       6.208   9.815   5.561  1.00  0.00     0.261 C 
BRANCH  33  34
ATOM     34  O   UNL     1       5.510   8.797   6.297  1.00  0.00    -0.460 OA
BRANCH  34  35
ATOM     35  C   UNL     1       4.210   8.580   5.965  1.00  0.00     0.338 C 
ATOM     36  O   UNL     1       3.567   9.173   5.133  1.00  0.00    -0.246 OA
BRANCH  35  37
ATOM     37  C   UNL     1       3.766   7.369   6.702  1.00  0.00     0.060 A 
ATOM     38  C   UNL     1       4.038   7.237   8.066  1.00  0.00     0.016 A 
ATOM     39  C   UNL     1       3.090   6.353   6.017  1.00  0.00     0.016 A 
ATOM     40  C   UNL     1       3.618   6.094   8.749  1.00  0.00     0.010 A 
ATOM     41  C   UNL     1       2.666   5.208   6.705  1.00  0.00     0.010 A 
ATOM     42  C   UNL     1       2.914   5.076   8.080  1.00  0.00    -0.014 A 
BRANCH  42  43
ATOM     43  C   UNL     1       2.315   3.973   8.877  1.00  0.00     0.031 A 
ATOM     44  C   UNL     1       2.941   2.613   8.958  1.00  0.00     0.074 A 
ATOM     45  C   UNL     1       1.196   4.239   9.579  1.00  0.00     0.049 A 
ATOM     46  N   UNL     1       2.624   1.614   9.742  1.00  0.00    -0.248 NA
ATOM     47  C   UNL     1       4.057   2.333   8.045  1.00  0.00     0.031 C 
ATOM     48  C   UNL     1       0.485   5.518   9.552  1.00  0.00     0.029 A 
ATOM     49  N   UNL     1       0.476   3.474  10.462  1.00  0.00    -0.354 N 
ATOM     50  C   UNL     1       3.519   0.593   9.445  1.00  0.00     0.074 A 
ATOM     51  C   UNL     1       4.354   1.077   8.363  1.00  0.00     0.031 C 
ATOM     52  C   UNL     1      -0.544   5.464  10.409  1.00  0.00     0.029 A 
ATOM     53  C   UNL     1      -0.582   4.143  11.033  1.00  0.00     0.049 A 
ATOM     54  H   UNL     1       0.696   2.536  10.667  1.00  0.00     0.167 HD
ATOM     55  C   UNL     1       3.643  -0.620  10.039  1.00  0.00     0.034 A 
ATOM     56  C   UNL     1      -1.470   3.753  11.971  1.00  0.00     0.034 A 
ATOM     57  C   UNL     1       2.790  -1.090  11.106  1.00  0.00     0.049 A 
ATOM     58  C   UNL     1      -1.320   2.392  12.602  1.00  0.00     0.074 A 
ATOM     59  C   UNL     1       2.859  -2.295  11.787  1.00  0.00     0.029 A 
ATOM     60  N   UNL     1       1.719  -0.393  11.648  1.00  0.00    -0.354 N 
ATOM     61  N   UNL     1      -0.404   1.478  12.384  1.00  0.00    -0.248 NA
ATOM     62  C   UNL     1      -2.307   2.015  13.623  1.00  0.00     0.031 C 
ATOM     63  C   UNL     1       1.796  -2.353  12.690  1.00  0.00     0.029 A 
ATOM     64  C   UNL     1       1.108  -1.153  12.635  1.00  0.00     0.049 A 
ATOM     65  H   UNL     1       1.434   0.508  11.372  1.00  0.00     0.167 HD
ATOM     66  C   UNL     1      -0.679   0.439  13.270  1.00  0.00     0.074 A 
ATOM     67  C   UNL     1      -1.837   0.846  14.038  1.00  0.00     0.031 C 
ATOM     68  C   UNL     1      -0.029  -0.742  13.426  1.00  0.00     0.034 A 
BRANCH  55  69
ATOM     69  C   UNL     1       4.761  -1.535   9.598  1.00  0.00     0.023 A 
ATOM     70  C   UNL     1       4.474  -2.803   9.055  1.00  0.00     0.031 A 
ATOM     71  C   UNL     1       6.104  -1.220   9.876  1.00  0.00     0.131 A 
ATOM     72  C   UNL     1       5.511  -3.722   8.846  1.00  0.00     0.055 A 
ATOM     73  C   UNL     1       7.137  -2.126   9.629  1.00  0.00     0.041 A 
ATOM     74  F   UNL     1       6.429  -0.029  10.402  1.00  0.00    -0.206 F 
ATOM     75  C   UNL     1       6.840  -3.389   9.126  1.00  0.00     0.022 A 
BRANCH  72  76
ATOM     76  S   UNL     1       5.171  -5.410   8.274  1.00  0.00     0.124 S 
ATOM     77  O   UNL     1       5.947  -5.468   7.036  1.00  0.00    -0.237 OA
ATOM     78  O   UNL     1       5.689  -6.218   9.373  1.00  0.00    -0.237 OA
ATOM     79  O   UNL     1       3.723  -5.436   8.097  1.00  0.00    -0.744 OA
ENDBRANCH  72  76
ENDBRANCH  55  69
BRANCH  56  80
ATOM     80  C   UNL     1      -2.509   4.720  12.431  1.00  0.00     0.023 A 
ATOM     81  C   UNL     1      -3.472   5.228  11.541  1.00  0.00     0.031 A 
ATOM     82  C   UNL     1      -2.486   5.228  13.741  1.00  0.00     0.131 A 
ATOM     83  C   UNL     1      -4.330   6.255  11.956  1.00  0.00     0.055 A 
ATOM     84  C   UNL     1      -3.389   6.200  14.171  1.00  0.00     0.041 A 
ATOM     85  F   UNL     1      -1.573   4.787  14.621  1.00  0.00    -0.206 F 
ATOM     86  C   UNL     1      -4.307   6.731  13.270  1.00  0.00     0.022 A 
BRANCH  83  87
ATOM     87  S   UNL     1      -5.411   7.099  10.768  1.00  0.00     0.124 S 
ATOM     88  O   UNL     1      -6.736   6.826  11.316  1.00  0.00    -0.237 OA
ATOM     89  O   UNL     1      -4.954   8.482  10.880  1.00  0.00    -0.237 OA
ATOM     90  O   UNL     1      -5.104   6.447   9.500  1.00  0.00    -0.744 OA
ENDBRANCH  83  87
ENDBRANCH  56  80
BRANCH  68  91
ATOM     91  C   UNL     1      -0.513  -1.707  14.486  1.00  0.00     0.023 A 
ATOM     92  C   UNL     1       0.347  -2.085  15.537  1.00  0.00     0.031 A 
ATOM     93  C   UNL     1      -1.754  -2.359  14.380  1.00  0.00     0.131 A 
ATOM     94  C   UNL     1      -0.029  -3.110  16.415  1.00  0.00     0.055 A 
ATOM     95  C   UNL     1      -2.145  -3.345  15.288  1.00  0.00     0.041 A 
ATOM     96  F   UNL     1      -2.606  -2.049  13.389  1.00  0.00    -0.206 F 
ATOM     97  C   UNL     1      -1.275  -3.735  16.302  1.00  0.00     0.022 A 
BRANCH  94  98
ATOM     98  S   UNL     1       1.118  -3.736  17.674  1.00  0.00     0.124 S 
ATOM     99  O   UNL     1       0.403  -3.432  18.911  1.00  0.00    -0.237 OA
ATOM    100  O   UNL     1       1.202  -5.155  17.335  1.00  0.00    -0.237 OA
ATOM    101  O   UNL     1       2.337  -2.966  17.455  1.00  0.00    -0.744 OA
ENDBRANCH  94  98
ENDBRANCH  68  91
ENDBRANCH  42  43
ENDBRANCH  35  37
ENDBRANCH  34  35
ENDBRANCH  33  34
ENDBRANCH  32  33
ENDBRANCH  31  32
ENDBRANCH   1  31
TORSDOF 22
