REMARK SMILES CC(C)(C)c1cc2c(cc1Cl)C=C(C(=O)OCCOCCOCCOC(=O)c1ccc(-c3c4nc(c(-c5cc(S(=O)(=O)[O-])ccc5F)c5ccc([nH]5)c(-c5cc(S(=O)(=O)[O-])ccc5F)c5nc(c(-c6cc(S(=O)(=O)[O-])ccc6F)c6ccc3[nH]6)C=C5)C=C4)cc1)[C@@H](C(F)(F)F)O2
REMARK SMILES IDX 21 1 20 2 19 3 18 4 17 5 16 6 14 7 15 8 13 9 5 10 6 11 10 12
REMARK SMILES IDX 7 13 9 14 11 15 8 16 96 17 12 18 91 19 2 20 1 21 3 22 4 23
REMARK SMILES IDX 92 24 93 25 94 26 95 27 22 28 23 29 24 30 25 31 26 32 27 33
REMARK SMILES IDX 28 34 29 35 90 36 30 37 89 38 31 39 32 40 33 41 83 42 34 43
REMARK SMILES IDX 88 44 82 45 84 46 35 47 87 48 81 49 80 50 36 52 68 53 48 54
REMARK SMILES IDX 67 55 49 56 52 57 66 58 85 59 50 60 51 61 65 63 86 64 53 65
REMARK SMILES IDX 37 66 38 67 46 68 39 69 45 70 47 71 44 72 40 73 41 74 42 75
REMARK SMILES IDX 43 76 69 77 70 78 78 79 71 80 77 81 79 82 76 83 72 84 73 85
REMARK SMILES IDX 74 86 75 87 54 88 55 89 63 90 56 91 62 92 64 93 61 94 57 95
REMARK SMILES IDX 58 96 59 97 60 98
REMARK H PARENT 84 51 52 62
REMARK Flexibility Score: inf
ROOT
ATOM      1  C   UNL     1       0.694  -1.259   9.407  1.00  0.00     0.188 C 
ENDROOT
BRANCH   1   2
ATOM      2  C   UNL     1       1.324  -2.634   9.713  1.00  0.00     0.188 C 
BRANCH   2   3
ATOM      3  O   UNL     1       2.037  -2.658  10.940  1.00  0.00    -0.376 OA
BRANCH   3   4
ATOM      4  C   UNL     1       3.439  -2.851  10.852  1.00  0.00     0.202 C 
BRANCH   4   5
ATOM      5  C   UNL     1       4.234  -1.663  10.298  1.00  0.00     0.261 C 
BRANCH   5   6
ATOM      6  O   UNL     1       3.716  -1.101   9.080  1.00  0.00    -0.460 OA
BRANCH   6   7
ATOM      7  C   UNL     1       4.039  -1.728   7.928  1.00  0.00     0.338 C 
ATOM      8  O   UNL     1       4.720  -2.732   7.818  1.00  0.00    -0.246 OA
BRANCH   7   9
ATOM      9  C   UNL     1       3.331  -1.055   6.815  1.00  0.00     0.087 C 
ATOM     10  C   UNL     1       0.842   0.099   2.546  1.00  0.00    -0.020 A 
ATOM     11  C   UNL     1       1.476   0.824   3.583  1.00  0.00     0.053 A 
ATOM     12  C   UNL     1       0.717  -1.294   2.761  1.00  0.00     0.045 A 
ATOM     13  C   UNL     1       2.041   0.201   4.705  1.00  0.00     0.128 A 
ATOM     14  C   UNL     1       1.299  -1.918   3.881  1.00  0.00     0.032 A 
ATOM     15  Cl  UNL     1      -0.149  -2.364   1.715  1.00  0.00    -0.084 Cl
ATOM     16  C   UNL     1       1.995  -1.179   4.835  1.00  0.00     0.019 A 
ATOM     17  O   UNL     1       2.638   1.030   5.610  1.00  0.00    -0.475 OA
ATOM     18  C   UNL     1       2.697  -1.833   5.929  1.00  0.00     0.027 C 
ATOM     19  C   UNL     1       3.311   0.454   6.764  1.00  0.00     0.316 C 
BRANCH  10  20
ATOM     20  C   UNL     1       0.370   0.836   1.265  1.00  0.00    -0.012 C 
ATOM     21  C   UNL     1       0.963   0.189  -0.011  1.00  0.00     0.016 C 
ATOM     22  C   UNL     1       0.832   2.320   1.203  1.00  0.00     0.016 C 
ATOM     23  C   UNL     1      -1.170   0.865   1.182  1.00  0.00     0.016 C 
ENDBRANCH  10  20
BRANCH  19  24
ATOM     24  C   UNL     1       4.716   1.070   6.835  1.00  0.00     0.430 C 
ATOM     25  F   UNL     1       4.660   2.425   6.780  1.00  0.00    -0.167 F 
ATOM     26  F   UNL     1       5.352   0.764   7.991  1.00  0.00    -0.167 F 
ATOM     27  F   UNL     1       5.506   0.658   5.818  1.00  0.00    -0.167 F 
ENDBRANCH  19  24
ENDBRANCH   7   9
ENDBRANCH   6   7
ENDBRANCH   5   6
ENDBRANCH   4   5
ENDBRANCH   3   4
ENDBRANCH   2   3
ENDBRANCH   1   2
BRANCH   1  28
ATOM     28  O   UNL     1       0.674  -0.254  10.415  1.00  0.00    -0.376 OA
BRANCH  28  29
ATOM     29  C   UNL     1       0.268  -0.611  11.732  1.00  0.00     0.202 C 
BRANCH  29  30
ATOM     30  C   UNL     1      -1.131  -1.208  11.928  1.00  0.00     0.261 C 
BRANCH  30  31
ATOM     31  O   UNL     1      -1.373  -2.403  11.168  1.00  0.00    -0.460 OA
BRANCH  31  32
ATOM     32  C   UNL     1      -2.322  -2.304  10.200  1.00  0.00     0.338 C 
ATOM     33  O   UNL     1      -2.999  -1.328   9.931  1.00  0.00    -0.246 OA
BRANCH  32  34
ATOM     34  C   UNL     1      -2.270  -3.520   9.361  1.00  0.00     0.060 A 
ATOM     35  C   UNL     1      -2.441  -4.788   9.919  1.00  0.00     0.016 A 
ATOM     36  C   UNL     1      -2.035  -3.375   7.986  1.00  0.00     0.016 A 
ATOM     37  C   UNL     1      -2.382  -5.915   9.094  1.00  0.00     0.010 A 
ATOM     38  C   UNL     1      -1.955  -4.504   7.168  1.00  0.00     0.010 A 
ATOM     39  C   UNL     1      -2.139  -5.781   7.715  1.00  0.00    -0.014 A 
BRANCH  39  40
ATOM     40  C   UNL     1      -2.230  -6.966   6.828  1.00  0.00     0.031 A 
ATOM     41  C   UNL     1      -1.011  -7.711   6.379  1.00  0.00     0.074 A 
ATOM     42  C   UNL     1      -3.452  -7.359   6.421  1.00  0.00     0.049 A 
ATOM     43  N   UNL     1      -0.939  -8.819   5.687  1.00  0.00    -0.248 NA
ATOM     44  C   UNL     1       0.294  -7.144   6.748  1.00  0.00     0.031 C 
ATOM     45  C   UNL     1      -4.699  -6.682   6.773  1.00  0.00     0.029 A 
ATOM     46  N   UNL     1      -3.848  -8.409   5.631  1.00  0.00    -0.354 N 
ATOM     47  C   UNL     1       0.414  -9.103   5.559  1.00  0.00     0.074 A 
ATOM     48  C   UNL     1       1.130  -8.020   6.201  1.00  0.00     0.031 C 
ATOM     49  C   UNL     1      -5.725  -7.340   6.213  1.00  0.00     0.029 A 
ATOM     50  C   UNL     1      -5.209  -8.471   5.444  1.00  0.00     0.049 A 
ATOM     51  H   UNL     1      -3.219  -9.055   5.237  1.00  0.00     0.167 HD
ATOM     52  C   UNL     1       0.994 -10.182   4.979  1.00  0.00     0.034 A 
ATOM     53  C   UNL     1      -5.961  -9.340   4.738  1.00  0.00     0.034 A 
ATOM     54  C   UNL     1       0.257 -11.241   4.330  1.00  0.00     0.049 A 
ATOM     55  C   UNL     1      -5.287 -10.507   4.062  1.00  0.00     0.074 A 
ATOM     56  C   UNL     1       0.754 -12.407   3.773  1.00  0.00     0.029 A 
ATOM     57  N   UNL     1      -1.116 -11.261   4.131  1.00  0.00    -0.354 N 
ATOM     58  N   UNL     1      -4.017 -10.836   4.063  1.00  0.00    -0.248 NA
ATOM     59  C   UNL     1      -6.143 -11.429   3.304  1.00  0.00     0.031 C 
ATOM     60  C   UNL     1      -0.303 -13.091   3.173  1.00  0.00     0.029 A 
ATOM     61  C   UNL     1      -1.476 -12.396   3.420  1.00  0.00     0.049 A 
ATOM     62  H   UNL     1      -1.743 -10.571   4.447  1.00  0.00     0.167 HD
ATOM     63  C   UNL     1      -3.923 -12.012   3.324  1.00  0.00     0.074 A 
ATOM     64  C   UNL     1      -5.271 -12.351   2.915  1.00  0.00     0.031 C 
ATOM     65  C   UNL     1      -2.820 -12.738   3.012  1.00  0.00     0.034 A 
BRANCH  52  66
ATOM     66  C   UNL     1       2.496 -10.320   5.033  1.00  0.00     0.023 A 
ATOM     67  C   UNL     1       3.249 -10.365   3.844  1.00  0.00     0.031 A 
ATOM     68  C   UNL     1       3.156 -10.577   6.248  1.00  0.00     0.131 A 
ATOM     69  C   UNL     1       4.609 -10.700   3.893  1.00  0.00     0.055 A 
ATOM     70  C   UNL     1       4.520 -10.872   6.295  1.00  0.00     0.041 A 
ATOM     71  F   UNL     1       2.481 -10.556   7.409  1.00  0.00    -0.206 F 
ATOM     72  C   UNL     1       5.249 -10.948   5.112  1.00  0.00     0.022 A 
BRANCH  69  73
ATOM     73  S   UNL     1       5.583 -10.902   2.376  1.00  0.00     0.124 S 
ATOM     74  O   UNL     1       6.640  -9.911   2.566  1.00  0.00    -0.237 OA
ATOM     75  O   UNL     1       6.010 -12.295   2.471  1.00  0.00    -0.237 OA
ATOM     76  O   UNL     1       4.636 -10.602   1.308  1.00  0.00    -0.744 OA
ENDBRANCH  69  73
ENDBRANCH  52  66
BRANCH  53  77
ATOM     77  C   UNL     1      -7.440  -9.155   4.713  1.00  0.00     0.023 A 
ATOM     78  C   UNL     1      -8.011  -7.989   4.169  1.00  0.00     0.031 A 
ATOM     79  C   UNL     1      -8.292 -10.077   5.342  1.00  0.00     0.131 A 
ATOM     80  C   UNL     1      -9.380  -7.743   4.332  1.00  0.00     0.055 A 
ATOM     81  C   UNL     1      -9.667  -9.862   5.438  1.00  0.00     0.041 A 
ATOM     82  F   UNL     1      -7.791 -11.196   5.889  1.00  0.00    -0.206 F 
ATOM     83  C   UNL     1     -10.215  -8.680   4.948  1.00  0.00     0.022 A 
BRANCH  80  84
ATOM     84  S   UNL     1     -10.096  -6.138   3.878  1.00  0.00     0.124 S 
ATOM     85  O   UNL     1     -11.094  -6.520   2.885  1.00  0.00    -0.237 OA
ATOM     86  O   UNL     1     -10.624  -5.676   5.160  1.00  0.00    -0.237 OA
ATOM     87  O   UNL     1      -8.955  -5.383   3.370  1.00  0.00    -0.744 OA
ENDBRANCH  80  84
ENDBRANCH  53  77
BRANCH  65  88
ATOM     88  C   UNL     1      -2.984 -13.980   2.167  1.00  0.00     0.023 A 
ATOM     89  C   UNL     1      -2.619 -15.240   2.681  1.00  0.00     0.031 A 
ATOM     90  C   UNL     1      -3.345 -13.897   0.811  1.00  0.00     0.131 A 
ATOM     91  C   UNL     1      -2.574 -16.354   1.832  1.00  0.00     0.055 A 
ATOM     92  C   UNL     1      -3.349 -15.020  -0.018  1.00  0.00     0.041 A 
ATOM     93  F   UNL     1      -3.693 -12.718   0.270  1.00  0.00    -0.206 F 
ATOM     94  C   UNL     1      -2.946 -16.252   0.488  1.00  0.00     0.022 A 
BRANCH  91  95
ATOM     95  S   UNL     1      -1.947 -17.954   2.415  1.00  0.00     0.124 S 
ATOM     96  O   UNL     1      -3.090 -18.832   2.179  1.00  0.00    -0.237 OA
ATOM     97  O   UNL     1      -0.801 -18.173   1.537  1.00  0.00    -0.237 OA
ATOM     98  O   UNL     1      -1.626 -17.717   3.819  1.00  0.00    -0.744 OA
ENDBRANCH  91  95
ENDBRANCH  65  88
ENDBRANCH  39  40
ENDBRANCH  32  34
ENDBRANCH  31  32
ENDBRANCH  30  31
ENDBRANCH  29  30
ENDBRANCH  28  29
ENDBRANCH   1  28
TORSDOF 22
