REMARK SMILES O=C(CCn1c(SCc2ccccn2)nc2ccccc2c1=O)OCCOCCOCCOC(=O)c1ccc(-c2c3nc(c(-c4cc(S(=O)(=O)[O-])ccc4F)c4ccc([nH]4)c(-c4cc(S(=O)(=O)[O-])ccc4F)c4nc(c(-c5cc(S(=O)(=O)[O-])ccc5F)c5ccc2[nH]5)C=C4)C=C3)cc1
REMARK SMILES IDX 28 1 27 2 26 3 25 4 24 5 2 6 1 7 3 8 4 9 5 10 6 11 22 12
REMARK SMILES IDX 15 13 21 14 23 15 16 16 20 17 17 18 19 19 18 20 7 21 8 22
REMARK SMILES IDX 9 23 10 24 14 25 11 26 13 27 12 28 29 29 30 30 31 31 32 32
REMARK SMILES IDX 33 33 34 34 35 35 36 36 37 37 98 38 38 39 97 40 39 41 40 42
REMARK SMILES IDX 41 43 91 44 42 45 96 46 90 47 92 48 43 49 95 50 89 51 88 52
REMARK SMILES IDX 44 54 76 55 56 56 75 57 57 58 60 59 74 60 93 61 58 62 59 63
REMARK SMILES IDX 73 65 94 66 61 67 45 68 46 69 54 70 47 71 53 72 55 73 52 74
REMARK SMILES IDX 48 75 49 76 50 77 51 78 77 79 78 80 86 81 79 82 85 83 87 84
REMARK SMILES IDX 84 85 80 86 81 87 82 88 83 89 62 90 63 91 71 92 64 93 70 94
REMARK SMILES IDX 72 95 69 96 65 97 66 98 67 99 68 100
REMARK H PARENT 92 53 60 64
REMARK Flexibility Score: inf
ROOT
ATOM      1  C   UNL     1       2.330   1.533  -1.509  1.00  0.00     0.188 C 
ENDROOT
BRANCH   1   2
ATOM      2  O   UNL     1       3.655   1.629  -1.008  1.00  0.00    -0.376 OA
BRANCH   2   3
ATOM      3  C   UNL     1       4.532   0.531  -1.191  1.00  0.00     0.202 C 
BRANCH   3   4
ATOM      4  C   UNL     1       3.945  -0.873  -1.143  1.00  0.00     0.261 C 
BRANCH   4   5
ATOM      5  O   UNL     1       2.996  -1.255  -0.121  1.00  0.00    -0.463 OA
BRANCH   5   6
ATOM      6  C   UNL     1       2.466  -0.632   0.935  1.00  0.00     0.307 C 
ATOM      7  O   UNL     1       1.339  -0.966   1.309  1.00  0.00    -0.252 OA
BRANCH   6   8
ATOM      8  C   UNL     1       3.176   0.466   1.664  1.00  0.00     0.144 C 
BRANCH   8   9
ATOM      9  C   UNL     1       4.597   0.318   2.183  1.00  0.00     0.140 C 
BRANCH   9  10
ATOM     10  N   UNL     1       5.429  -0.810   1.808  1.00  0.00    -0.286 N 
ATOM     11  C   UNL     1       5.199  -2.170   1.944  1.00  0.00     0.171 A 
ATOM     12  C   UNL     1       6.702  -0.413   1.372  1.00  0.00     0.262 A 
ATOM     13  N   UNL     1       5.896  -3.035   1.257  1.00  0.00    -0.224 NA
ATOM     14  C   UNL     1       7.322  -1.284   0.379  1.00  0.00     0.066 A 
ATOM     15  O   UNL     1       7.268   0.634   1.671  1.00  0.00    -0.269 OA
ATOM     16  C   UNL     1       6.841  -2.580   0.330  1.00  0.00     0.079 A 
ATOM     17  C   UNL     1       8.177  -0.763  -0.600  1.00  0.00     0.016 A 
ATOM     18  C   UNL     1       7.239  -3.388  -0.737  1.00  0.00     0.029 A 
ATOM     19  C   UNL     1       8.541  -1.566  -1.676  1.00  0.00     0.001 A 
ATOM     20  C   UNL     1       8.072  -2.879  -1.744  1.00  0.00     0.002 A 
BRANCH  11  21
ATOM     21  S   UNL     1       3.986  -2.968   2.915  1.00  0.00    -0.081 SA
BRANCH  21  22
ATOM     22  C   UNL     1       3.038  -1.952   4.045  1.00  0.00     0.134 C 
BRANCH  22  23
ATOM     23  C   UNL     1       3.753  -0.970   4.935  1.00  0.00     0.051 A 
ATOM     24  C   UNL     1       3.135   0.253   5.232  1.00  0.00     0.025 A 
ATOM     25  N   UNL     1       5.027  -1.245   5.303  1.00  0.00    -0.260 NA
ATOM     26  C   UNL     1       3.899   1.272   5.792  1.00  0.00     0.003 A 
ATOM     27  C   UNL     1       5.726  -0.253   5.895  1.00  0.00     0.111 A 
ATOM     28  C   UNL     1       5.225   1.019   6.118  1.00  0.00     0.020 A 
ENDBRANCH  22  23
ENDBRANCH  21  22
ENDBRANCH  11  21
ENDBRANCH   9  10
ENDBRANCH   8   9
ENDBRANCH   6   8
ENDBRANCH   5   6
ENDBRANCH   4   5
ENDBRANCH   3   4
ENDBRANCH   2   3
ENDBRANCH   1   2
BRANCH   1  29
ATOM     29  C   UNL     1       2.168   1.431  -3.019  1.00  0.00     0.188 C 
BRANCH  29  30
ATOM     30  O   UNL     1       3.360   1.002  -3.661  1.00  0.00    -0.376 OA
BRANCH  30  31
ATOM     31  C   UNL     1       3.956   2.000  -4.483  1.00  0.00     0.202 C 
BRANCH  31  32
ATOM     32  C   UNL     1       4.688   3.171  -3.793  1.00  0.00     0.261 C 
BRANCH  32  33
ATOM     33  O   UNL     1       4.076   3.803  -2.657  1.00  0.00    -0.460 OA
BRANCH  33  34
ATOM     34  C   UNL     1       3.021   4.626  -2.854  1.00  0.00     0.338 C 
ATOM     35  O   UNL     1       2.438   4.806  -3.904  1.00  0.00    -0.246 OA
BRANCH  34  36
ATOM     36  C   UNL     1       2.620   5.195  -1.538  1.00  0.00     0.060 A 
ATOM     37  C   UNL     1       3.528   5.939  -0.780  1.00  0.00     0.016 A 
ATOM     38  C   UNL     1       1.311   5.015  -1.070  1.00  0.00     0.016 A 
ATOM     39  C   UNL     1       3.118   6.517   0.431  1.00  0.00     0.010 A 
ATOM     40  C   UNL     1       0.910   5.572   0.154  1.00  0.00     0.010 A 
ATOM     41  C   UNL     1       1.800   6.356   0.903  1.00  0.00    -0.014 A 
BRANCH  41  42
ATOM     42  C   UNL     1       1.307   7.223   2.011  1.00  0.00     0.031 A 
ATOM     43  C   UNL     1       1.114   6.745   3.419  1.00  0.00     0.074 A 
ATOM     44  C   UNL     1       1.019   8.504   1.705  1.00  0.00     0.049 A 
ATOM     45  N   UNL     1       0.856   7.450   4.493  1.00  0.00    -0.248 NA
ATOM     46  C   UNL     1       1.199   5.299   3.656  1.00  0.00     0.031 C 
ATOM     47  C   UNL     1       1.086   9.062   0.355  1.00  0.00     0.029 A 
ATOM     48  N   UNL     1       0.628   9.562   2.487  1.00  0.00    -0.354 N 
ATOM     49  C   UNL     1       0.783   6.545   5.545  1.00  0.00     0.074 A 
ATOM     50  C   UNL     1       0.958   5.228   4.962  1.00  0.00     0.031 C 
ATOM     51  C   UNL     1       0.785  10.366   0.406  1.00  0.00     0.029 A 
ATOM     52  C   UNL     1       0.482  10.736   1.787  1.00  0.00     0.049 A 
ATOM     53  H   UNL     1       0.468   9.487   3.456  1.00  0.00     0.167 HD
ATOM     54  C   UNL     1       0.610   6.797   6.869  1.00  0.00     0.034 A 
ATOM     55  C   UNL     1       0.160  11.979   2.199  1.00  0.00     0.034 A 
ATOM     56  C   UNL     1       0.393   8.118   7.421  1.00  0.00     0.049 A 
ATOM     57  C   UNL     1      -0.017  12.240   3.670  1.00  0.00     0.074 A 
ATOM     58  C   UNL     1       0.267   8.479   8.753  1.00  0.00     0.029 A 
ATOM     59  N   UNL     1       0.248   9.289   6.686  1.00  0.00    -0.354 N 
ATOM     60  N   UNL     1       0.076  11.398   4.673  1.00  0.00    -0.248 NA
ATOM     61  C   UNL     1      -0.314  13.620   4.073  1.00  0.00     0.031 C 
ATOM     62  C   UNL     1      -0.031   9.842   8.818  1.00  0.00     0.029 A 
ATOM     63  C   UNL     1      -0.004  10.361   7.534  1.00  0.00     0.049 A 
ATOM     64  H   UNL     1       0.315   9.350   5.706  1.00  0.00     0.167 HD
ATOM     65  C   UNL     1      -0.143  12.148   5.825  1.00  0.00     0.074 A 
ATOM     66  C   UNL     1      -0.321  13.520   5.396  1.00  0.00     0.031 C 
ATOM     67  C   UNL     1      -0.202  11.731   7.117  1.00  0.00     0.034 A 
BRANCH  54  68
ATOM     68  C   UNL     1       0.688   5.642   7.847  1.00  0.00     0.023 A 
ATOM     69  C   UNL     1      -0.390   5.357   8.710  1.00  0.00     0.031 A 
ATOM     70  C   UNL     1       1.890   4.935   8.041  1.00  0.00     0.131 A 
ATOM     71  C   UNL     1      -0.229   4.427   9.747  1.00  0.00     0.055 A 
ATOM     72  C   UNL     1       2.030   3.977   9.047  1.00  0.00     0.041 A 
ATOM     73  F   UNL     1       2.954   5.168   7.255  1.00  0.00    -0.206 F 
ATOM     74  C   UNL     1       0.972   3.731   9.916  1.00  0.00     0.022 A 
BRANCH  71  75
ATOM     75  S   UNL     1      -1.538   4.141  10.972  1.00  0.00     0.124 S 
ATOM     76  O   UNL     1      -1.792   2.712  10.808  1.00  0.00    -0.237 OA
ATOM     77  O   UNL     1      -0.876   4.518  12.218  1.00  0.00    -0.237 OA
ATOM     78  O   UNL     1      -2.619   5.018  10.539  1.00  0.00    -0.744 OA
ENDBRANCH  71  75
ENDBRANCH  54  68
BRANCH  55  79
ATOM     79  C   UNL     1       0.083  13.069   1.182  1.00  0.00     0.023 A 
ATOM     80  C   UNL     1      -0.846  12.996   0.127  1.00  0.00     0.031 A 
ATOM     81  C   UNL     1       1.022  14.113   1.166  1.00  0.00     0.131 A 
ATOM     82  C   UNL     1      -0.757  13.896  -0.942  1.00  0.00     0.055 A 
ATOM     83  C   UNL     1       1.052  15.059   0.141  1.00  0.00     0.041 A 
ATOM     84  F   UNL     1       1.940  14.213   2.140  1.00  0.00    -0.206 F 
ATOM     85  C   UNL     1       0.173  14.940  -0.932  1.00  0.00     0.022 A 
BRANCH  82  86
ATOM     86  S   UNL     1      -1.732  13.639  -2.450  1.00  0.00     0.124 S 
ATOM     87  O   UNL     1      -2.491  14.883  -2.538  1.00  0.00    -0.237 OA
ATOM     88  O   UNL     1      -0.684  13.466  -3.454  1.00  0.00    -0.237 OA
ATOM     89  O   UNL     1      -2.512  12.442  -2.157  1.00  0.00    -0.744 OA
ENDBRANCH  82  86
ENDBRANCH  55  79
BRANCH  67  90
ATOM     90  C   UNL     1      -0.507  12.759   8.189  1.00  0.00     0.023 A 
ATOM     91  C   UNL     1       0.403  12.989   9.239  1.00  0.00     0.031 A 
ATOM     92  C   UNL     1      -1.744  13.428   8.233  1.00  0.00     0.131 A 
ATOM     93  C   UNL     1       0.052  13.839  10.298  1.00  0.00     0.055 A 
ATOM     94  C   UNL     1      -2.066  14.319   9.260  1.00  0.00     0.041 A 
ATOM     95  F   UNL     1      -2.659  13.236   7.269  1.00  0.00    -0.206 F 
ATOM     96  C   UNL     1      -1.171  14.517  10.306  1.00  0.00     0.022 A 
BRANCH  93  97
ATOM     97  S   UNL     1       1.126  14.031  11.748  1.00  0.00     0.124 S 
ATOM     98  O   UNL     1       1.447  15.455  11.700  1.00  0.00    -0.237 OA
ATOM     99  O   UNL     1       0.243  13.628  12.840  1.00  0.00    -0.237 OA
ATOM    100  O   UNL     1       2.243  13.132  11.480  1.00  0.00    -0.744 OA
ENDBRANCH  93  97
ENDBRANCH  67  90
ENDBRANCH  41  42
ENDBRANCH  34  36
ENDBRANCH  33  34
ENDBRANCH  32  33
ENDBRANCH  31  32
ENDBRANCH  30  31
ENDBRANCH  29  30
ENDBRANCH   1  29
TORSDOF 25
