REMARK SMILES COC[C@H](C)[C@@](C)(O)C(=O)OCCOCCOCCOC(=O)c1ccc(-c2c3nc(c(-c4cc(S(=O)(=O)[O-])ccc4F)c4ccc([nH]4)c(-c4cc(S(=O)(=O)[O-])ccc4F)c4nc(c(-c5cc(S(=O)(=O)[O-])ccc5F)c5ccc2[nH]5)C=C4)C=C3)cc1
REMARK SMILES IDX 15 1 14 2 13 3 12 4 11 5 9 6 10 7 6 8 7 9 4 10 5 11 3 12
REMARK SMILES IDX 2 13 1 14 8 15 16 17 17 18 18 19 19 20 20 21 21 22 22 23
REMARK SMILES IDX 23 24 24 25 85 26 25 27 84 28 26 29 27 30 28 31 78 32 29 33
REMARK SMILES IDX 83 34 77 35 79 36 30 37 82 38 76 39 75 40 31 42 63 43 43 44
REMARK SMILES IDX 62 45 44 46 47 47 61 48 80 49 45 50 46 51 60 53 81 54 48 55
REMARK SMILES IDX 32 56 33 57 41 58 34 59 40 60 42 61 39 62 35 63 36 64 37 65
REMARK SMILES IDX 38 66 64 67 65 68 73 69 66 70 72 71 74 72 71 73 67 74 68 75
REMARK SMILES IDX 69 76 70 77 49 78 50 79 58 80 51 81 57 82 59 83 56 84 52 85
REMARK SMILES IDX 53 86 54 87 55 88
REMARK H PARENT 8 16 79 41 47 52
REMARK Flexibility Score: inf
ROOT
ATOM      1  C   UNL     1       3.806   3.256  -1.866  1.00  0.00     0.188 C 
ENDROOT
BRANCH   1   2
ATOM      2  O   UNL     1       5.144   3.273  -2.305  1.00  0.00    -0.376 OA
BRANCH   2   3
ATOM      3  C   UNL     1       5.452   2.865  -3.626  1.00  0.00     0.202 C 
BRANCH   3   4
ATOM      4  C   UNL     1       4.438   2.394  -4.691  1.00  0.00     0.261 C 
BRANCH   4   5
ATOM      5  O   UNL     1       3.042   2.532  -4.406  1.00  0.00    -0.461 OA
BRANCH   5   6
ATOM      6  C   UNL     1       2.306   1.387  -4.336  1.00  0.00     0.338 C 
ATOM      7  O   UNL     1       2.781   0.265  -4.481  1.00  0.00    -0.249 OA
BRANCH   6   8
ATOM      8  C   UNL     1       0.780   1.665  -4.119  1.00  0.00     0.163 C 
ATOM      9  C   UNL     1       0.086   1.079  -5.360  1.00  0.00     0.055 C 
BRANCH   8  10
ATOM     10  C   UNL     1       0.206   1.032  -2.808  1.00  0.00     0.055 C 
ATOM     11  C   UNL     1       0.713  -0.389  -2.525  1.00  0.00     0.014 C 
BRANCH  10  12
ATOM     12  C   UNL     1       0.399   1.907  -1.552  1.00  0.00     0.166 C 
BRANCH  12  13
ATOM     13  O   UNL     1      -0.276   1.365  -0.415  1.00  0.00    -0.384 OA
ATOM     14  C   UNL     1      -1.633   1.774  -0.305  1.00  0.00     0.194 C 
ENDBRANCH  12  13
ENDBRANCH  10  12
ENDBRANCH   8  10
BRANCH   8  15
ATOM     15  O   UNL     1       0.429   3.053  -4.141  1.00  0.00    -0.378 OA
ATOM     16  H   UNL     1      -0.526   3.147  -4.001  1.00  0.00     0.212 HD
ENDBRANCH   8  15
ENDBRANCH   6   8
ENDBRANCH   5   6
ENDBRANCH   4   5
ENDBRANCH   3   4
ENDBRANCH   2   3
ENDBRANCH   1   2
BRANCH   1  17
ATOM     17  C   UNL     1       2.928   4.443  -2.307  1.00  0.00     0.188 C 
BRANCH  17  18
ATOM     18  O   UNL     1       3.451   5.439  -3.164  1.00  0.00    -0.376 OA
BRANCH  18  19
ATOM     19  C   UNL     1       4.628   6.134  -2.796  1.00  0.00     0.202 C 
BRANCH  19  20
ATOM     20  C   UNL     1       4.940   6.561  -1.349  1.00  0.00     0.261 C 
BRANCH  20  21
ATOM     21  O   UNL     1       4.496   5.694  -0.297  1.00  0.00    -0.460 OA
BRANCH  21  22
ATOM     22  C   UNL     1       3.431   6.147   0.407  1.00  0.00     0.338 C 
ATOM     23  O   UNL     1       2.838   7.209   0.235  1.00  0.00    -0.246 OA
BRANCH  22  24
ATOM     24  C   UNL     1       2.929   5.092   1.308  1.00  0.00     0.060 A 
ATOM     25  C   UNL     1       1.611   4.646   1.134  1.00  0.00     0.016 A 
ATOM     26  C   UNL     1       3.708   4.598   2.356  1.00  0.00     0.016 A 
ATOM     27  C   UNL     1       1.051   3.742   2.034  1.00  0.00     0.010 A 
ATOM     28  C   UNL     1       3.134   3.710   3.276  1.00  0.00     0.010 A 
ATOM     29  C   UNL     1       1.790   3.313   3.143  1.00  0.00    -0.014 A 
BRANCH  29  30
ATOM     30  C   UNL     1       1.074   2.662   4.272  1.00  0.00     0.031 A 
ATOM     31  C   UNL     1       0.616   3.531   5.416  1.00  0.00     0.074 A 
ATOM     32  C   UNL     1       0.772   1.351   4.262  1.00  0.00     0.049 A 
ATOM     33  N   UNL     1      -0.032   3.207   6.505  1.00  0.00    -0.248 NA
ATOM     34  C   UNL     1       0.930   4.964   5.307  1.00  0.00     0.031 C 
ATOM     35  C   UNL     1       1.085   0.419   3.182  1.00  0.00     0.029 A 
ATOM     36  N   UNL     1       0.124   0.580   5.196  1.00  0.00    -0.354 N 
ATOM     37  C   UNL     1      -0.201   4.393   7.213  1.00  0.00     0.074 A 
ATOM     38  C   UNL     1       0.446   5.435   6.445  1.00  0.00     0.031 C 
ATOM     39  C   UNL     1       0.636  -0.803   3.519  1.00  0.00     0.029 A 
ATOM     40  C   UNL     1       0.030  -0.748   4.850  1.00  0.00     0.049 A 
ATOM     41  H   UNL     1      -0.239   0.944   6.036  1.00  0.00     0.167 HD
ATOM     42  C   UNL     1      -0.844   4.598   8.389  1.00  0.00     0.034 A 
ATOM     43  C   UNL     1      -0.472  -1.796   5.535  1.00  0.00     0.034 A 
ATOM     44  C   UNL     1      -1.469   3.549   9.157  1.00  0.00     0.049 A 
ATOM     45  C   UNL     1      -1.082  -1.562   6.900  1.00  0.00     0.074 A 
ATOM     46  C   UNL     1      -2.148   3.649  10.359  1.00  0.00     0.029 A 
ATOM     47  N   UNL     1      -1.476   2.203   8.811  1.00  0.00    -0.354 N 
ATOM     48  N   UNL     1      -1.244  -0.435   7.556  1.00  0.00    -0.248 NA
ATOM     49  C   UNL     1      -1.588  -2.744   7.610  1.00  0.00     0.031 C 
ATOM     50  C   UNL     1      -2.490   2.359  10.780  1.00  0.00     0.029 A 
ATOM     51  C   UNL     1      -2.112   1.460   9.795  1.00  0.00     0.049 A 
ATOM     52  H   UNL     1      -1.087   1.831   7.986  1.00  0.00     0.167 HD
ATOM     53  C   UNL     1      -1.914  -0.772   8.732  1.00  0.00     0.074 A 
ATOM     54  C   UNL     1      -2.132  -2.202   8.689  1.00  0.00     0.031 C 
ATOM     55  C   UNL     1      -2.323   0.031   9.750  1.00  0.00     0.034 A 
BRANCH  42  56
ATOM     56  C   UNL     1      -0.833   6.003   8.945  1.00  0.00     0.023 A 
ATOM     57  C   UNL     1      -1.448   7.075   8.273  1.00  0.00     0.031 A 
ATOM     58  C   UNL     1      -0.153   6.282  10.143  1.00  0.00     0.131 A 
ATOM     59  C   UNL     1      -1.304   8.382   8.762  1.00  0.00     0.055 A 
ATOM     60  C   UNL     1      -0.086   7.573  10.670  1.00  0.00     0.041 A 
ATOM     61  F   UNL     1       0.476   5.305  10.816  1.00  0.00    -0.206 F 
ATOM     62  C   UNL     1      -0.649   8.635   9.970  1.00  0.00     0.022 A 
BRANCH  59  63
ATOM     63  S   UNL     1      -1.841   9.765   7.717  1.00  0.00     0.124 S 
ATOM     64  O   UNL     1      -1.061   9.538   6.503  1.00  0.00    -0.237 OA
ATOM     65  O   UNL     1      -3.277   9.537   7.606  1.00  0.00    -0.237 OA
ATOM     66  O   UNL     1      -1.453  10.946   8.485  1.00  0.00    -0.744 OA
ENDBRANCH  59  63
ENDBRANCH  42  56
BRANCH  43  67
ATOM     67  C   UNL     1      -0.402  -3.179   4.975  1.00  0.00     0.023 A 
ATOM     68  C   UNL     1      -1.567  -3.917   4.711  1.00  0.00     0.031 A 
ATOM     69  C   UNL     1       0.838  -3.813   4.776  1.00  0.00     0.131 A 
ATOM     70  C   UNL     1      -1.470  -5.262   4.318  1.00  0.00     0.055 A 
ATOM     71  C   UNL     1       0.929  -5.132   4.329  1.00  0.00     0.041 A 
ATOM     72  F   UNL     1       1.984  -3.158   5.023  1.00  0.00    -0.206 F 
ATOM     73  C   UNL     1      -0.230  -5.870   4.112  1.00  0.00     0.022 A 
BRANCH  70  74
ATOM     74  S   UNL     1      -2.993  -6.239   4.177  1.00  0.00     0.124 S 
ATOM     75  O   UNL     1      -3.536  -6.138   5.526  1.00  0.00    -0.237 OA
ATOM     76  O   UNL     1      -3.721  -5.519   3.136  1.00  0.00    -0.237 OA
ATOM     77  O   UNL     1      -2.513  -7.565   3.794  1.00  0.00    -0.744 OA
ENDBRANCH  70  74
ENDBRANCH  43  67
BRANCH  55  78
ATOM     78  C   UNL     1      -3.110  -0.614  10.870  1.00  0.00     0.023 A 
ATOM     79  C   UNL     1      -2.549  -1.587  11.717  1.00  0.00     0.031 A 
ATOM     80  C   UNL     1      -4.455  -0.258  11.080  1.00  0.00     0.131 A 
ATOM     81  C   UNL     1      -3.347  -2.217  12.686  1.00  0.00     0.055 A 
ATOM     82  C   UNL     1      -5.224  -0.837  12.091  1.00  0.00     0.041 A 
ATOM     83  F   UNL     1      -5.049   0.662  10.302  1.00  0.00    -0.206 F 
ATOM     84  C   UNL     1      -4.676  -1.835  12.890  1.00  0.00     0.022 A 
BRANCH  81  85
ATOM     85  S   UNL     1      -2.663  -3.628  13.598  1.00  0.00     0.124 S 
ATOM     86  O   UNL     1      -2.266  -4.526  12.517  1.00  0.00    -0.237 OA
ATOM     87  O   UNL     1      -1.572  -3.015  14.349  1.00  0.00    -0.237 OA
ATOM     88  O   UNL     1      -3.788  -4.093  14.408  1.00  0.00    -0.744 OA
ENDBRANCH  81  85
ENDBRANCH  55  78
ENDBRANCH  29  30
ENDBRANCH  22  24
ENDBRANCH  21  22
ENDBRANCH  20  21
ENDBRANCH  19  20
ENDBRANCH  18  19
ENDBRANCH  17  18
ENDBRANCH   1  17
TORSDOF 24
