REMARK SMILES CCCOc1cncc(N[C@@](C)(C(=O)OCCOCCOCCOC(=O)c2ccc(-c3c4nc(c(-c5cc(S(=O)(=O)[O-])ccc5F)c5ccc([nH]5)c(-c5cc(S(=O)(=O)[O-])ccc5F)c5nc(c(-c6cc(S(=O)(=O)[O-])ccc6F)c6ccc3[nH]6)C=C5)C=C4)cc2)C(F)(F)F)n1
REMARK SMILES IDX 19 1 18 2 17 3 16 4 15 5 13 6 14 7 11 8 12 9 10 10 9 12 5 13
REMARK SMILES IDX 6 14 94 15 7 16 8 17 4 18 3 19 2 20 1 21 90 22 91 23 92 24
REMARK SMILES IDX 93 25 20 26 21 27 22 28 23 29 24 30 25 31 26 32 27 33 28 34
REMARK SMILES IDX 89 35 29 36 88 37 30 38 31 39 32 40 82 41 33 42 87 43 81 44
REMARK SMILES IDX 83 45 34 46 86 47 80 48 79 49 35 51 67 52 47 53 66 54 48 55
REMARK SMILES IDX 51 56 65 57 84 58 49 59 50 60 64 62 85 63 52 64 36 65 37 66
REMARK SMILES IDX 45 67 38 68 44 69 46 70 43 71 39 72 40 73 41 74 42 75 68 76
REMARK SMILES IDX 69 77 77 78 70 79 76 80 78 81 75 82 71 83 72 84 73 85 74 86
REMARK SMILES IDX 53 87 54 88 62 89 55 90 61 91 63 92 60 93 56 94 57 95 58 96
REMARK SMILES IDX 59 97
REMARK H PARENT 10 11 83 50 51 61
REMARK Flexibility Score: inf
ROOT
ATOM      1  C   UNL     1       6.148  -0.132   4.780  1.00  0.00     0.188 C 
ENDROOT
BRANCH   1   2
ATOM      2  O   UNL     1       7.292  -0.222   5.628  1.00  0.00    -0.376 OA
BRANCH   2   3
ATOM      3  C   UNL     1       7.298  -1.163   6.690  1.00  0.00     0.202 C 
BRANCH   3   4
ATOM      4  C   UNL     1       6.114  -1.185   7.672  1.00  0.00     0.261 C 
BRANCH   4   5
ATOM      5  O   UNL     1       4.802  -1.013   7.081  1.00  0.00    -0.461 OA
BRANCH   5   6
ATOM      6  C   UNL     1       4.050   0.001   7.587  1.00  0.00     0.341 C 
ATOM      7  O   UNL     1       4.397   0.613   8.595  1.00  0.00    -0.249 OA
BRANCH   6   8
ATOM      8  C   UNL     1       2.691   0.256   6.882  1.00  0.00     0.230 C 
ATOM      9  C   UNL     1       1.643  -0.119   7.941  1.00  0.00     0.058 C 
BRANCH   8  10
ATOM     10  N   UNL     1       2.421  -0.613   5.664  1.00  0.00    -0.346 N 
ATOM     11  H   UNL     1       2.854  -1.496   5.710  1.00  0.00     0.163 HD
BRANCH  10  12
ATOM     12  C   UNL     1       1.693  -0.418   4.506  1.00  0.00     0.149 A 
ATOM     13  C   UNL     1       0.772  -1.364   2.580  1.00  0.00     0.234 A 
ATOM     14  C   UNL     1       0.117  -0.185   2.283  1.00  0.00     0.179 A 
ATOM     15  N   UNL     1       1.528  -1.515   3.713  1.00  0.00    -0.193 NA
ATOM     16  N   UNL     1       0.327   0.931   2.988  1.00  0.00    -0.255 NA
ATOM     17  C   UNL     1       1.141   0.786   4.064  1.00  0.00     0.158 A 
BRANCH  13  18
ATOM     18  O   UNL     1       0.565  -2.462   1.775  1.00  0.00    -0.477 OA
BRANCH  18  19
ATOM     19  C   UNL     1       1.329  -2.426   0.549  1.00  0.00     0.231 C 
BRANCH  19  20
ATOM     20  C   UNL     1       0.788  -1.482  -0.542  1.00  0.00     0.038 C 
ATOM     21  C   UNL     1       1.588  -0.186  -0.658  1.00  0.00     0.007 C 
ENDBRANCH  19  20
ENDBRANCH  18  19
ENDBRANCH  13  18
ENDBRANCH  10  12
ENDBRANCH   8  10
BRANCH   8  22
ATOM     22  C   UNL     1       2.708   1.781   6.652  1.00  0.00     0.422 C 
ATOM     23  F   UNL     1       3.433   2.097   5.551  1.00  0.00    -0.168 F 
ATOM     24  F   UNL     1       1.445   2.243   6.460  1.00  0.00    -0.168 F 
ATOM     25  F   UNL     1       3.191   2.512   7.674  1.00  0.00    -0.168 F 
ENDBRANCH   8  22
ENDBRANCH   6   8
ENDBRANCH   5   6
ENDBRANCH   4   5
ENDBRANCH   3   4
ENDBRANCH   2   3
ENDBRANCH   1   2
BRANCH   1  26
ATOM     26  C   UNL     1       5.383  -1.417   4.406  1.00  0.00     0.188 C 
BRANCH  26  27
ATOM     27  O   UNL     1       6.003  -2.604   4.840  1.00  0.00    -0.376 OA
BRANCH  27  28
ATOM     28  C   UNL     1       6.534  -3.463   3.856  1.00  0.00     0.202 C 
BRANCH  28  29
ATOM     29  C   UNL     1       7.396  -2.899   2.710  1.00  0.00     0.261 C 
BRANCH  29  30
ATOM     30  O   UNL     1       7.090  -1.581   2.221  1.00  0.00    -0.460 OA
BRANCH  30  31
ATOM     31  C   UNL     1       6.120  -1.459   1.283  1.00  0.00     0.338 C 
ATOM     32  O   UNL     1       5.457  -2.366   0.799  1.00  0.00    -0.246 OA
BRANCH  31  33
ATOM     33  C   UNL     1       5.849  -0.014   1.084  1.00  0.00     0.060 A 
ATOM     34  C   UNL     1       4.631   0.532   1.517  1.00  0.00     0.016 A 
ATOM     35  C   UNL     1       6.805   0.807   0.484  1.00  0.00     0.016 A 
ATOM     36  C   UNL     1       4.365   1.897   1.347  1.00  0.00     0.010 A 
ATOM     37  C   UNL     1       6.525   2.166   0.291  1.00  0.00     0.010 A 
ATOM     38  C   UNL     1       5.299   2.720   0.707  1.00  0.00    -0.014 A 
BRANCH  38  39
ATOM     39  C   UNL     1       4.967   4.124   0.339  1.00  0.00     0.031 A 
ATOM     40  C   UNL     1       4.551   4.419  -1.078  1.00  0.00     0.074 A 
ATOM     41  C   UNL     1       5.064   5.129   1.231  1.00  0.00     0.049 A 
ATOM     42  N   UNL     1       4.381   5.571  -1.673  1.00  0.00    -0.248 NA
ATOM     43  C   UNL     1       4.297   3.252  -1.938  1.00  0.00     0.031 C 
ATOM     44  C   UNL     1       5.385   4.973   2.648  1.00  0.00     0.029 A 
ATOM     45  N   UNL     1       4.923   6.488   1.068  1.00  0.00    -0.354 N 
ATOM     46  C   UNL     1       4.020   5.272  -2.983  1.00  0.00     0.074 A 
ATOM     47  C   UNL     1       4.010   3.828  -3.096  1.00  0.00     0.031 C 
ATOM     48  C   UNL     1       5.444   6.191   3.218  1.00  0.00     0.029 A 
ATOM     49  C   UNL     1       5.222   7.215   2.199  1.00  0.00     0.049 A 
ATOM     50  H   UNL     1       4.635   6.902   0.222  1.00  0.00     0.167 HD
ATOM     51  C   UNL     1       3.729   6.124  -3.996  1.00  0.00     0.034 A 
ATOM     52  C   UNL     1       5.351   8.548   2.377  1.00  0.00     0.034 A 
ATOM     53  C   UNL     1       3.747   7.561  -3.872  1.00  0.00     0.049 A 
ATOM     54  C   UNL     1       5.132   9.475   1.198  1.00  0.00     0.074 A 
ATOM     55  C   UNL     1       3.444   8.510  -4.834  1.00  0.00     0.029 A 
ATOM     56  N   UNL     1       4.100   8.260  -2.726  1.00  0.00    -0.354 N 
ATOM     57  N   UNL     1       4.787   9.181  -0.035  1.00  0.00    -0.248 NA
ATOM     58  C   UNL     1       5.321  10.914   1.436  1.00  0.00     0.031 C 
ATOM     59  C   UNL     1       3.699   9.776  -4.299  1.00  0.00     0.029 A 
ATOM     60  C   UNL     1       4.069   9.625  -2.973  1.00  0.00     0.049 A 
ATOM     61  H   UNL     1       4.338   7.848  -1.864  1.00  0.00     0.167 HD
ATOM     62  C   UNL     1       4.684  10.401  -0.703  1.00  0.00     0.074 A 
ATOM     63  C   UNL     1       4.982  11.432   0.266  1.00  0.00     0.031 C 
ATOM     64  C   UNL     1       4.371  10.649  -2.001  1.00  0.00     0.034 A 
BRANCH  51  65
ATOM     65  C   UNL     1       3.428   5.531  -5.351  1.00  0.00     0.023 A 
ATOM     66  C   UNL     1       2.281   4.757  -5.588  1.00  0.00     0.031 A 
ATOM     67  C   UNL     1       4.301   5.768  -6.429  1.00  0.00     0.131 A 
ATOM     68  C   UNL     1       2.059   4.211  -6.862  1.00  0.00     0.055 A 
ATOM     69  C   UNL     1       4.037   5.284  -7.710  1.00  0.00     0.041 A 
ATOM     70  F   UNL     1       5.426   6.479  -6.253  1.00  0.00    -0.206 F 
ATOM     71  C   UNL     1       2.914   4.493  -7.931  1.00  0.00     0.022 A 
BRANCH  68  72
ATOM     72  S   UNL     1       0.696   3.035  -7.080  1.00  0.00     0.124 S 
ATOM     73  O   UNL     1       1.054   1.986  -6.128  1.00  0.00    -0.237 OA
ATOM     74  O   UNL     1      -0.472   3.837  -6.736  1.00  0.00    -0.237 OA
ATOM     75  O   UNL     1       0.796   2.649  -8.486  1.00  0.00    -0.744 OA
ENDBRANCH  68  72
ENDBRANCH  51  65
BRANCH  52  76
ATOM     76  C   UNL     1       5.781   9.113   3.695  1.00  0.00     0.023 A 
ATOM     77  C   UNL     1       4.985  10.043   4.382  1.00  0.00     0.031 A 
ATOM     78  C   UNL     1       7.049   8.818   4.229  1.00  0.00     0.131 A 
ATOM     79  C   UNL     1       5.490  10.698   5.518  1.00  0.00     0.055 A 
ATOM     80  C   UNL     1       7.517   9.415   5.401  1.00  0.00     0.041 A 
ATOM     81  F   UNL     1       7.864   7.949   3.608  1.00  0.00    -0.206 F 
ATOM     82  C   UNL     1       6.744  10.377   6.042  1.00  0.00     0.022 A 
BRANCH  79  83
ATOM     83  S   UNL     1       4.545  12.081   6.216  1.00  0.00     0.124 S 
ATOM     84  O   UNL     1       4.419  12.964   5.061  1.00  0.00    -0.237 OA
ATOM     85  O   UNL     1       3.321  11.421   6.656  1.00  0.00    -0.237 OA
ATOM     86  O   UNL     1       5.406  12.575   7.288  1.00  0.00    -0.744 OA
ENDBRANCH  79  83
ENDBRANCH  52  76
BRANCH  64  87
ATOM     87  C   UNL     1       4.282  12.095  -2.433  1.00  0.00     0.023 A 
ATOM     88  C   UNL     1       5.406  12.939  -2.446  1.00  0.00     0.031 A 
ATOM     89  C   UNL     1       3.047  12.639  -2.834  1.00  0.00     0.131 A 
ATOM     90  C   UNL     1       5.264  14.291  -2.794  1.00  0.00     0.055 A 
ATOM     91  C   UNL     1       2.925  13.966  -3.246  1.00  0.00     0.041 A 
ATOM     92  F   UNL     1       1.937  11.883  -2.840  1.00  0.00    -0.206 F 
ATOM     93  C   UNL     1       4.034  14.805  -3.214  1.00  0.00     0.022 A 
BRANCH  90  94
ATOM     94  S   UNL     1       6.688  15.398  -2.598  1.00  0.00     0.124 S 
ATOM     95  O   UNL     1       6.990  15.255  -1.178  1.00  0.00    -0.237 OA
ATOM     96  O   UNL     1       7.662  14.821  -3.518  1.00  0.00    -0.237 OA
ATOM     97  O   UNL     1       6.164  16.705  -2.991  1.00  0.00    -0.744 OA
ENDBRANCH  90  94
ENDBRANCH  64  87
ENDBRANCH  38  39
ENDBRANCH  31  33
ENDBRANCH  30  31
ENDBRANCH  29  30
ENDBRANCH  28  29
ENDBRANCH  27  28
ENDBRANCH  26  27
ENDBRANCH   1  26
TORSDOF 26
