REMARK SMILES O=C(N[C@@H](CS)C(=O)N[C@@H](CO)C(=O)OCCOCCOCCOC(=O)c1ccc(-c2c3nc(c(-c4cc(S(=O)(=O)[O-])ccc4F)c4ccc([nH]4)c(-c4cc(S(=O)(=O)[O-])ccc4F)c4nc(c(-c5cc(S(=O)(=O)[O-])ccc5F)c5ccc2[nH]5)C=C4)C=C3)cc1)c1ccc(F)cc1
REMARK SMILES IDX 19 1 18 2 17 3 16 4 15 5 13 6 14 7 10 8 9 9 7 10 8 11 4 13
REMARK SMILES IDX 3 14 1 15 2 16 90 18 91 19 96 20 92 21 95 22 93 23 94 24
REMARK SMILES IDX 5 25 6 26 11 28 12 29 20 31 21 32 22 33 23 34 24 35 25 36
REMARK SMILES IDX 26 37 27 38 28 39 89 40 29 41 88 42 30 43 31 44 32 45 82 46
REMARK SMILES IDX 33 47 87 48 81 49 83 50 34 51 86 52 80 53 79 54 35 56 67 57
REMARK SMILES IDX 47 58 66 59 48 60 51 61 65 62 84 63 49 64 50 65 64 67 85 68
REMARK SMILES IDX 52 69 36 70 37 71 45 72 38 73 44 74 46 75 43 76 39 77 40 78
REMARK SMILES IDX 41 79 42 80 68 81 69 82 77 83 70 84 76 85 78 86 75 87 71 88
REMARK SMILES IDX 72 89 73 90 74 91 53 92 54 93 62 94 55 95 61 96 63 97 60 98
REMARK SMILES IDX 56 99 57 100 58 101 59 102
REMARK H PARENT 9 12 3 17 6 27 12 30 83 55 51 66
REMARK Flexibility Score: inf
ROOT
ATOM      1  C   UNL     1       6.401  -5.170  -1.831  1.00  0.00     0.188 C 
ENDROOT
BRANCH   1   2
ATOM      2  O   UNL     1       6.662  -6.424  -2.458  1.00  0.00    -0.376 OA
BRANCH   2   3
ATOM      3  C   UNL     1       6.234  -6.599  -3.808  1.00  0.00     0.202 C 
BRANCH   3   4
ATOM      4  C   UNL     1       4.766  -6.288  -4.123  1.00  0.00     0.261 C 
BRANCH   4   5
ATOM      5  O   UNL     1       4.408  -4.901  -3.928  1.00  0.00    -0.462 OA
BRANCH   5   6
ATOM      6  C   UNL     1       3.091  -4.690  -3.633  1.00  0.00     0.331 C 
ATOM      7  O   UNL     1       2.250  -5.583  -3.583  1.00  0.00    -0.250 OA
BRANCH   6   8
ATOM      8  C   UNL     1       2.741  -3.204  -3.383  1.00  0.00     0.218 C 
BRANCH   8   9
ATOM      9  N   UNL     1       3.862  -2.258  -3.447  1.00  0.00    -0.339 N 
ATOM     10  C   UNL     1       4.324  -1.288  -2.623  1.00  0.00     0.244 C 
ATOM     11  O   UNL     1       5.295  -0.649  -3.050  1.00  0.00    -0.273 OA
ATOM     12  H   UNL     1       4.395  -2.349  -4.270  1.00  0.00     0.164 HD
BRANCH  10  13
ATOM     13  C   UNL     1       3.788  -0.970  -1.208  1.00  0.00     0.181 C 
BRANCH  13  14
ATOM     14  N   UNL     1       2.410  -0.492  -1.155  1.00  0.00    -0.339 N 
ATOM     15  O   UNL     1       0.656   0.663  -0.353  1.00  0.00    -0.269 OA
ATOM     16  C   UNL     1       1.870   0.480  -0.341  1.00  0.00     0.251 C 
ATOM     17  H   UNL     1       1.784  -0.921  -1.783  1.00  0.00     0.164 HD
BRANCH  16  18
ATOM     18  C   UNL     1       2.722   1.289   0.566  1.00  0.00     0.040 A 
ATOM     19  C   UNL     1       3.790   2.058   0.078  1.00  0.00     0.017 A 
ATOM     20  C   UNL     1       2.401   1.331   1.930  1.00  0.00     0.017 A 
ATOM     21  C   UNL     1       4.575   2.802   0.963  1.00  0.00     0.040 A 
ATOM     22  C   UNL     1       3.180   2.091   2.808  1.00  0.00     0.040 A 
ATOM     23  C   UNL     1       4.264   2.810   2.318  1.00  0.00     0.123 A 
ATOM     24  F   UNL     1       5.010   3.538   3.158  1.00  0.00    -0.207 F 
ENDBRANCH  16  18
ENDBRANCH  13  14
BRANCH  13  25
ATOM     25  C   UNL     1       4.159  -2.001  -0.130  1.00  0.00     0.101 C 
BRANCH  25  26
ATOM     26  S   UNL     1       3.064  -3.428   0.106  1.00  0.00    -0.177 SA
ATOM     27  H   UNL     1       1.852  -3.001   0.550  1.00  0.00     0.102 HD
ENDBRANCH  25  26
ENDBRANCH  13  25
ENDBRANCH  10  13
ENDBRANCH   8   9
BRANCH   8  28
ATOM     28  C   UNL     1       1.668  -2.800  -4.402  1.00  0.00     0.193 C 
BRANCH  28  29
ATOM     29  O   UNL     1       2.237  -2.599  -5.698  1.00  0.00    -0.394 OA
ATOM     30  H   UNL     1       2.893  -1.886  -5.656  1.00  0.00     0.210 HD
ENDBRANCH  28  29
ENDBRANCH   8  28
ENDBRANCH   6   8
ENDBRANCH   5   6
ENDBRANCH   4   5
ENDBRANCH   3   4
ENDBRANCH   2   3
ENDBRANCH   1   2
BRANCH   1  31
ATOM     31  C   UNL     1       6.867  -3.900  -2.564  1.00  0.00     0.188 C 
BRANCH  31  32
ATOM     32  O   UNL     1       7.567  -4.156  -3.764  1.00  0.00    -0.376 OA
BRANCH  32  33
ATOM     33  C   UNL     1       8.949  -3.841  -3.788  1.00  0.00     0.202 C 
BRANCH  33  34
ATOM     34  C   UNL     1       9.856  -4.467  -2.716  1.00  0.00     0.261 C 
BRANCH  34  35
ATOM     35  O   UNL     1       9.393  -4.340  -1.360  1.00  0.00    -0.460 OA
BRANCH  35  36
ATOM     36  C   UNL     1       9.713  -3.200  -0.703  1.00  0.00     0.338 C 
ATOM     37  O   UNL     1      10.360  -2.266  -1.131  1.00  0.00    -0.246 OA
BRANCH  36  38
ATOM     38  C   UNL     1       8.994  -3.212   0.591  1.00  0.00     0.060 A 
ATOM     39  C   UNL     1       7.869  -2.394   0.740  1.00  0.00     0.016 A 
ATOM     40  C   UNL     1       9.436  -4.001   1.655  1.00  0.00     0.016 A 
ATOM     41  C   UNL     1       7.178  -2.367   1.953  1.00  0.00     0.010 A 
ATOM     42  C   UNL     1       8.755  -3.953   2.881  1.00  0.00     0.010 A 
ATOM     43  C   UNL     1       7.628  -3.126   3.041  1.00  0.00    -0.014 A 
BRANCH  43  44
ATOM     44  C   UNL     1       7.041  -2.888   4.386  1.00  0.00     0.031 A 
ATOM     45  C   UNL     1       7.726  -1.904   5.295  1.00  0.00     0.074 A 
ATOM     46  C   UNL     1       5.891  -3.468   4.775  1.00  0.00     0.049 A 
ATOM     47  N   UNL     1       7.461  -1.588   6.536  1.00  0.00    -0.248 NA
ATOM     48  C   UNL     1       8.860  -1.170   4.713  1.00  0.00     0.031 C 
ATOM     49  C   UNL     1       5.069  -4.355   3.953  1.00  0.00     0.029 A 
ATOM     50  N   UNL     1       5.212  -3.393   5.968  1.00  0.00    -0.354 N 
ATOM     51  C   UNL     1       8.402  -0.627   6.890  1.00  0.00     0.074 A 
ATOM     52  C   UNL     1       9.251  -0.424   5.734  1.00  0.00     0.031 C 
ATOM     53  C   UNL     1       4.002  -4.750   4.671  1.00  0.00     0.029 A 
ATOM     54  C   UNL     1       4.091  -4.191   6.020  1.00  0.00     0.049 A 
ATOM     55  H   UNL     1       5.500  -2.822   6.716  1.00  0.00     0.167 HD
ATOM     56  C   UNL     1       8.550   0.024   8.070  1.00  0.00     0.034 A 
ATOM     57  C   UNL     1       3.261  -4.468   7.049  1.00  0.00     0.034 A 
ATOM     58  C   UNL     1       7.714  -0.202   9.223  1.00  0.00     0.049 A 
ATOM     59  C   UNL     1       3.521  -3.830   8.396  1.00  0.00     0.074 A 
ATOM     60  C   UNL     1       7.803   0.369  10.480  1.00  0.00     0.029 A 
ATOM     61  N   UNL     1       6.637  -1.078   9.262  1.00  0.00    -0.354 N 
ATOM     62  N   UNL     1       4.451  -2.968   8.740  1.00  0.00    -0.248 NA
ATOM     63  C   UNL     1       2.623  -4.210   9.496  1.00  0.00     0.031 C 
ATOM     64  C   UNL     1       6.824  -0.209  11.296  1.00  0.00     0.029 A 
ATOM     65  C   UNL     1       6.072  -1.084  10.529  1.00  0.00     0.049 A 
ATOM     66  H   UNL     1       6.320  -1.617   8.502  1.00  0.00     0.167 HD
ATOM     67  C   UNL     1       4.230  -2.686  10.087  1.00  0.00     0.074 A 
ATOM     68  C   UNL     1       3.071  -3.455  10.488  1.00  0.00     0.031 C 
ATOM     69  C   UNL     1       4.921  -1.864  10.919  1.00  0.00     0.034 A 
BRANCH  56  70
ATOM     70  C   UNL     1       9.718   0.972   8.184  1.00  0.00     0.023 A 
ATOM     71  C   UNL     1       9.798   2.148   7.417  1.00  0.00     0.031 A 
ATOM     72  C   UNL     1      10.798   0.657   9.026  1.00  0.00     0.131 A 
ATOM     73  C   UNL     1      10.967   2.924   7.452  1.00  0.00     0.055 A 
ATOM     74  C   UNL     1      11.924   1.477   9.116  1.00  0.00     0.041 A 
ATOM     75  F   UNL     1      10.788  -0.467   9.759  1.00  0.00    -0.206 F 
ATOM     76  C   UNL     1      12.020   2.610   8.314  1.00  0.00     0.022 A 
BRANCH  73  77
ATOM     77  S   UNL     1      11.157   4.261   6.240  1.00  0.00     0.124 S 
ATOM     78  O   UNL     1      11.022   3.538   4.978  1.00  0.00    -0.237 OA
ATOM     79  O   UNL     1      10.061   5.158   6.585  1.00  0.00    -0.237 OA
ATOM     80  O   UNL     1      12.497   4.780   6.511  1.00  0.00    -0.744 OA
ENDBRANCH  73  77
ENDBRANCH  56  70
BRANCH  57  81
ATOM     81  C   UNL     1       2.150  -5.455   6.891  1.00  0.00     0.023 A 
ATOM     82  C   UNL     1       0.809  -5.084   7.080  1.00  0.00     0.031 A 
ATOM     83  C   UNL     1       2.427  -6.810   6.634  1.00  0.00     0.131 A 
ATOM     84  C   UNL     1      -0.199  -6.064   7.057  1.00  0.00     0.055 A 
ATOM     85  C   UNL     1       1.417  -7.771   6.556  1.00  0.00     0.041 A 
ATOM     86  F   UNL     1       3.692  -7.224   6.458  1.00  0.00    -0.206 F 
ATOM     87  C   UNL     1       0.095  -7.401   6.783  1.00  0.00     0.022 A 
BRANCH  84  88
ATOM     88  S   UNL     1      -1.894  -5.580   7.488  1.00  0.00     0.124 S 
ATOM     89  O   UNL     1      -1.719  -5.059   8.839  1.00  0.00    -0.237 OA
ATOM     90  O   UNL     1      -2.199  -4.596   6.454  1.00  0.00    -0.237 OA
ATOM     91  O   UNL     1      -2.640  -6.833   7.393  1.00  0.00    -0.744 OA
ENDBRANCH  84  88
ENDBRANCH  57  81
BRANCH  69  92
ATOM     92  C   UNL     1       4.406  -1.718  12.332  1.00  0.00     0.023 A 
ATOM     93  C   UNL     1       4.447  -2.781  13.251  1.00  0.00     0.031 A 
ATOM     94  C   UNL     1       3.861  -0.495  12.760  1.00  0.00     0.131 A 
ATOM     95  C   UNL     1       3.905  -2.616  14.536  1.00  0.00     0.055 A 
ATOM     96  C   UNL     1       3.375  -0.319  14.057  1.00  0.00     0.041 A 
ATOM     97  F   UNL     1       3.795   0.554  11.924  1.00  0.00    -0.206 F 
ATOM     98  C   UNL     1       3.384  -1.387  14.949  1.00  0.00     0.022 A 
BRANCH  95  99
ATOM     99  S   UNL     1       3.810  -4.055  15.637  1.00  0.00     0.124 S 
ATOM    100  O   UNL     1       3.018  -4.991  14.845  1.00  0.00    -0.237 OA
ATOM    101  O   UNL     1       5.216  -4.403  15.818  1.00  0.00    -0.237 OA
ATOM    102  O   UNL     1       3.144  -3.533  16.828  1.00  0.00    -0.744 OA
ENDBRANCH  95  99
ENDBRANCH  69  92
ENDBRANCH  43  44
ENDBRANCH  36  38
ENDBRANCH  35  36
ENDBRANCH  34  35
ENDBRANCH  33  34
ENDBRANCH  32  33
ENDBRANCH  31  32
ENDBRANCH   1  31
TORSDOF 28
