REMARK SMILES CCOc1ccc(-n2ncc(C(=O)OCCOCCOCCOC(=O)c3ccc(-c4c5nc(c(-c6cc(S(=O)(=O)[O-])ccc6F)c6ccc([nH]6)c(-c6cc(S(=O)(=O)[O-])ccc6F)c6nc(c(-c7cc(S(=O)(=O)[O-])ccc7F)c7ccc4[nH]7)C=C6)C=C5)cc3)c2C)nn1
REMARK SMILES IDX 18 1 17 2 16 3 15 4 14 5 12 6 13 7 11 8 8 9 9 10 89 11 10 12
REMARK SMILES IDX 90 13 7 14 4 15 5 16 92 17 6 18 91 19 3 20 2 21 1 22 19 23
REMARK SMILES IDX 20 24 21 25 22 26 23 27 24 28 25 29 26 30 27 31 88 32 28 33
REMARK SMILES IDX 87 34 29 35 30 36 31 37 81 38 32 39 86 40 80 41 82 42 33 43
REMARK SMILES IDX 85 44 79 45 78 46 34 48 66 49 46 50 65 51 47 52 50 53 64 54
REMARK SMILES IDX 83 55 48 56 49 57 63 59 84 60 51 61 35 62 36 63 44 64 37 65
REMARK SMILES IDX 43 66 45 67 42 68 38 69 39 70 40 71 41 72 67 73 68 74 76 75
REMARK SMILES IDX 69 76 75 77 77 78 74 79 70 80 71 81 72 82 73 83 52 84 53 85
REMARK SMILES IDX 61 86 54 87 60 88 62 89 59 90 55 91 56 92 57 93 58 94
REMARK H PARENT 82 47 50 58
REMARK Flexibility Score: inf
ROOT
ATOM      1  C   UNL     1       9.359   1.378   6.341  1.00  0.00     0.188 C 
ENDROOT
BRANCH   1   2
ATOM      2  O   UNL     1      10.509   0.648   6.753  1.00  0.00    -0.376 OA
BRANCH   2   3
ATOM      3  C   UNL     1      11.725   0.747   6.028  1.00  0.00     0.202 C 
BRANCH   3   4
ATOM      4  C   UNL     1      11.761   0.501   4.505  1.00  0.00     0.261 C 
BRANCH   4   5
ATOM      5  O   UNL     1      10.717   1.114   3.735  1.00  0.00    -0.460 OA
BRANCH   5   6
ATOM      6  C   UNL     1       9.709   0.280   3.341  1.00  0.00     0.341 C 
ATOM      7  O   UNL     1       9.722  -0.925   3.452  1.00  0.00    -0.246 OA
BRANCH   6   8
ATOM      8  C   UNL     1       8.550   1.014   2.852  1.00  0.00     0.101 A 
ATOM      9  N   UNL     1       6.458   1.624   2.413  1.00  0.00    -0.217 N 
ATOM     10  N   UNL     1       7.245   2.438   1.648  1.00  0.00    -0.174 NA
ATOM     11  C   UNL     1       7.224   0.784   3.208  1.00  0.00     0.058 A 
ATOM     12  C   UNL     1       8.493   2.117   1.986  1.00  0.00     0.151 A 
ATOM     13  C   UNL     1       6.660  -0.179   4.197  1.00  0.00     0.068 C 
BRANCH   9  14
ATOM     14  C   UNL     1       5.042   1.631   2.255  1.00  0.00     0.176 A 
ATOM     15  C   UNL     1       2.375   1.419   1.865  1.00  0.00     0.233 A 
ATOM     16  C   UNL     1       3.151   1.873   0.818  1.00  0.00     0.074 A 
ATOM     17  N   UNL     1       2.889   1.100   3.068  1.00  0.00    -0.110 NA
ATOM     18  C   UNL     1       4.519   1.996   1.020  1.00  0.00     0.057 A 
ATOM     19  N   UNL     1       4.245   1.186   3.257  1.00  0.00    -0.127 NA
BRANCH  15  20
ATOM     20  O   UNL     1       1.015   1.358   1.698  1.00  0.00    -0.477 OA
BRANCH  20  21
ATOM     21  C   UNL     1       0.593   0.016   1.443  1.00  0.00     0.228 C 
ATOM     22  C   UNL     1       0.662  -0.282  -0.049  1.00  0.00     0.049 C 
ENDBRANCH  20  21
ENDBRANCH  15  20
ENDBRANCH   9  14
ENDBRANCH   6   8
ENDBRANCH   5   6
ENDBRANCH   4   5
ENDBRANCH   3   4
ENDBRANCH   2   3
ENDBRANCH   1   2
BRANCH   1  23
ATOM     23  C   UNL     1       9.476   2.796   5.736  1.00  0.00     0.188 C 
BRANCH  23  24
ATOM     24  O   UNL     1      10.806   3.224   5.506  1.00  0.00    -0.376 OA
BRANCH  24  25
ATOM     25  C   UNL     1      11.338   4.262   6.316  1.00  0.00     0.202 C 
BRANCH  25  26
ATOM     26  C   UNL     1      11.326   4.119   7.836  1.00  0.00     0.261 C 
BRANCH  26  27
ATOM     27  O   UNL     1      10.211   3.432   8.369  1.00  0.00    -0.460 OA
BRANCH  27  28
ATOM     28  C   UNL     1       9.079   4.159   8.461  1.00  0.00     0.338 C 
ATOM     29  O   UNL     1       8.841   5.213   7.899  1.00  0.00    -0.246 OA
BRANCH  28  30
ATOM     30  C   UNL     1       8.207   3.506   9.440  1.00  0.00     0.060 A 
ATOM     31  C   UNL     1       6.918   4.019   9.579  1.00  0.00     0.016 A 
ATOM     32  C   UNL     1       8.806   2.691  10.413  1.00  0.00     0.016 A 
ATOM     33  C   UNL     1       6.332   3.944  10.820  1.00  0.00     0.010 A 
ATOM     34  C   UNL     1       8.242   2.656  11.659  1.00  0.00     0.010 A 
ATOM     35  C   UNL     1       7.063   3.369  11.863  1.00  0.00    -0.014 A 
BRANCH  35  36
ATOM     36  C   UNL     1       6.549   3.487  13.205  1.00  0.00     0.031 A 
ATOM     37  C   UNL     1       5.513   2.484  13.502  1.00  0.00     0.074 A 
ATOM     38  C   UNL     1       7.079   4.345  14.095  1.00  0.00     0.049 A 
ATOM     39  N   UNL     1       4.246   2.678  13.644  1.00  0.00    -0.248 NA
ATOM     40  C   UNL     1       5.900   1.067  13.401  1.00  0.00     0.031 C 
ATOM     41  C   UNL     1       8.294   5.152  13.952  1.00  0.00     0.029 A 
ATOM     42  N   UNL     1       6.701   4.583  15.378  1.00  0.00    -0.354 N 
ATOM     43  C   UNL     1       3.723   1.422  13.919  1.00  0.00     0.074 A 
ATOM     44  C   UNL     1       4.708   0.479  13.474  1.00  0.00     0.031 C 
ATOM     45  C   UNL     1       8.673   5.599  15.172  1.00  0.00     0.029 A 
ATOM     46  C   UNL     1       7.671   5.207  16.152  1.00  0.00     0.049 A 
ATOM     47  H   UNL     1       5.816   4.334  15.729  1.00  0.00     0.167 HD
ATOM     48  C   UNL     1       2.684   1.277  14.783  1.00  0.00     0.034 A 
ATOM     49  C   UNL     1       7.687   5.301  17.510  1.00  0.00     0.034 A 
ATOM     50  C   UNL     1       1.988   2.538  14.961  1.00  0.00     0.049 A 
ATOM     51  C   UNL     1       6.295   5.066  17.977  1.00  0.00     0.074 A 
ATOM     52  C   UNL     1       1.375   3.429  14.099  1.00  0.00     0.029 A 
ATOM     53  N   UNL     1       2.194   3.240  16.131  1.00  0.00    -0.354 N 
ATOM     54  N   UNL     1       5.305   5.879  17.724  1.00  0.00    -0.248 NA
ATOM     55  C   UNL     1       5.897   3.699  18.292  1.00  0.00     0.031 C 
ATOM     56  C   UNL     1       1.685   4.721  14.615  1.00  0.00     0.029 A 
ATOM     57  C   UNL     1       2.400   4.557  15.803  1.00  0.00     0.049 A 
ATOM     58  H   UNL     1       2.192   2.863  17.040  1.00  0.00     0.167 HD
ATOM     59  C   UNL     1       4.228   5.058  17.420  1.00  0.00     0.074 A 
ATOM     60  C   UNL     1       4.622   3.731  17.890  1.00  0.00     0.031 C 
ATOM     61  C   UNL     1       3.249   5.464  16.557  1.00  0.00     0.034 A 
BRANCH  48  62
ATOM     62  C   UNL     1       2.571   0.135  15.776  1.00  0.00     0.023 A 
ATOM     63  C   UNL     1       1.489   0.198  16.670  1.00  0.00     0.031 A 
ATOM     64  C   UNL     1       3.570  -0.816  16.099  1.00  0.00     0.131 A 
ATOM     65  C   UNL     1       1.507  -0.516  17.878  1.00  0.00     0.055 A 
ATOM     66  C   UNL     1       3.548  -1.577  17.270  1.00  0.00     0.041 A 
ATOM     67  F   UNL     1       4.664  -1.021  15.361  1.00  0.00    -0.206 F 
ATOM     68  C   UNL     1       2.535  -1.399  18.191  1.00  0.00     0.022 A 
BRANCH  65  69
ATOM     69  S   UNL     1       0.259  -0.104  19.117  1.00  0.00     0.124 S 
ATOM     70  O   UNL     1       0.429   1.341  19.226  1.00  0.00    -0.237 OA
ATOM     71  O   UNL     1      -0.965  -0.565  18.470  1.00  0.00    -0.237 OA
ATOM     72  O   UNL     1       0.678  -0.875  20.285  1.00  0.00    -0.744 OA
ENDBRANCH  65  69
ENDBRANCH  48  62
BRANCH  49  73
ATOM     73  C   UNL     1       8.883   5.234  18.396  1.00  0.00     0.023 A 
ATOM     74  C   UNL     1       8.882   5.706  19.726  1.00  0.00     0.031 A 
ATOM     75  C   UNL     1      10.011   4.479  17.997  1.00  0.00     0.131 A 
ATOM     76  C   UNL     1       9.976   5.428  20.582  1.00  0.00     0.055 A 
ATOM     77  C   UNL     1      11.091   4.217  18.841  1.00  0.00     0.041 A 
ATOM     78  F   UNL     1      10.066   3.895  16.789  1.00  0.00    -0.206 F 
ATOM     79  C   UNL     1      11.074   4.685  20.143  1.00  0.00     0.022 A 
BRANCH  76  80
ATOM     80  S   UNL     1       9.947   5.959  22.326  1.00  0.00     0.124 S 
ATOM     81  O   UNL     1       9.999   7.411  22.212  1.00  0.00    -0.237 OA
ATOM     82  O   UNL     1       8.694   5.388  22.806  1.00  0.00    -0.237 OA
ATOM     83  O   UNL     1      11.151   5.346  22.890  1.00  0.00    -0.744 OA
ENDBRANCH  76  80
ENDBRANCH  49  73
BRANCH  61  84
ATOM     84  C   UNL     1       3.172   6.934  16.193  1.00  0.00     0.023 A 
ATOM     85  C   UNL     1       4.214   7.676  15.591  1.00  0.00     0.031 A 
ATOM     86  C   UNL     1       1.931   7.574  16.361  1.00  0.00     0.131 A 
ATOM     87  C   UNL     1       3.991   9.009  15.194  1.00  0.00     0.055 A 
ATOM     88  C   UNL     1       1.708   8.886  15.947  1.00  0.00     0.041 A 
ATOM     89  F   UNL     1       0.892   6.914  16.901  1.00  0.00    -0.206 F 
ATOM     90  C   UNL     1       2.740   9.611  15.367  1.00  0.00     0.022 A 
BRANCH  87  91
ATOM     91  S   UNL     1       5.332   9.998  14.453  1.00  0.00     0.124 S 
ATOM     92  O   UNL     1       6.463   9.760  15.341  1.00  0.00    -0.237 OA
ATOM     93  O   UNL     1       5.438   9.430  13.112  1.00  0.00    -0.237 OA
ATOM     94  O   UNL     1       4.806  11.365  14.491  1.00  0.00    -0.744 OA
ENDBRANCH  87  91
ENDBRANCH  61  84
ENDBRANCH  35  36
ENDBRANCH  28  30
ENDBRANCH  27  28
ENDBRANCH  26  27
ENDBRANCH  25  26
ENDBRANCH  24  25
ENDBRANCH  23  24
ENDBRANCH   1  23
TORSDOF 23
