REMARK SMILES O=C(OCCOCCOCCOC(=O)c1cn(C[C@@H]2CCS(=O)(=O)C2)c(=O)[nH]c1=O)c1ccc(-c2c3nc(c(-c4cc(S(=O)(=O)[O-])ccc4F)c4ccc([nH]4)c(-c4cc(S(=O)(=O)[O-])ccc4F)c4nc(c(-c5cc(S(=O)(=O)[O-])ccc5F)c5ccc2[nH]5)C=C4)C=C3)cc1
REMARK SMILES IDX 7 1 6 2 5 3 4 4 3 5 2 6 1 7 31 8 32 9 93 10 33 11 92 12
REMARK SMILES IDX 34 13 35 14 36 15 86 16 37 17 91 18 85 19 87 20 38 21 90 22
REMARK SMILES IDX 84 23 83 24 39 26 71 27 51 28 70 29 52 30 55 31 69 32 88 33
REMARK SMILES IDX 53 34 54 35 68 37 89 38 56 39 40 40 41 41 49 42 42 43 48 44
REMARK SMILES IDX 50 45 47 46 43 47 44 48 45 49 46 50 72 51 73 52 81 53 74 54
REMARK SMILES IDX 80 55 82 56 79 57 75 58 76 59 77 60 78 61 57 62 58 63 66 64
REMARK SMILES IDX 59 65 65 66 67 67 64 68 60 69 61 70 62 71 63 72 8 73 9 74
REMARK SMILES IDX 10 75 11 76 12 77 13 78 14 79 15 80 16 81 29 82 17 83 28 84
REMARK SMILES IDX 30 85 26 86 27 88 18 89 19 90 20 91 25 92 21 93 22 94 23 95
REMARK SMILES IDX 24 96
REMARK H PARENT 87 25 55 36 28 87
REMARK Flexibility Score: inf
ROOT
ATOM      1  C   UNL     1       2.967   1.167   1.251  1.00  0.00     0.188 C 
ENDROOT
BRANCH   1   2
ATOM      2  O   UNL     1       4.373   1.162   1.216  1.00  0.00    -0.376 OA
BRANCH   2   3
ATOM      3  C   UNL     1       5.072   0.902   0.019  1.00  0.00     0.202 C 
BRANCH   3   4
ATOM      4  C   UNL     1       4.412   0.432  -1.284  1.00  0.00     0.261 C 
BRANCH   4   5
ATOM      5  O   UNL     1       3.204  -0.363  -1.354  1.00  0.00    -0.460 OA
BRANCH   5   6
ATOM      6  C   UNL     1       2.809  -1.547  -0.834  1.00  0.00     0.338 C 
ATOM      7  O   UNL     1       1.828  -2.123  -1.295  1.00  0.00    -0.246 OA
BRANCH   6   8
ATOM      8  C   UNL     1       3.392  -2.022   0.440  1.00  0.00     0.060 A 
ATOM      9  C   UNL     1       2.517  -2.472   1.445  1.00  0.00     0.016 A 
ATOM     10  C   UNL     1       4.761  -2.033   0.669  1.00  0.00     0.016 A 
ATOM     11  C   UNL     1       3.017  -2.867   2.692  1.00  0.00     0.010 A 
ATOM     12  C   UNL     1       5.255  -2.336   1.937  1.00  0.00     0.010 A 
ATOM     13  C   UNL     1       4.394  -2.785   2.952  1.00  0.00    -0.014 A 
BRANCH  13  14
ATOM     14  C   UNL     1       5.003  -3.533   4.079  1.00  0.00     0.031 A 
ATOM     15  C   UNL     1       5.452  -2.909   5.367  1.00  0.00     0.074 A 
ATOM     16  C   UNL     1       5.308  -4.817   3.810  1.00  0.00     0.049 A 
ATOM     17  N   UNL     1       5.876  -3.507   6.452  1.00  0.00    -0.248 NA
ATOM     18  C   UNL     1       5.465  -1.442   5.456  1.00  0.00     0.031 C 
ATOM     19  C   UNL     1       5.067  -5.477   2.521  1.00  0.00     0.029 A 
ATOM     20  N   UNL     1       5.949  -5.766   4.556  1.00  0.00    -0.354 N 
ATOM     21  C   UNL     1       6.109  -2.505   7.388  1.00  0.00     0.074 A 
ATOM     22  C   UNL     1       5.898  -1.249   6.703  1.00  0.00     0.031 C 
ATOM     23  C   UNL     1       5.620  -6.694   2.544  1.00  0.00     0.029 A 
ATOM     24  C   UNL     1       6.211  -6.918   3.858  1.00  0.00     0.049 A 
ATOM     25  H   UNL     1       6.197  -5.636   5.500  1.00  0.00     0.167 HD
ATOM     26  C   UNL     1       6.420  -2.659   8.700  1.00  0.00     0.034 A 
ATOM     27  C   UNL     1       6.847  -8.042   4.233  1.00  0.00     0.034 A 
ATOM     28  C   UNL     1       6.747  -3.931   9.289  1.00  0.00     0.049 A 
ATOM     29  C   UNL     1       7.239  -8.182   5.673  1.00  0.00     0.074 A 
ATOM     30  C   UNL     1       7.004  -4.209  10.619  1.00  0.00     0.029 A 
ATOM     31  N   UNL     1       6.922  -5.112   8.587  1.00  0.00    -0.354 N 
ATOM     32  N   UNL     1       7.138  -7.300   6.639  1.00  0.00    -0.248 NA
ATOM     33  C   UNL     1       7.774  -9.480   6.093  1.00  0.00     0.031 C 
ATOM     34  C   UNL     1       7.411  -5.540  10.709  1.00  0.00     0.029 A 
ATOM     35  C   UNL     1       7.354  -6.108   9.446  1.00  0.00     0.049 A 
ATOM     36  H   UNL     1       6.764  -5.227   7.622  1.00  0.00     0.167 HD
ATOM     37  C   UNL     1       7.576  -7.943   7.790  1.00  0.00     0.074 A 
ATOM     38  C   UNL     1       7.907  -9.299   7.401  1.00  0.00     0.031 C 
ATOM     39  C   UNL     1       7.697  -7.453   9.050  1.00  0.00     0.034 A 
BRANCH  26  40
ATOM     40  C   UNL     1       6.320  -1.504   9.669  1.00  0.00     0.023 A 
ATOM     41  C   UNL     1       7.447  -0.847  10.191  1.00  0.00     0.031 A 
ATOM     42  C   UNL     1       5.088  -1.297  10.319  1.00  0.00     0.131 A 
ATOM     43  C   UNL     1       7.297   0.015  11.297  1.00  0.00     0.055 A 
ATOM     44  C   UNL     1       4.939  -0.408  11.385  1.00  0.00     0.041 A 
ATOM     45  F   UNL     1       4.008  -2.010   9.964  1.00  0.00    -0.206 F 
ATOM     46  C   UNL     1       6.046   0.264  11.871  1.00  0.00     0.022 A 
BRANCH  43  47
ATOM     47  S   UNL     1       8.734   0.701  12.173  1.00  0.00     0.124 S 
ATOM     48  O   UNL     1       8.653   2.111  11.803  1.00  0.00    -0.237 OA
ATOM     49  O   UNL     1       8.417   0.404  13.568  1.00  0.00    -0.237 OA
ATOM     50  O   UNL     1       9.861  -0.035  11.614  1.00  0.00    -0.744 OA
ENDBRANCH  43  47
ENDBRANCH  26  40
BRANCH  27  51
ATOM     51  C   UNL     1       6.997  -9.128   3.227  1.00  0.00     0.023 A 
ATOM     52  C   UNL     1       7.764  -8.918   2.065  1.00  0.00     0.031 A 
ATOM     53  C   UNL     1       6.219 -10.292   3.311  1.00  0.00     0.131 A 
ATOM     54  C   UNL     1       7.668  -9.821   0.999  1.00  0.00     0.055 A 
ATOM     55  C   UNL     1       6.186 -11.227   2.277  1.00  0.00     0.041 A 
ATOM     56  F   UNL     1       5.447 -10.512   4.386  1.00  0.00    -0.206 F 
ATOM     57  C   UNL     1       6.896 -10.983   1.104  1.00  0.00     0.022 A 
BRANCH  54  58
ATOM     58  S   UNL     1       8.396  -9.429  -0.617  1.00  0.00     0.124 S 
ATOM     59  O   UNL     1       9.316 -10.545  -0.815  1.00  0.00    -0.237 OA
ATOM     60  O   UNL     1       7.218  -9.420  -1.480  1.00  0.00    -0.237 OA
ATOM     61  O   UNL     1       9.020  -8.127  -0.408  1.00  0.00    -0.744 OA
ENDBRANCH  54  58
ENDBRANCH  27  51
BRANCH  39  62
ATOM     62  C   UNL     1       8.259  -8.361  10.115  1.00  0.00     0.023 A 
ATOM     63  C   UNL     1       7.505  -8.656  11.265  1.00  0.00     0.031 A 
ATOM     64  C   UNL     1       9.589  -8.812  10.056  1.00  0.00     0.131 A 
ATOM     65  C   UNL     1       8.100  -9.345  12.328  1.00  0.00     0.055 A 
ATOM     66  C   UNL     1      10.156  -9.558  11.088  1.00  0.00     0.041 A 
ATOM     67  F   UNL     1      10.357  -8.536   8.989  1.00  0.00    -0.206 F 
ATOM     68  C   UNL     1       9.415  -9.812  12.238  1.00  0.00     0.022 A 
BRANCH  65  69
ATOM     69  S   UNL     1       7.232  -9.554  13.906  1.00  0.00     0.124 S 
ATOM     70  O   UNL     1       7.091 -11.006  13.981  1.00  0.00    -0.237 OA
ATOM     71  O   UNL     1       8.175  -8.968  14.855  1.00  0.00    -0.237 OA
ATOM     72  O   UNL     1       5.988  -8.814  13.724  1.00  0.00    -0.744 OA
ENDBRANCH  65  69
ENDBRANCH  39  62
ENDBRANCH  13  14
ENDBRANCH   6   8
ENDBRANCH   5   6
ENDBRANCH   4   5
ENDBRANCH   3   4
ENDBRANCH   2   3
ENDBRANCH   1   2
BRANCH   1  73
ATOM     73  C   UNL     1       2.235   2.500   1.067  1.00  0.00     0.188 C 
BRANCH  73  74
ATOM     74  O   UNL     1       2.942   3.621   0.572  1.00  0.00    -0.376 OA
BRANCH  74  75
ATOM     75  C   UNL     1       4.128   4.032   1.238  1.00  0.00     0.202 C 
BRANCH  75  76
ATOM     76  C   UNL     1       4.232   4.069   2.773  1.00  0.00     0.261 C 
BRANCH  76  77
ATOM     77  O   UNL     1       3.760   2.896   3.452  1.00  0.00    -0.459 OA
BRANCH  77  78
ATOM     78  C   UNL     1       2.717   3.068   4.303  1.00  0.00     0.345 C 
ATOM     79  O   UNL     1       2.184   4.131   4.595  1.00  0.00    -0.246 OA
BRANCH  78  80
ATOM     80  C   UNL     1       2.347   1.774   4.875  1.00  0.00     0.141 A 
ATOM     81  C   UNL     1       2.930   1.403   6.018  1.00  0.00     0.112 A 
ATOM     82  C   UNL     1       1.319   0.885   4.302  1.00  0.00     0.268 A 
ATOM     83  N   UNL     1       2.614   0.208   6.635  1.00  0.00    -0.299 N 
ATOM     84  N   UNL     1       1.270  -0.376   4.827  1.00  0.00    -0.273 N 
ATOM     85  O   UNL     1       0.580   1.212   3.380  1.00  0.00    -0.268 OA
ATOM     86  C   UNL     1       1.853  -0.766   5.998  1.00  0.00     0.328 A 
ATOM     87  H   UNL     1       0.774  -1.058   4.320  1.00  0.00     0.175 HD
ATOM     88  O   UNL     1       1.622  -1.883   6.450  1.00  0.00    -0.248 OA
BRANCH  83  89
ATOM     89  C   UNL     1       3.107  -0.051   7.975  1.00  0.00     0.131 C 
BRANCH  89  90
ATOM     90  C   UNL     1       2.156   0.338   9.124  1.00  0.00     0.025 C 
ATOM     91  C   UNL     1       0.975  -0.618   9.345  1.00  0.00     0.022 C 
ATOM     92  C   UNL     1       1.592   1.755   9.068  1.00  0.00     0.142 C 
ATOM     93  C   UNL     1      -0.221  -0.140   8.537  1.00  0.00     0.137 C 
ATOM     94  S   UNL     1      -0.051   1.625   8.391  1.00  0.00     0.150 S 
ATOM     95  O   UNL     1      -0.016   1.972   6.985  1.00  0.00    -0.229 OA
ATOM     96  O   UNL     1      -0.978   2.262   9.305  1.00  0.00    -0.229 OA
ENDBRANCH  89  90
ENDBRANCH  83  89
ENDBRANCH  78  80
ENDBRANCH  77  78
ENDBRANCH  76  77
ENDBRANCH  75  76
ENDBRANCH  74  75
ENDBRANCH  73  74
ENDBRANCH   1  73
TORSDOF 22
