REMARK SMILES CC[C@@H]1C=CC[C@@H]2C(=O)N(CCCC(=O)OCCOCCOCCOC(=O)c3ccc(-c4c5nc(c(-c6cc(S(=O)(=O)[O-])ccc6F)c6ccc([nH]6)c(-c6cc(S(=O)(=O)[O-])ccc6F)c6nc(c(-c7cc(S(=O)(=O)[O-])ccc7F)c7ccc4[nH]7)C=C6)C=C5)cc3)C(=O)[C@@H]21
REMARK SMILES IDX 20 1 19 2 18 3 17 4 16 5 14 6 15 7 13 8 12 9 11 10 10 11
REMARK SMILES IDX 3 12 4 13 93 14 5 15 7 16 91 17 6 18 8 19 92 20 9 21 2 22
REMARK SMILES IDX 1 23 21 24 22 25 23 26 24 27 25 28 26 29 27 30 28 31 29 32
REMARK SMILES IDX 90 33 30 34 89 35 31 36 32 37 33 38 83 39 34 40 88 41 82 42
REMARK SMILES IDX 84 43 35 44 87 45 81 46 80 47 36 49 68 50 48 51 67 52 49 53
REMARK SMILES IDX 52 54 66 55 85 56 50 57 51 58 65 60 86 61 53 62 37 63 38 64
REMARK SMILES IDX 46 65 39 66 45 67 47 68 44 69 40 70 41 71 42 72 43 73 69 74
REMARK SMILES IDX 70 75 78 76 71 77 77 78 79 79 76 80 72 81 73 82 74 83 75 84
REMARK SMILES IDX 54 85 55 86 63 87 56 88 62 89 64 90 61 91 57 92 58 93 59 94
REMARK SMILES IDX 60 95
REMARK H PARENT 84 48 52 59
REMARK Flexibility Score: inf
ROOT
ATOM      1  C   UNL     1       0.275  -7.492   7.140  1.00  0.00     0.188 C 
ENDROOT
BRANCH   1   2
ATOM      2  O   UNL     1      -1.019  -8.034   7.375  1.00  0.00    -0.376 OA
BRANCH   2   3
ATOM      3  C   UNL     1      -1.987  -7.977   6.329  1.00  0.00     0.202 C 
BRANCH   3   4
ATOM      4  C   UNL     1      -2.216  -6.645   5.595  1.00  0.00     0.261 C 
BRANCH   4   5
ATOM      5  O   UNL     1      -1.033  -6.114   4.971  1.00  0.00    -0.463 OA
BRANCH   5   6
ATOM      6  C   UNL     1      -0.689  -4.840   5.271  1.00  0.00     0.305 C 
ATOM      7  O   UNL     1      -1.305  -4.120   6.050  1.00  0.00    -0.252 OA
BRANCH   6   8
ATOM      8  C   UNL     1       0.621  -4.387   4.640  1.00  0.00     0.124 C 
BRANCH   8   9
ATOM      9  C   UNL     1       1.334  -5.160   3.514  1.00  0.00     0.034 C 
BRANCH   9  10
ATOM     10  C   UNL     1       0.491  -5.856   2.435  1.00  0.00     0.129 C 
BRANCH  10  11
ATOM     11  N   UNL     1      -0.104  -4.863   1.574  1.00  0.00    -0.282 N 
ATOM     12  C   UNL     1       1.151  -2.430  -0.119  1.00  0.00     0.024 C 
ATOM     13  C   UNL     1       1.480  -1.850   1.234  1.00  0.00    -0.027 C 
ATOM     14  C   UNL     1      -0.131  -3.304  -0.127  1.00  0.00     0.099 C 
ATOM     15  C   UNL     1       0.510  -1.453   2.067  1.00  0.00    -0.030 C 
ATOM     16  C   UNL     1      -1.196  -2.917   0.927  1.00  0.00     0.096 C 
ATOM     17  C   UNL     1       0.170  -4.725   0.255  1.00  0.00     0.233 C 
ATOM     18  C   UNL     1      -0.937  -1.628   1.714  1.00  0.00     0.041 C 
ATOM     19  C   UNL     1      -1.140  -4.057   1.910  1.00  0.00     0.233 C 
ATOM     20  O   UNL     1       0.543  -5.592  -0.519  1.00  0.00    -0.274 OA
ATOM     21  O   UNL     1      -1.927  -4.213   2.830  1.00  0.00    -0.274 OA
BRANCH  12  22
ATOM     22  C   UNL     1       2.389  -3.025  -0.838  1.00  0.00     0.005 C 
ATOM     23  C   UNL     1       3.226  -4.069  -0.099  1.00  0.00     0.004 C 
ENDBRANCH  12  22
ENDBRANCH  10  11
ENDBRANCH   9  10
ENDBRANCH   8   9
ENDBRANCH   6   8
ENDBRANCH   5   6
ENDBRANCH   4   5
ENDBRANCH   3   4
ENDBRANCH   2   3
ENDBRANCH   1   2
BRANCH   1  24
ATOM     24  C   UNL     1       0.988  -7.842   5.827  1.00  0.00     0.188 C 
BRANCH  24  25
ATOM     25  O   UNL     1       0.252  -8.648   4.937  1.00  0.00    -0.376 OA
BRANCH  25  26
ATOM     26  C   UNL     1       0.750  -9.934   4.610  1.00  0.00     0.202 C 
BRANCH  26  27
ATOM     27  C   UNL     1       1.194 -10.892   5.731  1.00  0.00     0.261 C 
BRANCH  27  28
ATOM     28  O   UNL     1       2.014 -10.344   6.776  1.00  0.00    -0.460 OA
BRANCH  28  29
ATOM     29  C   UNL     1       3.287 -10.010   6.453  1.00  0.00     0.338 C 
ATOM     30  O   UNL     1       3.820 -10.168   5.364  1.00  0.00    -0.246 OA
BRANCH  29  31
ATOM     31  C   UNL     1       3.817  -9.155   7.546  1.00  0.00     0.060 A 
ATOM     32  C   UNL     1       4.306  -7.878   7.228  1.00  0.00     0.016 A 
ATOM     33  C   UNL     1       3.788  -9.581   8.875  1.00  0.00     0.016 A 
ATOM     34  C   UNL     1       4.806  -7.044   8.230  1.00  0.00     0.010 A 
ATOM     35  C   UNL     1       4.311  -8.754   9.876  1.00  0.00     0.010 A 
ATOM     36  C   UNL     1       4.861  -7.498   9.554  1.00  0.00    -0.014 A 
BRANCH  36  37
ATOM     37  C   UNL     1       5.722  -6.788  10.538  1.00  0.00     0.031 A 
ATOM     38  C   UNL     1       7.107  -7.334  10.774  1.00  0.00     0.074 A 
ATOM     39  C   UNL     1       5.320  -5.675  11.178  1.00  0.00     0.049 A 
ATOM     40  N   UNL     1       8.029  -6.942  11.614  1.00  0.00    -0.248 NA
ATOM     41  C   UNL     1       7.498  -8.487   9.946  1.00  0.00     0.031 C 
ATOM     42  C   UNL     1       4.033  -5.009  10.995  1.00  0.00     0.029 A 
ATOM     43  N   UNL     1       5.963  -4.909  12.121  1.00  0.00    -0.354 N 
ATOM     44  C   UNL     1       9.105  -7.803  11.422  1.00  0.00     0.074 A 
ATOM     45  C   UNL     1       8.701  -8.765  10.420  1.00  0.00     0.031 C 
ATOM     46  C   UNL     1       3.979  -3.936  11.806  1.00  0.00     0.029 A 
ATOM     47  C   UNL     1       5.207  -3.862  12.597  1.00  0.00     0.049 A 
ATOM     48  H   UNL     1       6.880  -5.093  12.429  1.00  0.00     0.167 HD
ATOM     49  C   UNL     1      10.324  -7.789  12.016  1.00  0.00     0.034 A 
ATOM     50  C   UNL     1       5.469  -2.967  13.573  1.00  0.00     0.034 A 
ATOM     51  C   UNL     1      10.711  -6.835  13.025  1.00  0.00     0.049 A 
ATOM     52  C   UNL     1       6.795  -3.035  14.300  1.00  0.00     0.074 A 
ATOM     53  C   UNL     1      11.918  -6.734  13.695  1.00  0.00     0.029 A 
ATOM     54  N   UNL     1       9.898  -5.823  13.519  1.00  0.00    -0.354 N 
ATOM     55  N   UNL     1       7.802  -3.859  14.117  1.00  0.00    -0.248 NA
ATOM     56  C   UNL     1       7.022  -2.043  15.361  1.00  0.00     0.031 C 
ATOM     57  C   UNL     1      11.806  -5.717  14.649  1.00  0.00     0.029 A 
ATOM     58  C   UNL     1      10.566  -5.116  14.507  1.00  0.00     0.049 A 
ATOM     59  H   UNL     1       8.981  -5.636  13.213  1.00  0.00     0.167 HD
ATOM     60  C   UNL     1       8.796  -3.451  15.007  1.00  0.00     0.074 A 
ATOM     61  C   UNL     1       8.271  -2.305  15.716  1.00  0.00     0.031 C 
ATOM     62  C   UNL     1      10.035  -3.971  15.212  1.00  0.00     0.034 A 
BRANCH  49  63
ATOM     63  C   UNL     1      11.297  -8.874  11.623  1.00  0.00     0.023 A 
ATOM     64  C   UNL     1      11.783  -8.995  10.309  1.00  0.00     0.031 A 
ATOM     65  C   UNL     1      11.717  -9.827  12.568  1.00  0.00     0.131 A 
ATOM     66  C   UNL     1      12.596 -10.084   9.960  1.00  0.00     0.055 A 
ATOM     67  C   UNL     1      12.598 -10.857  12.236  1.00  0.00     0.041 A 
ATOM     68  F   UNL     1      11.264  -9.782  13.831  1.00  0.00    -0.206 F 
ATOM     69  C   UNL     1      13.031 -10.999  10.921  1.00  0.00     0.022 A 
BRANCH  66  70
ATOM     70  S   UNL     1      12.947 -10.375   8.204  1.00  0.00     0.124 S 
ATOM     71  O   UNL     1      11.600 -10.510   7.653  1.00  0.00    -0.237 OA
ATOM     72  O   UNL     1      13.675  -9.171   7.823  1.00  0.00    -0.237 OA
ATOM     73  O   UNL     1      13.734 -11.606   8.212  1.00  0.00    -0.744 OA
ENDBRANCH  66  70
ENDBRANCH  49  63
BRANCH  50  74
ATOM     74  C   UNL     1       4.452  -1.945  13.965  1.00  0.00     0.023 A 
ATOM     75  C   UNL     1       4.722  -0.570  13.859  1.00  0.00     0.031 A 
ATOM     76  C   UNL     1       3.223  -2.329  14.533  1.00  0.00     0.131 A 
ATOM     77  C   UNL     1       3.804   0.367  14.363  1.00  0.00     0.055 A 
ATOM     78  C   UNL     1       2.286  -1.392  14.974  1.00  0.00     0.041 A 
ATOM     79  F   UNL     1       2.915  -3.628  14.671  1.00  0.00    -0.206 F 
ATOM     80  C   UNL     1       2.582  -0.035  14.904  1.00  0.00     0.022 A 
BRANCH  77  81
ATOM     81  S   UNL     1       4.282   2.117  14.402  1.00  0.00     0.124 S 
ATOM     82  O   UNL     1       5.494   2.075  15.212  1.00  0.00    -0.237 OA
ATOM     83  O   UNL     1       4.467   2.413  12.986  1.00  0.00    -0.237 OA
ATOM     84  O   UNL     1       3.134   2.769  15.028  1.00  0.00    -0.744 OA
ENDBRANCH  77  81
ENDBRANCH  50  74
BRANCH  62  85
ATOM     85  C   UNL     1      10.936  -3.258  16.195  1.00  0.00     0.023 A 
ATOM     86  C   UNL     1      10.630  -3.166  17.565  1.00  0.00     0.031 A 
ATOM     87  C   UNL     1      12.121  -2.645  15.745  1.00  0.00     0.131 A 
ATOM     88  C   UNL     1      11.458  -2.421  18.419  1.00  0.00     0.055 A 
ATOM     89  C   UNL     1      12.979  -1.969  16.614  1.00  0.00     0.041 A 
ATOM     90  F   UNL     1      12.467  -2.695  14.449  1.00  0.00    -0.206 F 
ATOM     91  C   UNL     1      12.641  -1.839  17.956  1.00  0.00     0.022 A 
BRANCH  88  92
ATOM     92  S   UNL     1      10.908  -2.119  20.122  1.00  0.00     0.124 S 
ATOM     93  O   UNL     1       9.606  -1.494  19.913  1.00  0.00    -0.237 OA
ATOM     94  O   UNL     1      10.886  -3.464  20.686  1.00  0.00    -0.237 OA
ATOM     95  O   UNL     1      11.939  -1.236  20.664  1.00  0.00    -0.744 OA
ENDBRANCH  88  92
ENDBRANCH  62  85
ENDBRANCH  36  37
ENDBRANCH  29  31
ENDBRANCH  28  29
ENDBRANCH  27  28
ENDBRANCH  26  27
ENDBRANCH  25  26
ENDBRANCH  24  25
ENDBRANCH   1  24
TORSDOF 24
