REMARK SMILES C[C@H](NC(=O)C(=O)c1ccccc1)C(=O)OCCOCCOCCOC(=O)c1ccc(-c2c3nc(c(-c4cc(S(=O)(=O)[O-])ccc4F)c4ccc([nH]4)c(-c4cc(S(=O)(=O)[O-])ccc4F)c4nc(c(-c5cc(S(=O)(=O)[O-])ccc5F)c5ccc2[nH]5)C=C4)C=C3)cc1
REMARK SMILES IDX 20 1 19 2 18 3 17 4 16 5 14 6 15 7 2 8 1 9 3 10 4 11 5 13
REMARK SMILES IDX 6 14 7 15 8 16 9 17 13 18 10 19 12 20 11 21 21 22 22 23
REMARK SMILES IDX 23 24 24 25 25 26 26 27 27 28 28 29 29 30 90 31 30 32 89 33
REMARK SMILES IDX 31 34 32 35 33 36 83 37 34 38 88 39 82 40 84 41 35 42 87 43
REMARK SMILES IDX 81 44 80 45 36 47 68 48 48 49 67 50 49 51 52 52 66 53 85 54
REMARK SMILES IDX 50 55 51 56 65 58 86 59 53 60 37 61 38 62 46 63 39 64 45 65
REMARK SMILES IDX 47 66 44 67 40 68 41 69 42 70 43 71 69 72 70 73 78 74 71 75
REMARK SMILES IDX 77 76 79 77 76 78 72 79 73 80 74 81 75 82 54 83 55 84 63 85
REMARK SMILES IDX 56 86 62 87 64 88 61 89 57 90 58 91 59 92 60 93
REMARK H PARENT 3 12 84 46 52 57
REMARK Flexibility Score: inf
ROOT
ATOM      1  C   UNL     1      -2.170   1.711  -0.622  1.00  0.00     0.188 C 
ENDROOT
BRANCH   1   2
ATOM      2  O   UNL     1      -3.507   1.351  -0.949  1.00  0.00    -0.376 OA
BRANCH   2   3
ATOM      3  C   UNL     1      -3.853  -0.028  -1.012  1.00  0.00     0.202 C 
BRANCH   3   4
ATOM      4  C   UNL     1      -2.957  -1.004  -1.802  1.00  0.00     0.261 C 
BRANCH   4   5
ATOM      5  O   UNL     1      -1.546  -0.928  -1.506  1.00  0.00    -0.462 OA
BRANCH   5   6
ATOM      6  C   UNL     1      -0.714  -0.782  -2.577  1.00  0.00     0.328 C 
ATOM      7  O   UNL     1      -1.094  -0.798  -3.745  1.00  0.00    -0.250 OA
BRANCH   6   8
ATOM      8  C   UNL     1       0.730  -0.362  -2.183  1.00  0.00     0.189 C 
ATOM      9  C   UNL     1       1.732  -0.780  -3.253  1.00  0.00     0.043 C 
BRANCH   8  10
ATOM     10  N   UNL     1       1.252  -0.540  -0.819  1.00  0.00    -0.336 N 
ATOM     11  C   UNL     1       1.646  -1.655  -0.129  1.00  0.00     0.293 C 
ATOM     12  H   UNL     1       1.332   0.297  -0.308  1.00  0.00     0.164 HD
ATOM     13  O   UNL     1       2.107  -1.547   1.002  1.00  0.00    -0.265 OA
BRANCH  11  14
ATOM     14  C   UNL     1       1.559  -3.028  -0.782  1.00  0.00     0.250 C 
ATOM     15  O   UNL     1       0.835  -3.237  -1.745  1.00  0.00    -0.283 OA
BRANCH  14  16
ATOM     16  C   UNL     1       2.407  -4.109  -0.249  1.00  0.00     0.028 A 
ATOM     17  C   UNL     1       3.407  -4.646  -1.065  1.00  0.00     0.012 A 
ATOM     18  C   UNL     1       2.164  -4.638   1.022  1.00  0.00     0.012 A 
ATOM     19  C   UNL     1       4.160  -5.728  -0.610  1.00  0.00     0.001 A 
ATOM     20  C   UNL     1       2.911  -5.730   1.465  1.00  0.00     0.001 A 
ATOM     21  C   UNL     1       3.902  -6.278   0.648  1.00  0.00     0.000 A 
ENDBRANCH  14  16
ENDBRANCH  11  14
ENDBRANCH   8  10
ENDBRANCH   6   8
ENDBRANCH   5   6
ENDBRANCH   4   5
ENDBRANCH   3   4
ENDBRANCH   2   3
ENDBRANCH   1   2
BRANCH   1  22
ATOM     22  C   UNL     1      -1.475   1.010   0.562  1.00  0.00     0.188 C 
BRANCH  22  23
ATOM     23  O   UNL     1      -2.227  -0.022   1.150  1.00  0.00    -0.376 OA
BRANCH  23  24
ATOM     24  C   UNL     1      -2.767   0.176   2.441  1.00  0.00     0.202 C 
BRANCH  24  25
ATOM     25  C   UNL     1      -3.405   1.511   2.872  1.00  0.00     0.261 C 
BRANCH  25  26
ATOM     26  O   UNL     1      -2.935   2.716   2.254  1.00  0.00    -0.460 OA
BRANCH  26  27
ATOM     27  C   UNL     1      -1.830   3.290   2.785  1.00  0.00     0.338 C 
ATOM     28  O   UNL     1      -1.158   2.861   3.712  1.00  0.00    -0.246 OA
BRANCH  27  29
ATOM     29  C   UNL     1      -1.445   4.417   1.909  1.00  0.00     0.060 A 
ATOM     30  C   UNL     1      -0.237   4.362   1.196  1.00  0.00     0.016 A 
ATOM     31  C   UNL     1      -2.285   5.524   1.791  1.00  0.00     0.016 A 
ATOM     32  C   UNL     1       0.144   5.428   0.376  1.00  0.00     0.010 A 
ATOM     33  C   UNL     1      -1.890   6.600   0.994  1.00  0.00     0.010 A 
ATOM     34  C   UNL     1      -0.661   6.571   0.306  1.00  0.00    -0.014 A 
BRANCH  34  35
ATOM     35  C   UNL     1      -0.145   7.833  -0.281  1.00  0.00     0.031 A 
ATOM     36  C   UNL     1       0.393   8.872   0.663  1.00  0.00     0.074 A 
ATOM     37  C   UNL     1      -0.195   8.080  -1.601  1.00  0.00     0.049 A 
ATOM     38  N   UNL     1       0.710  10.120   0.441  1.00  0.00    -0.248 NA
ATOM     39  C   UNL     1       0.577   8.437   2.056  1.00  0.00     0.031 C 
ATOM     40  C   UNL     1      -0.632   7.133  -2.623  1.00  0.00     0.029 A 
ATOM     41  N   UNL     1       0.101   9.224  -2.303  1.00  0.00    -0.354 N 
ATOM     42  C   UNL     1       1.106  10.630   1.673  1.00  0.00     0.074 A 
ATOM     43  C   UNL     1       0.958   9.562   2.639  1.00  0.00     0.031 C 
ATOM     44  C   UNL     1      -0.604   7.744  -3.821  1.00  0.00     0.029 A 
ATOM     45  C   UNL     1      -0.204   9.140  -3.641  1.00  0.00     0.049 A 
ATOM     46  H   UNL     1       0.493  10.025  -1.887  1.00  0.00     0.167 HD
ATOM     47  C   UNL     1       1.548  11.877   1.970  1.00  0.00     0.034 A 
ATOM     48  C   UNL     1      -0.208  10.093  -4.598  1.00  0.00     0.034 A 
ATOM     49  C   UNL     1       1.667  12.932   0.994  1.00  0.00     0.049 A 
ATOM     50  C   UNL     1       0.189  11.506  -4.232  1.00  0.00     0.074 A 
ATOM     51  C   UNL     1       2.111  14.230   1.178  1.00  0.00     0.029 A 
ATOM     52  N   UNL     1       1.323  12.818  -0.348  1.00  0.00    -0.354 N 
ATOM     53  N   UNL     1       0.546  11.990  -3.064  1.00  0.00    -0.248 NA
ATOM     54  C   UNL     1       0.182  12.501  -5.314  1.00  0.00     0.031 C 
ATOM     55  C   UNL     1       1.951  14.922  -0.027  1.00  0.00     0.029 A 
ATOM     56  C   UNL     1       1.509  14.030  -0.993  1.00  0.00     0.049 A 
ATOM     57  H   UNL     1       0.994  11.995  -0.777  1.00  0.00     0.167 HD
ATOM     58  C   UNL     1       0.849  13.334  -3.283  1.00  0.00     0.074 A 
ATOM     59  C   UNL     1       0.627  13.583  -4.692  1.00  0.00     0.031 C 
ATOM     60  C   UNL     1       1.286  14.270  -2.401  1.00  0.00     0.034 A 
BRANCH  47  61
ATOM     61  C   UNL     1       1.859  12.173   3.418  1.00  0.00     0.023 A 
ATOM     62  C   UNL     1       2.852  11.470   4.124  1.00  0.00     0.031 A 
ATOM     63  C   UNL     1       1.107  13.130   4.123  1.00  0.00     0.131 A 
ATOM     64  C   UNL     1       2.999  11.665   5.505  1.00  0.00     0.055 A 
ATOM     65  C   UNL     1       1.327  13.389   5.477  1.00  0.00     0.041 A 
ATOM     66  F   UNL     1       0.126  13.814   3.514  1.00  0.00    -0.206 F 
ATOM     67  C   UNL     1       2.264  12.640   6.182  1.00  0.00     0.022 A 
BRANCH  64  68
ATOM     68  S   UNL     1       4.030  10.497   6.436  1.00  0.00     0.124 S 
ATOM     69  O   UNL     1       3.403   9.220   6.101  1.00  0.00    -0.237 OA
ATOM     70  O   UNL     1       5.354  10.725   5.871  1.00  0.00    -0.237 OA
ATOM     71  O   UNL     1       3.860  10.921   7.824  1.00  0.00    -0.744 OA
ENDBRANCH  64  68
ENDBRANCH  47  61
BRANCH  48  72
ATOM     72  C   UNL     1      -0.650   9.763  -5.984  1.00  0.00     0.023 A 
ATOM     73  C   UNL     1       0.234   9.852  -7.070  1.00  0.00     0.031 A 
ATOM     74  C   UNL     1      -1.979   9.384  -6.247  1.00  0.00     0.131 A 
ATOM     75  C   UNL     1      -0.228   9.601  -8.372  1.00  0.00     0.055 A 
ATOM     76  C   UNL     1      -2.421   9.081  -7.536  1.00  0.00     0.041 A 
ATOM     77  F   UNL     1      -2.869   9.290  -5.246  1.00  0.00    -0.206 F 
ATOM     78  C   UNL     1      -1.545   9.199  -8.610  1.00  0.00     0.022 A 
BRANCH  75  79
ATOM     79  S   UNL     1       0.900   9.880  -9.765  1.00  0.00     0.124 S 
ATOM     80  O   UNL     1       1.205  11.299  -9.618  1.00  0.00    -0.237 OA
ATOM     81  O   UNL     1       1.987   8.955  -9.466  1.00  0.00    -0.237 OA
ATOM     82  O   UNL     1       0.092   9.533 -10.932  1.00  0.00    -0.744 OA
ENDBRANCH  75  79
ENDBRANCH  48  72
BRANCH  60  83
ATOM     83  C   UNL     1       1.636  15.637  -2.944  1.00  0.00     0.023 A 
ATOM     84  C   UNL     1       0.670  16.513  -3.469  1.00  0.00     0.031 A 
ATOM     85  C   UNL     1       2.973  16.078  -2.905  1.00  0.00     0.131 A 
ATOM     86  C   UNL     1       1.061  17.765  -3.970  1.00  0.00     0.055 A 
ATOM     87  C   UNL     1       3.345  17.349  -3.345  1.00  0.00     0.041 A 
ATOM     88  F   UNL     1       3.941  15.283  -2.420  1.00  0.00    -0.206 F 
ATOM     89  C   UNL     1       2.388  18.197  -3.891  1.00  0.00     0.022 A 
BRANCH  86  90
ATOM     90  S   UNL     1      -0.174  18.799  -4.806  1.00  0.00     0.124 S 
ATOM     91  O   UNL     1      -0.622  17.924  -5.884  1.00  0.00    -0.237 OA
ATOM     92  O   UNL     1      -1.142  19.051  -3.744  1.00  0.00    -0.237 OA
ATOM     93  O   UNL     1       0.591  19.969  -5.235  1.00  0.00    -0.744 OA
ENDBRANCH  86  90
ENDBRANCH  60  83
ENDBRANCH  34  35
ENDBRANCH  27  29
ENDBRANCH  26  27
ENDBRANCH  25  26
ENDBRANCH  24  25
ENDBRANCH  23  24
ENDBRANCH  22  23
ENDBRANCH   1  22
TORSDOF 23
