REMARK SMILES COc1cc(/C=C/C(=O)c2ccc(OCC(=O)OCCOCCOCCOC(=O)c3ccc(-c4c5nc(c(-c6cc(S(=O)(=O)[O-])ccc6F)c6ccc([nH]6)c(-c6cc(S(=O)(=O)[O-])ccc6F)c6nc(c(-c7cc(S(=O)(=O)[O-])ccc7F)c7ccc4[nH]7)C=C6)C=C5)cc3)cc2)cc2c1OCCO2
REMARK SMILES IDX 21 1 20 2 19 3 18 4 16 5 17 6 15 7 14 8 13 9 10 10 11 11
REMARK SMILES IDX 94 12 12 13 93 14 8 15 9 16 7 17 6 18 5 19 3 20 4 21 97 22
REMARK SMILES IDX 96 23 98 24 95 25 101 26 99 27 100 28 2 29 1 30 22 31 23 32
REMARK SMILES IDX 24 33 25 34 26 35 27 36 28 37 29 38 30 39 31 40 92 41 32 42
REMARK SMILES IDX 91 43 33 44 34 45 35 46 85 47 36 48 90 49 84 50 86 51 37 52
REMARK SMILES IDX 89 53 83 54 82 55 38 57 70 58 50 59 69 60 51 61 54 62 68 63
REMARK SMILES IDX 87 64 52 65 53 66 67 68 88 69 55 70 39 71 40 72 48 73 41 74
REMARK SMILES IDX 47 75 49 76 46 77 42 78 43 79 44 80 45 81 71 82 72 83 80 84
REMARK SMILES IDX 73 85 79 86 81 87 78 88 74 89 75 90 76 91 77 92 56 93 57 94
REMARK SMILES IDX 65 95 58 96 64 97 66 98 63 99 59 100 60 101 61 102 62 103
REMARK H PARENT 86 56 54 67
REMARK Flexibility Score: inf
ROOT
ATOM      1  O   UNL     1      -6.279   1.314  -2.987  1.00  0.00    -0.376 OA
ENDROOT
BRANCH   1   2
ATOM      2  C   UNL     1      -7.154   0.947  -4.050  1.00  0.00     0.202 C 
BRANCH   2   3
ATOM      3  C   UNL     1      -8.323   1.920  -4.264  1.00  0.00     0.261 C 
BRANCH   3   4
ATOM      4  O   UNL     1      -7.848   3.199  -4.752  1.00  0.00    -0.461 OA
BRANCH   4   5
ATOM      5  C   UNL     1      -8.349   4.321  -4.169  1.00  0.00     0.344 C 
ATOM      6  O   UNL     1      -9.338   4.328  -3.443  1.00  0.00    -0.248 OA
BRANCH   5   7
ATOM      7  C   UNL     1      -7.448   5.565  -4.373  1.00  0.00     0.351 C 
BRANCH   7   8
ATOM      8  O   UNL     1      -6.601   5.596  -5.519  1.00  0.00    -0.482 OA
BRANCH   8   9
ATOM      9  C   UNL     1      -5.358   6.180  -5.447  1.00  0.00     0.120 A 
ATOM     10  C   UNL     1      -2.588   6.874  -5.411  1.00  0.00     0.022 A 
ATOM     11  C   UNL     1      -3.172   6.274  -6.536  1.00  0.00     0.016 A 
ATOM     12  C   UNL     1      -3.436   7.261  -4.370  1.00  0.00     0.016 A 
ATOM     13  C   UNL     1      -4.535   5.926  -6.548  1.00  0.00     0.047 A 
ATOM     14  C   UNL     1      -4.820   6.930  -4.399  1.00  0.00     0.047 A 
BRANCH  10  15
ATOM     15  C   UNL     1      -1.084   6.972  -5.400  1.00  0.00     0.185 C 
ATOM     16  O   UNL     1      -0.504   7.333  -6.421  1.00  0.00    -0.289 OA
BRANCH  15  17
ATOM     17  C   UNL     1      -0.309   6.425  -4.225  1.00  0.00     0.053 C 
ATOM     18  C   UNL     1       0.753   5.627  -4.480  1.00  0.00     0.012 C 
BRANCH  18  19
ATOM     19  C   UNL     1       1.488   4.748  -3.535  1.00  0.00    -0.018 A 
ATOM     20  C   UNL     1       1.537   2.570  -2.351  1.00  0.00     0.165 A 
ATOM     21  C   UNL     1       0.910   3.531  -3.161  1.00  0.00     0.058 A 
ATOM     22  C   UNL     1       2.858   2.781  -1.982  1.00  0.00     0.203 A 
ATOM     23  C   UNL     1       3.493   3.964  -2.408  1.00  0.00     0.165 A 
ATOM     24  O   UNL     1       3.516   1.790  -1.299  1.00  0.00    -0.483 OA
ATOM     25  C   UNL     1       2.805   4.957  -3.140  1.00  0.00     0.058 A 
ATOM     26  O   UNL     1       4.832   4.199  -2.185  1.00  0.00    -0.486 OA
ATOM     27  C   UNL     1       4.804   2.194  -0.836  1.00  0.00     0.271 C 
ATOM     28  C   UNL     1       5.528   2.977  -1.913  1.00  0.00     0.271 C 
BRANCH  20  29
ATOM     29  O   UNL     1       0.779   1.457  -2.090  1.00  0.00    -0.493 OA
ATOM     30  C   UNL     1       0.943   0.861  -0.804  1.00  0.00     0.278 C 
ENDBRANCH  20  29
ENDBRANCH  18  19
ENDBRANCH  15  17
ENDBRANCH  10  15
ENDBRANCH   8   9
ENDBRANCH   7   8
ENDBRANCH   5   7
ENDBRANCH   4   5
ENDBRANCH   3   4
ENDBRANCH   2   3
ENDBRANCH   1   2
BRANCH   1  31
ATOM     31  C   UNL     1      -5.534   2.517  -3.168  1.00  0.00     0.188 C 
BRANCH  31  32
ATOM     32  C   UNL     1      -4.957   2.761  -4.568  1.00  0.00     0.188 C 
BRANCH  32  33
ATOM     33  O   UNL     1      -4.213   1.642  -5.033  1.00  0.00    -0.376 OA
BRANCH  33  34
ATOM     34  C   UNL     1      -2.826   1.915  -5.161  1.00  0.00     0.202 C 
BRANCH  34  35
ATOM     35  C   UNL     1      -2.089   1.651  -3.841  1.00  0.00     0.261 C 
BRANCH  35  36
ATOM     36  O   UNL     1      -2.340   2.520  -2.693  1.00  0.00    -0.460 OA
BRANCH  36  37
ATOM     37  C   UNL     1      -2.333   3.847  -2.891  1.00  0.00     0.338 C 
ATOM     38  O   UNL     1      -2.220   4.388  -3.992  1.00  0.00    -0.246 OA
BRANCH  37  39
ATOM     39  C   UNL     1      -2.479   4.686  -1.689  1.00  0.00     0.060 A 
ATOM     40  C   UNL     1      -3.617   5.489  -1.597  1.00  0.00     0.016 A 
ATOM     41  C   UNL     1      -1.400   4.933  -0.836  1.00  0.00     0.016 A 
ATOM     42  C   UNL     1      -3.655   6.569  -0.710  1.00  0.00     0.010 A 
ATOM     43  C   UNL     1      -1.462   5.986   0.095  1.00  0.00     0.010 A 
ATOM     44  C   UNL     1      -2.585   6.826   0.163  1.00  0.00    -0.014 A 
BRANCH  44  45
ATOM     45  C   UNL     1      -2.706   7.884   1.212  1.00  0.00     0.031 A 
ATOM     46  C   UNL     1      -1.813   9.100   1.249  1.00  0.00     0.074 A 
ATOM     47  C   UNL     1      -3.641   7.727   2.172  1.00  0.00     0.049 A 
ATOM     48  N   UNL     1      -1.716  10.023   2.175  1.00  0.00    -0.248 NA
ATOM     49  C   UNL     1      -0.921   9.310   0.101  1.00  0.00     0.031 C 
ATOM     50  C   UNL     1      -4.591   6.614   2.243  1.00  0.00     0.029 A 
ATOM     51  N   UNL     1      -3.945   8.491   3.273  1.00  0.00    -0.354 N 
ATOM     52  C   UNL     1      -0.735  10.912   1.742  1.00  0.00     0.074 A 
ATOM     53  C   UNL     1      -0.271  10.412   0.461  1.00  0.00     0.031 C 
ATOM     54  C   UNL     1      -5.377   6.773   3.316  1.00  0.00     0.029 A 
ATOM     55  C   UNL     1      -4.931   7.944   4.061  1.00  0.00     0.049 A 
ATOM     56  H   UNL     1      -3.501   9.345   3.477  1.00  0.00     0.167 HD
ATOM     57  C   UNL     1      -0.263  12.027   2.358  1.00  0.00     0.034 A 
ATOM     58  C   UNL     1      -5.396   8.297   5.275  1.00  0.00     0.034 A 
ATOM     59  C   UNL     1      -0.740  12.523   3.633  1.00  0.00     0.049 A 
ATOM     60  C   UNL     1      -4.814   9.497   5.965  1.00  0.00     0.074 A 
ATOM     61  C   UNL     1      -0.341  13.659   4.321  1.00  0.00     0.029 A 
ATOM     62  N   UNL     1      -1.710  11.914   4.418  1.00  0.00    -0.354 N 
ATOM     63  N   UNL     1      -3.864  10.303   5.553  1.00  0.00    -0.248 NA
ATOM     64  C   UNL     1      -5.361   9.830   7.285  1.00  0.00     0.031 C 
ATOM     65  C   UNL     1      -1.018  13.700   5.546  1.00  0.00     0.029 A 
ATOM     66  C   UNL     1      -1.894  12.629   5.595  1.00  0.00     0.049 A 
ATOM     67  H   UNL     1      -2.197  11.094   4.176  1.00  0.00     0.167 HD
ATOM     68  C   UNL     1      -3.705  11.245   6.564  1.00  0.00     0.074 A 
ATOM     69  C   UNL     1      -4.673  10.920   7.592  1.00  0.00     0.031 C 
ATOM     70  C   UNL     1      -2.836  12.284   6.633  1.00  0.00     0.034 A 
BRANCH  57  71
ATOM     71  C   UNL     1       0.880  12.769   1.702  1.00  0.00     0.023 A 
ATOM     72  C   UNL     1       0.724  13.481   0.501  1.00  0.00     0.031 A 
ATOM     73  C   UNL     1       2.147  12.789   2.318  1.00  0.00     0.131 A 
ATOM     74  C   UNL     1       1.824  14.148  -0.066  1.00  0.00     0.055 A 
ATOM     75  C   UNL     1       3.220  13.503   1.781  1.00  0.00     0.041 A 
ATOM     76  F   UNL     1       2.359  12.118   3.462  1.00  0.00    -0.206 F 
ATOM     77  C   UNL     1       3.065  14.180   0.577  1.00  0.00     0.022 A 
BRANCH  74  78
ATOM     78  S   UNL     1       1.642  14.893  -1.710  1.00  0.00     0.124 S 
ATOM     79  O   UNL     1       1.224  13.744  -2.510  1.00  0.00    -0.237 OA
ATOM     80  O   UNL     1       0.628  15.915  -1.481  1.00  0.00    -0.237 OA
ATOM     81  O   UNL     1       2.981  15.397  -2.009  1.00  0.00    -0.744 OA
ENDBRANCH  74  78
ENDBRANCH  57  71
BRANCH  58  82
ATOM     82  C   UNL     1      -6.415   7.446   5.950  1.00  0.00     0.023 A 
ATOM     83  C   UNL     1      -7.707   7.924   6.208  1.00  0.00     0.031 A 
ATOM     84  C   UNL     1      -6.098   6.135   6.351  1.00  0.00     0.131 A 
ATOM     85  C   UNL     1      -8.630   7.103   6.873  1.00  0.00     0.055 A 
ATOM     86  C   UNL     1      -7.036   5.304   6.963  1.00  0.00     0.041 A 
ATOM     87  F   UNL     1      -4.874   5.631   6.123  1.00  0.00    -0.206 F 
ATOM     88  C   UNL     1      -8.309   5.792   7.237  1.00  0.00     0.022 A 
BRANCH  85  89
ATOM     89  S   UNL     1     -10.245   7.797   7.317  1.00  0.00     0.124 S 
ATOM     90  O   UNL     1      -9.862   8.940   8.138  1.00  0.00    -0.237 OA
ATOM     91  O   UNL     1     -10.809   8.109   6.008  1.00  0.00    -0.237 OA
ATOM     92  O   UNL     1     -10.900   6.705   8.032  1.00  0.00    -0.744 OA
ENDBRANCH  85  89
ENDBRANCH  58  82
BRANCH  70  93
ATOM     93  C   UNL     1      -2.921  13.153   7.863  1.00  0.00     0.023 A 
ATOM     94  C   UNL     1      -2.544  12.674   9.130  1.00  0.00     0.031 A 
ATOM     95  C   UNL     1      -3.433  14.459   7.774  1.00  0.00     0.131 A 
ATOM     96  C   UNL     1      -2.740  13.474  10.267  1.00  0.00     0.055 A 
ATOM     97  C   UNL     1      -3.576  15.270   8.901  1.00  0.00     0.041 A 
ATOM     98  F   UNL     1      -3.813  14.965   6.590  1.00  0.00    -0.206 F 
ATOM     99  C   UNL     1      -3.242  14.773  10.159  1.00  0.00     0.022 A 
BRANCH  96 100
ATOM    100  S   UNL     1      -2.418  12.758  11.903  1.00  0.00     0.124 S 
ATOM    101  O   UNL     1      -3.329  11.618  11.920  1.00  0.00    -0.237 OA
ATOM    102  O   UNL     1      -0.996  12.438  11.829  1.00  0.00    -0.237 OA
ATOM    103  O   UNL     1      -2.761  13.840  12.824  1.00  0.00    -0.744 OA
ENDBRANCH  96 100
ENDBRANCH  70  93
ENDBRANCH  44  45
ENDBRANCH  37  39
ENDBRANCH  36  37
ENDBRANCH  35  36
ENDBRANCH  34  35
ENDBRANCH  33  34
ENDBRANCH  32  33
ENDBRANCH  31  32
ENDBRANCH   1  31
TORSDOF 26
