REMARK SMILES Cc1ccc([N+](=O)[O-])c(NCc2ccc(C(=O)OCCOCCOCCOC(=O)c3ccc(-c4c5nc(c(-c6cc(S(=O)(=O)[O-])ccc6F)c6ccc([nH]6)c(-c6cc(S(=O)(=O)[O-])ccc6F)c6nc(c(-c7cc(S(=O)(=O)[O-])ccc7F)c7ccc4[nH]7)C=C6)C=C5)cc3)cc2)c1
REMARK SMILES IDX 22 1 21 2 20 3 19 4 18 5 16 6 17 7 15 8 12 9 13 10 94 11
REMARK SMILES IDX 14 12 93 13 11 14 10 15 9 17 1 18 2 19 3 20 95 21 4 22 5 23
REMARK SMILES IDX 6 24 7 25 8 26 23 27 24 28 25 29 26 30 27 31 28 32 29 33
REMARK SMILES IDX 30 34 31 35 92 36 32 37 91 38 33 39 34 40 35 41 85 42 36 43
REMARK SMILES IDX 90 44 84 45 86 46 37 47 89 48 83 49 82 50 38 52 70 53 50 54
REMARK SMILES IDX 69 55 51 56 54 57 68 58 87 59 52 60 53 61 67 63 88 64 55 65
REMARK SMILES IDX 39 66 40 67 48 68 41 69 47 70 49 71 46 72 42 73 43 74 44 75
REMARK SMILES IDX 45 76 71 77 72 78 80 79 73 80 79 81 81 82 78 83 74 84 75 85
REMARK SMILES IDX 76 86 77 87 56 88 57 89 65 90 58 91 64 92 66 93 63 94 59 95
REMARK SMILES IDX 60 96 61 97 62 98
REMARK H PARENT 10 16 86 51 54 62
REMARK Flexibility Score: inf
ROOT
ATOM      1  C   UNL     1      -6.860  10.934  -2.081  1.00  0.00     0.188 C 
ENDROOT
BRANCH   1   2
ATOM      2  O   UNL     1      -5.864  11.184  -1.095  1.00  0.00    -0.376 OA
BRANCH   2   3
ATOM      3  C   UNL     1      -4.470  11.415  -1.234  1.00  0.00     0.202 C 
BRANCH   3   4
ATOM      4  C   UNL     1      -3.098  10.434  -1.155  1.00  0.00     0.261 C 
BRANCH   4   5
ATOM      5  O   UNL     1      -2.712   8.740  -0.765  1.00  0.00    -0.460 OA
BRANCH   5   6
ATOM      6  C   UNL     1      -2.953   7.614   0.089  1.00  0.00     0.338 C 
ATOM      7  O   UNL     1      -3.134   7.537   1.300  1.00  0.00    -0.246 OA
BRANCH   6   8
ATOM      8  C   UNL     1      -3.119   6.231  -0.392  1.00  0.00     0.060 A 
ATOM      9  C   UNL     1      -3.117   3.420  -0.487  1.00  0.00    -0.029 A 
ATOM     10  C   UNL     1      -4.238   4.070   0.023  1.00  0.00     0.006 A 
ATOM     11  C   UNL     1      -2.029   4.192  -0.969  1.00  0.00     0.006 A 
ATOM     12  C   UNL     1      -4.228   5.463   0.089  1.00  0.00     0.016 A 
ATOM     13  C   UNL     1      -2.015   5.585  -0.900  1.00  0.00     0.016 A 
BRANCH   9  14
ATOM     14  C   UNL     1      -3.037   1.906  -0.462  1.00  0.00     0.149 C 
BRANCH  14  15
ATOM     15  N   UNL     1      -1.746   1.540   0.090  1.00  0.00    -0.375 N 
ATOM     16  H   UNL     1      -1.303   2.248   0.611  1.00  0.00     0.161 HD
BRANCH  15  17
ATOM     17  C   UNL     1      -1.043   0.365   0.002  1.00  0.00     0.114 A 
ATOM     18  C   UNL     1       2.730  -0.330   0.018  1.00  0.00     0.044 C 
ATOM     19  C   UNL     1       1.250  -0.568  -0.017  1.00  0.00    -0.049 A 
ATOM     20  C   UNL     1       0.736  -1.861  -0.079  1.00  0.00     0.010 A 
ATOM     21  C   UNL     1       0.360   0.515   0.024  1.00  0.00     0.036 A 
ATOM     22  C   UNL     1      -0.643  -2.054  -0.146  1.00  0.00     0.088 A 
ATOM     23  C   UNL     1      -1.515  -0.946  -0.135  1.00  0.00     0.292 A 
BRANCH  23  24
ATOM     24  N   UNL     1      -2.928  -1.264  -0.189  1.00  0.00     0.064 N 
ATOM     25  O   UNL     1      -3.377  -1.988   0.712  1.00  0.00    -0.258 OA
ATOM     26  O   UNL     1      -3.564  -0.892  -1.184  1.00  0.00    -0.258 OA
ENDBRANCH  23  24
ENDBRANCH  15  17
ENDBRANCH  14  15
ENDBRANCH   9  14
ENDBRANCH   6   8
ENDBRANCH   5   6
ENDBRANCH   4   5
ENDBRANCH   3   4
ENDBRANCH   2   3
ENDBRANCH   1   2
BRANCH   1  27
ATOM     27  C   UNL     1      -6.528  10.919  -3.552  1.00  0.00     0.188 C 
BRANCH  27  28
ATOM     28  O   UNL     1      -5.175  10.545  -3.736  1.00  0.00    -0.376 OA
BRANCH  28  29
ATOM     29  C   UNL     1      -4.734  10.600  -5.074  1.00  0.00     0.202 C 
BRANCH  29  30
ATOM     30  C   UNL     1      -5.413   9.561  -5.983  1.00  0.00     0.261 C 
BRANCH  30  31
ATOM     31  O   UNL     1      -5.169   8.208  -5.527  1.00  0.00    -0.460 OA
BRANCH  31  32
ATOM     32  C   UNL     1      -6.224   7.508  -4.972  1.00  0.00     0.338 C 
ATOM     33  O   UNL     1      -7.168   7.092  -5.629  1.00  0.00    -0.246 OA
BRANCH  32  34
ATOM     34  C   UNL     1      -6.000   7.326  -3.495  1.00  0.00     0.060 A 
ATOM     35  C   UNL     1      -6.938   7.274  -2.454  1.00  0.00     0.016 A 
ATOM     36  C   UNL     1      -4.743   7.574  -3.100  1.00  0.00     0.016 A 
ATOM     37  C   UNL     1      -6.624   7.737  -1.083  1.00  0.00     0.010 A 
ATOM     38  C   UNL     1      -4.657   8.323  -1.931  1.00  0.00     0.010 A 
ATOM     39  C   UNL     1      -5.452   8.432  -0.754  1.00  0.00    -0.014 A 
BRANCH  39  40
ATOM     40  C   UNL     1      -5.168   9.365   0.685  1.00  0.00     0.031 A 
ATOM     41  C   UNL     1      -3.803   9.705   1.682  1.00  0.00     0.074 A 
ATOM     42  C   UNL     1      -6.245   9.978   1.237  1.00  0.00     0.049 A 
ATOM     43  N   UNL     1      -3.790   9.500   2.996  1.00  0.00    -0.248 NA
ATOM     44  C   UNL     1      -2.371  10.033   1.313  1.00  0.00     0.031 C 
ATOM     45  C   UNL     1      -6.281  10.954   2.331  1.00  0.00     0.029 A 
ATOM     46  N   UNL     1      -7.588   9.805   0.912  1.00  0.00    -0.354 N 
ATOM     47  C   UNL     1      -2.450   9.581   3.444  1.00  0.00     0.074 A 
ATOM     48  C   UNL     1      -1.644   9.576   2.312  1.00  0.00     0.031 C 
ATOM     49  C   UNL     1      -7.546  11.060   2.772  1.00  0.00     0.029 A 
ATOM     50  C   UNL     1      -8.331  10.067   2.064  1.00  0.00     0.049 A 
ATOM     51  H   UNL     1      -7.947   9.546   0.033  1.00  0.00     0.167 HD
ATOM     52  C   UNL     1      -1.984   9.947   4.667  1.00  0.00     0.034 A 
ATOM     53  C   UNL     1      -9.075   9.071   2.616  1.00  0.00     0.034 A 
ATOM     54  C   UNL     1      -3.119  10.312   5.451  1.00  0.00     0.049 A 
ATOM     55  C   UNL     1      -8.598   8.753   4.016  1.00  0.00     0.074 A 
ATOM     56  C   UNL     1      -3.833  11.495   5.512  1.00  0.00     0.029 A 
ATOM     57  N   UNL     1      -3.962   9.294   5.831  1.00  0.00    -0.354 N 
ATOM     58  N   UNL     1      -7.420   9.065   4.494  1.00  0.00    -0.248 NA
ATOM     59  C   UNL     1      -9.453   8.121   5.011  1.00  0.00     0.031 C 
ATOM     60  C   UNL     1      -5.171  11.151   5.846  1.00  0.00     0.029 A 
ATOM     61  C   UNL     1      -5.222   9.786   6.075  1.00  0.00     0.049 A 
ATOM     62  H   UNL     1      -3.700   8.349   5.916  1.00  0.00     0.167 HD
ATOM     63  C   UNL     1      -7.343   8.697   5.814  1.00  0.00     0.074 A 
ATOM     64  C   UNL     1      -8.655   8.138   6.091  1.00  0.00     0.031 C 
ATOM     65  C   UNL     1      -6.222   8.871   6.580  1.00  0.00     0.034 A 
BRANCH  52  66
ATOM     66  C   UNL     1      -0.528  10.389   4.876  1.00  0.00     0.023 A 
ATOM     67  C   UNL     1      -0.260  11.509   5.676  1.00  0.00     0.031 A 
ATOM     68  C   UNL     1       0.614   9.829   4.241  1.00  0.00     0.131 A 
ATOM     69  C   UNL     1       1.023  12.100   5.704  1.00  0.00     0.055 A 
ATOM     70  C   UNL     1       1.859  10.480   4.175  1.00  0.00     0.041 A 
ATOM     71  F   UNL     1       0.572   8.617   3.660  1.00  0.00    -0.206 F 
ATOM     72  C   UNL     1       2.064  11.637   4.902  1.00  0.00     0.022 A 
BRANCH  69  73
ATOM     73  S   UNL     1       1.330  13.466   6.854  1.00  0.00     0.124 S 
ATOM     74  O   UNL     1       0.412  14.490   6.370  1.00  0.00    -0.237 OA
ATOM     75  O   UNL     1       1.006  12.858   8.140  1.00  0.00    -0.237 OA
ATOM     76  O   UNL     1       2.748  13.765   6.658  1.00  0.00    -0.744 OA
ENDBRANCH  69  73
ENDBRANCH  52  66
BRANCH  53  77
ATOM     77  C   UNL     1      -9.675   8.143   1.593  1.00  0.00     0.023 A 
ATOM     78  C   UNL     1     -10.377   8.748   0.515  1.00  0.00     0.031 A 
ATOM     79  C   UNL     1      -9.285   6.807   1.429  1.00  0.00     0.131 A 
ATOM     80  C   UNL     1     -10.506   8.099  -0.722  1.00  0.00     0.055 A 
ATOM     81  C   UNL     1      -9.502   6.124   0.216  1.00  0.00     0.041 A 
ATOM     82  F   UNL     1      -8.572   6.181   2.376  1.00  0.00    -0.206 F 
ATOM     83  C   UNL     1     -10.082   6.779  -0.875  1.00  0.00     0.022 A 
BRANCH  80  84
ATOM     84  S   UNL     1     -10.926   9.070  -2.211  1.00  0.00     0.124 S 
ATOM     85  O   UNL     1     -12.287   8.630  -2.492  1.00  0.00    -0.237 OA
ATOM     86  O   UNL     1     -10.784  10.456  -1.770  1.00  0.00    -0.237 OA
ATOM     87  O   UNL     1      -9.910   8.648  -3.172  1.00  0.00    -0.744 OA
ENDBRANCH  80  84
ENDBRANCH  53  77
BRANCH  65  88
ATOM     88  C   UNL     1      -5.934   8.205   7.914  1.00  0.00     0.023 A 
ATOM     89  C   UNL     1      -6.712   7.161   8.411  1.00  0.00     0.031 A 
ATOM     90  C   UNL     1      -4.791   8.534   8.696  1.00  0.00     0.131 A 
ATOM     91  C   UNL     1      -6.432   6.577   9.654  1.00  0.00     0.055 A 
ATOM     92  C   UNL     1      -4.432   7.847   9.857  1.00  0.00     0.041 A 
ATOM     93  F   UNL     1      -3.962   9.539   8.374  1.00  0.00    -0.206 F 
ATOM     94  C   UNL     1      -5.274   6.876  10.363  1.00  0.00     0.022 A 
BRANCH  91  95
ATOM     95  S   UNL     1      -7.717   5.536  10.381  1.00  0.00     0.124 S 
ATOM     96  O   UNL     1      -8.846   6.462  10.443  1.00  0.00    -0.237 OA
ATOM     97  O   UNL     1      -7.837   4.458   9.406  1.00  0.00    -0.237 OA
ATOM     98  O   UNL     1      -7.157   5.153  11.674  1.00  0.00    -0.744 OA
ENDBRANCH  91  95
ENDBRANCH  65  88
ENDBRANCH  39  40
ENDBRANCH  32  34
ENDBRANCH  31  32
ENDBRANCH  30  31
ENDBRANCH  29  30
ENDBRANCH  28  29
ENDBRANCH  27  28
ENDBRANCH   1  27
TORSDOF 24
