REMARK SMILES O=C(COC1CC[NH+](Cc2nccs2)CC1)OCCOCCOCCOC(=O)c1ccc(-c2c3nc(c(-c4cc(S(=O)(=O)[O-])ccc4F)c4ccc([nH]4)c(-c4cc(S(=O)(=O)[O-])ccc4F)c4nc(c(-c5cc(S(=O)(=O)[O-])ccc5F)c5ccc2[nH]5)C=C4)C=C3)cc1
REMARK SMILES IDX 21 1 20 2 19 3 18 4 17 5 2 6 1 7 3 8 4 9 5 10 6 11 16 12
REMARK SMILES IDX 7 13 15 14 8 15 9 17 10 18 11 19 14 20 12 21 13 22 22 23
REMARK SMILES IDX 23 24 24 25 25 26 26 27 27 28 28 29 29 30 30 31 91 32 31 33
REMARK SMILES IDX 90 34 32 35 33 36 34 37 84 38 35 39 89 40 83 41 85 42 36 43
REMARK SMILES IDX 88 44 82 45 81 46 37 48 69 49 49 50 68 51 50 52 53 53 67 54
REMARK SMILES IDX 86 55 51 56 52 57 66 59 87 60 54 61 38 62 39 63 47 64 40 65
REMARK SMILES IDX 46 66 48 67 45 68 41 69 42 70 43 71 44 72 70 73 71 74 79 75
REMARK SMILES IDX 72 76 78 77 80 78 77 79 73 80 74 81 75 82 76 83 55 84 56 85
REMARK SMILES IDX 64 86 57 87 63 88 65 89 62 90 58 91 59 92 60 93 61 94
REMARK H PARENT 8 16 85 47 53 58
REMARK Flexibility Score: inf
ROOT
ATOM      1  C   UNL     1       3.273   1.680   1.393  1.00  0.00     0.188 C 
ENDROOT
BRANCH   1   2
ATOM      2  O   UNL     1       4.389   1.667   0.513  1.00  0.00    -0.376 OA
BRANCH   2   3
ATOM      3  C   UNL     1       4.927   0.379   0.259  1.00  0.00     0.202 C 
BRANCH   3   4
ATOM      4  C   UNL     1       4.484  -0.056  -1.135  1.00  0.00     0.261 C 
BRANCH   4   5
ATOM      5  O   UNL     1       3.068   0.099  -1.390  1.00  0.00    -0.462 OA
BRANCH   5   6
ATOM      6  C   UNL     1       2.073  -0.629  -0.839  1.00  0.00     0.332 C 
ATOM      7  O   UNL     1       0.901  -0.395  -1.127  1.00  0.00    -0.250 OA
BRANCH   6   8
ATOM      8  C   UNL     1       2.433  -1.718   0.157  1.00  0.00     0.283 C 
BRANCH   8   9
ATOM      9  O   UNL     1       3.327  -2.681  -0.370  1.00  0.00    -0.366 OA
BRANCH   9  10
ATOM     10  C   UNL     1       2.637  -3.745  -1.039  1.00  0.00     0.130 C 
ATOM     11  C   UNL     1       2.213  -4.804  -0.021  1.00  0.00     0.093 C 
ATOM     12  C   UNL     1       3.590  -4.345  -2.068  1.00  0.00     0.093 C 
ATOM     13  C   UNL     1       3.434  -5.486   0.597  1.00  0.00     0.265 C 
ATOM     14  C   UNL     1       4.757  -5.066  -1.394  1.00  0.00     0.265 C 
ATOM     15  N   UNL     1       4.271  -6.081  -0.455  1.00  0.00    -0.329 N 
ATOM     16  H   UNL     1       3.684  -6.717  -0.995  1.00  0.00     0.348 HD
BRANCH  15  17
ATOM     17  C   UNL     1       5.362  -6.901   0.114  1.00  0.00     0.331 C 
BRANCH  17  18
ATOM     18  C   UNL     1       6.450  -6.158   0.857  1.00  0.00     0.147 A 
ATOM     19  N   UNL     1       6.308  -5.598   2.043  1.00  0.00    -0.244 NA
ATOM     20  S   UNL     1       8.025  -6.011   0.167  1.00  0.00    -0.122 S 
ATOM     21  C   UNL     1       7.489  -5.003   2.430  1.00  0.00     0.123 A 
ATOM     22  C   UNL     1       8.533  -5.122   1.540  1.00  0.00     0.087 A 
ENDBRANCH  17  18
ENDBRANCH  15  17
ENDBRANCH   9  10
ENDBRANCH   8   9
ENDBRANCH   6   8
ENDBRANCH   5   6
ENDBRANCH   4   5
ENDBRANCH   3   4
ENDBRANCH   2   3
ENDBRANCH   1   2
BRANCH   1  23
ATOM     23  C   UNL     1       2.466   2.976   1.256  1.00  0.00     0.188 C 
BRANCH  23  24
ATOM     24  O   UNL     1       3.141   4.207   1.023  1.00  0.00    -0.376 OA
BRANCH  24  25
ATOM     25  C   UNL     1       4.458   4.389   1.518  1.00  0.00     0.202 C 
BRANCH  25  26
ATOM     26  C   UNL     1       4.616   4.521   3.035  1.00  0.00     0.261 C 
BRANCH  26  27
ATOM     27  O   UNL     1       4.222   3.351   3.777  1.00  0.00    -0.460 OA
BRANCH  27  28
ATOM     28  C   UNL     1       3.062   3.488   4.469  1.00  0.00     0.338 C 
ATOM     29  O   UNL     1       2.349   4.475   4.501  1.00  0.00    -0.246 OA
BRANCH  28  30
ATOM     30  C   UNL     1       2.667   2.220   5.122  1.00  0.00     0.060 A 
ATOM     31  C   UNL     1       1.365   1.756   4.896  1.00  0.00     0.016 A 
ATOM     32  C   UNL     1       3.477   1.605   6.080  1.00  0.00     0.016 A 
ATOM     33  C   UNL     1       0.835   0.737   5.690  1.00  0.00     0.010 A 
ATOM     34  C   UNL     1       2.939   0.589   6.885  1.00  0.00     0.010 A 
ATOM     35  C   UNL     1       1.595   0.195   6.735  1.00  0.00    -0.014 A 
BRANCH  35  36
ATOM     36  C   UNL     1       0.896  -0.564   7.810  1.00  0.00     0.031 A 
ATOM     37  C   UNL     1       0.461   0.185   9.047  1.00  0.00     0.074 A 
ATOM     38  C   UNL     1       0.588  -1.867   7.678  1.00  0.00     0.049 A 
ATOM     39  N   UNL     1      -0.182  -0.246  10.103  1.00  0.00    -0.248 NA
ATOM     40  C   UNL     1       0.803   1.615   9.095  1.00  0.00     0.031 C 
ATOM     41  C   UNL     1       0.904  -2.699   6.519  1.00  0.00     0.029 A 
ATOM     42  N   UNL     1      -0.069  -2.718   8.534  1.00  0.00    -0.354 N 
ATOM     43  C   UNL     1      -0.320   0.857  10.940  1.00  0.00     0.074 A 
ATOM     44  C   UNL     1       0.344   1.964  10.286  1.00  0.00     0.031 C 
ATOM     45  C   UNL     1       0.442  -3.944   6.739  1.00  0.00     0.029 A 
ATOM     46  C   UNL     1      -0.180  -4.005   8.062  1.00  0.00     0.049 A 
ATOM     47  H   UNL     1      -0.427  -2.433   9.406  1.00  0.00     0.167 HD
ATOM     48  C   UNL     1      -0.951   0.948  12.138  1.00  0.00     0.034 A 
ATOM     49  C   UNL     1      -0.711  -5.106   8.634  1.00  0.00     0.034 A 
ATOM     50  C   UNL     1      -1.606  -0.158  12.792  1.00  0.00     0.049 A 
ATOM     51  C   UNL     1      -1.343  -5.000  10.004  1.00  0.00     0.074 A 
ATOM     52  C   UNL     1      -2.285  -0.168  13.999  1.00  0.00     0.029 A 
ATOM     53  N   UNL     1      -1.656  -1.456  12.301  1.00  0.00    -0.354 N 
ATOM     54  N   UNL     1      -1.480  -3.947  10.777  1.00  0.00    -0.248 NA
ATOM     55  C   UNL     1      -1.904  -6.234  10.571  1.00  0.00     0.031 C 
ATOM     56  C   UNL     1      -2.683  -1.482  14.270  1.00  0.00     0.029 A 
ATOM     57  C   UNL     1      -2.324  -2.279  13.196  1.00  0.00     0.049 A 
ATOM     58  H   UNL     1      -1.273  -1.750  11.443  1.00  0.00     0.167 HD
ATOM     59  C   UNL     1      -2.181  -4.387  11.899  1.00  0.00     0.074 A 
ATOM     60  C   UNL     1      -2.443  -5.796  11.699  1.00  0.00     0.031 C 
ATOM     61  C   UNL     1      -2.580  -3.686  12.992  1.00  0.00     0.034 A 
BRANCH  48  62
ATOM     62  C   UNL     1      -0.907   2.285  12.839  1.00  0.00     0.023 A 
ATOM     63  C   UNL     1      -1.524   3.428  12.300  1.00  0.00     0.031 A 
ATOM     64  C   UNL     1      -0.200   2.427  14.046  1.00  0.00     0.131 A 
ATOM     65  C   UNL     1      -1.357   4.674  12.924  1.00  0.00     0.055 A 
ATOM     66  C   UNL     1      -0.105   3.654  14.705  1.00  0.00     0.041 A 
ATOM     67  F   UNL     1       0.429   1.376  14.598  1.00  0.00    -0.206 F 
ATOM     68  C   UNL     1      -0.672   4.790  14.136  1.00  0.00     0.022 A 
BRANCH  65  69
ATOM     69  S   UNL     1      -1.918   6.163  12.054  1.00  0.00     0.124 S 
ATOM     70  O   UNL     1      -1.160   6.080  10.808  1.00  0.00    -0.237 OA
ATOM     71  O   UNL     1      -3.355   5.942  11.945  1.00  0.00    -0.237 OA
ATOM     72  O   UNL     1      -1.519   7.251  12.945  1.00  0.00    -0.744 OA
ENDBRANCH  65  69
ENDBRANCH  48  62
BRANCH  49  73
ATOM     73  C   UNL     1      -0.655  -6.425   7.939  1.00  0.00     0.023 A 
ATOM     74  C   UNL     1      -1.827  -7.091   7.546  1.00  0.00     0.031 A 
ATOM     75  C   UNL     1       0.575  -7.074   7.730  1.00  0.00     0.131 A 
ATOM     76  C   UNL     1      -1.748  -8.387   7.012  1.00  0.00     0.055 A 
ATOM     77  C   UNL     1       0.651  -8.341   7.151  1.00  0.00     0.041 A 
ATOM     78  F   UNL     1       1.725  -6.482   8.091  1.00  0.00    -0.206 F 
ATOM     79  C   UNL     1      -0.517  -9.012   6.801  1.00  0.00     0.022 A 
BRANCH  76  80
ATOM     80  S   UNL     1      -3.289  -9.285   6.676  1.00  0.00     0.124 S 
ATOM     81  O   UNL     1      -3.907  -9.318   7.996  1.00  0.00    -0.237 OA
ATOM     82  O   UNL     1      -3.930  -8.424   5.687  1.00  0.00    -0.237 OA
ATOM     83  O   UNL     1      -2.827 -10.575   6.169  1.00  0.00    -0.744 OA
ENDBRANCH  76  80
ENDBRANCH  49  73
BRANCH  61  84
ATOM     84  C   UNL     1      -3.400  -4.424  14.026  1.00  0.00     0.023 A 
ATOM     85  C   UNL     1      -2.865  -5.473  14.794  1.00  0.00     0.031 A 
ATOM     86  C   UNL     1      -4.749  -4.080  14.230  1.00  0.00     0.131 A 
ATOM     87  C   UNL     1      -3.690  -6.181  15.683  1.00  0.00     0.055 A 
ATOM     88  C   UNL     1      -5.548  -4.748  15.159  1.00  0.00     0.041 A 
ATOM     89  F   UNL     1      -5.315  -3.087  13.525  1.00  0.00    -0.206 F 
ATOM     90  C   UNL     1      -5.024  -5.815  15.881  1.00  0.00     0.022 A 
BRANCH  87  91
ATOM     91  S   UNL     1      -3.025  -7.657  16.504  1.00  0.00     0.124 S 
ATOM     92  O   UNL     1      -2.584  -8.464  15.371  1.00  0.00    -0.237 OA
ATOM     93  O   UNL     1      -1.967  -7.099  17.339  1.00  0.00    -0.237 OA
ATOM     94  O   UNL     1      -4.174  -8.191  17.234  1.00  0.00    -0.744 OA
ENDBRANCH  87  91
ENDBRANCH  61  84
ENDBRANCH  35  36
ENDBRANCH  28  30
ENDBRANCH  27  28
ENDBRANCH  26  27
ENDBRANCH  25  26
ENDBRANCH  24  25
ENDBRANCH  23  24
ENDBRANCH   1  23
TORSDOF 24
