REMARK SMILES COc1cccc(-c2c(C(=O)OCCOCCOCCOC(=O)c3ccc(-c4c5nc(c(-c6cc(S(=O)(=O)[O-])ccc6F)c6ccc([nH]6)c(-c6cc(S(=O)(=O)[O-])ccc6F)c6nc(c(-c7cc(S(=O)(=O)[O-])ccc7F)c7ccc4[nH]7)C=C6)C=C5)cc3)nnn2-c2ccc(OC(F)(F)F)cc2)c1
REMARK SMILES IDX 16 1 15 2 14 3 13 4 12 5 10 6 11 7 9 8 8 9 89 10 87 11 88 12
REMARK SMILES IDX 7 13 3 14 4 15 101 16 5 17 6 18 2 19 1 20 90 21 91 22 100 23
REMARK SMILES IDX 92 24 99 25 93 26 94 27 95 28 96 29 97 30 98 31 17 32 18 33
REMARK SMILES IDX 19 34 20 35 21 36 22 37 23 38 24 39 25 40 86 41 26 42 85 43
REMARK SMILES IDX 27 44 28 45 29 46 79 47 30 48 84 49 78 50 80 51 31 52 83 53
REMARK SMILES IDX 77 54 76 55 32 57 64 58 44 59 63 60 45 61 48 62 62 63 81 64
REMARK SMILES IDX 46 65 47 66 61 68 82 69 49 70 33 71 34 72 42 73 35 74 41 75
REMARK SMILES IDX 43 76 40 77 36 78 37 79 38 80 39 81 65 82 66 83 74 84 67 85
REMARK SMILES IDX 73 86 75 87 72 88 68 89 69 90 70 91 71 92 50 93 51 94 59 95
REMARK SMILES IDX 52 96 58 97 60 98 57 99 53 100 54 101 55 102 56 103
REMARK H PARENT 80 56 48 67
REMARK Flexibility Score: inf
ROOT
ATOM      1  C   UNL     1       4.938   3.036  -6.077  1.00  0.00     0.188 C 
ENDROOT
BRANCH   1   2
ATOM      2  O   UNL     1       4.244   3.733  -7.097  1.00  0.00    -0.376 OA
BRANCH   2   3
ATOM      3  C   UNL     1       2.946   3.332  -7.503  1.00  0.00     0.202 C 
BRANCH   3   4
ATOM      4  C   UNL     1       2.533   1.852  -7.641  1.00  0.00     0.261 C 
BRANCH   4   5
ATOM      5  O   UNL     1       2.923   0.983  -6.570  1.00  0.00    -0.458 OA
BRANCH   5   6
ATOM      6  C   UNL     1       3.880   0.057  -6.851  1.00  0.00     0.361 C 
ATOM      7  O   UNL     1       4.287  -0.191  -7.986  1.00  0.00    -0.244 OA
BRANCH   6   8
ATOM      8  C   UNL     1       4.472  -0.537  -5.663  1.00  0.00     0.198 A 
ATOM      9  C   UNL     1       3.878  -1.036  -4.507  1.00  0.00     0.109 A 
ATOM     10  N   UNL     1       4.972  -1.537  -3.801  1.00  0.00    -0.212 N 
ATOM     11  N   UNL     1       5.842  -0.558  -5.509  1.00  0.00    -0.122 NA
ATOM     12  N   UNL     1       6.121  -1.047  -4.311  1.00  0.00    -0.061 NA
BRANCH   9  13
ATOM     13  C   UNL     1       2.490  -1.117  -4.043  1.00  0.00     0.007 A 
ATOM     14  C   UNL     1       0.867  -1.045  -2.220  1.00  0.00     0.119 A 
ATOM     15  C   UNL     1      -0.120  -1.492  -3.098  1.00  0.00     0.046 A 
ATOM     16  C   UNL     1       2.166  -0.848  -2.695  1.00  0.00     0.056 A 
ATOM     17  C   UNL     1       0.175  -1.709  -4.443  1.00  0.00     0.005 A 
ATOM     18  C   UNL     1       1.475  -1.524  -4.914  1.00  0.00     0.011 A 
BRANCH  14  19
ATOM     19  O   UNL     1       0.467  -0.917  -0.918  1.00  0.00    -0.497 OA
ATOM     20  C   UNL     1       1.133   0.081  -0.151  1.00  0.00     0.278 C 
ENDBRANCH  14  19
ENDBRANCH   9  13
BRANCH  10  21
ATOM     21  C   UNL     1       5.009  -2.565  -2.829  1.00  0.00     0.067 A 
ATOM     22  C   UNL     1       5.949  -2.534  -1.797  1.00  0.00     0.032 A 
ATOM     23  C   UNL     1       4.137  -3.653  -2.951  1.00  0.00     0.032 A 
ATOM     24  C   UNL     1       5.965  -3.570  -0.857  1.00  0.00     0.049 A 
ATOM     25  C   UNL     1       4.193  -4.704  -2.035  1.00  0.00     0.049 A 
ATOM     26  C   UNL     1       5.093  -4.662  -0.971  1.00  0.00     0.129 A 
BRANCH  26  27
ATOM     27  O   UNL     1       5.223  -5.607   0.006  1.00  0.00    -0.406 OA
BRANCH  27  28
ATOM     28  C   UNL     1       4.389  -6.751  -0.077  1.00  0.00     0.573 C 
ATOM     29  F   UNL     1       3.081  -6.413  -0.048  1.00  0.00    -0.132 F 
ATOM     30  F   UNL     1       4.644  -7.460  -1.198  1.00  0.00    -0.132 F 
ATOM     31  F   UNL     1       4.635  -7.550   0.986  1.00  0.00    -0.132 F 
ENDBRANCH  27  28
ENDBRANCH  26  27
ENDBRANCH  10  21
ENDBRANCH   6   8
ENDBRANCH   5   6
ENDBRANCH   4   5
ENDBRANCH   3   4
ENDBRANCH   2   3
ENDBRANCH   1   2
BRANCH   1  32
ATOM     32  C   UNL     1       4.284   2.774  -4.703  1.00  0.00     0.188 C 
BRANCH  32  33
ATOM     33  O   UNL     1       2.876   2.800  -4.636  1.00  0.00    -0.376 OA
BRANCH  33  34
ATOM     34  C   UNL     1       2.129   3.960  -4.306  1.00  0.00     0.202 C 
BRANCH  34  35
ATOM     35  C   UNL     1       2.659   5.392  -4.289  1.00  0.00     0.261 C 
BRANCH  35  36
ATOM     36  O   UNL     1       4.019   5.555  -4.613  1.00  0.00    -0.460 OA
BRANCH  36  37
ATOM     37  C   UNL     1       4.822   5.504  -3.531  1.00  0.00     0.338 C 
ATOM     38  O   UNL     1       4.540   5.064  -2.427  1.00  0.00    -0.246 OA
BRANCH  37  39
ATOM     39  C   UNL     1       6.087   6.152  -3.861  1.00  0.00     0.060 A 
ATOM     40  C   UNL     1       7.116   5.994  -2.934  1.00  0.00     0.016 A 
ATOM     41  C   UNL     1       6.054   7.193  -4.797  1.00  0.00     0.016 A 
ATOM     42  C   UNL     1       7.963   7.056  -2.747  1.00  0.00     0.010 A 
ATOM     43  C   UNL     1       6.881   8.261  -4.589  1.00  0.00     0.010 A 
ATOM     44  C   UNL     1       7.747   8.215  -3.499  1.00  0.00    -0.014 A 
BRANCH  44  45
ATOM     45  C   UNL     1       8.551   9.375  -3.205  1.00  0.00     0.031 A 
ATOM     46  C   UNL     1       9.927   9.206  -3.708  1.00  0.00     0.074 A 
ATOM     47  C   UNL     1       8.039  10.491  -2.654  1.00  0.00     0.049 A 
ATOM     48  N   UNL     1      10.994   9.005  -3.011  1.00  0.00    -0.248 NA
ATOM     49  C   UNL     1      10.102   8.969  -5.154  1.00  0.00     0.031 C 
ATOM     50  C   UNL     1       6.640  10.808  -2.360  1.00  0.00     0.029 A 
ATOM     51  N   UNL     1       8.677  11.644  -2.331  1.00  0.00    -0.354 N 
ATOM     52  C   UNL     1      12.015   8.918  -3.946  1.00  0.00     0.074 A 
ATOM     53  C   UNL     1      11.385   8.615  -5.200  1.00  0.00     0.031 C 
ATOM     54  C   UNL     1       6.522  12.140  -2.144  1.00  0.00     0.029 A 
ATOM     55  C   UNL     1       7.843  12.749  -2.178  1.00  0.00     0.049 A 
ATOM     56  H   UNL     1       9.653  11.695  -2.214  1.00  0.00     0.167 HD
ATOM     57  C   UNL     1      13.236   9.450  -3.678  1.00  0.00     0.034 A 
ATOM     58  C   UNL     1       8.236  14.055  -2.194  1.00  0.00     0.034 A 
ATOM     59  C   UNL     1      13.435   9.594  -2.250  1.00  0.00     0.049 A 
ATOM     60  C   UNL     1       9.691  14.053  -1.862  1.00  0.00     0.074 A 
ATOM     61  C   UNL     1      13.328   8.720  -1.181  1.00  0.00     0.029 A 
ATOM     62  N   UNL     1      13.362  10.855  -1.695  1.00  0.00    -0.354 N 
ATOM     63  N   UNL     1      10.156  13.672  -0.700  1.00  0.00    -0.248 NA
ATOM     64  C   UNL     1      10.634  13.945  -2.969  1.00  0.00     0.031 C 
ATOM     65  C   UNL     1      12.665   9.467  -0.163  1.00  0.00     0.029 A 
ATOM     66  C   UNL     1      12.510  10.778  -0.616  1.00  0.00     0.049 A 
ATOM     67  H   UNL     1      13.831  11.660  -2.012  1.00  0.00     0.167 HD
ATOM     68  C   UNL     1      11.264  12.889  -0.992  1.00  0.00     0.074 A 
ATOM     69  C   UNL     1      11.544  13.142  -2.407  1.00  0.00     0.031 C 
ATOM     70  C   UNL     1      11.671  11.876  -0.167  1.00  0.00     0.034 A 
BRANCH  57  71
ATOM     71  C   UNL     1      14.044  10.204  -4.710  1.00  0.00     0.023 A 
ATOM     72  C   UNL     1      15.303  10.679  -4.310  1.00  0.00     0.031 A 
ATOM     73  C   UNL     1      13.559  10.716  -5.941  1.00  0.00     0.131 A 
ATOM     74  C   UNL     1      15.965  11.672  -5.052  1.00  0.00     0.055 A 
ATOM     75  C   UNL     1      14.256  11.647  -6.711  1.00  0.00     0.041 A 
ATOM     76  F   UNL     1      12.348  10.430  -6.431  1.00  0.00    -0.206 F 
ATOM     77  C   UNL     1      15.454  12.156  -6.253  1.00  0.00     0.022 A 
BRANCH  74  78
ATOM     78  S   UNL     1      17.425  12.447  -4.321  1.00  0.00     0.124 S 
ATOM     79  O   UNL     1      16.900  12.903  -3.038  1.00  0.00    -0.237 OA
ATOM     80  O   UNL     1      18.362  11.329  -4.273  1.00  0.00    -0.237 OA
ATOM     81  O   UNL     1      17.760  13.502  -5.273  1.00  0.00    -0.744 OA
ENDBRANCH  74  78
ENDBRANCH  57  71
BRANCH  58  82
ATOM     82  C   UNL     1       7.546  15.199  -2.877  1.00  0.00     0.023 A 
ATOM     83  C   UNL     1       7.929  16.550  -2.695  1.00  0.00     0.031 A 
ATOM     84  C   UNL     1       6.630  14.953  -3.927  1.00  0.00     0.131 A 
ATOM     85  C   UNL     1       7.406  17.568  -3.536  1.00  0.00     0.055 A 
ATOM     86  C   UNL     1       6.119  15.959  -4.751  1.00  0.00     0.041 A 
ATOM     87  F   UNL     1       6.257  13.708  -4.256  1.00  0.00    -0.206 F 
ATOM     88  C   UNL     1       6.513  17.271  -4.566  1.00  0.00     0.022 A 
BRANCH  85  89
ATOM     89  S   UNL     1       7.947  19.305  -3.368  1.00  0.00     0.124 S 
ATOM     90  O   UNL     1       7.276  19.719  -2.141  1.00  0.00    -0.237 OA
ATOM     91  O   UNL     1       9.398  19.182  -3.306  1.00  0.00    -0.237 OA
ATOM     92  O   UNL     1       7.440  19.939  -4.586  1.00  0.00    -0.744 OA
ENDBRANCH  85  89
ENDBRANCH  58  82
BRANCH  70  93
ATOM     93  C   UNL     1      11.077  11.764   1.229  1.00  0.00     0.023 A 
ATOM     94  C   UNL     1       9.697  11.686   1.537  1.00  0.00     0.031 A 
ATOM     95  C   UNL     1      11.985  11.597   2.292  1.00  0.00     0.131 A 
ATOM     96  C   UNL     1       9.282  11.457   2.868  1.00  0.00     0.055 A 
ATOM     97  C   UNL     1      11.571  11.346   3.599  1.00  0.00     0.041 A 
ATOM     98  F   UNL     1      13.309  11.641   2.069  1.00  0.00    -0.206 F 
ATOM     99  C   UNL     1      10.217  11.280   3.893  1.00  0.00     0.022 A 
BRANCH  96 100
ATOM    100  S   UNL     1       7.512  11.409   3.309  1.00  0.00     0.124 S 
ATOM    101  O   UNL     1       6.957  12.569   2.623  1.00  0.00    -0.237 OA
ATOM    102  O   UNL     1       7.096  10.104   2.802  1.00  0.00    -0.237 OA
ATOM    103  O   UNL     1       7.523  11.515   4.770  1.00  0.00    -0.744 OA
ENDBRANCH  96 100
ENDBRANCH  70  93
ENDBRANCH  44  45
ENDBRANCH  37  39
ENDBRANCH  36  37
ENDBRANCH  35  36
ENDBRANCH  34  35
ENDBRANCH  33  34
ENDBRANCH  32  33
ENDBRANCH   1  32
TORSDOF 25
