REMARK SMILES O=C(OCCOCCOCCOC(=O)[C@@H](CCO)NC(=O)c1c(F)ccc([N+](=O)[O-])c1F)c1ccc(-c2c3nc(c(-c4cc(S(=O)(=O)[O-])ccc4F)c4ccc([nH]4)c(-c4cc(S(=O)(=O)[O-])ccc4F)c4nc(c(-c5cc(S(=O)(=O)[O-])ccc5F)c5ccc2[nH]5)C=C4)C=C3)cc1
REMARK SMILES IDX 7 1 6 2 5 3 4 4 3 5 2 6 1 7 33 8 34 9 95 10 35 11 94 12
REMARK SMILES IDX 36 13 37 14 38 15 88 16 39 17 93 18 87 19 89 20 40 21 92 22
REMARK SMILES IDX 86 23 85 24 41 26 73 27 53 28 72 29 54 30 57 31 71 32 90 33
REMARK SMILES IDX 55 34 56 35 70 37 91 38 58 39 42 40 43 41 51 42 44 43 50 44
REMARK SMILES IDX 52 45 49 46 45 47 46 48 47 49 48 50 74 51 75 52 83 53 76 54
REMARK SMILES IDX 82 55 84 56 81 57 77 58 78 59 79 60 80 61 59 62 60 63 68 64
REMARK SMILES IDX 61 65 67 66 69 67 66 68 62 69 63 70 64 71 65 72 8 73 9 74
REMARK SMILES IDX 10 75 11 76 12 77 13 78 14 79 15 80 16 81 17 82 18 83 19 85
REMARK SMILES IDX 20 86 21 88 22 89 23 90 31 91 24 92 25 93 27 94 32 95 26 96
REMARK SMILES IDX 28 97 29 98 30 99
REMARK H PARENT 89 25 57 36 18 84 19 87
REMARK Flexibility Score: inf
ROOT
ATOM      1  C   UNL     1       2.492   1.638  -1.048  1.00  0.00     0.188 C 
ENDROOT
BRANCH   1   2
ATOM      2  O   UNL     1       3.806   1.493  -0.489  1.00  0.00    -0.376 OA
BRANCH   2   3
ATOM      3  C   UNL     1       4.697   0.742  -1.324  1.00  0.00     0.202 C 
BRANCH   3   4
ATOM      4  C   UNL     1       4.497  -0.783  -1.324  1.00  0.00     0.261 C 
BRANCH   4   5
ATOM      5  O   UNL     1       3.144  -1.182  -1.063  1.00  0.00    -0.460 OA
BRANCH   5   6
ATOM      6  C   UNL     1       2.538  -1.440   0.122  1.00  0.00     0.338 C 
ATOM      7  O   UNL     1       1.363  -1.809   0.087  1.00  0.00    -0.246 OA
BRANCH   6   8
ATOM      8  C   UNL     1       3.174  -1.276   1.474  1.00  0.00     0.060 A 
ATOM      9  C   UNL     1       4.403  -0.671   1.735  1.00  0.00     0.016 A 
ATOM     10  C   UNL     1       2.441  -1.758   2.581  1.00  0.00     0.016 A 
ATOM     11  C   UNL     1       4.924  -0.618   3.025  1.00  0.00     0.010 A 
ATOM     12  C   UNL     1       2.945  -1.686   3.887  1.00  0.00     0.010 A 
ATOM     13  C   UNL     1       4.209  -1.141   4.104  1.00  0.00    -0.014 A 
BRANCH  13  14
ATOM     14  C   UNL     1       4.923  -1.232   5.396  1.00  0.00     0.031 A 
ATOM     15  C   UNL     1       5.746  -2.453   5.646  1.00  0.00     0.074 A 
ATOM     16  C   UNL     1       5.000  -0.153   6.194  1.00  0.00     0.049 A 
ATOM     17  N   UNL     1       6.573  -2.702   6.621  1.00  0.00    -0.248 NA
ATOM     18  C   UNL     1       5.620  -3.536   4.658  1.00  0.00     0.031 C 
ATOM     19  C   UNL     1       4.251   1.074   5.973  1.00  0.00     0.029 A 
ATOM     20  N   UNL     1       5.776   0.128   7.285  1.00  0.00    -0.354 N 
ATOM     21  C   UNL     1       7.050  -3.984   6.385  1.00  0.00     0.074 A 
ATOM     22  C   UNL     1       6.430  -4.452   5.164  1.00  0.00     0.031 C 
ATOM     23  C   UNL     1       4.702   2.030   6.800  1.00  0.00     0.029 A 
ATOM     24  C   UNL     1       5.683   1.440   7.705  1.00  0.00     0.049 A 
ATOM     25  H   UNL     1       6.347  -0.540   7.727  1.00  0.00     0.167 HD
ATOM     26  C   UNL     1       7.902  -4.707   7.149  1.00  0.00     0.034 A 
ATOM     27  C   UNL     1       6.304   2.068   8.726  1.00  0.00     0.034 A 
ATOM     28  C   UNL     1       8.437  -4.215   8.393  1.00  0.00     0.049 A 
ATOM     29  C   UNL     1       7.209   1.218   9.590  1.00  0.00     0.074 A 
ATOM     30  C   UNL     1       9.182  -4.883   9.345  1.00  0.00     0.029 A 
ATOM     31  N   UNL     1       8.263  -2.915   8.862  1.00  0.00    -0.354 N 
ATOM     32  N   UNL     1       7.579  -0.033   9.415  1.00  0.00    -0.248 NA
ATOM     33  C   UNL     1       7.743   1.839  10.806  1.00  0.00     0.031 C 
ATOM     34  C   UNL     1       9.408  -4.005  10.413  1.00  0.00     0.029 A 
ATOM     35  C   UNL     1       8.873  -2.765  10.095  1.00  0.00     0.049 A 
ATOM     36  H   UNL     1       7.777  -2.204   8.385  1.00  0.00     0.167 HD
ATOM     37  C   UNL     1       8.371  -0.353  10.512  1.00  0.00     0.074 A 
ATOM     38  C   UNL     1       8.477   0.857  11.306  1.00  0.00     0.031 C 
ATOM     39  C   UNL     1       8.937  -1.538  10.857  1.00  0.00     0.034 A 
BRANCH  26  40
ATOM     40  C   UNL     1       8.157  -6.124   6.705  1.00  0.00     0.023 A 
ATOM     41  C   UNL     1       8.809  -6.412   5.492  1.00  0.00     0.031 A 
ATOM     42  C   UNL     1       7.614  -7.197   7.433  1.00  0.00     0.131 A 
ATOM     43  C   UNL     1       8.816  -7.727   5.000  1.00  0.00     0.055 A 
ATOM     44  C   UNL     1       7.702  -8.514   6.980  1.00  0.00     0.041 A 
ATOM     45  F   UNL     1       6.944  -6.977   8.576  1.00  0.00    -0.206 F 
ATOM     46  C   UNL     1       8.289  -8.783   5.747  1.00  0.00     0.022 A 
BRANCH  43  47
ATOM     47  S   UNL     1       9.354  -8.008   3.289  1.00  0.00     0.124 S 
ATOM     48  O   UNL     1       8.381  -7.213   2.542  1.00  0.00    -0.237 OA
ATOM     49  O   UNL     1      10.720  -7.497   3.299  1.00  0.00    -0.237 OA
ATOM     50  O   UNL     1       9.229  -9.454   3.122  1.00  0.00    -0.744 OA
ENDBRANCH  43  47
ENDBRANCH  26  40
BRANCH  27  51
ATOM     51  C   UNL     1       6.045   3.509   9.051  1.00  0.00     0.023 A 
ATOM     52  C   UNL     1       7.099   4.431   9.187  1.00  0.00     0.031 A 
ATOM     53  C   UNL     1       4.744   3.978   9.313  1.00  0.00     0.131 A 
ATOM     54  C   UNL     1       6.840   5.746   9.614  1.00  0.00     0.055 A 
ATOM     55  C   UNL     1       4.482   5.307   9.656  1.00  0.00     0.041 A 
ATOM     56  F   UNL     1       3.693   3.145   9.247  1.00  0.00    -0.206 F 
ATOM     57  C   UNL     1       5.536   6.197   9.826  1.00  0.00     0.022 A 
BRANCH  54  58
ATOM     58  S   UNL     1       8.243   6.825  10.024  1.00  0.00     0.124 S 
ATOM     59  O   UNL     1       8.971   6.009  10.990  1.00  0.00    -0.237 OA
ATOM     60  O   UNL     1       8.882   6.999   8.724  1.00  0.00    -0.237 OA
ATOM     61  O   UNL     1       7.608   8.021  10.573  1.00  0.00    -0.744 OA
ENDBRANCH  54  58
ENDBRANCH  27  51
BRANCH  39  62
ATOM     62  C   UNL     1       9.723  -1.555  12.142  1.00  0.00     0.023 A 
ATOM     63  C   UNL     1       9.094  -1.395  13.389  1.00  0.00     0.031 A 
ATOM     64  C   UNL     1      11.117  -1.727  12.115  1.00  0.00     0.131 A 
ATOM     65  C   UNL     1       9.867  -1.350  14.557  1.00  0.00     0.055 A 
ATOM     66  C   UNL     1      11.874  -1.743  13.286  1.00  0.00     0.041 A 
ATOM     67  F   UNL     1      11.764  -1.884  10.949  1.00  0.00    -0.206 F 
ATOM     68  C   UNL     1      11.251  -1.540  14.515  1.00  0.00     0.022 A 
BRANCH  65  69
ATOM     69  S   UNL     1       9.050  -0.947  16.125  1.00  0.00     0.124 S 
ATOM     70  O   UNL     1       8.476   0.364  15.840  1.00  0.00    -0.237 OA
ATOM     71  O   UNL     1       8.097  -2.043  16.270  1.00  0.00    -0.237 OA
ATOM     72  O   UNL     1      10.146  -0.949  17.092  1.00  0.00    -0.744 OA
ENDBRANCH  65  69
ENDBRANCH  39  62
ENDBRANCH  13  14
ENDBRANCH   6   8
ENDBRANCH   5   6
ENDBRANCH   4   5
ENDBRANCH   3   4
ENDBRANCH   2   3
ENDBRANCH   1   2
BRANCH   1  73
ATOM     73  C   UNL     1       1.933   3.052  -0.871  1.00  0.00     0.188 C 
BRANCH  73  74
ATOM     74  O   UNL     1       2.460   4.053  -1.746  1.00  0.00    -0.376 OA
BRANCH  74  75
ATOM     75  C   UNL     1       3.866   4.284  -1.707  1.00  0.00     0.202 C 
BRANCH  75  76
ATOM     76  C   UNL     1       4.394   5.056  -0.496  1.00  0.00     0.261 C 
BRANCH  76  77
ATOM     77  O   UNL     1       4.003   4.441   0.734  1.00  0.00    -0.462 OA
BRANCH  77  78
ATOM     78  C   UNL     1       3.233   5.183   1.576  1.00  0.00     0.328 C 
ATOM     79  O   UNL     1       2.865   6.333   1.355  1.00  0.00    -0.250 OA
BRANCH  78  80
ATOM     80  C   UNL     1       2.736   4.351   2.768  1.00  0.00     0.194 C 
BRANCH  80  81
ATOM     81  C   UNL     1       3.464   3.025   2.994  1.00  0.00     0.065 C 
BRANCH  81  82
ATOM     82  C   UNL     1       4.986   3.099   3.110  1.00  0.00     0.159 C 
BRANCH  82  83
ATOM     83  O   UNL     1       5.395   4.330   3.682  1.00  0.00    -0.396 OA
ATOM     84  H   UNL     1       5.101   5.062   3.119  1.00  0.00     0.210 HD
ENDBRANCH  82  83
ENDBRANCH  81  82
ENDBRANCH  80  81
BRANCH  80  85
ATOM     85  N   UNL     1       2.750   5.153   3.998  1.00  0.00    -0.338 N 
ATOM     86  C   UNL     1       1.727   5.716   4.701  1.00  0.00     0.258 C 
ATOM     87  H   UNL     1       3.645   5.310   4.377  1.00  0.00     0.164 HD
ATOM     88  O   UNL     1       1.937   6.473   5.649  1.00  0.00    -0.269 OA
BRANCH  86  89
ATOM     89  C   UNL     1       0.336   5.409   4.371  1.00  0.00     0.118 A 
ATOM     90  C   UNL     1      -0.151   4.109   4.512  1.00  0.00     0.139 A 
ATOM     91  C   UNL     1      -0.532   6.449   4.034  1.00  0.00     0.216 A 
ATOM     92  F   UNL     1       0.660   3.101   4.860  1.00  0.00    -0.206 F 
ATOM     93  C   UNL     1      -1.497   3.828   4.292  1.00  0.00     0.047 A 
ATOM     94  C   UNL     1      -1.883   6.174   3.815  1.00  0.00     0.305 A 
ATOM     95  F   UNL     1      -0.049   7.694   3.917  1.00  0.00    -0.198 F 
ATOM     96  C   UNL     1      -2.370   4.859   3.942  1.00  0.00     0.092 A 
BRANCH  94  97
ATOM     97  N   UNL     1      -2.816   7.243   3.454  1.00  0.00     0.065 N 
ATOM     98  O   UNL     1      -2.379   8.381   3.249  1.00  0.00    -0.258 OA
ATOM     99  O   UNL     1      -4.015   6.937   3.358  1.00  0.00    -0.258 OA
ENDBRANCH  94  97
ENDBRANCH  86  89
ENDBRANCH  80  85
ENDBRANCH  78  80
ENDBRANCH  77  78
ENDBRANCH  76  77
ENDBRANCH  75  76
ENDBRANCH  74  75
ENDBRANCH  73  74
ENDBRANCH   1  73
TORSDOF 26
