REMARK SMILES Nn1c(S[C@@H](C(=O)OCCOCCOCCOC(=O)c2ccc(-c3c4nc(c(-c5cc(S(=O)(=O)[O-])ccc5F)c5ccc([nH]5)c(-c5cc(S(=O)(=O)[O-])ccc5F)c5nc(c(-c6cc(S(=O)(=O)[O-])ccc6F)c6ccc3[nH]6)C=C5)C=C4)cc2)c2ccccc2)nc2ccc(Br)cc2c1=O
REMARK SMILES IDX 12 1 11 2 10 3 9 4 8 5 6 6 7 7 5 8 4 9 3 10 2 11 97 12 89 13
REMARK SMILES IDX 96 14 98 15 90 16 95 17 91 18 93 19 92 20 94 21 1 22 83 25
REMARK SMILES IDX 84 26 88 27 85 28 87 29 86 30 13 31 14 32 15 33 16 34 17 35
REMARK SMILES IDX 18 36 19 37 20 38 21 39 82 40 22 41 81 42 23 43 24 44 25 45
REMARK SMILES IDX 75 46 26 47 80 48 74 49 76 50 27 51 79 52 73 53 72 54 28 56
REMARK SMILES IDX 60 57 40 58 59 59 41 60 44 61 58 62 77 63 42 64 43 65 57 67
REMARK SMILES IDX 78 68 45 69 29 70 30 71 38 72 31 73 37 74 39 75 36 76 32 77
REMARK SMILES IDX 33 78 34 79 35 80 61 81 62 82 70 83 63 84 69 85 71 86 68 87
REMARK SMILES IDX 64 88 65 89 66 90 67 91 46 92 47 93 55 94 48 95 54 96 56 97
REMARK SMILES IDX 53 98 49 99 50 100 51 101 52 102
REMARK H PARENT 1 23 1 24 76 55 44 66
REMARK Flexibility Score: inf
ROOT
ATOM      1  C   UNL     1       2.873  -1.481  -1.454  1.00  0.00     0.188 C 
ENDROOT
BRANCH   1   2
ATOM      2  O   UNL     1       4.177  -1.155  -1.923  1.00  0.00    -0.376 OA
BRANCH   2   3
ATOM      3  C   UNL     1       5.207  -1.139  -0.944  1.00  0.00     0.202 C 
BRANCH   3   4
ATOM      4  C   UNL     1       5.180   0.028   0.057  1.00  0.00     0.261 C 
BRANCH   4   5
ATOM      5  O   UNL     1       4.054   0.104   0.990  1.00  0.00    -0.462 OA
BRANCH   5   6
ATOM      6  C   UNL     1       3.370   1.292   0.930  1.00  0.00     0.324 C 
ATOM      7  O   UNL     1       3.538   2.048  -0.028  1.00  0.00    -0.251 OA
BRANCH   6   8
ATOM      8  C   UNL     1       2.494   1.702   2.169  1.00  0.00     0.194 C 
BRANCH   8   9
ATOM      9  S   UNL     1       2.090   0.460   3.440  1.00  0.00    -0.066 SA
BRANCH   9  10
ATOM     10  C   UNL     1       0.713  -0.589   3.094  1.00  0.00     0.191 A 
ATOM     11  N   UNL     1       0.273  -0.775   1.798  1.00  0.00    -0.202 N 
ATOM     12  C   UNL     1      -0.420  -1.931   1.515  1.00  0.00     0.280 A 
ATOM     13  N   UNL     1       0.215  -1.282   4.089  1.00  0.00    -0.222 NA
ATOM     14  C   UNL     1      -1.285  -2.442   2.538  1.00  0.00     0.069 A 
ATOM     15  O   UNL     1      -0.237  -2.651   0.544  1.00  0.00    -0.267 OA
ATOM     16  C   UNL     1      -0.852  -2.190   3.829  1.00  0.00     0.079 A 
ATOM     17  C   UNL     1      -2.342  -3.292   2.184  1.00  0.00     0.031 A 
ATOM     18  C   UNL     1      -1.477  -2.941   4.823  1.00  0.00     0.030 A 
ATOM     19  C   UNL     1      -2.962  -4.000   3.191  1.00  0.00     0.018 A 
ATOM     20  C   UNL     1      -2.516  -3.851   4.505  1.00  0.00     0.018 A 
ATOM     21  Br  UNL     1      -4.340  -5.216   2.758  1.00  0.00    -0.051 Br
BRANCH  11  22
ATOM     22  N   UNL     1       0.813  -0.075   0.721  1.00  0.00    -0.334 N 
ATOM     23  H   UNL     1       1.316   0.757   0.878  1.00  0.00     0.178 HD
ATOM     24  H   UNL     1       0.692  -0.412  -0.196  1.00  0.00     0.178 HD
ENDBRANCH  11  22
ENDBRANCH   9  10
ENDBRANCH   8   9
BRANCH   8  25
ATOM     25  C   UNL     1       1.487   2.810   1.788  1.00  0.00    -0.023 A 
ATOM     26  C   UNL     1       0.096   2.664   1.782  1.00  0.00     0.005 A 
ATOM     27  C   UNL     1       2.007   3.999   1.218  1.00  0.00     0.005 A 
ATOM     28  C   UNL     1      -0.720   3.572   1.092  1.00  0.00     0.000 A 
ATOM     29  C   UNL     1       1.198   4.901   0.526  1.00  0.00     0.000 A 
ATOM     30  C   UNL     1      -0.166   4.668   0.436  1.00  0.00     0.000 A 
ENDBRANCH   8  25
ENDBRANCH   6   8
ENDBRANCH   5   6
ENDBRANCH   4   5
ENDBRANCH   3   4
ENDBRANCH   2   3
ENDBRANCH   1   2
BRANCH   1  31
ATOM     31  C   UNL     1       2.832  -2.591  -0.401  1.00  0.00     0.188 C 
BRANCH  31  32
ATOM     32  O   UNL     1       3.311  -3.778  -1.022  1.00  0.00    -0.376 OA
BRANCH  32  33
ATOM     33  C   UNL     1       2.510  -4.916  -0.767  1.00  0.00     0.202 C 
BRANCH  33  34
ATOM     34  C   UNL     1       1.073  -4.939  -1.338  1.00  0.00     0.261 C 
BRANCH  34  35
ATOM     35  O   UNL     1       0.536  -3.709  -1.865  1.00  0.00    -0.460 OA
BRANCH  35  36
ATOM     36  C   UNL     1      -0.792  -3.819  -2.161  1.00  0.00     0.338 C 
ATOM     37  O   UNL     1      -1.454  -4.852  -2.085  1.00  0.00    -0.246 OA
BRANCH  36  38
ATOM     38  C   UNL     1      -1.408  -2.554  -2.628  1.00  0.00     0.060 A 
ATOM     39  C   UNL     1      -2.023  -2.500  -3.878  1.00  0.00     0.016 A 
ATOM     40  C   UNL     1      -1.593  -1.482  -1.757  1.00  0.00     0.016 A 
ATOM     41  C   UNL     1      -2.783  -1.374  -4.237  1.00  0.00     0.010 A 
ATOM     42  C   UNL     1      -2.338  -0.364  -2.094  1.00  0.00     0.010 A 
ATOM     43  C   UNL     1      -2.943  -0.304  -3.340  1.00  0.00    -0.014 A 
BRANCH  43  44
ATOM     44  C   UNL     1      -3.847   0.829  -3.598  1.00  0.00     0.031 A 
ATOM     45  C   UNL     1      -3.306   2.156  -4.021  1.00  0.00     0.074 A 
ATOM     46  C   UNL     1      -5.144   0.705  -3.260  1.00  0.00     0.049 A 
ATOM     47  N   UNL     1      -3.954   3.183  -4.495  1.00  0.00    -0.248 NA
ATOM     48  C   UNL     1      -1.859   2.376  -3.855  1.00  0.00     0.031 C 
ATOM     49  C   UNL     1      -5.724  -0.461  -2.589  1.00  0.00     0.029 A 
ATOM     50  N   UNL     1      -6.194   1.573  -3.393  1.00  0.00    -0.354 N 
ATOM     51  C   UNL     1      -2.989   4.147  -4.754  1.00  0.00     0.074 A 
ATOM     52  C   UNL     1      -1.728   3.627  -4.278  1.00  0.00     0.031 C 
ATOM     53  C   UNL     1      -7.030  -0.237  -2.377  1.00  0.00     0.029 A 
ATOM     54  C   UNL     1      -7.387   1.062  -2.942  1.00  0.00     0.049 A 
ATOM     55  H   UNL     1      -6.103   2.475  -3.776  1.00  0.00     0.167 HD
ATOM     56  C   UNL     1      -3.160   5.332  -5.385  1.00  0.00     0.034 A 
ATOM     57  C   UNL     1      -8.636   1.561  -3.034  1.00  0.00     0.034 A 
ATOM     58  C   UNL     1      -4.457   5.807  -5.797  1.00  0.00     0.049 A 
ATOM     59  C   UNL     1      -8.829   2.824  -3.836  1.00  0.00     0.074 A 
ATOM     60  C   UNL     1      -4.763   6.905  -6.577  1.00  0.00     0.029 A 
ATOM     61  N   UNL     1      -5.663   5.223  -5.433  1.00  0.00    -0.354 N 
ATOM     62  N   UNL     1      -7.915   3.603  -4.370  1.00  0.00    -0.248 NA
ATOM     63  C   UNL     1     -10.208   3.249  -4.104  1.00  0.00     0.031 C 
ATOM     64  C   UNL     1      -6.154   7.025  -6.625  1.00  0.00     0.029 A 
ATOM     65  C   UNL     1      -6.718   5.958  -5.939  1.00  0.00     0.049 A 
ATOM     66  H   UNL     1      -5.754   4.404  -4.894  1.00  0.00     0.167 HD
ATOM     67  C   UNL     1      -8.606   4.595  -5.058  1.00  0.00     0.074 A 
ATOM     68  C   UNL     1     -10.016   4.301  -4.893  1.00  0.00     0.031 C 
ATOM     69  C   UNL     1      -8.119   5.650  -5.760  1.00  0.00     0.034 A 
BRANCH  56  70
ATOM     70  C   UNL     1      -1.948   6.152  -5.755  1.00  0.00     0.023 A 
ATOM     71  C   UNL     1      -1.837   7.495  -5.350  1.00  0.00     0.031 A 
ATOM     72  C   UNL     1      -0.992   5.654  -6.662  1.00  0.00     0.131 A 
ATOM     73  C   UNL     1      -0.822   8.302  -5.883  1.00  0.00     0.055 A 
ATOM     74  C   UNL     1       0.043   6.450  -7.155  1.00  0.00     0.041 A 
ATOM     75  F   UNL     1      -1.059   4.385  -7.097  1.00  0.00    -0.206 F 
ATOM     76  C   UNL     1       0.121   7.785  -6.778  1.00  0.00     0.022 A 
BRANCH  73  77
ATOM     77  S   UNL     1      -0.728  10.073  -5.501  1.00  0.00     0.124 S 
ATOM     78  O   UNL     1       0.632  10.197  -4.979  1.00  0.00    -0.237 OA
ATOM     79  O   UNL     1      -0.949  10.679  -6.811  1.00  0.00    -0.237 OA
ATOM     80  O   UNL     1      -1.788  10.277  -4.521  1.00  0.00    -0.744 OA
ENDBRANCH  73  77
ENDBRANCH  56  70
BRANCH  57  81
ATOM     81  C   UNL     1      -9.769   0.742  -2.516  1.00  0.00     0.023 A 
ATOM     82  C   UNL     1      -9.897   0.472  -1.141  1.00  0.00     0.031 A 
ATOM     83  C   UNL     1     -10.630   0.076  -3.404  1.00  0.00     0.131 A 
ATOM     84  C   UNL     1     -10.823  -0.486  -0.703  1.00  0.00     0.055 A 
ATOM     85  C   UNL     1     -11.592  -0.831  -2.958  1.00  0.00     0.041 A 
ATOM     86  F   UNL     1     -10.524   0.277  -4.727  1.00  0.00    -0.206 F 
ATOM     87  C   UNL     1     -11.680  -1.130  -1.602  1.00  0.00     0.022 A 
BRANCH  84  88
ATOM     88  S   UNL     1     -10.845  -1.042   1.025  1.00  0.00     0.124 S 
ATOM     89  O   UNL     1     -12.189  -0.663   1.450  1.00  0.00    -0.237 OA
ATOM     90  O   UNL     1     -10.610  -2.477   0.882  1.00  0.00    -0.237 OA
ATOM     91  O   UNL     1      -9.753  -0.295   1.641  1.00  0.00    -0.744 OA
ENDBRANCH  84  88
ENDBRANCH  57  81
BRANCH  69  92
ATOM     92  C   UNL     1      -9.100   6.608  -6.390  1.00  0.00     0.023 A 
ATOM     93  C   UNL     1      -9.106   6.791  -7.786  1.00  0.00     0.031 A 
ATOM     94  C   UNL     1      -9.885   7.465  -5.600  1.00  0.00     0.131 A 
ATOM     95  C   UNL     1      -9.839   7.844  -8.345  1.00  0.00     0.055 A 
ATOM     96  C   UNL     1     -10.657   8.478  -6.168  1.00  0.00     0.041 A 
ATOM     97  F   UNL     1      -9.901   7.336  -4.264  1.00  0.00    -0.206 F 
ATOM     98  C   UNL     1     -10.621   8.683  -7.544  1.00  0.00     0.022 A 
BRANCH  95  99
ATOM     99  S   UNL     1      -9.723   8.229 -10.114  1.00  0.00     0.124 S 
ATOM    100  O   UNL     1     -11.114   8.099 -10.543  1.00  0.00    -0.237 OA
ATOM    101  O   UNL     1      -9.200   9.592 -10.097  1.00  0.00    -0.237 OA
ATOM    102  O   UNL     1      -8.815   7.214 -10.637  1.00  0.00    -0.744 OA
ENDBRANCH  95  99
ENDBRANCH  69  92
ENDBRANCH  43  44
ENDBRANCH  36  38
ENDBRANCH  35  36
ENDBRANCH  34  35
ENDBRANCH  33  34
ENDBRANCH  32  33
ENDBRANCH  31  32
ENDBRANCH   1  31
TORSDOF 24
