REMARK SMILES Nc1nccc(N2CCC[C@@](Cc3ccc(F)cc3F)(C(=O)OCCOCCOCCOC(=O)c3ccc(-c4c5nc(c(-c6cc(S(=O)(=O)[O-])ccc6F)c6ccc([nH]6)c(-c6cc(S(=O)(=O)[O-])ccc6F)c6nc(c(-c7cc(S(=O)(=O)[O-])ccc7F)c7ccc4[nH]7)C=C6)C=C5)cc3)C2)n1
REMARK SMILES IDX 28 1 27 2 26 3 25 4 24 5 23 6 21 7 22 8 11 9 7 10 8 11 98 12
REMARK SMILES IDX 9 13 10 14 6 15 2 16 3 17 99 18 4 19 5 20 1 21 12 24 13 25
REMARK SMILES IDX 14 26 19 27 15 28 18 29 20 30 16 31 17 32 29 33 30 34 31 35
REMARK SMILES IDX 32 36 33 37 34 38 35 39 36 40 97 41 37 42 96 43 38 44 39 45
REMARK SMILES IDX 40 46 90 47 41 48 95 49 89 50 91 51 42 52 94 53 88 54 87 55
REMARK SMILES IDX 43 57 75 58 55 59 74 60 56 61 59 62 73 63 92 64 57 65 58 66
REMARK SMILES IDX 72 68 93 69 60 70 44 71 45 72 53 73 46 74 52 75 54 76 51 77
REMARK SMILES IDX 47 78 48 79 49 80 50 81 76 82 77 83 85 84 78 85 84 86 86 87
REMARK SMILES IDX 83 88 79 89 80 90 81 91 82 92 61 93 62 94 70 95 63 96 69 97
REMARK SMILES IDX 71 98 68 99 64 100 65 101 66 102 67 103
REMARK H PARENT 1 22 1 23 91 56 59 67
REMARK Flexibility Score: inf
ROOT
ATOM      1  C   UNL     1       1.727  -7.036  -2.087  1.00  0.00     0.188 C 
ENDROOT
BRANCH   1   2
ATOM      2  C   UNL     1       0.646  -6.737  -3.128  1.00  0.00     0.188 C 
BRANCH   2   3
ATOM      3  O   UNL     1       0.842  -7.180  -4.463  1.00  0.00    -0.376 OA
BRANCH   3   4
ATOM      4  C   UNL     1       2.134  -7.068  -5.047  1.00  0.00     0.202 C 
BRANCH   4   5
ATOM      5  C   UNL     1       2.847  -5.708  -5.014  1.00  0.00     0.261 C 
BRANCH   5   6
ATOM      6  O   UNL     1       3.190  -5.189  -3.704  1.00  0.00    -0.463 OA
BRANCH   6   7
ATOM      7  C   UNL     1       2.659  -3.974  -3.408  1.00  0.00     0.314 C 
ATOM      8  O   UNL     1       1.892  -3.386  -4.167  1.00  0.00    -0.252 OA
BRANCH   7   9
ATOM      9  C   UNL     1       3.160  -3.317  -2.111  1.00  0.00     0.090 C 
ATOM     10  N   UNL     1       2.159  -2.080  -0.250  1.00  0.00    -0.355 N 
ATOM     11  C   UNL     1       2.702  -2.878   0.833  1.00  0.00     0.118 C 
ATOM     12  C   UNL     1       1.846  -2.781  -1.485  1.00  0.00     0.137 C 
ATOM     13  C   UNL     1       4.022  -3.478   0.338  1.00  0.00     0.023 C 
ATOM     14  C   UNL     1       3.873  -4.185  -1.028  1.00  0.00     0.023 C 
BRANCH  10  15
ATOM     15  C   UNL     1       1.310  -1.025   0.056  1.00  0.00     0.134 A 
ATOM     16  C   UNL     1      -0.777  -0.078   0.060  1.00  0.00     0.221 A 
ATOM     17  N   UNL     1      -0.297   1.153   0.263  1.00  0.00    -0.222 NA
ATOM     18  N   UNL     1      -0.020  -1.177  -0.062  1.00  0.00    -0.196 NA
ATOM     19  C   UNL     1       1.032   1.268   0.383  1.00  0.00     0.119 A 
ATOM     20  C   UNL     1       1.887   0.201   0.309  1.00  0.00     0.067 A 
BRANCH  16  21
ATOM     21  N   UNL     1      -2.130  -0.207  -0.037  1.00  0.00    -0.368 N 
ATOM     22  H   UNL     1      -2.708   0.585   0.049  1.00  0.00     0.159 HD
ATOM     23  H   UNL     1      -2.530  -1.094  -0.193  1.00  0.00     0.159 HD
ENDBRANCH  16  21
ENDBRANCH  10  15
BRANCH   9  24
ATOM     24  C   UNL     1       4.076  -2.130  -2.564  1.00  0.00     0.059 C 
BRANCH  24  25
ATOM     25  C   UNL     1       5.408  -2.583  -3.138  1.00  0.00    -0.011 A 
ATOM     26  C   UNL     1       5.484  -3.137  -4.425  1.00  0.00     0.010 A 
ATOM     27  C   UNL     1       6.571  -2.557  -2.356  1.00  0.00     0.129 A 
ATOM     28  C   UNL     1       6.662  -3.741  -4.864  1.00  0.00     0.040 A 
ATOM     29  C   UNL     1       7.754  -3.139  -2.795  1.00  0.00     0.078 A 
ATOM     30  F   UNL     1       6.550  -1.998  -1.139  1.00  0.00    -0.207 F 
ATOM     31  C   UNL     1       7.780  -3.748  -4.040  1.00  0.00     0.126 A 
ATOM     32  F   UNL     1       8.900  -4.356  -4.454  1.00  0.00    -0.207 F 
ENDBRANCH  24  25
ENDBRANCH   9  24
ENDBRANCH   7   9
ENDBRANCH   6   7
ENDBRANCH   5   6
ENDBRANCH   4   5
ENDBRANCH   3   4
ENDBRANCH   2   3
ENDBRANCH   1   2
BRANCH   1  33
ATOM     33  O   UNL     1       2.800  -7.836  -2.538  1.00  0.00    -0.376 OA
BRANCH  33  34
ATOM     34  C   UNL     1       3.102  -9.008  -1.796  1.00  0.00     0.202 C 
BRANCH  34  35
ATOM     35  C   UNL     1       1.988 -10.065  -1.790  1.00  0.00     0.261 C 
BRANCH  35  36
ATOM     36  O   UNL     1       0.770  -9.653  -1.143  1.00  0.00    -0.460 OA
BRANCH  36  37
ATOM     37  C   UNL     1       0.859  -9.307   0.167  1.00  0.00     0.338 C 
ATOM     38  O   UNL     1       1.833  -9.438   0.887  1.00  0.00    -0.246 OA
BRANCH  37  39
ATOM     39  C   UNL     1      -0.325  -8.469   0.482  1.00  0.00     0.060 A 
ATOM     40  C   UNL     1      -0.122  -7.217   1.083  1.00  0.00     0.016 A 
ATOM     41  C   UNL     1      -1.609  -8.870   0.107  1.00  0.00     0.016 A 
ATOM     42  C   UNL     1      -1.208  -6.376   1.336  1.00  0.00     0.010 A 
ATOM     43  C   UNL     1      -2.697  -8.038   0.382  1.00  0.00     0.010 A 
ATOM     44  C   UNL     1      -2.506  -6.801   1.024  1.00  0.00    -0.014 A 
BRANCH  44  45
ATOM     45  C   UNL     1      -3.678  -6.076   1.579  1.00  0.00     0.031 A 
ATOM     46  C   UNL     1      -4.260  -6.579   2.874  1.00  0.00     0.074 A 
ATOM     47  C   UNL     1      -4.216  -5.007   0.966  1.00  0.00     0.049 A 
ATOM     48  N   UNL     1      -5.312  -6.169   3.532  1.00  0.00    -0.248 NA
ATOM     49  C   UNL     1      -3.556  -7.708   3.502  1.00  0.00     0.031 C 
ATOM     50  C   UNL     1      -3.720  -4.391  -0.263  1.00  0.00     0.029 A 
ATOM     51  N   UNL     1      -5.316  -4.255   1.298  1.00  0.00    -0.354 N 
ATOM     52  C   UNL     1      -5.400  -6.992   4.650  1.00  0.00     0.074 A 
ATOM     53  C   UNL     1      -4.317  -7.948   4.557  1.00  0.00     0.031 C 
ATOM     54  C   UNL     1      -4.522  -3.361  -0.588  1.00  0.00     0.029 A 
ATOM     55  C   UNL     1      -5.607  -3.265   0.388  1.00  0.00     0.049 A 
ATOM     56  H   UNL     1      -5.848  -4.409   2.113  1.00  0.00     0.167 HD
ATOM     57  C   UNL     1      -6.296  -6.952   5.667  1.00  0.00     0.034 A 
ATOM     58  C   UNL     1      -6.643  -2.401   0.341  1.00  0.00     0.034 A 
ATOM     59  C   UNL     1      -7.382  -6.008   5.741  1.00  0.00     0.049 A 
ATOM     60  C   UNL     1      -7.694  -2.445   1.430  1.00  0.00     0.074 A 
ATOM     61  C   UNL     1      -8.331  -5.864   6.738  1.00  0.00     0.029 A 
ATOM     62  N   UNL     1      -7.679  -5.059   4.772  1.00  0.00    -0.354 N 
ATOM     63  N   UNL     1      -7.756  -3.212   2.495  1.00  0.00    -0.248 NA
ATOM     64  C   UNL     1      -8.812  -1.498   1.309  1.00  0.00     0.031 C 
ATOM     65  C   UNL     1      -9.247  -4.887   6.333  1.00  0.00     0.029 A 
ATOM     66  C   UNL     1      -8.822  -4.357   5.125  1.00  0.00     0.049 A 
ATOM     67  H   UNL     1      -7.154  -4.906   3.953  1.00  0.00     0.167 HD
ATOM     68  C   UNL     1      -8.899  -2.812   3.187  1.00  0.00     0.074 A 
ATOM     69  C   UNL     1      -9.488  -1.731   2.425  1.00  0.00     0.031 C 
ATOM     70  C   UNL     1      -9.410  -3.288   4.352  1.00  0.00     0.034 A 
BRANCH  57  71
ATOM     71  C   UNL     1      -6.167  -8.007   6.738  1.00  0.00     0.023 A 
ATOM     72  C   UNL     1      -5.034  -8.091   7.567  1.00  0.00     0.031 A 
ATOM     73  C   UNL     1      -7.174  -8.976   6.899  1.00  0.00     0.131 A 
ATOM     74  C   UNL     1      -4.900  -9.163   8.462  1.00  0.00     0.055 A 
ATOM     75  C   UNL     1      -7.073  -9.991   7.851  1.00  0.00     0.041 A 
ATOM     76  F   UNL     1      -8.265  -8.963   6.118  1.00  0.00    -0.206 F 
ATOM     77  C   UNL     1      -5.923 -10.099   8.628  1.00  0.00     0.022 A 
BRANCH  74  78
ATOM     78  S   UNL     1      -3.304  -9.408   9.288  1.00  0.00     0.124 S 
ATOM     79  O   UNL     1      -2.395  -9.521   8.150  1.00  0.00    -0.237 OA
ATOM     80  O   UNL     1      -3.175  -8.198  10.091  1.00  0.00    -0.237 OA
ATOM     81  O   UNL     1      -3.496 -10.643  10.046  1.00  0.00    -0.744 OA
ENDBRANCH  74  78
ENDBRANCH  57  71
BRANCH  58  82
ATOM     82  C   UNL     1      -6.778  -1.435  -0.787  1.00  0.00     0.023 A 
ATOM     83  C   UNL     1      -6.740  -0.050  -0.561  1.00  0.00     0.031 A 
ATOM     84  C   UNL     1      -7.023  -1.881  -2.098  1.00  0.00     0.131 A 
ATOM     85  C   UNL     1      -6.992   0.840  -1.617  1.00  0.00     0.055 A 
ATOM     86  C   UNL     1      -7.219  -0.991  -3.156  1.00  0.00     0.041 A 
ATOM     87  F   UNL     1      -7.078  -3.195  -2.369  1.00  0.00    -0.206 F 
ATOM     88  C   UNL     1      -7.218   0.379  -2.916  1.00  0.00     0.022 A 
BRANCH  85  89
ATOM     89  S   UNL     1      -7.105   2.612  -1.248  1.00  0.00     0.124 S 
ATOM     90  O   UNL     1      -8.217   2.647  -0.305  1.00  0.00    -0.237 OA
ATOM     91  O   UNL     1      -5.784   2.886  -0.692  1.00  0.00    -0.237 OA
ATOM     92  O   UNL     1      -7.371   3.215  -2.552  1.00  0.00    -0.744 OA
ENDBRANCH  85  89
ENDBRANCH  58  82
BRANCH  70  93
ATOM     93  C   UNL     1     -10.643  -2.606   4.899  1.00  0.00     0.023 A 
ATOM     94  C   UNL     1     -11.882  -2.659   4.235  1.00  0.00     0.031 A 
ATOM     95  C   UNL     1     -10.573  -1.881   6.103  1.00  0.00     0.131 A 
ATOM     96  C   UNL     1     -12.983  -1.955   4.748  1.00  0.00     0.055 A 
ATOM     97  C   UNL     1     -11.688  -1.236   6.642  1.00  0.00     0.041 A 
ATOM     98  F   UNL     1      -9.418  -1.793   6.781  1.00  0.00    -0.206 F 
ATOM     99  C   UNL     1     -12.898  -1.259   5.956  1.00  0.00     0.022 A 
BRANCH  96 100
ATOM    100  S   UNL     1     -14.506  -1.877   3.764  1.00  0.00     0.124 S 
ATOM    101  O   UNL     1     -14.031  -1.292   2.514  1.00  0.00    -0.237 OA
ATOM    102  O   UNL     1     -14.908  -3.279   3.700  1.00  0.00    -0.237 OA
ATOM    103  O   UNL     1     -15.383  -1.018   4.557  1.00  0.00    -0.744 OA
ENDBRANCH  96 100
ENDBRANCH  70  93
ENDBRANCH  44  45
ENDBRANCH  37  39
ENDBRANCH  36  37
ENDBRANCH  35  36
ENDBRANCH  34  35
ENDBRANCH  33  34
ENDBRANCH   1  33
TORSDOF 24
