REMARK SMILES O=C(OCCOCCOCCOC(=O)c1ccc(F)c(S(=O)(=O)N2CCOc3ccccc32)c1)c1ccc(-c2c3nc(c(-c4cc(S(=O)(=O)[O-])ccc4F)c4ccc([nH]4)c(-c4cc(S(=O)(=O)[O-])ccc4F)c4nc(c(-c5cc(S(=O)(=O)[O-])ccc5F)c5ccc2[nH]5)C=C4)C=C3)cc1
REMARK SMILES IDX 7 1 6 2 5 3 4 4 3 5 2 6 1 7 35 8 36 9 97 10 37 11 96 12
REMARK SMILES IDX 38 13 39 14 40 15 90 16 41 17 95 18 89 19 91 20 42 21 94 22
REMARK SMILES IDX 88 23 87 24 43 26 75 27 55 28 74 29 56 30 59 31 73 32 92 33
REMARK SMILES IDX 57 34 58 35 72 37 93 38 60 39 44 40 45 41 53 42 46 43 52 44
REMARK SMILES IDX 54 45 51 46 47 47 48 48 49 49 50 50 76 51 77 52 85 53 78 54
REMARK SMILES IDX 84 55 86 56 83 57 79 58 80 59 81 60 82 61 61 62 62 63 70 64
REMARK SMILES IDX 63 65 69 66 71 67 68 68 64 69 65 70 66 71 67 72 8 73 9 74
REMARK SMILES IDX 10 75 11 76 12 77 13 78 14 79 15 80 16 81 34 82 17 83 20 84
REMARK SMILES IDX 18 85 19 86 21 87 22 88 23 89 24 90 25 91 33 92 26 93 28 94
REMARK SMILES IDX 32 95 27 96 29 97 31 98 30 99
REMARK H PARENT 91 25 59 36
REMARK Flexibility Score: inf
ROOT
ATOM      1  C   UNL     1       2.533  -2.088  -0.153  1.00  0.00     0.188 C 
ENDROOT
BRANCH   1   2
ATOM      2  O   UNL     1       3.806  -1.569  -0.551  1.00  0.00    -0.376 OA
BRANCH   2   3
ATOM      3  C   UNL     1       4.752  -1.440   0.516  1.00  0.00     0.202 C 
BRANCH   3   4
ATOM      4  C   UNL     1       4.541  -0.237   1.447  1.00  0.00     0.261 C 
BRANCH   4   5
ATOM      5  O   UNL     1       3.156   0.101   1.605  1.00  0.00    -0.460 OA
BRANCH   5   6
ATOM      6  C   UNL     1       2.470   1.056   0.927  1.00  0.00     0.338 C 
ATOM      7  O   UNL     1       1.296   1.261   1.232  1.00  0.00    -0.246 OA
BRANCH   6   8
ATOM      8  C   UNL     1       3.081   1.890  -0.152  1.00  0.00     0.060 A 
ATOM      9  C   UNL     1       4.067   1.463  -1.048  1.00  0.00     0.016 A 
ATOM     10  C   UNL     1       2.573   3.183  -0.309  1.00  0.00     0.016 A 
ATOM     11  C   UNL     1       4.611   2.316  -2.005  1.00  0.00     0.010 A 
ATOM     12  C   UNL     1       3.081   4.029  -1.296  1.00  0.00     0.010 A 
ATOM     13  C   UNL     1       4.121   3.608  -2.142  1.00  0.00    -0.014 A 
BRANCH  13  14
ATOM     14  C   UNL     1       4.778   4.570  -3.057  1.00  0.00     0.031 A 
ATOM     15  C   UNL     1       5.460   5.753  -2.442  1.00  0.00     0.074 A 
ATOM     16  C   UNL     1       4.823   4.380  -4.390  1.00  0.00     0.049 A 
ATOM     17  N   UNL     1       5.883   6.850  -3.002  1.00  0.00    -0.248 NA
ATOM     18  C   UNL     1       5.700   5.680  -0.989  1.00  0.00     0.031 C 
ATOM     19  C   UNL     1       4.358   3.185  -5.092  1.00  0.00     0.029 A 
ATOM     20  N   UNL     1       5.287   5.190  -5.397  1.00  0.00    -0.354 N 
ATOM     21  C   UNL     1       6.428   7.604  -1.972  1.00  0.00     0.074 A 
ATOM     22  C   UNL     1       6.243   6.861  -0.746  1.00  0.00     0.031 C 
ATOM     23  C   UNL     1       4.545   3.349  -6.412  1.00  0.00     0.029 A 
ATOM     24  C   UNL     1       5.061   4.684  -6.658  1.00  0.00     0.049 A 
ATOM     25  H   UNL     1       5.737   6.050  -5.234  1.00  0.00     0.167 HD
ATOM     26  C   UNL     1       7.046   8.803  -2.053  1.00  0.00     0.034 A 
ATOM     27  C   UNL     1       5.206   5.249  -7.873  1.00  0.00     0.034 A 
ATOM     28  C   UNL     1       7.242   9.507  -3.290  1.00  0.00     0.049 A 
ATOM     29  C   UNL     1       5.741   6.653  -7.930  1.00  0.00     0.074 A 
ATOM     30  C   UNL     1       7.789  10.760  -3.494  1.00  0.00     0.029 A 
ATOM     31  N   UNL     1       6.913   9.002  -4.541  1.00  0.00    -0.354 N 
ATOM     32  N   UNL     1       6.127   7.422  -6.938  1.00  0.00    -0.248 NA
ATOM     33  C   UNL     1       5.864   7.263  -9.258  1.00  0.00     0.031 C 
ATOM     34  C   UNL     1       7.757  11.026  -4.867  1.00  0.00     0.029 A 
ATOM     35  C   UNL     1       7.239   9.919  -5.523  1.00  0.00     0.049 A 
ATOM     36  H   UNL     1       6.507   8.120  -4.705  1.00  0.00     0.167 HD
ATOM     37  C   UNL     1       6.568   8.600  -7.526  1.00  0.00     0.074 A 
ATOM     38  C   UNL     1       6.409   8.434  -8.958  1.00  0.00     0.031 C 
ATOM     39  C   UNL     1       7.064   9.719  -6.940  1.00  0.00     0.034 A 
BRANCH  26  40
ATOM     40  C   UNL     1       7.505   9.423  -0.765  1.00  0.00     0.023 A 
ATOM     41  C   UNL     1       8.593   8.899  -0.046  1.00  0.00     0.031 A 
ATOM     42  C   UNL     1       6.818  10.525  -0.229  1.00  0.00     0.131 A 
ATOM     43  C   UNL     1       8.937   9.454   1.194  1.00  0.00     0.055 A 
ATOM     44  C   UNL     1       7.204  11.110   0.978  1.00  0.00     0.041 A 
ATOM     45  F   UNL     1       5.752  11.038  -0.862  1.00  0.00    -0.206 F 
ATOM     46  C   UNL     1       8.266  10.571   1.699  1.00  0.00     0.022 A 
BRANCH  43  47
ATOM     47  S   UNL     1      10.232   8.655   2.180  1.00  0.00     0.124 S 
ATOM     48  O   UNL     1       9.561   7.430   2.607  1.00  0.00    -0.237 OA
ATOM     49  O   UNL     1      11.313   8.486   1.216  1.00  0.00    -0.237 OA
ATOM     50  O   UNL     1      10.495   9.621   3.244  1.00  0.00    -0.744 OA
ENDBRANCH  43  47
ENDBRANCH  26  40
BRANCH  27  51
ATOM     51  C   UNL     1       4.779   4.539  -9.115  1.00  0.00     0.023 A 
ATOM     52  C   UNL     1       5.704   4.176 -10.107  1.00  0.00     0.031 A 
ATOM     53  C   UNL     1       3.419   4.264  -9.355  1.00  0.00     0.131 A 
ATOM     54  C   UNL     1       5.256   3.591 -11.304  1.00  0.00     0.055 A 
ATOM     55  C   UNL     1       2.984   3.642 -10.528  1.00  0.00     0.041 A 
ATOM     56  F   UNL     1       2.490   4.598  -8.447  1.00  0.00    -0.206 F 
ATOM     57  C   UNL     1       3.904   3.312 -11.517  1.00  0.00     0.022 A 
BRANCH  54  58
ATOM     58  S   UNL     1       6.465   3.255 -12.616  1.00  0.00     0.124 S 
ATOM     59  O   UNL     1       6.993   4.587 -12.883  1.00  0.00    -0.237 OA
ATOM     60  O   UNL     1       7.373   2.323 -11.954  1.00  0.00    -0.237 OA
ATOM     61  O   UNL     1       5.654   2.676 -13.685  1.00  0.00    -0.744 OA
ENDBRANCH  54  58
ENDBRANCH  27  51
BRANCH  39  62
ATOM     62  C   UNL     1       7.501  10.820  -7.861  1.00  0.00     0.023 A 
ATOM     63  C   UNL     1       6.567  11.571  -8.590  1.00  0.00     0.031 A 
ATOM     64  C   UNL     1       8.867  11.116  -8.009  1.00  0.00     0.131 A 
ATOM     65  C   UNL     1       7.014  12.553  -9.481  1.00  0.00     0.055 A 
ATOM     66  C   UNL     1       9.303  12.136  -8.853  1.00  0.00     0.041 A 
ATOM     67  F   UNL     1       9.794  10.421  -7.331  1.00  0.00    -0.206 F 
ATOM     68  C   UNL     1       8.374  12.854  -9.604  1.00  0.00     0.022 A 
BRANCH  65  69
ATOM     69  S   UNL     1       5.795  13.383 -10.532  1.00  0.00     0.124 S 
ATOM     70  O   UNL     1       5.283  12.274 -11.331  1.00  0.00    -0.237 OA
ATOM     71  O   UNL     1       4.868  13.945  -9.556  1.00  0.00    -0.237 OA
ATOM     72  O   UNL     1       6.590  14.364 -11.268  1.00  0.00    -0.744 OA
ENDBRANCH  65  69
ENDBRANCH  39  62
ENDBRANCH  13  14
ENDBRANCH   6   8
ENDBRANCH   5   6
ENDBRANCH   4   5
ENDBRANCH   3   4
ENDBRANCH   2   3
ENDBRANCH   1   2
BRANCH   1  73
ATOM     73  C   UNL     1       1.888  -2.927  -1.258  1.00  0.00     0.188 C 
BRANCH  73  74
ATOM     74  O   UNL     1       2.550  -4.147  -1.585  1.00  0.00    -0.376 OA
BRANCH  74  75
ATOM     75  C   UNL     1       3.917  -4.054  -1.969  1.00  0.00     0.202 C 
BRANCH  75  76
ATOM     76  C   UNL     1       4.243  -3.405  -3.323  1.00  0.00     0.261 C 
BRANCH  76  77
ATOM     77  O   UNL     1       3.675  -2.106  -3.580  1.00  0.00    -0.460 OA
BRANCH  77  78
ATOM     78  C   UNL     1       2.634  -2.119  -4.450  1.00  0.00     0.338 C 
ATOM     79  O   UNL     1       2.043  -3.100  -4.876  1.00  0.00    -0.246 OA
BRANCH  78  80
ATOM     80  C   UNL     1       2.368  -0.777  -4.999  1.00  0.00     0.061 A 
ATOM     81  C   UNL     1       2.846  -0.550  -6.293  1.00  0.00     0.019 A 
ATOM     82  C   UNL     1       1.508   0.148  -4.383  1.00  0.00     0.041 A 
ATOM     83  C   UNL     1       2.450   0.591  -6.981  1.00  0.00     0.041 A 
ATOM     84  C   UNL     1       1.109   1.304  -5.095  1.00  0.00     0.124 A 
ATOM     85  C   UNL     1       1.587   1.508  -6.384  1.00  0.00     0.143 A 
ATOM     86  F   UNL     1       1.251   2.567  -7.120  1.00  0.00    -0.205 F 
BRANCH  84  87
ATOM     87  S   UNL     1      -0.031   2.437  -4.318  1.00  0.00     0.267 S 
ATOM     88  O   UNL     1      -1.315   1.762  -4.355  1.00  0.00    -0.201 OA
ATOM     89  O   UNL     1       0.575   2.760  -3.042  1.00  0.00    -0.201 OA
BRANCH  87  90
ATOM     90  N   UNL     1      -0.146   3.812  -5.303  1.00  0.00    -0.259 N 
ATOM     91  C   UNL     1      -1.014   3.721  -6.506  1.00  0.00     0.177 C 
ATOM     92  C   UNL     1      -0.023   5.159  -4.782  1.00  0.00     0.094 A 
ATOM     93  C   UNL     1      -2.252   4.577  -6.287  1.00  0.00     0.252 C 
ATOM     94  C   UNL     1      -0.873   6.175  -5.270  1.00  0.00     0.143 A 
ATOM     95  C   UNL     1       1.024   5.530  -3.942  1.00  0.00     0.031 A 
ATOM     96  O   UNL     1      -1.914   5.961  -6.144  1.00  0.00    -0.489 OA
ATOM     97  C   UNL     1      -0.669   7.513  -4.918  1.00  0.00     0.049 A 
ATOM     98  C   UNL     1       1.211   6.866  -3.563  1.00  0.00     0.002 A 
ATOM     99  C   UNL     1       0.369   7.858  -4.057  1.00  0.00     0.004 A 
ENDBRANCH  87  90
ENDBRANCH  84  87
ENDBRANCH  78  80
ENDBRANCH  77  78
ENDBRANCH  76  77
ENDBRANCH  75  76
ENDBRANCH  74  75
ENDBRANCH  73  74
ENDBRANCH   1  73
TORSDOF 22
