REMARK SMILES C[C@@H]1CN(S(=O)(=O)c2cccc(C(=O)N3CCC[C@@H]3C(=O)OCCOCCOCCOC(=O)c3ccc(-c4c5nc(c(-c6cc(S(=O)(=O)[O-])ccc6F)c6ccc([nH]6)c(-c6cc(S(=O)(=O)[O-])ccc6F)c6nc(c(-c7cc(S(=O)(=O)[O-])ccc7F)c7ccc4[nH]7)C=C6)C=C5)cc3)c2)C[C@H](C)O1
REMARK SMILES IDX 26 1 25 2 24 3 23 4 22 5 20 6 21 7 19 8 15 9 16 10 17 11
REMARK SMILES IDX 18 12 13 13 14 14 12 15 8 16 9 17 97 18 10 19 11 20 5 21
REMARK SMILES IDX 6 22 7 23 4 24 1 25 2 26 3 27 101 28 99 29 98 30 100 31
REMARK SMILES IDX 27 32 28 33 29 34 30 35 31 36 32 37 33 38 34 39 35 40 96 41
REMARK SMILES IDX 36 42 95 43 37 44 38 45 39 46 89 47 40 48 94 49 88 50 90 51
REMARK SMILES IDX 41 52 93 53 87 54 86 55 42 57 74 58 54 59 73 60 55 61 58 62
REMARK SMILES IDX 72 63 91 64 56 65 57 66 71 68 92 69 59 70 43 71 44 72 52 73
REMARK SMILES IDX 45 74 51 75 53 76 50 77 46 78 47 79 48 80 49 81 75 82 76 83
REMARK SMILES IDX 84 84 77 85 83 86 85 87 82 88 78 89 79 90 80 91 81 92 60 93
REMARK SMILES IDX 61 94 69 95 62 96 68 97 70 98 67 99 63 100 64 101 65 102
REMARK SMILES IDX 66 103
REMARK H PARENT 90 56 58 67
REMARK Flexibility Score: inf
ROOT
ATOM      1  C   UNL     1       4.461  -4.569   0.350  1.00  0.00     0.188 C 
ENDROOT
BRANCH   1   2
ATOM      2  O   UNL     1       4.281  -4.280  -1.031  1.00  0.00    -0.376 OA
BRANCH   2   3
ATOM      3  C   UNL     1       3.158  -3.514  -1.448  1.00  0.00     0.202 C 
BRANCH   3   4
ATOM      4  C   UNL     1       1.757  -3.973  -1.022  1.00  0.00     0.261 C 
BRANCH   4   5
ATOM      5  O   UNL     1       1.533  -4.004   0.406  1.00  0.00    -0.462 OA
BRANCH   5   6
ATOM      6  C   UNL     1       1.115  -5.202   0.897  1.00  0.00     0.328 C 
ATOM      7  O   UNL     1       0.903  -6.179   0.185  1.00  0.00    -0.250 OA
BRANCH   6   8
ATOM      8  C   UNL     1       0.836  -5.232   2.417  1.00  0.00     0.195 C 
ATOM      9  N   UNL     1      -0.589  -5.296   2.711  1.00  0.00    -0.325 N 
ATOM     10  C   UNL     1      -0.812  -4.961   4.095  1.00  0.00     0.121 C 
ATOM     11  C   UNL     1       0.107  -3.770   4.262  1.00  0.00     0.024 C 
ATOM     12  C   UNL     1       1.282  -4.059   3.312  1.00  0.00     0.039 C 
BRANCH   9  13
ATOM     13  C   UNL     1      -1.451  -6.099   2.005  1.00  0.00     0.254 C 
ATOM     14  O   UNL     1      -1.522  -7.311   2.097  1.00  0.00    -0.269 OA
BRANCH  13  15
ATOM     15  C   UNL     1      -2.257  -5.300   1.032  1.00  0.00     0.041 A 
ATOM     16  C   UNL     1      -3.148  -3.143   0.359  1.00  0.00     0.083 A 
ATOM     17  C   UNL     1      -3.636  -3.712  -0.818  1.00  0.00     0.022 A 
ATOM     18  C   UNL     1      -2.489  -3.941   1.287  1.00  0.00     0.035 A 
ATOM     19  C   UNL     1      -3.427  -5.077  -1.067  1.00  0.00     0.002 A 
ATOM     20  C   UNL     1      -2.734  -5.872  -0.145  1.00  0.00     0.014 A 
BRANCH  16  21
ATOM     21  S   UNL     1      -3.562  -1.486   0.837  1.00  0.00     0.243 S 
ATOM     22  O   UNL     1      -3.829  -1.505   2.264  1.00  0.00    -0.207 OA
ATOM     23  O   UNL     1      -4.565  -1.002  -0.087  1.00  0.00    -0.207 OA
BRANCH  21  24
ATOM     24  N   UNL     1      -2.149  -0.522   0.602  1.00  0.00    -0.193 NA
ATOM     25  C   UNL     1       0.994  -0.186  -0.126  1.00  0.00     0.040 C 
ATOM     26  C   UNL     1       0.242   0.058   1.180  1.00  0.00     0.130 C 
ATOM     27  C   UNL     1      -0.940  -0.913   1.409  1.00  0.00     0.134 C 
ATOM     28  O   UNL     1      -0.116   1.439   1.329  1.00  0.00    -0.373 OA
ATOM     29  C   UNL     1      -1.303   1.848   0.641  1.00  0.00     0.130 C 
ATOM     30  C   UNL     1      -2.483   0.916   0.924  1.00  0.00     0.134 C 
ATOM     31  C   UNL     1      -1.076   2.083  -0.847  1.00  0.00     0.040 C 
ENDBRANCH  21  24
ENDBRANCH  16  21
ENDBRANCH  13  15
ENDBRANCH   9  13
ENDBRANCH   6   8
ENDBRANCH   5   6
ENDBRANCH   4   5
ENDBRANCH   3   4
ENDBRANCH   2   3
ENDBRANCH   1   2
BRANCH   1  32
ATOM     32  C   UNL     1       4.202  -3.463   1.382  1.00  0.00     0.188 C 
BRANCH  32  33
ATOM     33  O   UNL     1       3.934  -2.186   0.839  1.00  0.00    -0.376 OA
BRANCH  33  34
ATOM     34  C   UNL     1       4.873  -1.155   1.111  1.00  0.00     0.202 C 
BRANCH  34  35
ATOM     35  C   UNL     1       6.304  -1.395   0.609  1.00  0.00     0.261 C 
BRANCH  35  36
ATOM     36  O   UNL     1       6.968  -2.541   1.168  1.00  0.00    -0.460 OA
BRANCH  36  37
ATOM     37  C   UNL     1       7.154  -2.558   2.509  1.00  0.00     0.338 C 
ATOM     38  O   UNL     1       6.872  -1.668   3.297  1.00  0.00    -0.246 OA
BRANCH  37  39
ATOM     39  C   UNL     1       7.497  -3.948   2.882  1.00  0.00     0.060 A 
ATOM     40  C   UNL     1       6.726  -4.598   3.857  1.00  0.00     0.016 A 
ATOM     41  C   UNL     1       8.524  -4.627   2.223  1.00  0.00     0.016 A 
ATOM     42  C   UNL     1       6.994  -5.927   4.184  1.00  0.00     0.010 A 
ATOM     43  C   UNL     1       8.803  -5.951   2.566  1.00  0.00     0.010 A 
ATOM     44  C   UNL     1       8.055  -6.599   3.564  1.00  0.00    -0.014 A 
BRANCH  44  45
ATOM     45  C   UNL     1       8.505  -7.910   4.090  1.00  0.00     0.031 A 
ATOM     46  C   UNL     1       9.642  -7.925   5.074  1.00  0.00     0.074 A 
ATOM     47  C   UNL     1       7.917  -9.056   3.708  1.00  0.00     0.049 A 
ATOM     48  N   UNL     1      10.230  -8.938   5.653  1.00  0.00    -0.248 NA
ATOM     49  C   UNL     1      10.193  -6.612   5.444  1.00  0.00     0.031 C 
ATOM     50  C   UNL     1       6.795  -9.161   2.776  1.00  0.00     0.029 A 
ATOM     51  N   UNL     1       8.192 -10.356   4.052  1.00  0.00    -0.354 N 
ATOM     52  C   UNL     1      11.223  -8.387   6.456  1.00  0.00     0.074 A 
ATOM     53  C   UNL     1      11.181  -6.955   6.253  1.00  0.00     0.031 C 
ATOM     54  C   UNL     1       6.487 -10.460   2.611  1.00  0.00     0.029 A 
ATOM     55  C   UNL     1       7.407 -11.278   3.400  1.00  0.00     0.049 A 
ATOM     56  H   UNL     1       8.886 -10.605   4.704  1.00  0.00     0.167 HD
ATOM     57  C   UNL     1      12.084  -9.019   7.292  1.00  0.00     0.034 A 
ATOM     58  C   UNL     1       7.446 -12.626   3.421  1.00  0.00     0.034 A 
ATOM     59  C   UNL     1      12.127 -10.451   7.460  1.00  0.00     0.049 A 
ATOM     60  C   UNL     1       8.459 -13.313   4.306  1.00  0.00     0.074 A 
ATOM     61  C   UNL     1      12.938 -11.198   8.296  1.00  0.00     0.029 A 
ATOM     62  N   UNL     1      11.340 -11.358   6.759  1.00  0.00    -0.354 N 
ATOM     63  N   UNL     1       9.370 -12.783   5.091  1.00  0.00    -0.248 NA
ATOM     64  C   UNL     1       8.439 -14.781   4.314  1.00  0.00     0.031 C 
ATOM     65  C   UNL     1      12.698 -12.553   8.043  1.00  0.00     0.029 A 
ATOM     66  C   UNL     1      11.676 -12.656   7.112  1.00  0.00     0.049 A 
ATOM     67  H   UNL     1      10.645 -11.114   6.105  1.00  0.00     0.167 HD
ATOM     68  C   UNL     1      10.016 -13.855   5.703  1.00  0.00     0.074 A 
ATOM     69  C   UNL     1       9.373 -15.057   5.213  1.00  0.00     0.031 C 
ATOM     70  C   UNL     1      11.046 -13.849   6.591  1.00  0.00     0.034 A 
BRANCH  57  71
ATOM     71  C   UNL     1      13.082  -8.156   8.028  1.00  0.00     0.023 A 
ATOM     72  C   UNL     1      12.677  -7.172   8.948  1.00  0.00     0.031 A 
ATOM     73  C   UNL     1      14.457  -8.279   7.761  1.00  0.00     0.131 A 
ATOM     74  C   UNL     1      13.624  -6.296   9.499  1.00  0.00     0.055 A 
ATOM     75  C   UNL     1      15.404  -7.461   8.380  1.00  0.00     0.041 A 
ATOM     76  F   UNL     1      14.903  -9.182   6.873  1.00  0.00    -0.206 F 
ATOM     77  C   UNL     1      14.988  -6.450   9.241  1.00  0.00     0.022 A 
BRANCH  74  78
ATOM     78  S   UNL     1      13.034  -4.850  10.423  1.00  0.00     0.124 S 
ATOM     79  O   UNL     1      12.174  -4.199   9.437  1.00  0.00    -0.237 OA
ATOM     80  O   UNL     1      12.354  -5.459  11.561  1.00  0.00    -0.237 OA
ATOM     81  O   UNL     1      14.261  -4.123  10.744  1.00  0.00    -0.744 OA
ENDBRANCH  74  78
ENDBRANCH  57  71
BRANCH  58  82
ATOM     82  C   UNL     1       6.532 -13.420   2.550  1.00  0.00     0.023 A 
ATOM     83  C   UNL     1       5.552 -14.266   3.093  1.00  0.00     0.031 A 
ATOM     84  C   UNL     1       6.658 -13.372   1.149  1.00  0.00     0.131 A 
ATOM     85  C   UNL     1       4.763 -15.059   2.244  1.00  0.00     0.055 A 
ATOM     86  C   UNL     1       5.837 -14.123   0.307  1.00  0.00     0.041 A 
ATOM     87  F   UNL     1       7.582 -12.583   0.578  1.00  0.00    -0.206 F 
ATOM     88  C   UNL     1       4.888 -14.982   0.855  1.00  0.00     0.022 A 
BRANCH  85  89
ATOM     89  S   UNL     1       3.611 -16.250   2.984  1.00  0.00     0.124 S 
ATOM     90  O   UNL     1       4.516 -17.105   3.744  1.00  0.00    -0.237 OA
ATOM     91  O   UNL     1       2.740 -15.382   3.769  1.00  0.00    -0.237 OA
ATOM     92  O   UNL     1       2.982 -16.880   1.826  1.00  0.00    -0.744 OA
ENDBRANCH  85  89
ENDBRANCH  58  82
BRANCH  70  93
ATOM     93  C   UNL     1      11.514 -15.192   7.103  1.00  0.00     0.023 A 
ATOM     94  C   UNL     1      12.098 -16.146   6.250  1.00  0.00     0.031 A 
ATOM     95  C   UNL     1      11.346 -15.536   8.456  1.00  0.00     0.131 A 
ATOM     96  C   UNL     1      12.424 -17.419   6.741  1.00  0.00     0.055 A 
ATOM     97  C   UNL     1      11.738 -16.779   8.955  1.00  0.00     0.041 A 
ATOM     98  F   UNL     1      10.792 -14.668   9.319  1.00  0.00    -0.206 F 
ATOM     99  C   UNL     1      12.264 -17.736   8.092  1.00  0.00     0.022 A 
BRANCH  96 100
ATOM    100  S   UNL     1      12.945 -18.699   5.565  1.00  0.00     0.124 S 
ATOM    101  O   UNL     1      11.826 -18.723   4.628  1.00  0.00    -0.237 OA
ATOM    102  O   UNL     1      14.198 -18.157   5.050  1.00  0.00    -0.237 OA
ATOM    103  O   UNL     1      13.083 -19.893   6.397  1.00  0.00    -0.744 OA
ENDBRANCH  96 100
ENDBRANCH  70  93
ENDBRANCH  44  45
ENDBRANCH  37  39
ENDBRANCH  36  37
ENDBRANCH  35  36
ENDBRANCH  34  35
ENDBRANCH  33  34
ENDBRANCH  32  33
ENDBRANCH   1  32
TORSDOF 24
