REMARK SMILES CS(=O)(=O)c1ccc(C2=NN(c3ccc(C(=O)OCCOCCOCCOC(=O)c4ccc(-c5c6nc(c(-c7cc(S(=O)(=O)[O-])ccc7F)c7ccc([nH]7)c(-c7cc(S(=O)(=O)[O-])ccc7F)c7nc(c(-c8cc(S(=O)(=O)[O-])ccc8F)c8ccc5[nH]8)C=C7)C=C6)cc4)cc3)[C@H](c3ccccc3)C2)cc1
REMARK SMILES IDX 22 1 21 2 20 3 19 4 18 5 16 6 17 7 15 8 12 9 13 10 94 11
REMARK SMILES IDX 14 12 93 13 11 14 9 15 10 16 102 17 95 18 8 19 5 20 6 21
REMARK SMILES IDX 104 22 7 23 103 24 2 25 1 26 3 27 4 28 96 29 97 30 101 31
REMARK SMILES IDX 98 32 100 33 99 34 23 35 24 36 25 37 26 38 27 39 28 40 29 41
REMARK SMILES IDX 30 42 31 43 92 44 32 45 91 46 33 47 34 48 35 49 85 50 36 51
REMARK SMILES IDX 90 52 84 53 86 54 37 55 89 56 83 57 82 58 38 60 70 61 50 62
REMARK SMILES IDX 69 63 51 64 54 65 68 66 87 67 52 68 53 69 67 71 88 72 55 73
REMARK SMILES IDX 39 74 40 75 48 76 41 77 47 78 49 79 46 80 42 81 43 82 44 83
REMARK SMILES IDX 45 84 71 85 72 86 80 87 73 88 79 89 81 90 78 91 74 92 75 93
REMARK SMILES IDX 76 94 77 95 56 96 57 97 65 98 58 99 64 100 66 101 63 102
REMARK SMILES IDX 59 103 60 104 61 105 62 106
REMARK H PARENT 86 59 54 70
REMARK Flexibility Score: inf
ROOT
ATOM      1  C   UNL     1      -2.629 -12.383  -7.223  1.00  0.00     0.188 C 
ENDROOT
BRANCH   1   2
ATOM      2  O   UNL     1      -2.808 -13.570  -7.976  1.00  0.00    -0.376 OA
BRANCH   2   3
ATOM      3  C   UNL     1      -1.975 -14.695  -7.753  1.00  0.00     0.202 C 
BRANCH   3   4
ATOM      4  C   UNL     1      -0.473 -14.571  -7.448  1.00  0.00     0.261 C 
BRANCH   4   5
ATOM      5  O   UNL     1      -0.115 -13.556  -6.504  1.00  0.00    -0.460 OA
BRANCH   5   6
ATOM      6  C   UNL     1       0.609 -12.523  -7.003  1.00  0.00     0.338 C 
ATOM      7  O   UNL     1       1.039 -12.422  -8.140  1.00  0.00    -0.246 OA
BRANCH   6   8
ATOM      8  C   UNL     1       0.720 -11.433  -6.002  1.00  0.00     0.060 A 
ATOM      9  C   UNL     1       1.196  -9.332  -4.204  1.00  0.00     0.060 A 
ATOM     10  C   UNL     1       1.013  -9.065  -5.565  1.00  0.00     0.029 A 
ATOM     11  C   UNL     1       0.984 -10.639  -3.740  1.00  0.00     0.029 A 
ATOM     12  C   UNL     1       0.780 -10.111  -6.463  1.00  0.00     0.018 A 
ATOM     13  C   UNL     1       0.772 -11.693  -4.630  1.00  0.00     0.018 A 
BRANCH   9  14
ATOM     14  N   UNL     1       1.785  -8.400  -3.348  1.00  0.00    -0.257 N 
ATOM     15  C   UNL     1       1.954  -6.434  -2.551  1.00  0.00     0.071 C 
ATOM     16  N   UNL     1       1.083  -7.337  -2.884  1.00  0.00    -0.176 NA
ATOM     17  C   UNL     1       3.386  -6.750  -2.898  1.00  0.00     0.091 C 
ATOM     18  C   UNL     1       3.243  -8.195  -3.394  1.00  0.00     0.144 C 
BRANCH  15  19
ATOM     19  C   UNL     1       1.594  -5.188  -1.842  1.00  0.00    -0.002 A 
ATOM     20  C   UNL     1       0.935  -2.924  -0.340  1.00  0.00     0.067 A 
ATOM     21  C   UNL     1       0.219  -4.112  -0.162  1.00  0.00     0.021 A 
ATOM     22  C   UNL     1       1.966  -2.854  -1.283  1.00  0.00     0.021 A 
ATOM     23  C   UNL     1       0.545  -5.240  -0.917  1.00  0.00     0.011 A 
ATOM     24  C   UNL     1       2.300  -3.993  -2.030  1.00  0.00     0.011 A 
BRANCH  20  25
ATOM     25  S   UNL     1       0.493  -1.536   0.681  1.00  0.00     0.175 S 
ATOM     26  C   UNL     1       0.978  -0.069  -0.181  1.00  0.00     0.163 C 
ATOM     27  O   UNL     1       1.311  -1.637   1.876  1.00  0.00    -0.224 OA
ATOM     28  O   UNL     1      -0.954  -1.519   0.769  1.00  0.00    -0.224 OA
ENDBRANCH  20  25
ENDBRANCH  15  19
BRANCH  18  29
ATOM     29  C   UNL     1       3.965  -9.304  -2.627  1.00  0.00    -0.023 A 
ATOM     30  C   UNL     1       4.440  -9.178  -1.315  1.00  0.00     0.006 A 
ATOM     31  C   UNL     1       4.102 -10.565  -3.247  1.00  0.00     0.006 A 
ATOM     32  C   UNL     1       5.002 -10.273  -0.646  1.00  0.00     0.000 A 
ATOM     33  C   UNL     1       4.608 -11.671  -2.562  1.00  0.00     0.000 A 
ATOM     34  C   UNL     1       5.064 -11.523  -1.259  1.00  0.00     0.000 A 
ENDBRANCH  18  29
ENDBRANCH   9  14
ENDBRANCH   6   8
ENDBRANCH   5   6
ENDBRANCH   4   5
ENDBRANCH   3   4
ENDBRANCH   2   3
ENDBRANCH   1   2
BRANCH   1  35
ATOM     35  C   UNL     1      -2.696 -12.434  -5.682  1.00  0.00     0.188 C 
BRANCH  35  36
ATOM     36  O   UNL     1      -2.771 -13.706  -5.085  1.00  0.00    -0.376 OA
BRANCH  36  37
ATOM     37  C   UNL     1      -4.020 -14.367  -4.990  1.00  0.00     0.202 C 
BRANCH  37  38
ATOM     38  C   UNL     1      -5.385 -13.825  -5.470  1.00  0.00     0.261 C 
BRANCH  38  39
ATOM     39  O   UNL     1      -5.419 -12.631  -6.254  1.00  0.00    -0.460 OA
BRANCH  39  40
ATOM     40  C   UNL     1      -5.810 -11.504  -5.608  1.00  0.00     0.338 C 
ATOM     41  O   UNL     1      -6.110 -11.400  -4.429  1.00  0.00    -0.246 OA
BRANCH  40  42
ATOM     42  C   UNL     1      -5.650 -10.361  -6.528  1.00  0.00     0.060 A 
ATOM     43  C   UNL     1      -4.612  -9.443  -6.310  1.00  0.00     0.016 A 
ATOM     44  C   UNL     1      -6.521 -10.200  -7.606  1.00  0.00     0.016 A 
ATOM     45  C   UNL     1      -4.438  -8.364  -7.180  1.00  0.00     0.010 A 
ATOM     46  C   UNL     1      -6.362  -9.103  -8.458  1.00  0.00     0.010 A 
ATOM     47  C   UNL     1      -5.328  -8.172  -8.244  1.00  0.00    -0.014 A 
BRANCH  47  48
ATOM     48  C   UNL     1      -5.282  -6.926  -9.049  1.00  0.00     0.031 A 
ATOM     49  C   UNL     1      -6.250  -5.823  -8.725  1.00  0.00     0.074 A 
ATOM     50  C   UNL     1      -4.404  -6.778 -10.058  1.00  0.00     0.049 A 
ATOM     51  N   UNL     1      -6.475  -4.699  -9.354  1.00  0.00    -0.248 NA
ATOM     52  C   UNL     1      -7.082  -6.025  -7.529  1.00  0.00     0.031 C 
ATOM     53  C   UNL     1      -3.377  -7.748 -10.432  1.00  0.00     0.029 A 
ATOM     54  N   UNL     1      -4.248  -5.756 -10.963  1.00  0.00    -0.354 N 
ATOM     55  C   UNL     1      -7.481  -4.060  -8.637  1.00  0.00     0.074 A 
ATOM     56  C   UNL     1      -7.845  -4.944  -7.549  1.00  0.00     0.031 C 
ATOM     57  C   UNL     1      -2.705  -7.280 -11.499  1.00  0.00     0.029 A 
ATOM     58  C   UNL     1      -3.287  -6.004 -11.915  1.00  0.00     0.049 A 
ATOM     59  H   UNL     1      -4.775  -4.925 -10.932  1.00  0.00     0.167 HD
ATOM     60  C   UNL     1      -8.043  -2.846  -8.863  1.00  0.00     0.034 A 
ATOM     61  C   UNL     1      -2.944  -5.301 -13.014  1.00  0.00     0.034 A 
ATOM     62  C   UNL     1      -7.683  -1.989  -9.966  1.00  0.00     0.049 A 
ATOM     63  C   UNL     1      -3.673  -4.013 -13.321  1.00  0.00     0.074 A 
ATOM     64  C   UNL     1      -8.179  -0.736 -10.281  1.00  0.00     0.029 A 
ATOM     65  N   UNL     1      -6.752  -2.303 -10.950  1.00  0.00    -0.354 N 
ATOM     66  N   UNL     1      -4.618  -3.411 -12.634  1.00  0.00    -0.248 NA
ATOM     67  C   UNL     1      -3.290  -3.310 -14.553  1.00  0.00     0.031 C 
ATOM     68  C   UNL     1      -7.616  -0.333 -11.497  1.00  0.00     0.029 A 
ATOM     69  C   UNL     1      -6.697  -1.291 -11.896  1.00  0.00     0.049 A 
ATOM     70  H   UNL     1      -6.211  -3.125 -10.971  1.00  0.00     0.167 HD
ATOM     71  C   UNL     1      -4.920  -2.247 -13.339  1.00  0.00     0.074 A 
ATOM     72  C   UNL     1      -4.045  -2.223 -14.492  1.00  0.00     0.031 C 
ATOM     73  C   UNL     1      -5.834  -1.283 -13.056  1.00  0.00     0.034 A 
BRANCH  60  74
ATOM     74  C   UNL     1      -9.148  -2.413  -7.929  1.00  0.00     0.023 A 
ATOM     75  C   UNL     1      -8.922  -2.218  -6.555  1.00  0.00     0.031 A 
ATOM     76  C   UNL     1     -10.456  -2.231  -8.412  1.00  0.00     0.131 A 
ATOM     77  C   UNL     1     -10.000  -1.938  -5.702  1.00  0.00     0.055 A 
ATOM     78  C   UNL     1     -11.508  -1.863  -7.572  1.00  0.00     0.041 A 
ATOM     79  F   UNL     1     -10.739  -2.426  -9.710  1.00  0.00    -0.206 F 
ATOM     80  C   UNL     1     -11.287  -1.732  -6.204  1.00  0.00     0.022 A 
BRANCH  77  81
ATOM     81  S   UNL     1      -9.726  -2.011  -3.911  1.00  0.00     0.124 S 
ATOM     82  O   UNL     1      -9.218  -3.371  -3.746  1.00  0.00    -0.237 OA
ATOM     83  O   UNL     1      -8.762  -0.938  -3.696  1.00  0.00    -0.237 OA
ATOM     84  O   UNL     1     -11.056  -1.779  -3.351  1.00  0.00    -0.744 OA
ENDBRANCH  77  81
ENDBRANCH  60  74
BRANCH  61  85
ATOM     85  C   UNL     1      -1.896  -5.814 -13.946  1.00  0.00     0.023 A 
ATOM     86  C   UNL     1      -0.716  -5.090 -14.176  1.00  0.00     0.031 A 
ATOM     87  C   UNL     1      -2.087  -7.007 -14.667  1.00  0.00     0.131 A 
ATOM     88  C   UNL     1       0.208  -5.541 -15.133  1.00  0.00     0.055 A 
ATOM     89  C   UNL     1      -1.138  -7.482 -15.573  1.00  0.00     0.041 A 
ATOM     90  F   UNL     1      -3.204  -7.733 -14.496  1.00  0.00    -0.206 F 
ATOM     91  C   UNL     1       0.013  -6.741 -15.820  1.00  0.00     0.022 A 
BRANCH  88  92
ATOM     92  S   UNL     1       1.630  -4.487 -15.532  1.00  0.00     0.124 S 
ATOM     93  O   UNL     1       0.975  -3.270 -15.998  1.00  0.00    -0.237 OA
ATOM     94  O   UNL     1       2.312  -4.396 -14.246  1.00  0.00    -0.237 OA
ATOM     95  O   UNL     1       2.339  -5.247 -16.559  1.00  0.00    -0.744 OA
ENDBRANCH  88  92
ENDBRANCH  61  85
BRANCH  73  96
ATOM     96  C   UNL     1      -5.909  -0.100 -13.994  1.00  0.00     0.023 A 
ATOM     97  C   UNL     1      -6.333  -0.237 -15.328  1.00  0.00     0.031 A 
ATOM     98  C   UNL     1      -5.553   1.185 -13.546  1.00  0.00     0.131 A 
ATOM     99  C   UNL     1      -6.339   0.879 -16.180  1.00  0.00     0.055 A 
ATOM    100  C   UNL     1      -5.626   2.303 -14.378  1.00  0.00     0.041 A 
ATOM    101  F   UNL     1      -5.134   1.378 -12.285  1.00  0.00    -0.206 F 
ATOM    102  C   UNL     1      -6.009   2.151 -15.707  1.00  0.00     0.022 A 
BRANCH  99 103
ATOM    103  S   UNL     1      -6.693   0.630 -17.941  1.00  0.00     0.124 S 
ATOM    104  O   UNL     1      -5.643  -0.305 -18.332  1.00  0.00    -0.237 OA
ATOM    105  O   UNL     1      -8.049   0.092 -17.916  1.00  0.00    -0.237 OA
ATOM    106  O   UNL     1      -6.570   1.972 -18.509  1.00  0.00    -0.744 OA
ENDBRANCH  99 103
ENDBRANCH  73  96
ENDBRANCH  47  48
ENDBRANCH  40  42
ENDBRANCH  39  40
ENDBRANCH  38  39
ENDBRANCH  37  38
ENDBRANCH  36  37
ENDBRANCH  35  36
ENDBRANCH   1  35
TORSDOF 24
