REMARK SMILES CCN(C(=O)N[C@@H]1CCOC1)[C@H]1COC[C@H]1C(=O)OCCOCCOCCOC(=O)c1ccc(-c2c3nc(c(-c4cc(S(=O)(=O)[O-])ccc4F)c4ccc([nH]4)c(-c4cc(S(=O)(=O)[O-])ccc4F)c4nc(c(-c5cc(S(=O)(=O)[O-])ccc5F)c5ccc2[nH]5)C=C4)C=C3)cc1
REMARK SMILES IDX 23 1 22 2 21 3 20 4 19 5 17 6 18 7 16 8 12 9 13 10 14 11
REMARK SMILES IDX 15 12 3 13 2 14 1 15 4 16 5 17 6 18 7 20 8 21 11 22 9 23
REMARK SMILES IDX 10 24 24 25 25 26 26 27 27 28 28 29 29 30 30 31 31 32 32 33
REMARK SMILES IDX 93 34 33 35 92 36 34 37 35 38 36 39 86 40 37 41 91 42 85 43
REMARK SMILES IDX 87 44 38 45 90 46 84 47 83 48 39 50 71 51 51 52 70 53 52 54
REMARK SMILES IDX 55 55 69 56 88 57 53 58 54 59 68 61 89 62 56 63 40 64 41 65
REMARK SMILES IDX 49 66 42 67 48 68 50 69 47 70 43 71 44 72 45 73 46 74 72 75
REMARK SMILES IDX 73 76 81 77 74 78 80 79 82 80 79 81 75 82 76 83 77 84 78 85
REMARK SMILES IDX 57 86 58 87 66 88 59 89 65 90 67 91 64 92 60 93 61 94 62 95
REMARK SMILES IDX 63 96
REMARK H PARENT 6 19 87 49 55 60
REMARK Flexibility Score: inf
ROOT
ATOM      1  C   UNL     1       1.140   5.461   1.474  1.00  0.00     0.188 C 
ENDROOT
BRANCH   1   2
ATOM      2  O   UNL     1       2.031   6.437   0.962  1.00  0.00    -0.376 OA
BRANCH   2   3
ATOM      3  C   UNL     1       3.205   6.025   0.277  1.00  0.00     0.202 C 
BRANCH   3   4
ATOM      4  C   UNL     1       4.200   5.114   1.010  1.00  0.00     0.261 C 
BRANCH   4   5
ATOM      5  O   UNL     1       3.720   3.808   1.435  1.00  0.00    -0.463 OA
BRANCH   5   6
ATOM      6  C   UNL     1       3.942   3.540   2.745  1.00  0.00     0.313 C 
ATOM      7  O   UNL     1       4.381   4.380   3.532  1.00  0.00    -0.252 OA
BRANCH   6   8
ATOM      8  C   UNL     1       3.587   2.168   3.272  1.00  0.00     0.150 C 
ATOM      9  C   UNL     1       3.067   0.909   2.583  1.00  0.00     0.129 C 
ATOM     10  C   UNL     1       3.390  -0.158   3.649  1.00  0.00     0.186 C 
ATOM     11  O   UNL     1       4.540   0.283   4.384  1.00  0.00    -0.378 OA
ATOM     12  C   UNL     1       4.778   1.655   4.064  1.00  0.00     0.177 C 
BRANCH   9  13
ATOM     13  N   UNL     1       3.447   0.595   1.176  1.00  0.00    -0.319 N 
BRANCH  13  14
ATOM     14  C   UNL     1       2.388   0.906   0.229  1.00  0.00     0.118 C 
ATOM     15  C   UNL     1       1.276  -0.125   0.148  1.00  0.00     0.027 C 
ENDBRANCH  13  14
BRANCH  13  16
ATOM     16  C   UNL     1       4.569  -0.139   0.861  1.00  0.00     0.318 C 
ATOM     17  O   UNL     1       5.272  -0.695   1.704  1.00  0.00    -0.249 OA
ATOM     18  N   UNL     1       4.992  -0.315  -0.416  1.00  0.00    -0.333 N 
ATOM     19  H   UNL     1       5.584  -1.094  -0.526  1.00  0.00     0.165 HD
BRANCH  18  20
ATOM     20  C   UNL     1       4.755   0.410  -1.665  1.00  0.00     0.112 C 
ATOM     21  C   UNL     1       5.680  -0.021  -2.786  1.00  0.00     0.056 C 
ATOM     22  C   UNL     1       5.093   1.899  -1.537  1.00  0.00     0.185 C 
ATOM     23  C   UNL     1       6.891   0.856  -2.581  1.00  0.00     0.162 C 
ATOM     24  O   UNL     1       6.411   2.104  -2.076  1.00  0.00    -0.379 OA
ENDBRANCH  18  20
ENDBRANCH  13  16
ENDBRANCH   9  13
ENDBRANCH   6   8
ENDBRANCH   5   6
ENDBRANCH   4   5
ENDBRANCH   3   4
ENDBRANCH   2   3
ENDBRANCH   1   2
BRANCH   1  25
ATOM     25  C   UNL     1       0.887   4.185   0.669  1.00  0.00     0.188 C 
BRANCH  25  26
ATOM     26  O   UNL     1       1.409   4.229  -0.646  1.00  0.00    -0.376 OA
BRANCH  26  27
ATOM     27  C   UNL     1       0.855   3.395  -1.651  1.00  0.00     0.202 C 
BRANCH  27  28
ATOM     28  C   UNL     1      -0.492   3.890  -2.182  1.00  0.00     0.261 C 
BRANCH  28  29
ATOM     29  O   UNL     1      -1.528   3.917  -1.189  1.00  0.00    -0.460 OA
BRANCH  29  30
ATOM     30  C   UNL     1      -1.866   2.728  -0.633  1.00  0.00     0.338 C 
ATOM     31  O   UNL     1      -1.485   1.623  -0.988  1.00  0.00    -0.246 OA
BRANCH  30  32
ATOM     32  C   UNL     1      -2.555   3.014   0.643  1.00  0.00     0.060 A 
ATOM     33  C   UNL     1      -2.122   2.368   1.811  1.00  0.00     0.016 A 
ATOM     34  C   UNL     1      -3.564   3.978   0.699  1.00  0.00     0.016 A 
ATOM     35  C   UNL     1      -2.728   2.659   3.035  1.00  0.00     0.010 A 
ATOM     36  C   UNL     1      -4.174   4.260   1.920  1.00  0.00     0.010 A 
ATOM     37  C   UNL     1      -3.782   3.579   3.087  1.00  0.00    -0.014 A 
BRANCH  37  38
ATOM     38  C   UNL     1      -4.626   3.706   4.301  1.00  0.00     0.031 A 
ATOM     39  C   UNL     1      -5.961   3.012   4.299  1.00  0.00     0.074 A 
ATOM     40  C   UNL     1      -4.244   4.456   5.349  1.00  0.00     0.049 A 
ATOM     41  N   UNL     1      -6.945   3.097   5.153  1.00  0.00    -0.248 NA
ATOM     42  C   UNL     1      -6.223   2.112   3.163  1.00  0.00     0.031 C 
ATOM     43  C   UNL     1      -2.960   5.144   5.475  1.00  0.00     0.029 A 
ATOM     44  N   UNL     1      -4.917   4.787   6.500  1.00  0.00    -0.354 N 
ATOM     45  C   UNL     1      -7.954   2.284   4.646  1.00  0.00     0.074 A 
ATOM     46  C   UNL     1      -7.470   1.736   3.398  1.00  0.00     0.031 C 
ATOM     47  C   UNL     1      -2.948   5.837   6.628  1.00  0.00     0.029 A 
ATOM     48  C   UNL     1      -4.240   5.684   7.295  1.00  0.00     0.049 A 
ATOM     49  H   UNL     1      -5.799   4.418   6.734  1.00  0.00     0.167 HD
ATOM     50  C   UNL     1      -9.173   2.023   5.176  1.00  0.00     0.034 A 
ATOM     51  C   UNL     1      -4.638   6.337   8.408  1.00  0.00     0.034 A 
ATOM     52  C   UNL     1      -9.635   2.584   6.421  1.00  0.00     0.049 A 
ATOM     53  C   UNL     1      -6.029   6.079   8.946  1.00  0.00     0.074 A 
ATOM     54  C   UNL     1     -10.835   2.358   7.072  1.00  0.00     0.029 A 
ATOM     55  N   UNL     1      -8.926   3.493   7.196  1.00  0.00    -0.354 N 
ATOM     56  N   UNL     1      -6.968   5.291   8.472  1.00  0.00    -0.248 NA
ATOM     57  C   UNL     1      -6.410   6.793  10.172  1.00  0.00     0.031 C 
ATOM     58  C   UNL     1     -10.887   3.194   8.192  1.00  0.00     0.029 A 
ATOM     59  C   UNL     1      -9.681   3.868   8.297  1.00  0.00     0.049 A 
ATOM     60  H   UNL     1      -8.021   3.822   6.994  1.00  0.00     0.167 HD
ATOM     61  C   UNL     1      -8.034   5.389   9.365  1.00  0.00     0.074 A 
ATOM     62  C   UNL     1      -7.615   6.298  10.411  1.00  0.00     0.031 C 
ATOM     63  C   UNL     1      -9.248   4.780   9.330  1.00  0.00     0.034 A 
BRANCH  50  64
ATOM     64  C   UNL     1     -10.109   1.144   4.383  1.00  0.00     0.023 A 
ATOM     65  C   UNL     1      -9.819  -0.204   4.113  1.00  0.00     0.031 A 
ATOM     66  C   UNL     1     -11.313   1.672   3.882  1.00  0.00     0.131 A 
ATOM     67  C   UNL     1     -10.691  -0.961   3.314  1.00  0.00     0.055 A 
ATOM     68  C   UNL     1     -12.215   0.892   3.157  1.00  0.00     0.041 A 
ATOM     69  F   UNL     1     -11.629   2.961   4.082  1.00  0.00    -0.206 F 
ATOM     70  C   UNL     1     -11.900  -0.430   2.859  1.00  0.00     0.022 A 
BRANCH  67  71
ATOM     71  S   UNL     1     -10.160  -2.607   2.768  1.00  0.00     0.124 S 
ATOM     72  O   UNL     1      -8.930  -2.295   2.044  1.00  0.00    -0.237 OA
ATOM     73  O   UNL     1      -9.995  -3.320   4.029  1.00  0.00    -0.237 OA
ATOM     74  O   UNL     1     -11.268  -3.064   1.932  1.00  0.00    -0.744 OA
ENDBRANCH  67  71
ENDBRANCH  50  64
BRANCH  51  75
ATOM     75  C   UNL     1      -3.747   7.340   9.065  1.00  0.00     0.023 A 
ATOM     76  C   UNL     1      -3.317   7.174  10.391  1.00  0.00     0.031 A 
ATOM     77  C   UNL     1      -3.373   8.521   8.398  1.00  0.00     0.131 A 
ATOM     78  C   UNL     1      -2.591   8.194  11.026  1.00  0.00     0.055 A 
ATOM     79  C   UNL     1      -2.594   9.503   9.012  1.00  0.00     0.041 A 
ATOM     80  F   UNL     1      -3.761   8.738   7.131  1.00  0.00    -0.206 F 
ATOM     81  C   UNL     1      -2.212   9.351  10.341  1.00  0.00     0.022 A 
BRANCH  78  82
ATOM     82  S   UNL     1      -2.249   8.040  12.802  1.00  0.00     0.124 S 
ATOM     83  O   UNL     1      -3.593   7.889  13.348  1.00  0.00    -0.237 OA
ATOM     84  O   UNL     1      -1.402   6.853  12.844  1.00  0.00    -0.237 OA
ATOM     85  O   UNL     1      -1.578   9.296  13.129  1.00  0.00    -0.744 OA
ENDBRANCH  78  82
ENDBRANCH  51  75
BRANCH  63  86
ATOM     86  C   UNL     1     -10.184   5.032  10.489  1.00  0.00     0.023 A 
ATOM     87  C   UNL     1     -10.725   6.303  10.749  1.00  0.00     0.031 A 
ATOM     88  C   UNL     1     -10.536   3.977  11.351  1.00  0.00     0.131 A 
ATOM     89  C   UNL     1     -11.537   6.500  11.876  1.00  0.00     0.055 A 
ATOM     90  C   UNL     1     -11.401   4.163  12.429  1.00  0.00     0.041 A 
ATOM     91  F   UNL     1     -10.047   2.741  11.155  1.00  0.00    -0.206 F 
ATOM     92  C   UNL     1     -11.895   5.434  12.706  1.00  0.00     0.022 A 
BRANCH  89  93
ATOM     93  S   UNL     1     -12.034   8.190  12.308  1.00  0.00     0.124 S 
ATOM     94  O   UNL     1     -10.744   8.858  12.449  1.00  0.00    -0.237 OA
ATOM     95  O   UNL     1     -12.833   8.585  11.152  1.00  0.00    -0.237 OA
ATOM     96  O   UNL     1     -12.784   8.020  13.551  1.00  0.00    -0.744 OA
ENDBRANCH  89  93
ENDBRANCH  63  86
ENDBRANCH  37  38
ENDBRANCH  30  32
ENDBRANCH  29  30
ENDBRANCH  28  29
ENDBRANCH  27  28
ENDBRANCH  26  27
ENDBRANCH  25  26
ENDBRANCH   1  25
TORSDOF 24
