REMARK SMILES O=C(OCCOCCOCCOC(=O)[C@@H]1CCCN1C(=O)OCc1ccc(/N=N/c2ccccc2)cc1)c1ccc(-c2c3nc(c(-c4cc(S(=O)(=O)[O-])ccc4F)c4ccc([nH]4)c(-c4cc(S(=O)(=O)[O-])ccc4F)c4nc(c(-c5cc(S(=O)(=O)[O-])ccc5F)c5ccc2[nH]5)C=C4)C=C3)cc1
REMARK SMILES IDX 9 1 8 2 7 3 6 4 5 5 4 6 3 7 2 8 1 9 38 10 39 11 100 12 40 13
REMARK SMILES IDX 99 14 41 15 42 16 43 17 93 18 44 19 98 20 92 21 94 22 45 23
REMARK SMILES IDX 97 24 91 25 90 26 46 28 78 29 58 30 77 31 59 32 62 33 76 34
REMARK SMILES IDX 95 35 60 36 61 37 75 39 96 40 63 41 47 42 48 43 56 44 49 45
REMARK SMILES IDX 55 46 57 47 54 48 50 49 51 50 52 51 53 52 79 53 80 54 88 55
REMARK SMILES IDX 81 56 87 57 89 58 86 59 82 60 83 61 84 62 85 63 64 64 65 65
REMARK SMILES IDX 73 66 66 67 72 68 74 69 71 70 67 71 68 72 69 73 70 74 10 75
REMARK SMILES IDX 11 76 12 77 13 78 14 79 15 80 16 81 19 82 17 83 18 84 20 85
REMARK SMILES IDX 21 86 22 87 23 88 24 89 25 90 37 91 26 92 36 93 27 94 28 95
REMARK SMILES IDX 29 96 30 97 31 98 35 99 32 100 34 101 33 102
REMARK H PARENT 94 27 62 38
REMARK Flexibility Score: inf
ROOT
ATOM      1  O   UNL     1       2.265   0.589   4.331  1.00  0.00    -0.376 OA
ENDROOT
BRANCH   1   2
ATOM      2  C   UNL     1       1.908   0.098   3.045  1.00  0.00     0.188 C 
BRANCH   2   3
ATOM      3  C   UNL     1       2.713   0.567   1.823  1.00  0.00     0.188 C 
BRANCH   3   4
ATOM      4  O   UNL     1       4.119   0.384   1.915  1.00  0.00    -0.376 OA
BRANCH   4   5
ATOM      5  C   UNL     1       4.963   1.069   0.986  1.00  0.00     0.202 C 
BRANCH   5   6
ATOM      6  C   UNL     1       4.492   1.442  -0.442  1.00  0.00     0.261 C 
BRANCH   6   7
ATOM      7  O   UNL     1       3.120   1.162  -0.770  1.00  0.00    -0.460 OA
BRANCH   7   8
ATOM      8  C   UNL     1       2.600   0.150  -1.505  1.00  0.00     0.338 C 
ATOM      9  O   UNL     1       1.465   0.274  -1.961  1.00  0.00    -0.246 OA
BRANCH   8  10
ATOM     10  C   UNL     1       3.310  -1.145  -1.709  1.00  0.00     0.060 A 
ATOM     11  C   UNL     1       4.339  -1.608  -0.893  1.00  0.00     0.016 A 
ATOM     12  C   UNL     1       2.837  -1.997  -2.721  1.00  0.00     0.016 A 
ATOM     13  C   UNL     1       4.982  -2.814  -1.153  1.00  0.00     0.010 A 
ATOM     14  C   UNL     1       3.424  -3.249  -2.939  1.00  0.00     0.010 A 
ATOM     15  C   UNL     1       4.530  -3.644  -2.178  1.00  0.00    -0.014 A 
BRANCH  15  16
ATOM     16  C   UNL     1       5.280  -4.885  -2.472  1.00  0.00     0.031 A 
ATOM     17  C   UNL     1       6.115  -4.950  -3.713  1.00  0.00     0.074 A 
ATOM     18  C   UNL     1       5.286  -5.894  -1.581  1.00  0.00     0.049 A 
ATOM     19  N   UNL     1       6.840  -5.935  -4.167  1.00  0.00    -0.248 NA
ATOM     20  C   UNL     1       6.143  -3.741  -4.551  1.00  0.00     0.031 C 
ATOM     21  C   UNL     1       4.563  -5.882  -0.311  1.00  0.00     0.029 A 
ATOM     22  N   UNL     1       5.931  -7.105  -1.585  1.00  0.00    -0.354 N 
ATOM     23  C   UNL     1       7.394  -5.478  -5.355  1.00  0.00     0.074 A 
ATOM     24  C   UNL     1       6.913  -4.128  -5.556  1.00  0.00     0.031 C 
ATOM     25  C   UNL     1       4.830  -7.019   0.347  1.00  0.00     0.029 A 
ATOM     26  C   UNL     1       5.688  -7.865  -0.463  1.00  0.00     0.049 A 
ATOM     27  H   UNL     1       6.513  -7.403  -2.321  1.00  0.00     0.167 HD
ATOM     28  C   UNL     1       8.221  -6.136  -6.200  1.00  0.00     0.034 A 
ATOM     29  C   UNL     1       6.082  -9.111  -0.131  1.00  0.00     0.034 A 
ATOM     30  C   UNL     1       8.668  -7.487  -5.977  1.00  0.00     0.049 A 
ATOM     31  C   UNL     1       6.939  -9.847  -1.127  1.00  0.00     0.074 A 
ATOM     32  C   UNL     1       9.462  -8.280  -6.786  1.00  0.00     0.029 A 
ATOM     33  N   UNL     1       8.350  -8.252  -4.859  1.00  0.00    -0.354 N 
ATOM     34  N   UNL     1       7.422  -9.414  -2.271  1.00  0.00    -0.248 NA
ATOM     35  C   UNL     1       7.290 -11.234  -0.808  1.00  0.00     0.031 C 
ATOM     36  C   UNL     1       9.569  -9.541  -6.189  1.00  0.00     0.029 A 
ATOM     37  C   UNL     1       8.902  -9.517  -4.974  1.00  0.00     0.049 A 
ATOM     38  H   UNL     1       7.810  -7.939  -4.098  1.00  0.00     0.167 HD
ATOM     39  C   UNL     1       8.137 -10.479  -2.805  1.00  0.00     0.074 A 
ATOM     40  C   UNL     1       8.058 -11.556  -1.838  1.00  0.00     0.031 C 
ATOM     41  C   UNL     1       8.787 -10.570  -3.994  1.00  0.00     0.034 A 
BRANCH  28  42
ATOM     42  C   UNL     1       8.594  -5.427  -7.475  1.00  0.00     0.023 A 
ATOM     43  C   UNL     1       9.403  -4.278  -7.481  1.00  0.00     0.031 A 
ATOM     44  C   UNL     1       8.067  -5.872  -8.700  1.00  0.00     0.131 A 
ATOM     45  C   UNL     1       9.607  -3.575  -8.679  1.00  0.00     0.055 A 
ATOM     46  C   UNL     1       8.332  -5.210  -9.899  1.00  0.00     0.041 A 
ATOM     47  F   UNL     1       7.260  -6.944  -8.746  1.00  0.00    -0.206 F 
ATOM     48  C   UNL     1       9.097  -4.047  -9.892  1.00  0.00     0.022 A 
BRANCH  45  49
ATOM     49  S   UNL     1      10.440  -1.965  -8.614  1.00  0.00     0.124 S 
ATOM     50  O   UNL     1       9.511  -1.186  -7.799  1.00  0.00    -0.237 OA
ATOM     51  O   UNL     1      11.716  -2.292  -7.989  1.00  0.00    -0.237 OA
ATOM     52  O   UNL     1      10.518  -1.562 -10.017  1.00  0.00    -0.744 OA
ENDBRANCH  45  49
ENDBRANCH  28  42
BRANCH  29  53
ATOM     53  C   UNL     1       5.624  -9.768   1.137  1.00  0.00     0.023 A 
ATOM     54  C   UNL     1       6.538 -10.278   2.075  1.00  0.00     0.031 A 
ATOM     55  C   UNL     1       4.253  -9.959   1.401  1.00  0.00     0.131 A 
ATOM     56  C   UNL     1       6.076 -10.994   3.195  1.00  0.00     0.055 A 
ATOM     57  C   UNL     1       3.797 -10.607   2.551  1.00  0.00     0.041 A 
ATOM     58  F   UNL     1       3.323  -9.513   0.540  1.00  0.00    -0.206 F 
ATOM     59  C   UNL     1       4.711 -11.145   3.448  1.00  0.00     0.022 A 
BRANCH  56  60
ATOM     60  S   UNL     1       7.284 -11.854   4.244  1.00  0.00     0.124 S 
ATOM     61  O   UNL     1       8.043 -12.618   3.260  1.00  0.00    -0.237 OA
ATOM     62  O   UNL     1       7.990 -10.745   4.876  1.00  0.00    -0.237 OA
ATOM     63  O   UNL     1       6.450 -12.654   5.140  1.00  0.00    -0.744 OA
ENDBRANCH  56  60
ENDBRANCH  29  53
BRANCH  41  64
ATOM     64  C   UNL     1       9.467 -11.882  -4.280  1.00  0.00     0.023 A 
ATOM     65  C   UNL     1       8.725 -13.055  -4.499  1.00  0.00     0.031 A 
ATOM     66  C   UNL     1      10.869 -11.964  -4.306  1.00  0.00     0.131 A 
ATOM     67  C   UNL     1       9.389 -14.275  -4.673  1.00  0.00     0.055 A 
ATOM     68  C   UNL     1      11.525 -13.171  -4.543  1.00  0.00     0.041 A 
ATOM     69  F   UNL     1      11.621 -10.871  -4.101  1.00  0.00    -0.206 F 
ATOM     70  C   UNL     1      10.785 -14.338  -4.714  1.00  0.00     0.022 A 
BRANCH  67  71
ATOM     71  S   UNL     1       8.405 -15.795  -4.754  1.00  0.00     0.124 S 
ATOM     72  O   UNL     1       7.739 -15.793  -3.455  1.00  0.00    -0.237 OA
ATOM     73  O   UNL     1       7.547 -15.551  -5.910  1.00  0.00    -0.237 OA
ATOM     74  O   UNL     1       9.407 -16.843  -4.937  1.00  0.00    -0.744 OA
ENDBRANCH  67  71
ENDBRANCH  41  64
ENDBRANCH  15  16
ENDBRANCH   8  10
ENDBRANCH   7   8
ENDBRANCH   6   7
ENDBRANCH   5   6
ENDBRANCH   4   5
ENDBRANCH   3   4
ENDBRANCH   2   3
ENDBRANCH   1   2
BRANCH   1  75
ATOM     75  C   UNL     1       3.630   0.477   4.717  1.00  0.00     0.202 C 
BRANCH  75  76
ATOM     76  C   UNL     1       4.265  -0.920   4.805  1.00  0.00     0.261 C 
BRANCH  76  77
ATOM     77  O   UNL     1       3.814  -1.857   3.823  1.00  0.00    -0.462 OA
BRANCH  77  78
ATOM     78  C   UNL     1       3.098  -2.926   4.286  1.00  0.00     0.329 C 
ATOM     79  O   UNL     1       2.789  -3.113   5.456  1.00  0.00    -0.250 OA
BRANCH  78  80
ATOM     80  C   UNL     1       2.764  -3.870   3.123  1.00  0.00     0.198 C 
ATOM     81  C   UNL     1       1.263  -4.194   3.103  1.00  0.00     0.039 C 
ATOM     82  N   UNL     1       3.397  -5.170   3.300  1.00  0.00    -0.294 N 
ATOM     83  C   UNL     1       1.205  -5.656   2.670  1.00  0.00     0.024 C 
ATOM     84  C   UNL     1       2.440  -6.254   3.321  1.00  0.00     0.124 C 
BRANCH  82  85
ATOM     85  C   UNL     1       4.749  -5.379   3.349  1.00  0.00     0.410 C 
ATOM     86  O   UNL     1       5.253  -6.487   3.470  1.00  0.00    -0.224 OA
BRANCH  85  87
ATOM     87  O   UNL     1       5.444  -4.213   3.264  1.00  0.00    -0.445 OA
BRANCH  87  88
ATOM     88  C   UNL     1       6.852  -4.315   3.524  1.00  0.00     0.270 C 
BRANCH  88  89
ATOM     89  C   UNL     1       7.080  -4.588   4.990  1.00  0.00    -0.010 A 
ATOM     90  C   UNL     1       7.501  -5.856   5.400  1.00  0.00     0.009 A 
ATOM     91  C   UNL     1       6.743  -3.639   5.962  1.00  0.00     0.009 A 
ATOM     92  C   UNL     1       7.532  -6.185   6.755  1.00  0.00     0.031 A 
ATOM     93  C   UNL     1       6.780  -3.973   7.319  1.00  0.00     0.031 A 
ATOM     94  C   UNL     1       7.157  -5.259   7.733  1.00  0.00     0.086 A 
BRANCH  94  95
ATOM     95  N   UNL     1       7.196  -5.697   9.071  1.00  0.00    -0.151 NA
ATOM     96  N   UNL     1       6.705  -4.898   9.893  1.00  0.00    -0.151 NA
BRANCH  96  97
ATOM     97  C   UNL     1       6.808  -5.393  11.211  1.00  0.00     0.086 A 
ATOM     98  C   UNL     1       5.817  -5.041  12.134  1.00  0.00     0.030 A 
ATOM     99  C   UNL     1       7.880  -6.185  11.653  1.00  0.00     0.030 A 
ATOM    100  C   UNL     1       5.886  -5.476  13.461  1.00  0.00     0.002 A 
ATOM    101  C   UNL     1       7.951  -6.626  12.975  1.00  0.00     0.002 A 
ATOM    102  C   UNL     1       6.954  -6.269  13.880  1.00  0.00     0.000 A 
ENDBRANCH  96  97
ENDBRANCH  94  95
ENDBRANCH  88  89
ENDBRANCH  87  88
ENDBRANCH  85  87
ENDBRANCH  82  85
ENDBRANCH  78  80
ENDBRANCH  77  78
ENDBRANCH  76  77
ENDBRANCH  75  76
ENDBRANCH   1  75
TORSDOF 26
