REMARK SMILES C[C@H]1[C@H](C)CC[C@@]2(C(=O)OCCOCCOCCOC(=O)c3ccc(-c4c5nc(c(-c6cc(S(=O)(=O)[O-])ccc6F)c6ccc([nH]6)c(-c6cc(S(=O)(=O)[O-])ccc6F)c6nc(c(-c7cc(S(=O)(=O)[O-])ccc7F)c7ccc4[nH]7)C=C6)C=C5)cc3)CC[C@@]3(C)C(=CC[C@@H]4[C@@]5(C)CC[C@H](O)C(C)(C)[C@@H]5CC[C@]43C)[C@H]12
REMARK SMILES IDX 15 1 14 2 13 3 12 4 11 5 10 6 8 7 9 8 7 9 1 10 2 11 3 12
REMARK SMILES IDX 107 13 4 14 5 15 89 16 6 17 85 18 87 19 90 20 86 21 88 22
REMARK SMILES IDX 105 23 91 24 92 25 104 26 106 27 93 28 103 29 94 30 95 31
REMARK SMILES IDX 102 32 96 33 99 34 97 35 100 36 101 37 98 38 16 40 17 41
REMARK SMILES IDX 18 42 19 43 20 44 21 45 22 46 23 47 84 48 24 49 83 50 25 51
REMARK SMILES IDX 26 52 27 53 77 54 28 55 82 56 76 57 78 58 29 59 81 60 75 61
REMARK SMILES IDX 74 62 30 64 62 65 42 66 61 67 43 68 46 69 60 70 79 71 44 72
REMARK SMILES IDX 45 73 59 75 80 76 47 77 31 78 32 79 40 80 33 81 39 82 41 83
REMARK SMILES IDX 38 84 34 85 35 86 36 87 37 88 63 89 64 90 72 91 65 92 71 93
REMARK SMILES IDX 73 94 70 95 66 96 67 97 68 98 69 99 48 100 49 101 57 102
REMARK SMILES IDX 50 103 56 104 58 105 55 106 51 107 52 108 53 109 54 110
REMARK H PARENT 98 39 78 63 46 74
REMARK Flexibility Score: inf
ROOT
ATOM      1  C   UNL     1      -3.137  -0.944   3.035  1.00  0.00     0.188 C 
ENDROOT
BRANCH   1   2
ATOM      2  C   UNL     1      -3.053   0.587   3.355  1.00  0.00     0.188 C 
BRANCH   2   3
ATOM      3  O   UNL     1      -3.515   1.401   2.300  1.00  0.00    -0.376 OA
BRANCH   3   4
ATOM      4  C   UNL     1      -2.511   1.651   1.347  1.00  0.00     0.202 C 
BRANCH   4   5
ATOM      5  C   UNL     1      -1.518   0.528   1.053  1.00  0.00     0.261 C 
BRANCH   5   6
ATOM      6  O   UNL     1      -0.481   0.029   2.015  1.00  0.00    -0.463 OA
BRANCH   6   7
ATOM      7  C   UNL     1      -0.085  -0.451   3.222  1.00  0.00     0.312 C 
ATOM      8  O   UNL     1      -0.748  -0.555   4.246  1.00  0.00    -0.252 OA
BRANCH   7   9
ATOM      9  C   UNL     1       1.368  -0.982   3.158  1.00  0.00     0.075 C 
ATOM     10  C   UNL     1       2.507   0.074  -0.501  1.00  0.00     0.008 C 
ATOM     11  C   UNL     1       1.718  -0.600   0.621  1.00  0.00    -0.003 C 
ATOM     12  C   UNL     1       1.611  -2.157   0.408  1.00  0.00    -0.011 C 
ATOM     13  C   UNL     1       2.163  -0.141   2.115  1.00  0.00     0.036 C 
ATOM     14  C   UNL     1       0.876  -2.564  -0.889  1.00  0.00     0.008 C 
ATOM     15  C   UNL     1       0.844  -2.874   1.522  1.00  0.00     0.005 C 
ATOM     16  C   UNL     1       1.984   1.350   2.680  1.00  0.00    -0.063 C 
ATOM     17  C   UNL     1       1.322  -2.495   2.896  1.00  0.00     0.020 C 
ATOM     18  C   UNL     1       2.047  -0.864   4.545  1.00  0.00     0.020 C 
ATOM     19  C   UNL     1       2.441   1.663   4.173  1.00  0.00    -0.006 C 
ATOM     20  C   UNL     1       1.203   2.245   2.044  1.00  0.00    -0.027 C 
ATOM     21  C   UNL     1       1.997   0.530   5.134  1.00  0.00     0.013 C 
ATOM     22  C   UNL     1       3.989   1.669   4.171  1.00  0.00     0.017 C 
ATOM     23  C   UNL     1       1.856   3.104   4.756  1.00  0.00    -0.020 C 
ATOM     24  C   UNL     1       0.440   3.344   2.744  1.00  0.00     0.032 C 
ATOM     25  C   UNL     1       0.361   3.207   4.289  1.00  0.00     0.006 C 
ATOM     26  C   UNL     1       1.905   3.235   6.300  1.00  0.00     0.008 C 
ATOM     27  C   UNL     1       2.713   4.280   4.203  1.00  0.00     0.012 C 
ATOM     28  C   UNL     1      -0.633   4.254   5.020  1.00  0.00    -0.025 C 
ATOM     29  C   UNL     1       1.213   4.505   6.829  1.00  0.00     0.005 C 
ATOM     30  C   UNL     1      -0.698   5.549   4.182  1.00  0.00     0.012 C 
ATOM     31  C   UNL     1      -2.099   3.684   5.064  1.00  0.00     0.010 C 
ATOM     32  C   UNL     1      -0.294   4.455   6.550  1.00  0.00     0.003 C 
ATOM     33  C   UNL     1      -3.109   4.601   5.782  1.00  0.00     0.033 C 
ATOM     34  C   UNL     1      -1.176   5.541   7.299  1.00  0.00    -0.006 C 
ATOM     35  C   UNL     1      -2.672   5.103   7.167  1.00  0.00     0.120 C 
ATOM     36  C   UNL     1      -0.928   7.000   6.844  1.00  0.00     0.014 C 
ATOM     37  C   UNL     1      -0.855   5.566   8.821  1.00  0.00     0.014 C 
BRANCH  35  38
ATOM     38  O   UNL     1      -3.570   6.139   7.579  1.00  0.00    -0.393 OA
ATOM     39  H   UNL     1      -3.500   6.889   6.968  1.00  0.00     0.210 HD
ENDBRANCH  35  38
ENDBRANCH   7   9
ENDBRANCH   6   7
ENDBRANCH   5   6
ENDBRANCH   4   5
ENDBRANCH   3   4
ENDBRANCH   2   3
ENDBRANCH   1   2
BRANCH   1  40
ATOM     40  O   UNL     1      -3.943  -1.384   1.952  1.00  0.00    -0.376 OA
BRANCH  40  41
ATOM     41  C   UNL     1      -5.198  -0.764   1.789  1.00  0.00     0.202 C 
BRANCH  41  42
ATOM     42  C   UNL     1      -6.129  -0.673   3.014  1.00  0.00     0.261 C 
BRANCH  42  43
ATOM     43  O   UNL     1      -5.575  -0.143   4.249  1.00  0.00    -0.460 OA
BRANCH  43  44
ATOM     44  C   UNL     1      -5.266  -1.035   5.233  1.00  0.00     0.338 C 
ATOM     45  O   UNL     1      -5.514  -2.238   5.189  1.00  0.00    -0.246 OA
BRANCH  44  46
ATOM     46  C   UNL     1      -4.383  -0.450   6.300  1.00  0.00     0.060 A 
ATOM     47  C   UNL     1      -3.187  -1.112   6.640  1.00  0.00     0.016 A 
ATOM     48  C   UNL     1      -4.738   0.692   7.019  1.00  0.00     0.016 A 
ATOM     49  C   UNL     1      -2.414  -0.711   7.744  1.00  0.00     0.010 A 
ATOM     50  C   UNL     1      -3.973   1.083   8.140  1.00  0.00     0.010 A 
ATOM     51  C   UNL     1      -2.842   0.344   8.556  1.00  0.00    -0.014 A 
BRANCH  51  52
ATOM     52  C   UNL     1      -2.328   0.478   9.963  1.00  0.00     0.031 A 
ATOM     53  C   UNL     1      -3.190  -0.074  11.079  1.00  0.00     0.074 A 
ATOM     54  C   UNL     1      -1.140   1.027  10.290  1.00  0.00     0.049 A 
ATOM     55  N   UNL     1      -3.038  -0.001  12.378  1.00  0.00    -0.248 NA
ATOM     56  C   UNL     1      -4.394  -0.808  10.659  1.00  0.00     0.031 C 
ATOM     57  C   UNL     1      -0.144   1.517   9.344  1.00  0.00     0.029 A 
ATOM     58  N   UNL     1      -0.574   1.276  11.524  1.00  0.00    -0.354 N 
ATOM     59  C   UNL     1      -4.134  -0.662  12.928  1.00  0.00     0.074 A 
ATOM     60  C   UNL     1      -4.961  -1.089  11.820  1.00  0.00     0.031 C 
ATOM     61  C   UNL     1       0.891   2.041  10.028  1.00  0.00     0.029 A 
ATOM     62  C   UNL     1       0.625   1.954  11.465  1.00  0.00     0.049 A 
ATOM     63  H   UNL     1      -0.989   0.995  12.371  1.00  0.00     0.167 HD
ATOM     64  C   UNL     1      -4.426  -0.906  14.230  1.00  0.00     0.034 A 
ATOM     65  C   UNL     1       1.404   2.470  12.445  1.00  0.00     0.034 A 
ATOM     66  C   UNL     1      -3.607  -0.483  15.340  1.00  0.00     0.049 A 
ATOM     67  C   UNL     1       1.001   2.295  13.896  1.00  0.00     0.074 A 
ATOM     68  C   UNL     1      -3.813  -0.701  16.692  1.00  0.00     0.029 A 
ATOM     69  N   UNL     1      -2.436   0.254  15.234  1.00  0.00    -0.354 N 
ATOM     70  N   UNL     1      -0.039   1.671  14.400  1.00  0.00    -0.248 NA
ATOM     71  C   UNL     1       1.887   2.886  14.912  1.00  0.00     0.031 C 
ATOM     72  C   UNL     1      -2.820  -0.022  17.405  1.00  0.00     0.029 A 
ATOM     73  C   UNL     1      -1.934   0.535  16.498  1.00  0.00     0.049 A 
ATOM     74  H   UNL     1      -2.021   0.537  14.387  1.00  0.00     0.167 HD
ATOM     75  C   UNL     1       0.097   1.757  15.787  1.00  0.00     0.074 A 
ATOM     76  C   UNL     1       1.321   2.485  16.040  1.00  0.00     0.031 C 
ATOM     77  C   UNL     1      -0.714   1.265  16.759  1.00  0.00     0.034 A 
BRANCH  64  78
ATOM     78  C   UNL     1      -5.726  -1.620  14.525  1.00  0.00     0.023 A 
ATOM     79  C   UNL     1      -5.971  -2.933  14.086  1.00  0.00     0.031 A 
ATOM     80  C   UNL     1      -6.749  -0.961  15.232  1.00  0.00     0.131 A 
ATOM     81  C   UNL     1      -7.233  -3.514  14.288  1.00  0.00     0.055 A 
ATOM     82  C   UNL     1      -7.970  -1.579  15.507  1.00  0.00     0.041 A 
ATOM     83  F   UNL     1      -6.583   0.301  15.658  1.00  0.00    -0.206 F 
ATOM     84  C   UNL     1      -8.224  -2.856  15.020  1.00  0.00     0.022 A 
BRANCH  81  85
ATOM     85  S   UNL     1      -7.614  -5.074  13.445  1.00  0.00     0.124 S 
ATOM     86  O   UNL     1      -7.394  -4.716  12.046  1.00  0.00    -0.237 OA
ATOM     87  O   UNL     1      -6.644  -5.994  14.030  1.00  0.00    -0.237 OA
ATOM     88  O   UNL     1      -9.008  -5.326  13.804  1.00  0.00    -0.744 OA
ENDBRANCH  81  85
ENDBRANCH  64  78
BRANCH  65  89
ATOM     89  C   UNL     1       2.631   3.261  12.110  1.00  0.00     0.023 A 
ATOM     90  C   UNL     1       3.910   2.853  12.528  1.00  0.00     0.031 A 
ATOM     91  C   UNL     1       2.527   4.494  11.441  1.00  0.00     0.131 A 
ATOM     92  C   UNL     1       5.021   3.688  12.313  1.00  0.00     0.055 A 
ATOM     93  C   UNL     1       3.642   5.293  11.177  1.00  0.00     0.041 A 
ATOM     94  F   UNL     1       1.330   4.948  11.040  1.00  0.00    -0.206 F 
ATOM     95  C   UNL     1       4.897   4.897  11.626  1.00  0.00     0.022 A 
BRANCH  92  96
ATOM     96  S   UNL     1       6.621   3.219  13.031  1.00  0.00     0.124 S 
ATOM     97  O   UNL     1       6.302   3.154  14.452  1.00  0.00    -0.237 OA
ATOM     98  O   UNL     1       6.887   1.945  12.372  1.00  0.00    -0.237 OA
ATOM     99  O   UNL     1       7.505   4.316  12.638  1.00  0.00    -0.744 OA
ENDBRANCH  92  96
ENDBRANCH  65  89
BRANCH  77 100
ATOM    100  C   UNL     1      -0.274   1.436  18.198  1.00  0.00     0.023 A 
ATOM    101  C   UNL     1      -0.156   2.700  18.803  1.00  0.00     0.031 A 
ATOM    102  C   UNL     1       0.038   0.305  18.978  1.00  0.00     0.131 A 
ATOM    103  C   UNL     1       0.318   2.806  20.122  1.00  0.00     0.055 A 
ATOM    104  C   UNL     1       0.441   0.413  20.311  1.00  0.00     0.041 A 
ATOM    105  F   UNL     1      -0.049  -0.930  18.459  1.00  0.00    -0.206 F 
ATOM    106  C   UNL     1       0.597   1.670  20.886  1.00  0.00     0.022 A 
BRANCH 103 107
ATOM    107  S   UNL     1       0.670   4.454  20.795  1.00  0.00     0.124 S 
ATOM    108  O   UNL     1       1.627   4.979  19.827  1.00  0.00    -0.237 OA
ATOM    109  O   UNL     1      -0.648   5.081  20.794  1.00  0.00    -0.237 OA
ATOM    110  O   UNL     1       1.221   4.174  22.120  1.00  0.00    -0.744 OA
ENDBRANCH 103 107
ENDBRANCH  77 100
ENDBRANCH  51  52
ENDBRANCH  44  46
ENDBRANCH  43  44
ENDBRANCH  42  43
ENDBRANCH  41  42
ENDBRANCH  40  41
ENDBRANCH   1  40
TORSDOF 21
