REMARK SMILES C[C@@H](O)[C@@H](NC(=O)CN(C)C(=O)c1cccs1)C(=O)OCCOCCOCCOC(=O)c1ccc(-c2c3nc(c(-c4cc(S(=O)(=O)[O-])ccc4F)c4ccc([nH]4)c(-c4cc(S(=O)(=O)[O-])ccc4F)c4nc(c(-c5cc(S(=O)(=O)[O-])ccc5F)c5ccc2[nH]5)C=C4)C=C3)cc1
REMARK SMILES IDX 24 1 23 2 22 3 21 4 20 5 18 6 19 7 4 8 2 9 1 10 3 11 5 13
REMARK SMILES IDX 6 14 7 16 8 17 9 18 10 19 11 20 12 21 13 22 14 23 17 24
REMARK SMILES IDX 15 25 16 26 25 27 26 28 27 29 28 30 29 31 30 32 31 33 32 34
REMARK SMILES IDX 33 35 94 36 34 37 93 38 35 39 36 40 37 41 87 42 38 43 92 44
REMARK SMILES IDX 86 45 88 46 39 47 91 48 85 49 84 50 40 52 72 53 52 54 71 55
REMARK SMILES IDX 53 56 56 57 70 58 89 59 54 60 55 61 69 63 90 64 57 65 41 66
REMARK SMILES IDX 42 67 50 68 43 69 49 70 51 71 48 72 44 73 45 74 46 75 47 76
REMARK SMILES IDX 73 77 74 78 82 79 75 80 81 81 83 82 80 83 76 84 77 85 78 86
REMARK SMILES IDX 79 87 58 88 59 89 67 90 60 91 66 92 68 93 65 94 61 95 62 96
REMARK SMILES IDX 63 97 64 98
REMARK H PARENT 3 12 5 15 88 51 56 62
REMARK Flexibility Score: inf
ROOT
ATOM      1  C   UNL     1      -1.994   0.126   5.225  1.00  0.00     0.188 C 
ENDROOT
BRANCH   1   2
ATOM      2  O   UNL     1      -2.837  -0.836   5.847  1.00  0.00    -0.376 OA
BRANCH   2   3
ATOM      3  C   UNL     1      -2.975  -2.055   5.114  1.00  0.00     0.202 C 
BRANCH   3   4
ATOM      4  C   UNL     1      -3.618  -1.849   3.738  1.00  0.00     0.261 C 
BRANCH   4   5
ATOM      5  O   UNL     1      -2.579  -1.573   2.770  1.00  0.00    -0.462 OA
BRANCH   5   6
ATOM      6  C   UNL     1      -2.973  -0.984   1.614  1.00  0.00     0.331 C 
ATOM      7  O   UNL     1      -4.139  -0.690   1.373  1.00  0.00    -0.250 OA
BRANCH   6   8
ATOM      8  C   UNL     1      -1.865  -0.952   0.547  1.00  0.00     0.221 C 
BRANCH   8   9
ATOM      9  C   UNL     1      -0.402  -0.640   0.939  1.00  0.00     0.145 C 
ATOM     10  C   UNL     1       0.395  -0.112  -0.262  1.00  0.00     0.041 C 
BRANCH   9  11
ATOM     11  O   UNL     1      -0.320   0.325   1.983  1.00  0.00    -0.391 OA
ATOM     12  H   UNL     1      -0.698   1.165   1.677  1.00  0.00     0.211 HD
ENDBRANCH   9  11
ENDBRANCH   8   9
BRANCH   8  13
ATOM     13  N   UNL     1      -1.955  -2.093  -0.383  1.00  0.00    -0.339 N 
ATOM     14  C   UNL     1      -1.671  -3.419  -0.229  1.00  0.00     0.240 C 
ATOM     15  H   UNL     1      -2.280  -1.854  -1.281  1.00  0.00     0.164 HD
ATOM     16  O   UNL     1      -1.391  -4.035  -1.261  1.00  0.00    -0.273 OA
BRANCH  14  17
ATOM     17  C   UNL     1      -1.720  -4.130   1.137  1.00  0.00     0.219 C 
BRANCH  17  18
ATOM     18  N   UNL     1      -0.460  -4.363   1.851  1.00  0.00    -0.332 N 
ATOM     19  C   UNL     1      -0.125  -3.513   2.985  1.00  0.00     0.147 C 
BRANCH  18  20
ATOM     20  C   UNL     1       0.273  -5.531   1.559  1.00  0.00     0.264 C 
ATOM     21  O   UNL     1      -0.019  -6.273   0.640  1.00  0.00    -0.268 OA
BRANCH  20  22
ATOM     22  C   UNL     1       1.369  -5.821   2.477  1.00  0.00     0.092 A 
ATOM     23  C   UNL     1       1.304  -6.156   3.817  1.00  0.00     0.025 A 
ATOM     24  S   UNL     1       2.982  -5.694   1.930  1.00  0.00    -0.139 S 
ATOM     25  C   UNL     1       2.591  -6.184   4.425  1.00  0.00     0.012 A 
ATOM     26  C   UNL     1       3.593  -5.935   3.513  1.00  0.00     0.065 A 
ENDBRANCH  20  22
ENDBRANCH  18  20
ENDBRANCH  17  18
ENDBRANCH  14  17
ENDBRANCH   8  13
ENDBRANCH   6   8
ENDBRANCH   5   6
ENDBRANCH   4   5
ENDBRANCH   3   4
ENDBRANCH   2   3
ENDBRANCH   1   2
BRANCH   1  27
ATOM     27  C   UNL     1      -0.542   0.030   5.663  1.00  0.00     0.188 C 
BRANCH  27  28
ATOM     28  O   UNL     1       0.042  -1.276   5.637  1.00  0.00    -0.376 OA
BRANCH  28  29
ATOM     29  C   UNL     1       0.854  -1.527   6.798  1.00  0.00     0.202 C 
BRANCH  29  30
ATOM     30  C   UNL     1       2.171  -0.729   6.869  1.00  0.00     0.261 C 
BRANCH  30  31
ATOM     31  O   UNL     1       1.911   0.687   6.942  1.00  0.00    -0.460 OA
BRANCH  31  32
ATOM     32  C   UNL     1       2.340   1.420   5.881  1.00  0.00     0.338 C 
ATOM     33  O   UNL     1       3.142   1.058   5.036  1.00  0.00    -0.246 OA
BRANCH  32  34
ATOM     34  C   UNL     1       1.486   2.634   5.733  1.00  0.00     0.060 A 
ATOM     35  C   UNL     1       1.290   3.126   4.433  1.00  0.00     0.016 A 
ATOM     36  C   UNL     1       0.792   3.213   6.803  1.00  0.00     0.016 A 
ATOM     37  C   UNL     1       0.436   4.207   4.204  1.00  0.00     0.010 A 
ATOM     38  C   UNL     1      -0.061   4.301   6.573  1.00  0.00     0.010 A 
ATOM     39  C   UNL     1      -0.217   4.824   5.277  1.00  0.00    -0.014 A 
BRANCH  39  40
ATOM     40  C   UNL     1      -0.846   6.154   5.079  1.00  0.00     0.031 A 
ATOM     41  C   UNL     1      -0.001   7.369   5.359  1.00  0.00     0.074 A 
ATOM     42  C   UNL     1      -2.108   6.298   4.635  1.00  0.00     0.049 A 
ATOM     43  N   UNL     1      -0.311   8.636   5.291  1.00  0.00    -0.248 NA
ATOM     44  C   UNL     1       1.385   7.106   5.778  1.00  0.00     0.031 C 
ATOM     45  C   UNL     1      -3.017   5.208   4.285  1.00  0.00     0.029 A 
ATOM     46  N   UNL     1      -2.845   7.436   4.408  1.00  0.00    -0.354 N 
ATOM     47  C   UNL     1       0.843   9.324   5.654  1.00  0.00     0.074 A 
ATOM     48  C   UNL     1       1.842   8.330   5.982  1.00  0.00     0.031 C 
ATOM     49  C   UNL     1      -4.197   5.731   3.902  1.00  0.00     0.029 A 
ATOM     50  C   UNL     1      -4.136   7.190   4.003  1.00  0.00     0.049 A 
ATOM     51  H   UNL     1      -2.482   8.343   4.524  1.00  0.00     0.167 HD
ATOM     52  C   UNL     1       1.058  10.661   5.700  1.00  0.00     0.034 A 
ATOM     53  C   UNL     1      -5.153   8.044   3.764  1.00  0.00     0.034 A 
ATOM     54  C   UNL     1       0.054  11.647   5.401  1.00  0.00     0.049 A 
ATOM     55  C   UNL     1      -4.921   9.531   3.914  1.00  0.00     0.074 A 
ATOM     56  C   UNL     1       0.163  13.026   5.426  1.00  0.00     0.029 A 
ATOM     57  N   UNL     1      -1.254  11.357   5.035  1.00  0.00    -0.354 N 
ATOM     58  N   UNL     1      -3.823  10.168   4.252  1.00  0.00    -0.248 NA
ATOM     59  C   UNL     1      -6.067  10.413   3.647  1.00  0.00     0.031 C 
ATOM     60  C   UNL     1      -1.094  13.569   5.133  1.00  0.00     0.029 A 
ATOM     61  C   UNL     1      -1.970  12.530   4.861  1.00  0.00     0.049 A 
ATOM     62  H   UNL     1      -1.619  10.450   4.917  1.00  0.00     0.167 HD
ATOM     63  C   UNL     1      -4.141  11.525   4.207  1.00  0.00     0.074 A 
ATOM     64  C   UNL     1      -5.529  11.614   3.806  1.00  0.00     0.031 C 
ATOM     65  C   UNL     1      -3.356  12.601   4.467  1.00  0.00     0.034 A 
BRANCH  52  66
ATOM     66  C   UNL     1       2.424  11.109   6.150  1.00  0.00     0.023 A 
ATOM     67  C   UNL     1       3.574  10.839   5.386  1.00  0.00     0.031 A 
ATOM     68  C   UNL     1       2.588  11.743   7.393  1.00  0.00     0.131 A 
ATOM     69  C   UNL     1       4.842  11.128   5.910  1.00  0.00     0.055 A 
ATOM     70  C   UNL     1       3.849  12.099   7.874  1.00  0.00     0.041 A 
ATOM     71  F   UNL     1       1.527  11.998   8.175  1.00  0.00    -0.206 F 
ATOM     72  C   UNL     1       4.986  11.777   7.139  1.00  0.00     0.022 A 
BRANCH  69  73
ATOM     73  S   UNL     1       6.302  10.501   5.035  1.00  0.00     0.124 S 
ATOM     74  O   UNL     1       6.053   9.061   5.041  1.00  0.00    -0.237 OA
ATOM     75  O   UNL     1       6.202  11.162   3.740  1.00  0.00    -0.237 OA
ATOM     76  O   UNL     1       7.417  10.936   5.874  1.00  0.00    -0.744 OA
ENDBRANCH  69  73
ENDBRANCH  52  66
BRANCH  53  77
ATOM     77  C   UNL     1      -6.509   7.534   3.409  1.00  0.00     0.023 A 
ATOM     78  C   UNL     1      -7.087   7.801   2.158  1.00  0.00     0.031 A 
ATOM     79  C   UNL     1      -7.279   6.836   4.357  1.00  0.00     0.131 A 
ATOM     80  C   UNL     1      -8.413   7.414   1.903  1.00  0.00     0.055 A 
ATOM     81  C   UNL     1      -8.581   6.413   4.082  1.00  0.00     0.041 A 
ATOM     82  F   UNL     1      -6.776   6.560   5.570  1.00  0.00    -0.206 F 
ATOM     83  C   UNL     1      -9.160   6.713   2.853  1.00  0.00     0.022 A 
BRANCH  80  84
ATOM     84  S   UNL     1      -9.181   7.913   0.336  1.00  0.00     0.124 S 
ATOM     85  O   UNL     1      -9.094   9.367   0.412  1.00  0.00    -0.237 OA
ATOM     86  O   UNL     1      -8.315   7.268  -0.645  1.00  0.00    -0.237 OA
ATOM     87  O   UNL     1     -10.532   7.363   0.428  1.00  0.00    -0.744 OA
ENDBRANCH  80  84
ENDBRANCH  53  77
BRANCH  65  88
ATOM     88  C   UNL     1      -3.967  13.966   4.274  1.00  0.00     0.023 A 
ATOM     89  C   UNL     1      -4.954  14.465   5.141  1.00  0.00     0.031 A 
ATOM     90  C   UNL     1      -3.545  14.780   3.209  1.00  0.00     0.131 A 
ATOM     91  C   UNL     1      -5.516  15.729   4.904  1.00  0.00     0.055 A 
ATOM     92  C   UNL     1      -4.073  16.055   3.005  1.00  0.00     0.041 A 
ATOM     93  F   UNL     1      -2.603  14.351   2.354  1.00  0.00    -0.206 F 
ATOM     94  C   UNL     1      -5.072  16.532   3.850  1.00  0.00     0.022 A 
BRANCH  91  95
ATOM     95  S   UNL     1      -6.882  16.291   5.957  1.00  0.00     0.124 S 
ATOM     96  O   UNL     1      -7.883  15.252   5.736  1.00  0.00    -0.237 OA
ATOM     97  O   UNL     1      -6.268  16.313   7.280  1.00  0.00    -0.237 OA
ATOM     98  O   UNL     1      -7.220  17.604   5.410  1.00  0.00    -0.744 OA
ENDBRANCH  91  95
ENDBRANCH  65  88
ENDBRANCH  39  40
ENDBRANCH  32  34
ENDBRANCH  31  32
ENDBRANCH  30  31
ENDBRANCH  29  30
ENDBRANCH  28  29
ENDBRANCH  27  28
ENDBRANCH   1  27
TORSDOF 27
