REMARK SMILES CC(C)OC(=O)c1c(NC(=O)[C@H]2[C@@H](C(=O)OCCOCCOCCOC(=O)c3ccc(-c4c5nc(c(-c6cc(S(=O)(=O)[O-])ccc6F)c6ccc([nH]6)c(-c6cc(S(=O)(=O)[O-])ccc6F)c6nc(c(-c7cc(S(=O)(=O)[O-])ccc7F)c7ccc4[nH]7)C=C6)C=C5)cc3)[C@@H]3C=C[C@H]2CC3)sc2c1CCC2
REMARK SMILES IDX 20 1 19 2 18 3 17 4 16 5 14 6 15 7 13 8 12 9 94 10 91 11
REMARK SMILES IDX 93 12 95 13 92 14 96 15 10 16 9 17 11 19 8 20 7 21 99 22
REMARK SMILES IDX 97 23 98 24 100 25 102 26 101 27 5 28 6 29 4 30 2 31 1 32
REMARK SMILES IDX 3 33 21 34 22 35 23 36 24 37 25 38 26 39 27 40 28 41 29 42
REMARK SMILES IDX 90 43 30 44 89 45 31 46 32 47 33 48 83 49 34 50 88 51 82 52
REMARK SMILES IDX 84 53 35 54 87 55 81 56 80 57 36 59 68 60 48 61 67 62 49 63
REMARK SMILES IDX 52 64 66 65 85 66 50 67 51 68 65 70 86 71 53 72 37 73 38 74
REMARK SMILES IDX 46 75 39 76 45 77 47 78 44 79 40 80 41 81 42 82 43 83 69 84
REMARK SMILES IDX 70 85 78 86 71 87 77 88 79 89 76 90 72 91 73 92 74 93 75 94
REMARK SMILES IDX 54 95 55 96 63 97 56 98 62 99 64 100 61 101 57 102 58 103
REMARK SMILES IDX 59 104 60 105
REMARK H PARENT 9 18 84 58 52 69
REMARK Flexibility Score: inf
ROOT
ATOM      1  C   UNL     1      -7.013   4.629  -4.647  1.00  0.00     0.188 C 
ENDROOT
BRANCH   1   2
ATOM      2  O   UNL     1      -8.195   5.358  -4.951  1.00  0.00    -0.376 OA
BRANCH   2   3
ATOM      3  C   UNL     1      -9.303   5.112  -4.083  1.00  0.00     0.202 C 
BRANCH   3   4
ATOM      4  C   UNL     1      -9.120   5.605  -2.640  1.00  0.00     0.261 C 
BRANCH   4   5
ATOM      5  O   UNL     1      -7.994   4.970  -2.009  1.00  0.00    -0.463 OA
BRANCH   5   6
ATOM      6  C   UNL     1      -8.212   3.750  -1.454  1.00  0.00     0.310 C 
ATOM      7  O   UNL     1      -9.329   3.331  -1.234  1.00  0.00    -0.252 OA
BRANCH   6   8
ATOM      8  C   UNL     1      -6.894   3.050  -1.183  1.00  0.00     0.119 C 
ATOM      9  C   UNL     1      -6.576   1.641  -1.766  1.00  0.00     0.100 C 
ATOM     10  C   UNL     1      -5.697   0.845  -0.743  1.00  0.00     0.025 C 
ATOM     11  C   UNL     1      -6.364   3.167   0.272  1.00  0.00     0.026 C 
ATOM     12  C   UNL     1      -4.513   1.752  -0.374  1.00  0.00    -0.027 C 
ATOM     13  C   UNL     1      -6.375   0.660   0.628  1.00  0.00     0.009 C 
ATOM     14  C   UNL     1      -4.859   2.930   0.181  1.00  0.00    -0.027 C 
ATOM     15  C   UNL     1      -6.902   2.023   1.149  1.00  0.00     0.009 C 
BRANCH   9  16
ATOM     16  C   UNL     1      -7.421   0.836  -2.791  1.00  0.00     0.229 C 
ATOM     17  N   UNL     1      -8.746   0.546  -2.821  1.00  0.00    -0.317 N 
ATOM     18  H   UNL     1      -9.044   0.163  -3.677  1.00  0.00     0.170 HD
ATOM     19  O   UNL     1      -6.815   0.445  -3.809  1.00  0.00    -0.274 OA
BRANCH  17  20
ATOM     20  C   UNL     1      -9.753   0.677  -1.901  1.00  0.00     0.110 A 
ATOM     21  C   UNL     1     -11.104   0.971  -2.110  1.00  0.00     0.098 A 
ATOM     22  C   UNL     1     -11.654   1.408  -0.861  1.00  0.00    -0.017 A 
ATOM     23  S   UNL     1      -9.450   0.337  -0.271  1.00  0.00    -0.122 S 
ATOM     24  C   UNL     1     -10.769   1.242   0.166  1.00  0.00     0.011 A 
ATOM     25  C   UNL     1     -12.857   2.130  -0.381  1.00  0.00     0.038 C 
ATOM     26  C   UNL     1     -11.088   1.968   1.408  1.00  0.00     0.047 C 
ATOM     27  C   UNL     1     -12.368   2.742   0.976  1.00  0.00     0.010 C 
BRANCH  21  28
ATOM     28  C   UNL     1     -11.722   0.990  -3.424  1.00  0.00     0.341 C 
ATOM     29  O   UNL     1     -11.270   0.347  -4.368  1.00  0.00    -0.246 OA
BRANCH  28  30
ATOM     30  O   UNL     1     -12.857   1.738  -3.462  1.00  0.00    -0.459 OA
BRANCH  30  31
ATOM     31  C   UNL     1     -13.752   1.640  -4.589  1.00  0.00     0.170 C 
ATOM     32  C   UNL     1     -13.116   1.956  -5.939  1.00  0.00     0.052 C 
ATOM     33  C   UNL     1     -14.471   0.297  -4.562  1.00  0.00     0.052 C 
ENDBRANCH  30  31
ENDBRANCH  28  30
ENDBRANCH  21  28
ENDBRANCH  17  20
ENDBRANCH   9  16
ENDBRANCH   6   8
ENDBRANCH   5   6
ENDBRANCH   4   5
ENDBRANCH   3   4
ENDBRANCH   2   3
ENDBRANCH   1   2
BRANCH   1  34
ATOM     34  C   UNL     1      -5.885   5.438  -3.970  1.00  0.00     0.188 C 
BRANCH  34  35
ATOM     35  O   UNL     1      -6.097   6.755  -3.476  1.00  0.00    -0.376 OA
BRANCH  35  36
ATOM     36  C   UNL     1      -6.797   7.730  -4.238  1.00  0.00     0.202 C 
BRANCH  36  37
ATOM     37  C   UNL     1      -6.322   8.114  -5.631  1.00  0.00     0.261 C 
BRANCH  37  38
ATOM     38  O   UNL     1      -6.093   6.995  -6.466  1.00  0.00    -0.460 OA
BRANCH  38  39
ATOM     39  C   UNL     1      -4.795   6.629  -6.503  1.00  0.00     0.338 C 
ATOM     40  O   UNL     1      -3.888   7.068  -5.816  1.00  0.00    -0.246 OA
BRANCH  39  41
ATOM     41  C   UNL     1      -4.610   5.615  -7.542  1.00  0.00     0.060 A 
ATOM     42  C   UNL     1      -3.329   5.071  -7.633  1.00  0.00     0.016 A 
ATOM     43  C   UNL     1      -5.563   5.478  -8.562  1.00  0.00     0.016 A 
ATOM     44  C   UNL     1      -2.903   4.655  -8.868  1.00  0.00     0.010 A 
ATOM     45  C   UNL     1      -5.132   5.064  -9.799  1.00  0.00     0.010 A 
ATOM     46  C   UNL     1      -3.781   4.775  -9.951  1.00  0.00    -0.014 A 
BRANCH  46  47
ATOM     47  C   UNL     1      -3.211   4.617 -11.268  1.00  0.00     0.031 A 
ATOM     48  C   UNL     1      -2.877   3.226 -11.601  1.00  0.00     0.074 A 
ATOM     49  C   UNL     1      -3.004   5.653 -12.099  1.00  0.00     0.049 A 
ATOM     50  N   UNL     1      -1.700   2.708 -11.676  1.00  0.00    -0.248 NA
ATOM     51  C   UNL     1      -3.978   2.261 -11.685  1.00  0.00     0.031 C 
ATOM     52  C   UNL     1      -3.488   7.029 -11.978  1.00  0.00     0.029 A 
ATOM     53  N   UNL     1      -2.372   5.649 -13.303  1.00  0.00    -0.354 N 
ATOM     54  C   UNL     1      -1.902   1.389 -12.049  1.00  0.00     0.074 A 
ATOM     55  C   UNL     1      -3.302   1.123 -11.847  1.00  0.00     0.031 C 
ATOM     56  C   UNL     1      -3.327   7.658 -13.165  1.00  0.00     0.029 A 
ATOM     57  C   UNL     1      -2.613   6.775 -14.075  1.00  0.00     0.049 A 
ATOM     58  H   UNL     1      -1.794   4.910 -13.600  1.00  0.00     0.167 HD
ATOM     59  C   UNL     1      -0.943   0.703 -12.723  1.00  0.00     0.034 A 
ATOM     60  C   UNL     1      -2.317   6.927 -15.392  1.00  0.00     0.034 A 
ATOM     61  C   UNL     1       0.348   1.341 -12.601  1.00  0.00     0.049 A 
ATOM     62  C   UNL     1      -1.220   5.974 -15.706  1.00  0.00     0.074 A 
ATOM     63  C   UNL     1       1.159   1.680 -11.534  1.00  0.00     0.029 A 
ATOM     64  N   UNL     1       0.818   2.074 -13.669  1.00  0.00    -0.354 N 
ATOM     65  N   UNL     1      -0.016   6.084 -15.215  1.00  0.00    -0.248 NA
ATOM     66  C   UNL     1      -1.571   4.640 -16.173  1.00  0.00     0.031 C 
ATOM     67  C   UNL     1       1.736   2.935 -11.889  1.00  0.00     0.029 A 
ATOM     68  C   UNL     1       1.299   3.263 -13.174  1.00  0.00     0.049 A 
ATOM     69  H   UNL     1       0.811   1.796 -14.613  1.00  0.00     0.167 HD
ATOM     70  C   UNL     1       0.367   4.788 -14.903  1.00  0.00     0.074 A 
ATOM     71  C   UNL     1      -0.581   3.935 -15.616  1.00  0.00     0.031 C 
ATOM     72  C   UNL     1       1.236   4.530 -13.880  1.00  0.00     0.034 A 
BRANCH  59  73
ATOM     73  C   UNL     1      -1.240  -0.334 -13.774  1.00  0.00     0.023 A 
ATOM     74  C   UNL     1      -0.145  -1.016 -14.331  1.00  0.00     0.031 A 
ATOM     75  C   UNL     1      -2.473  -0.480 -14.451  1.00  0.00     0.131 A 
ATOM     76  C   UNL     1      -0.277  -1.714 -15.542  1.00  0.00     0.055 A 
ATOM     77  C   UNL     1      -2.615  -1.241 -15.613  1.00  0.00     0.041 A 
ATOM     78  F   UNL     1      -3.581   0.181 -14.096  1.00  0.00    -0.206 F 
ATOM     79  C   UNL     1      -1.506  -1.838 -16.184  1.00  0.00     0.022 A 
BRANCH  76  80
ATOM     80  S   UNL     1       1.229  -2.295 -16.359  1.00  0.00     0.124 S 
ATOM     81  O   UNL     1       2.016  -1.069 -16.431  1.00  0.00    -0.237 OA
ATOM     82  O   UNL     1       1.703  -3.312 -15.426  1.00  0.00    -0.237 OA
ATOM     83  O   UNL     1       0.744  -2.801 -17.641  1.00  0.00    -0.744 OA
ENDBRANCH  76  80
ENDBRANCH  59  73
BRANCH  60  84
ATOM     84  C   UNL     1      -3.164   7.589 -16.419  1.00  0.00     0.023 A 
ATOM     85  C   UNL     1      -2.662   7.997 -17.672  1.00  0.00     0.031 A 
ATOM     86  C   UNL     1      -4.570   7.617 -16.260  1.00  0.00     0.131 A 
ATOM     87  C   UNL     1      -3.550   8.409 -18.694  1.00  0.00     0.055 A 
ATOM     88  C   UNL     1      -5.440   8.035 -17.268  1.00  0.00     0.041 A 
ATOM     89  F   UNL     1      -5.156   7.155 -15.145  1.00  0.00    -0.206 F 
ATOM     90  C   UNL     1      -4.933   8.425 -18.495  1.00  0.00     0.022 A 
BRANCH  87  91
ATOM     91  S   UNL     1      -2.915   8.836 -20.347  1.00  0.00     0.124 S 
ATOM     92  O   UNL     1      -2.214  10.089 -20.096  1.00  0.00    -0.237 OA
ATOM     93  O   UNL     1      -2.087   7.681 -20.673  1.00  0.00    -0.237 OA
ATOM     94  O   UNL     1      -4.129   8.963 -21.155  1.00  0.00    -0.744 OA
ENDBRANCH  87  91
ENDBRANCH  60  84
BRANCH  72  95
ATOM     95  C   UNL     1       2.021   5.686 -13.290  1.00  0.00     0.023 A 
ATOM     96  C   UNL     1       1.446   6.850 -12.730  1.00  0.00     0.031 A 
ATOM     97  C   UNL     1       3.416   5.537 -13.190  1.00  0.00     0.131 A 
ATOM     98  C   UNL     1       2.267   7.816 -12.115  1.00  0.00     0.055 A 
ATOM     99  C   UNL     1       4.222   6.484 -12.560  1.00  0.00     0.041 A 
ATOM    100  F   UNL     1       4.021   4.441 -13.678  1.00  0.00    -0.206 F 
ATOM    101  C   UNL     1       3.651   7.632 -12.025  1.00  0.00     0.022 A 
BRANCH  98 102
ATOM    102  S   UNL     1       1.551   9.346 -11.432  1.00  0.00     0.124 S 
ATOM    103  O   UNL     1       0.671   9.817 -12.495  1.00  0.00    -0.237 OA
ATOM    104  O   UNL     1       0.892   8.871 -10.218  1.00  0.00    -0.237 OA
ATOM    105  O   UNL     1       2.722  10.193 -11.193  1.00  0.00    -0.744 OA
ENDBRANCH  98 102
ENDBRANCH  72  95
ENDBRANCH  46  47
ENDBRANCH  39  41
ENDBRANCH  38  39
ENDBRANCH  37  38
ENDBRANCH  36  37
ENDBRANCH  35  36
ENDBRANCH  34  35
ENDBRANCH   1  34
TORSDOF 25
