REMARK SMILES CC1=C(C)C[C@H](C(=O)OCCOCCOCCOC(=O)c2ccc(-c3c4nc(c(-c5cc(S(=O)(=O)[O-])ccc5F)c5ccc([nH]5)c(-c5cc(S(=O)(=O)[O-])ccc5F)c5nc(c(-c6cc(S(=O)(=O)[O-])ccc6F)c6ccc3[nH]6)C=C5)C=C4)cc2)[C@@H](C(=O)Nc2sc3c(c2C(=O)NC2CCCC2)CCCC3)C1
REMARK SMILES IDX 13 1 12 2 11 3 10 4 9 5 7 6 8 7 6 8 1 9 2 10 3 11 105 12
REMARK SMILES IDX 4 13 5 14 84 15 85 16 86 17 87 18 88 20 89 21 92 22 90 23
REMARK SMILES IDX 91 24 104 25 101 26 103 27 102 28 93 29 94 30 95 31 96 33
REMARK SMILES IDX 97 34 100 35 98 36 99 37 14 38 15 39 16 40 17 41 18 42 19 43
REMARK SMILES IDX 20 44 21 45 22 46 83 47 23 48 82 49 24 50 25 51 26 52 76 53
REMARK SMILES IDX 27 54 81 55 75 56 77 57 28 58 80 59 74 60 73 61 29 63 61 64
REMARK SMILES IDX 41 65 60 66 42 67 45 68 59 69 78 70 43 71 44 72 58 74 79 75
REMARK SMILES IDX 46 76 30 77 31 78 39 79 32 80 38 81 40 82 37 83 33 84 34 85
REMARK SMILES IDX 35 86 36 87 62 88 63 89 71 90 64 91 70 92 72 93 69 94 65 95
REMARK SMILES IDX 66 96 67 97 68 98 47 99 48 100 56 101 49 102 55 103 57 104
REMARK SMILES IDX 54 105 50 106 51 107 52 108 53 109
REMARK H PARENT 87 19 95 32 77 62 45 73
REMARK Flexibility Score: inf
ROOT
ATOM      1  C   UNL     1      -2.492   7.495  -0.296  1.00  0.00     0.188 C 
ENDROOT
BRANCH   1   2
ATOM      2  O   UNL     1      -3.778   7.108  -0.802  1.00  0.00    -0.376 OA
BRANCH   2   3
ATOM      3  C   UNL     1      -4.575   6.392   0.141  1.00  0.00     0.202 C 
BRANCH   3   4
ATOM      4  C   UNL     1      -4.343   4.876   0.176  1.00  0.00     0.261 C 
BRANCH   4   5
ATOM      5  O   UNL     1      -3.060   4.510   0.720  1.00  0.00    -0.463 OA
BRANCH   5   6
ATOM      6  C   UNL     1      -2.555   3.332   0.235  1.00  0.00     0.310 C 
ATOM      7  O   UNL     1      -3.029   2.699  -0.697  1.00  0.00    -0.252 OA
BRANCH   6   8
ATOM      8  C   UNL     1      -1.339   2.889   1.033  1.00  0.00     0.116 C 
ATOM      9  C   UNL     1       0.115  -1.204  -0.012  1.00  0.00     0.039 C 
ATOM     10  C   UNL     1      -0.454   0.125   0.420  1.00  0.00    -0.074 C 
ATOM     11  C   UNL     1      -1.265   0.330   1.479  1.00  0.00    -0.073 C 
ATOM     12  C   UNL     1      -0.015   1.250  -0.480  1.00  0.00     0.045 C 
ATOM     13  C   UNL     1      -1.841  -0.756   2.348  1.00  0.00     0.039 C 
ATOM     14  C   UNL     1      -1.698   1.707   1.924  1.00  0.00     0.046 C 
ATOM     15  C   UNL     1      -0.171   2.663   0.081  1.00  0.00     0.097 C 
BRANCH  15  16
ATOM     16  C   UNL     1       1.176   3.055   0.698  1.00  0.00     0.229 C 
ATOM     17  O   UNL     1       1.534   2.660   1.806  1.00  0.00    -0.274 OA
ATOM     18  N   UNL     1       2.026   3.783  -0.099  1.00  0.00    -0.317 N 
ATOM     19  H   UNL     1       2.996   3.731   0.063  1.00  0.00     0.170 HD
BRANCH  18  20
ATOM     20  C   UNL     1       1.560   4.578  -1.112  1.00  0.00     0.108 A 
ATOM     21  S   UNL     1       2.300   4.345  -2.572  1.00  0.00    -0.122 S 
ATOM     22  C   UNL     1       0.679   5.642  -1.155  1.00  0.00     0.078 A 
ATOM     23  C   UNL     1       1.195   5.367  -3.386  1.00  0.00     0.011 A 
ATOM     24  C   UNL     1       0.208   5.781  -2.521  1.00  0.00    -0.019 A 
ATOM     25  C   UNL     1       1.159   5.676  -4.872  1.00  0.00     0.047 C 
ATOM     26  C   UNL     1      -1.004   6.334  -3.196  1.00  0.00     0.037 C 
ATOM     27  C   UNL     1       0.339   6.916  -5.258  1.00  0.00     0.006 C 
ATOM     28  C   UNL     1      -0.635   7.424  -4.197  1.00  0.00     0.005 C 
BRANCH  22  29
ATOM     29  C   UNL     1       0.683   6.576  -0.035  1.00  0.00     0.254 C 
ATOM     30  O   UNL     1       0.981   7.751  -0.198  1.00  0.00    -0.269 OA
ATOM     31  N   UNL     1       0.580   6.020   1.209  1.00  0.00    -0.349 N 
ATOM     32  H   UNL     1      -0.219   5.482   1.417  1.00  0.00     0.164 HD
BRANCH  31  33
ATOM     33  C   UNL     1       1.588   6.182   2.237  1.00  0.00     0.082 C 
ATOM     34  C   UNL     1       3.009   6.515   1.778  1.00  0.00     0.025 C 
ATOM     35  C   UNL     1       1.329   7.253   3.279  1.00  0.00     0.025 C 
ATOM     36  C   UNL     1       3.730   6.757   3.095  1.00  0.00     0.002 C 
ATOM     37  C   UNL     1       2.662   7.326   4.036  1.00  0.00     0.002 C 
ENDBRANCH  31  33
ENDBRANCH  22  29
ENDBRANCH  18  20
ENDBRANCH  15  16
ENDBRANCH   6   8
ENDBRANCH   5   6
ENDBRANCH   4   5
ENDBRANCH   3   4
ENDBRANCH   2   3
ENDBRANCH   1   2
BRANCH   1  38
ATOM     38  C   UNL     1      -1.919   8.643  -1.156  1.00  0.00     0.188 C 
BRANCH  38  39
ATOM     39  O   UNL     1      -1.891   9.888  -0.463  1.00  0.00    -0.376 OA
BRANCH  39  40
ATOM     40  C   UNL     1      -0.571  10.293  -0.050  1.00  0.00     0.202 C 
BRANCH  40  41
ATOM     41  C   UNL     1       0.316  10.855  -1.191  1.00  0.00     0.261 C 
BRANCH  41  42
ATOM     42  O   UNL     1       1.100   9.892  -1.954  1.00  0.00    -0.460 OA
BRANCH  42  43
ATOM     43  C   UNL     1       2.408   9.715  -1.579  1.00  0.00     0.338 C 
ATOM     44  O   UNL     1       2.949  10.268  -0.640  1.00  0.00    -0.246 OA
BRANCH  43  45
ATOM     45  C   UNL     1       3.123   8.714  -2.457  1.00  0.00     0.060 A 
ATOM     46  C   UNL     1       3.973   7.760  -1.880  1.00  0.00     0.016 A 
ATOM     47  C   UNL     1       3.050   8.742  -3.851  1.00  0.00     0.016 A 
ATOM     48  C   UNL     1       4.647   6.788  -2.669  1.00  0.00     0.010 A 
ATOM     49  C   UNL     1       3.757   7.791  -4.642  1.00  0.00     0.010 A 
ATOM     50  C   UNL     1       4.526   6.753  -4.073  1.00  0.00    -0.014 A 
BRANCH  50  51
ATOM     51  C   UNL     1       5.366   5.821  -4.947  1.00  0.00     0.031 A 
ATOM     52  C   UNL     1       6.790   6.223  -5.178  1.00  0.00     0.074 A 
ATOM     53  C   UNL     1       4.993   4.655  -5.544  1.00  0.00     0.049 A 
ATOM     54  N   UNL     1       7.697   5.632  -5.910  1.00  0.00    -0.248 NA
ATOM     55  C   UNL     1       7.254   7.427  -4.477  1.00  0.00     0.031 C 
ATOM     56  C   UNL     1       3.738   3.992  -5.360  1.00  0.00     0.029 A 
ATOM     57  N   UNL     1       5.604   3.781  -6.430  1.00  0.00    -0.354 N 
ATOM     58  C   UNL     1       8.856   6.361  -5.722  1.00  0.00     0.074 A 
ATOM     59  C   UNL     1       8.524   7.463  -4.841  1.00  0.00     0.031 C 
ATOM     60  C   UNL     1       3.597   2.880  -6.070  1.00  0.00     0.029 A 
ATOM     61  C   UNL     1       4.779   2.750  -6.869  1.00  0.00     0.049 A 
ATOM     62  H   UNL     1       6.538   3.882  -6.724  1.00  0.00     0.167 HD
ATOM     63  C   UNL     1      10.087   6.133  -6.236  1.00  0.00     0.034 A 
ATOM     64  C   UNL     1       4.871   1.800  -7.818  1.00  0.00     0.034 A 
ATOM     65  C   UNL     1      10.397   5.104  -7.195  1.00  0.00     0.049 A 
ATOM     66  C   UNL     1       6.165   1.697  -8.532  1.00  0.00     0.074 A 
ATOM     67  C   UNL     1      11.601   4.859  -7.831  1.00  0.00     0.029 A 
ATOM     68  N   UNL     1       9.493   4.171  -7.693  1.00  0.00    -0.354 N 
ATOM     69  N   UNL     1       7.240   2.418  -8.341  1.00  0.00    -0.248 NA
ATOM     70  C   UNL     1       6.281   0.655  -9.551  1.00  0.00     0.031 C 
ATOM     71  C   UNL     1      11.409   3.825  -8.758  1.00  0.00     0.029 A 
ATOM     72  C   UNL     1      10.101   3.382  -8.662  1.00  0.00     0.049 A 
ATOM     73  H   UNL     1       8.557   4.082  -7.400  1.00  0.00     0.167 HD
ATOM     74  C   UNL     1       8.182   1.904  -9.207  1.00  0.00     0.074 A 
ATOM     75  C   UNL     1       7.549   0.798  -9.905  1.00  0.00     0.031 C 
ATOM     76  C   UNL     1       9.459   2.316  -9.393  1.00  0.00     0.034 A 
BRANCH  63  77
ATOM     77  C   UNL     1      11.137   7.120  -5.816  1.00  0.00     0.023 A 
ATOM     78  C   UNL     1      11.585   7.182  -4.484  1.00  0.00     0.031 A 
ATOM     79  C   UNL     1      11.562   8.112  -6.714  1.00  0.00     0.131 A 
ATOM     80  C   UNL     1      12.360   8.271  -4.066  1.00  0.00     0.055 A 
ATOM     81  C   UNL     1      12.398   9.150  -6.308  1.00  0.00     0.041 A 
ATOM     82  F   UNL     1      11.121   8.119  -7.981  1.00  0.00    -0.206 F 
ATOM     83  C   UNL     1      12.787   9.244  -4.974  1.00  0.00     0.022 A 
BRANCH  80  84
ATOM     84  S   UNL     1      12.658   8.495  -2.291  1.00  0.00     0.124 S 
ATOM     85  O   UNL     1      11.304   8.726  -1.793  1.00  0.00    -0.237 OA
ATOM     86  O   UNL     1      13.271   7.228  -1.909  1.00  0.00    -0.237 OA
ATOM     87  O   UNL     1      13.542   9.657  -2.237  1.00  0.00    -0.744 OA
ENDBRANCH  80  84
ENDBRANCH  63  77
BRANCH  64  88
ATOM     88  C   UNL     1       3.693   0.937  -8.164  1.00  0.00     0.023 A 
ATOM     89  C   UNL     1       3.688  -0.450  -7.941  1.00  0.00     0.031 A 
ATOM     90  C   UNL     1       2.526   1.514  -8.709  1.00  0.00     0.131 A 
ATOM     91  C   UNL     1       2.551  -1.210  -8.273  1.00  0.00     0.055 A 
ATOM     92  C   UNL     1       1.386   0.760  -9.000  1.00  0.00     0.041 A 
ATOM     93  F   UNL     1       2.464   2.837  -8.932  1.00  0.00    -0.206 F 
ATOM     94  C   UNL     1       1.398  -0.613  -8.790  1.00  0.00     0.022 A 
BRANCH  91  95
ATOM     95  S   UNL     1       2.608  -3.015  -8.075  1.00  0.00     0.124 S 
ATOM     96  O   UNL     1       3.837  -3.359  -8.780  1.00  0.00    -0.237 OA
ATOM     97  O   UNL     1       2.639  -3.155  -6.623  1.00  0.00    -0.237 OA
ATOM     98  O   UNL     1       1.375  -3.467  -8.716  1.00  0.00    -0.744 OA
ENDBRANCH  91  95
ENDBRANCH  64  88
BRANCH  76  99
ATOM     99  C   UNL     1      10.236   1.534 -10.408  1.00  0.00     0.023 A 
ATOM    100  C   UNL     1       9.892   1.583 -11.769  1.00  0.00     0.031 A 
ATOM    101  C   UNL     1      11.241   0.646  -9.998  1.00  0.00     0.131 A 
ATOM    102  C   UNL     1      10.493   0.692 -12.665  1.00  0.00     0.055 A 
ATOM    103  C   UNL     1      11.885  -0.191 -10.908  1.00  0.00     0.041 A 
ATOM    104  F   UNL     1      11.587   0.554  -8.704  1.00  0.00    -0.206 F 
ATOM    105  C   UNL     1      11.499  -0.183 -12.247  1.00  0.00     0.022 A 
BRANCH 102 106
ATOM    106  S   UNL     1       9.854   0.612 -14.359  1.00  0.00     0.124 S 
ATOM    107  O   UNL     1       8.500   0.110 -14.144  1.00  0.00    -0.237 OA
ATOM    108  O   UNL     1       9.957   1.998 -14.802  1.00  0.00    -0.237 OA
ATOM    109  O   UNL     1      10.765  -0.319 -15.023  1.00  0.00    -0.744 OA
ENDBRANCH 102 106
ENDBRANCH  76  99
ENDBRANCH  50  51
ENDBRANCH  43  45
ENDBRANCH  42  43
ENDBRANCH  41  42
ENDBRANCH  40  41
ENDBRANCH  39  40
ENDBRANCH  38  39
ENDBRANCH   1  38
TORSDOF 24
