REMARK SMILES O=C(OCCOCCOCCOC(=O)c1cccn(Cc2ccc3c(c2)OC(F)(F)O3)c1=O)c1ccc(-c2c3nc(c(-c4cc(S(=O)(=O)[O-])ccc4F)c4ccc([nH]4)c(-c4cc(S(=O)(=O)[O-])ccc4F)c4nc(c(-c5cc(S(=O)(=O)[O-])ccc5F)c5ccc2[nH]5)C=C4)C=C3)cc1
REMARK SMILES IDX 7 1 6 2 5 3 4 4 3 5 2 6 1 7 34 8 35 9 96 10 36 11 95 12
REMARK SMILES IDX 37 13 38 14 39 15 89 16 40 17 94 18 88 19 90 20 41 21 93 22
REMARK SMILES IDX 87 23 86 24 42 26 74 27 54 28 73 29 55 30 58 31 72 32 91 33
REMARK SMILES IDX 56 34 57 35 71 37 92 38 59 39 43 40 44 41 52 42 45 43 51 44
REMARK SMILES IDX 53 45 50 46 46 47 47 48 48 49 49 50 75 51 76 52 84 53 77 54
REMARK SMILES IDX 83 55 85 56 82 57 78 58 79 59 80 60 81 61 60 62 61 63 69 64
REMARK SMILES IDX 62 65 68 66 70 67 67 68 63 69 64 70 65 71 66 72 8 73 9 74
REMARK SMILES IDX 10 75 11 76 12 77 13 78 14 79 15 80 16 81 32 82 17 83 19 84
REMARK SMILES IDX 33 85 18 86 20 87 21 88 22 89 26 90 23 91 25 92 24 93 27 94
REMARK SMILES IDX 31 95 28 96 29 97 30 98
REMARK H PARENT 90 25 58 36
REMARK Flexibility Score: inf
ROOT
ATOM      1  C   UNL     1       2.597   1.152  -1.624  1.00  0.00     0.188 C 
ENDROOT
BRANCH   1   2
ATOM      2  O   UNL     1       3.841   1.239  -0.919  1.00  0.00    -0.376 OA
BRANCH   2   3
ATOM      3  C   UNL     1       4.821   0.312  -1.397  1.00  0.00     0.202 C 
BRANCH   3   4
ATOM      4  C   UNL     1       4.668  -1.124  -0.877  1.00  0.00     0.261 C 
BRANCH   4   5
ATOM      5  O   UNL     1       3.333  -1.453  -0.470  1.00  0.00    -0.460 OA
BRANCH   5   6
ATOM      6  C   UNL     1       2.712  -1.221   0.711  1.00  0.00     0.338 C 
ATOM      7  O   UNL     1       1.554  -1.629   0.823  1.00  0.00    -0.246 OA
BRANCH   6   8
ATOM      8  C   UNL     1       3.302  -0.478   1.881  1.00  0.00     0.060 A 
ATOM      9  C   UNL     1       2.501  -0.400   3.037  1.00  0.00     0.016 A 
ATOM     10  C   UNL     1       4.553   0.142   1.935  1.00  0.00     0.016 A 
ATOM     11  C   UNL     1       2.943   0.257   4.194  1.00  0.00     0.010 A 
ATOM     12  C   UNL     1       5.013   0.774   3.094  1.00  0.00     0.010 A 
ATOM     13  C   UNL     1       4.218   0.835   4.235  1.00  0.00    -0.014 A 
BRANCH  13  14
ATOM     14  C   UNL     1       4.808   1.301   5.510  1.00  0.00     0.031 A 
ATOM     15  C   UNL     1       5.085   2.746   5.796  1.00  0.00     0.074 A 
ATOM     16  C   UNL     1       5.202   0.355   6.383  1.00  0.00     0.049 A 
ATOM     17  N   UNL     1       5.360   3.305   6.945  1.00  0.00    -0.248 NA
ATOM     18  C   UNL     1       5.066   3.688   4.668  1.00  0.00     0.031 C 
ATOM     19  C   UNL     1       5.128  -1.088   6.141  1.00  0.00     0.029 A 
ATOM     20  N   UNL     1       5.769   0.456   7.625  1.00  0.00    -0.354 N 
ATOM     21  C   UNL     1       5.445   4.671   6.697  1.00  0.00     0.074 A 
ATOM     22  C   UNL     1       5.317   4.846   5.272  1.00  0.00     0.031 C 
ATOM     23  C   UNL     1       5.634  -1.737   7.198  1.00  0.00     0.029 A 
ATOM     24  C   UNL     1       6.063  -0.760   8.194  1.00  0.00     0.049 A 
ATOM     25  H   UNL     1       5.949   1.317   8.068  1.00  0.00     0.167 HD
ATOM     26  C   UNL     1       5.571   5.667   7.604  1.00  0.00     0.034 A 
ATOM     27  C   UNL     1       6.598  -1.055   9.395  1.00  0.00     0.034 A 
ATOM     28  C   UNL     1       5.867   5.435   8.988  1.00  0.00     0.049 A 
ATOM     29  C   UNL     1       6.840   0.074  10.361  1.00  0.00     0.074 A 
ATOM     30  C   UNL     1       6.019   6.374   9.990  1.00  0.00     0.029 A 
ATOM     31  N   UNL     1       6.125   4.194   9.544  1.00  0.00    -0.354 N 
ATOM     32  N   UNL     1       6.619   1.358  10.195  1.00  0.00    -0.248 NA
ATOM     33  C   UNL     1       7.361  -0.277  11.687  1.00  0.00     0.031 C 
ATOM     34  C   UNL     1       6.442   5.706  11.137  1.00  0.00     0.029 A 
ATOM     35  C   UNL     1       6.491   4.345  10.867  1.00  0.00     0.049 A 
ATOM     36  H   UNL     1       6.058   3.335   9.069  1.00  0.00     0.167 HD
ATOM     37  C   UNL     1       6.929   1.961  11.409  1.00  0.00     0.074 A 
ATOM     38  C   UNL     1       7.345   0.899  12.302  1.00  0.00     0.031 C 
ATOM     39  C   UNL     1       6.871   3.272  11.753  1.00  0.00     0.034 A 
BRANCH  26  40
ATOM     40  C   UNL     1       5.312   7.096   7.211  1.00  0.00     0.023 A 
ATOM     41  C   UNL     1       6.352   8.007   6.973  1.00  0.00     0.031 A 
ATOM     42  C   UNL     1       4.005   7.602   7.353  1.00  0.00     0.131 A 
ATOM     43  C   UNL     1       6.055   9.377   6.869  1.00  0.00     0.055 A 
ATOM     44  C   UNL     1       3.708   8.955   7.195  1.00  0.00     0.041 A 
ATOM     45  F   UNL     1       2.999   6.780   7.696  1.00  0.00    -0.206 F 
ATOM     46  C   UNL     1       4.740   9.852   6.956  1.00  0.00     0.022 A 
BRANCH  43  47
ATOM     47  S   UNL     1       7.377  10.619   6.777  1.00  0.00     0.124 S 
ATOM     48  O   UNL     1       7.187  11.162   5.435  1.00  0.00    -0.237 OA
ATOM     49  O   UNL     1       7.030  11.523   7.871  1.00  0.00    -0.237 OA
ATOM     50  O   UNL     1       8.596   9.842   6.971  1.00  0.00    -0.744 OA
ENDBRANCH  43  47
ENDBRANCH  26  40
BRANCH  27  51
ATOM     51  C   UNL     1       6.800  -2.487   9.757  1.00  0.00     0.023 A 
ATOM     52  C   UNL     1       7.670  -3.305   9.011  1.00  0.00     0.031 A 
ATOM     53  C   UNL     1       6.014  -3.091  10.752  1.00  0.00     0.131 A 
ATOM     54  C   UNL     1       7.681  -4.690   9.228  1.00  0.00     0.055 A 
ATOM     55  C   UNL     1       6.080  -4.461  11.011  1.00  0.00     0.041 A 
ATOM     56  F   UNL     1       5.150  -2.356  11.469  1.00  0.00    -0.206 F 
ATOM     57  C   UNL     1       6.902  -5.270  10.234  1.00  0.00     0.022 A 
BRANCH  54  58
ATOM     58  S   UNL     1       8.585  -5.799   8.110  1.00  0.00     0.124 S 
ATOM     59  O   UNL     1       9.573  -6.392   9.005  1.00  0.00    -0.237 OA
ATOM     60  O   UNL     1       7.525  -6.696   7.655  1.00  0.00    -0.237 OA
ATOM     61  O   UNL     1       9.114  -4.901   7.088  1.00  0.00    -0.744 OA
ENDBRANCH  54  58
ENDBRANCH  27  51
BRANCH  39  62
ATOM     62  C   UNL     1       7.249   3.675  13.153  1.00  0.00     0.023 A 
ATOM     63  C   UNL     1       6.300   4.324  13.966  1.00  0.00     0.031 A 
ATOM     64  C   UNL     1       8.579   3.609  13.599  1.00  0.00     0.131 A 
ATOM     65  C   UNL     1       6.707   4.937  15.154  1.00  0.00     0.055 A 
ATOM     66  C   UNL     1       8.967   4.168  14.816  1.00  0.00     0.041 A 
ATOM     67  F   UNL     1       9.522   3.018  12.847  1.00  0.00    -0.206 F 
ATOM     68  C   UNL     1       8.034   4.855  15.588  1.00  0.00     0.022 A 
BRANCH  65  69
ATOM     69  S   UNL     1       5.562   5.980  16.099  1.00  0.00     0.124 S 
ATOM     70  O   UNL     1       5.429   5.226  17.344  1.00  0.00    -0.237 OA
ATOM     71  O   UNL     1       6.302   7.235  16.204  1.00  0.00    -0.237 OA
ATOM     72  O   UNL     1       4.363   6.029  15.269  1.00  0.00    -0.744 OA
ENDBRANCH  65  69
ENDBRANCH  39  62
ENDBRANCH  13  14
ENDBRANCH   6   8
ENDBRANCH   5   6
ENDBRANCH   4   5
ENDBRANCH   3   4
ENDBRANCH   2   3
ENDBRANCH   1   2
BRANCH   1  73
ATOM     73  C   UNL     1       2.066   2.519  -2.064  1.00  0.00     0.188 C 
BRANCH  73  74
ATOM     74  O   UNL     1       2.817   3.205  -3.062  1.00  0.00    -0.376 OA
BRANCH  74  75
ATOM     75  C   UNL     1       4.164   3.559  -2.756  1.00  0.00     0.202 C 
BRANCH  75  76
ATOM     76  C   UNL     1       4.403   4.627  -1.682  1.00  0.00     0.261 C 
BRANCH  76  77
ATOM     77  O   UNL     1       3.937   4.256  -0.377  1.00  0.00    -0.459 OA
BRANCH  77  78
ATOM     78  C   UNL     1       2.871   4.964   0.065  1.00  0.00     0.343 C 
ATOM     79  O   UNL     1       2.212   5.774  -0.586  1.00  0.00    -0.246 OA
BRANCH  78  80
ATOM     80  C   UNL     1       2.534   4.603   1.440  1.00  0.00     0.125 A 
ATOM     81  C   UNL     1       1.816   3.500   1.717  1.00  0.00     0.023 A 
ATOM     82  C   UNL     1       2.852   5.570   2.514  1.00  0.00     0.265 A 
ATOM     83  C   UNL     1       1.316   3.266   3.049  1.00  0.00     0.019 A 
ATOM     84  N   UNL     1       2.230   5.336   3.739  1.00  0.00    -0.310 N 
ATOM     85  O   UNL     1       3.625   6.497   2.291  1.00  0.00    -0.268 OA
ATOM     86  C   UNL     1       1.500   4.190   3.998  1.00  0.00     0.089 A 
BRANCH  84  87
ATOM     87  C   UNL     1       2.417   6.312   4.796  1.00  0.00     0.161 C 
BRANCH  87  88
ATOM     88  C   UNL     1       1.358   7.388   4.810  1.00  0.00    -0.024 A 
ATOM     89  C   UNL     1       0.430   7.454   5.873  1.00  0.00     0.010 A 
ATOM     90  C   UNL     1       1.364   8.387   3.823  1.00  0.00     0.056 A 
ATOM     91  C   UNL     1      -0.462   8.524   5.980  1.00  0.00     0.051 A 
ATOM     92  C   UNL     1       0.489   9.437   3.964  1.00  0.00     0.173 A 
ATOM     93  C   UNL     1      -0.393   9.509   5.020  1.00  0.00     0.172 A 
ATOM     94  O   UNL     1       0.416  10.522   3.147  1.00  0.00    -0.395 OA
ATOM     95  O   UNL     1      -1.123  10.658   5.003  1.00  0.00    -0.395 OA
ATOM     96  C   UNL     1      -0.458  11.340   3.929  1.00  0.00     0.586 C 
ATOM     97  F   UNL     1       0.257  12.369   4.449  1.00  0.00    -0.125 F 
ATOM     98  F   UNL     1      -1.399  11.876   3.112  1.00  0.00    -0.125 F 
ENDBRANCH  87  88
ENDBRANCH  84  87
ENDBRANCH  78  80
ENDBRANCH  77  78
ENDBRANCH  76  77
ENDBRANCH  75  76
ENDBRANCH  74  75
ENDBRANCH  73  74
ENDBRANCH   1  73
TORSDOF 22
