REMARK SMILES CC[C@@H](Nc1ccc([N+](=O)[O-])c(N)n1)C(=O)OCCOCCOCCOC(=O)c1ccc(-c2c3nc(c(-c4cc(S(=O)(=O)[O-])ccc4F)c4ccc([nH]4)c(-c4cc(S(=O)(=O)[O-])ccc4F)c4nc(c(-c5cc(S(=O)(=O)[O-])ccc5F)c5ccc2[nH]5)C=C4)C=C3)cc1
REMARK SMILES IDX 21 1 20 2 19 3 18 4 17 5 15 6 16 7 3 8 2 9 1 10 4 11 5 13
REMARK SMILES IDX 6 14 14 15 7 16 12 17 8 18 13 19 9 22 10 23 11 24 22 25
REMARK SMILES IDX 23 26 24 27 25 28 26 29 27 30 28 31 29 32 30 33 91 34 31 35
REMARK SMILES IDX 90 36 32 37 33 38 34 39 84 40 35 41 89 42 83 43 85 44 36 45
REMARK SMILES IDX 88 46 82 47 81 48 37 50 69 51 49 52 68 53 50 54 53 55 67 56
REMARK SMILES IDX 86 57 51 58 52 59 66 61 87 62 54 63 38 64 39 65 47 66 40 67
REMARK SMILES IDX 46 68 48 69 45 70 41 71 42 72 43 73 44 74 70 75 71 76 79 77
REMARK SMILES IDX 72 78 78 79 80 80 77 81 73 82 74 83 75 84 76 85 55 86 56 87
REMARK SMILES IDX 64 88 57 89 63 90 65 91 62 92 58 93 59 94 60 95 61 96
REMARK H PARENT 4 12 13 20 13 21 85 49 53 60
REMARK Flexibility Score: inf
ROOT
ATOM      1  C   UNL     1       1.410   5.239   1.032  1.00  0.00     0.188 C 
ENDROOT
BRANCH   1   2
ATOM      2  O   UNL     1       0.827   6.440   0.541  1.00  0.00    -0.376 OA
BRANCH   2   3
ATOM      3  C   UNL     1      -0.584   6.440   0.346  1.00  0.00     0.202 C 
BRANCH   3   4
ATOM      4  C   UNL     1      -1.128   5.496  -0.736  1.00  0.00     0.261 C 
BRANCH   4   5
ATOM      5  O   UNL     1      -0.720   4.125  -0.577  1.00  0.00    -0.462 OA
BRANCH   5   6
ATOM      6  C   UNL     1       0.117   3.626  -1.532  1.00  0.00     0.328 C 
ATOM      7  O   UNL     1       0.472   4.253  -2.527  1.00  0.00    -0.250 OA
BRANCH   6   8
ATOM      8  C   UNL     1       0.573   2.157  -1.257  1.00  0.00     0.191 C 
BRANCH   8   9
ATOM      9  C   UNL     1      -0.164   1.545  -0.046  1.00  0.00     0.033 C 
ATOM     10  C   UNL     1       0.285   0.161   0.407  1.00  0.00     0.007 C 
ENDBRANCH   8   9
BRANCH   8  11
ATOM     11  N   UNL     1       0.325   1.436  -2.501  1.00  0.00    -0.357 N 
ATOM     12  H   UNL     1      -0.231   1.936  -3.141  1.00  0.00     0.162 HD
BRANCH  11  13
ATOM     13  C   UNL     1       0.707   0.221  -2.949  1.00  0.00     0.129 A 
ATOM     14  C   UNL     1       1.648  -0.600  -2.356  1.00  0.00     0.054 A 
ATOM     15  N   UNL     1       0.000  -0.177  -4.028  1.00  0.00    -0.208 NA
ATOM     16  C   UNL     1       1.734  -1.928  -2.766  1.00  0.00     0.093 A 
ATOM     17  C   UNL     1       0.111  -1.442  -4.473  1.00  0.00     0.204 A 
ATOM     18  C   UNL     1       0.918  -2.356  -3.815  1.00  0.00     0.311 A 
BRANCH  17  19
ATOM     19  N   UNL     1      -0.716  -1.723  -5.541  1.00  0.00    -0.378 N 
ATOM     20  H   UNL     1      -0.713  -2.622  -5.943  1.00  0.00     0.158 HD
ATOM     21  H   UNL     1      -1.310  -1.025  -5.901  1.00  0.00     0.158 HD
ENDBRANCH  17  19
BRANCH  18  22
ATOM     22  N   UNL     1       0.894  -3.760  -4.170  1.00  0.00     0.066 N 
ATOM     23  O   UNL     1       0.752  -4.062  -5.365  1.00  0.00    -0.258 OA
ATOM     24  O   UNL     1       1.026  -4.579  -3.248  1.00  0.00    -0.258 OA
ENDBRANCH  18  22
ENDBRANCH  11  13
ENDBRANCH   8  11
ENDBRANCH   6   8
ENDBRANCH   5   6
ENDBRANCH   4   5
ENDBRANCH   3   4
ENDBRANCH   2   3
ENDBRANCH   1   2
BRANCH   1  25
ATOM     25  C   UNL     1       0.830   4.675   2.328  1.00  0.00     0.188 C 
BRANCH  25  26
ATOM     26  O   UNL     1      -0.583   4.510   2.364  1.00  0.00    -0.376 OA
BRANCH  26  27
ATOM     27  C   UNL     1      -1.118   3.955   3.572  1.00  0.00     0.202 C 
BRANCH  27  28
ATOM     28  C   UNL     1      -0.626   4.561   4.906  1.00  0.00     0.261 C 
BRANCH  28  29
ATOM     29  O   UNL     1       0.796   4.483   5.152  1.00  0.00    -0.460 OA
BRANCH  29  30
ATOM     30  C   UNL     1       1.397   3.270   5.026  1.00  0.00     0.338 C 
ATOM     31  O   UNL     1       0.833   2.201   4.955  1.00  0.00    -0.246 OA
BRANCH  30  32
ATOM     32  C   UNL     1       2.839   3.490   4.691  1.00  0.00     0.060 A 
ATOM     33  C   UNL     1       3.437   2.618   3.767  1.00  0.00     0.016 A 
ATOM     34  C   UNL     1       3.575   4.567   5.194  1.00  0.00     0.016 A 
ATOM     35  C   UNL     1       4.773   2.792   3.385  1.00  0.00     0.010 A 
ATOM     36  C   UNL     1       4.917   4.733   4.820  1.00  0.00     0.010 A 
ATOM     37  C   UNL     1       5.537   3.825   3.941  1.00  0.00    -0.014 A 
BRANCH  37  38
ATOM     38  C   UNL     1       7.020   3.819   3.784  1.00  0.00     0.031 A 
ATOM     39  C   UNL     1       7.846   3.240   4.905  1.00  0.00     0.074 A 
ATOM     40  C   UNL     1       7.635   4.271   2.674  1.00  0.00     0.049 A 
ATOM     41  N   UNL     1       9.146   3.156   5.029  1.00  0.00    -0.248 NA
ATOM     42  C   UNL     1       7.096   2.681   6.039  1.00  0.00     0.031 C 
ATOM     43  C   UNL     1       6.964   4.799   1.488  1.00  0.00     0.029 A 
ATOM     44  N   UNL     1       8.974   4.358   2.367  1.00  0.00    -0.354 N 
ATOM     45  C   UNL     1       9.370   2.543   6.258  1.00  0.00     0.074 A 
ATOM     46  C   UNL     1       8.071   2.312   6.854  1.00  0.00     0.031 C 
ATOM     47  C   UNL     1       7.895   5.159   0.585  1.00  0.00     0.029 A 
ATOM     48  C   UNL     1       9.229   4.928   1.141  1.00  0.00     0.049 A 
ATOM     49  H   UNL     1       9.684   4.041   2.970  1.00  0.00     0.167 HD
ATOM     50  C   UNL     1      10.546   2.196   6.837  1.00  0.00     0.034 A 
ATOM     51  C   UNL     1      10.400   5.252   0.547  1.00  0.00     0.034 A 
ATOM     52  C   UNL     1      11.839   2.437   6.246  1.00  0.00     0.049 A 
ATOM     53  C   UNL     1      11.703   4.958   1.262  1.00  0.00     0.074 A 
ATOM     54  C   UNL     1      13.087   2.109   6.747  1.00  0.00     0.029 A 
ATOM     55  N   UNL     1      12.056   3.081   5.036  1.00  0.00    -0.354 N 
ATOM     56  N   UNL     1      11.900   4.374   2.422  1.00  0.00    -0.248 NA
ATOM     57  C   UNL     1      12.942   5.367   0.583  1.00  0.00     0.031 C 
ATOM     58  C   UNL     1      14.058   2.630   5.885  1.00  0.00     0.029 A 
ATOM     59  C   UNL     1      13.418   3.198   4.796  1.00  0.00     0.049 A 
ATOM     60  H   UNL     1      11.348   3.407   4.435  1.00  0.00     0.167 HD
ATOM     61  C   UNL     1      13.284   4.312   2.588  1.00  0.00     0.074 A 
ATOM     62  C   UNL     1      13.871   4.908   1.407  1.00  0.00     0.031 C 
ATOM     63  C   UNL     1      14.003   3.800   3.620  1.00  0.00     0.034 A 
BRANCH  50  64
ATOM     64  C   UNL     1      10.483   1.574   8.212  1.00  0.00     0.023 A 
ATOM     65  C   UNL     1       9.862   0.334   8.441  1.00  0.00     0.031 A 
ATOM     66  C   UNL     1      11.028   2.252   9.318  1.00  0.00     0.131 A 
ATOM     67  C   UNL     1       9.735  -0.152   9.751  1.00  0.00     0.055 A 
ATOM     68  C   UNL     1      10.975   1.720  10.607  1.00  0.00     0.041 A 
ATOM     69  F   UNL     1      11.609   3.452   9.166  1.00  0.00    -0.206 F 
ATOM     70  C   UNL     1      10.311   0.518  10.832  1.00  0.00     0.022 A 
BRANCH  67  71
ATOM     71  S   UNL     1       8.669  -1.591  10.040  1.00  0.00     0.124 S 
ATOM     72  O   UNL     1       7.394  -1.128   9.495  1.00  0.00    -0.237 OA
ATOM     73  O   UNL     1       9.343  -2.640   9.284  1.00  0.00    -0.237 OA
ATOM     74  O   UNL     1       8.695  -1.751  11.492  1.00  0.00    -0.744 OA
ENDBRANCH  67  71
ENDBRANCH  50  64
BRANCH  51  75
ATOM     75  C   UNL     1      10.419   5.939  -0.780  1.00  0.00     0.023 A 
ATOM     76  C   UNL     1      11.036   5.353  -1.898  1.00  0.00     0.031 A 
ATOM     77  C   UNL     1       9.894   7.236  -0.928  1.00  0.00     0.131 A 
ATOM     78  C   UNL     1      11.156   6.078  -3.095  1.00  0.00     0.055 A 
ATOM     79  C   UNL     1       9.962   7.930  -2.138  1.00  0.00     0.041 A 
ATOM     80  F   UNL     1       9.307   7.853   0.111  1.00  0.00    -0.206 F 
ATOM     81  C   UNL     1      10.609   7.356  -3.227  1.00  0.00     0.022 A 
BRANCH  78  82
ATOM     82  S   UNL     1      12.129   5.366  -4.452  1.00  0.00     0.124 S 
ATOM     83  O   UNL     1      13.434   5.199  -3.824  1.00  0.00    -0.237 OA
ATOM     84  O   UNL     1      11.394   4.140  -4.741  1.00  0.00    -0.237 OA
ATOM     85  O   UNL     1      12.063   6.390  -5.493  1.00  0.00    -0.744 OA
ENDBRANCH  78  82
ENDBRANCH  51  75
BRANCH  63  86
ATOM     86  C   UNL     1      15.511   3.805   3.495  1.00  0.00     0.023 A 
ATOM     87  C   UNL     1      16.255   4.998   3.458  1.00  0.00     0.031 A 
ATOM     88  C   UNL     1      16.215   2.590   3.412  1.00  0.00     0.131 A 
ATOM     89  C   UNL     1      17.648   4.951   3.287  1.00  0.00     0.055 A 
ATOM     90  C   UNL     1      17.607   2.547   3.308  1.00  0.00     0.041 A 
ATOM     91  F   UNL     1      15.561   1.417   3.438  1.00  0.00    -0.206 F 
ATOM     92  C   UNL     1      18.330   3.733   3.232  1.00  0.00     0.022 A 
BRANCH  89  93
ATOM     93  S   UNL     1      18.552   6.505   3.040  1.00  0.00     0.124 S 
ATOM     94  O   UNL     1      17.890   7.057   1.863  1.00  0.00    -0.237 OA
ATOM     95  O   UNL     1      18.313   7.208   4.296  1.00  0.00    -0.237 OA
ATOM     96  O   UNL     1      19.932   6.069   2.829  1.00  0.00    -0.744 OA
ENDBRANCH  89  93
ENDBRANCH  63  86
ENDBRANCH  37  38
ENDBRANCH  30  32
ENDBRANCH  29  30
ENDBRANCH  28  29
ENDBRANCH  27  28
ENDBRANCH  26  27
ENDBRANCH  25  26
ENDBRANCH   1  25
TORSDOF 25
