REMARK SMILES Cc1ccc2oc(C(=O)N[C@@H]3C=C[C@H](C(=O)OCCOCCOCCOC(=O)c4ccc(-c5c6nc(c(-c7cc(S(=O)(=O)[O-])ccc7F)c7ccc([nH]7)c(-c7cc(S(=O)(=O)[O-])ccc7F)c7nc(c(-c8cc(S(=O)(=O)[O-])ccc8F)c8ccc5[nH]8)C=C7)C=C6)cc4)C3)cc2c1
REMARK SMILES IDX 22 1 21 2 20 3 19 4 18 5 17 6 15 7 16 8 14 9 11 10 12 11
REMARK SMILES IDX 92 12 13 13 10 14 8 15 9 16 7 18 1 19 2 20 3 21 95 22 4 23
REMARK SMILES IDX 94 24 5 25 93 26 6 27 23 28 24 29 25 30 26 31 27 32 28 33
REMARK SMILES IDX 29 34 30 35 91 36 31 37 90 38 32 39 33 40 34 41 84 42 35 43
REMARK SMILES IDX 89 44 83 45 85 46 36 47 88 48 82 49 81 50 37 52 69 53 49 54
REMARK SMILES IDX 68 55 50 56 53 57 67 58 86 59 51 60 52 61 66 63 87 64 54 65
REMARK SMILES IDX 38 66 39 67 47 68 40 69 46 70 48 71 45 72 41 73 42 74 43 75
REMARK SMILES IDX 44 76 70 77 71 78 79 79 72 80 78 81 80 82 77 83 73 84 74 85
REMARK SMILES IDX 75 86 76 87 55 88 56 89 64 90 57 91 63 92 65 93 62 94 58 95
REMARK SMILES IDX 59 96 60 97 61 98
REMARK H PARENT 10 17 85 51 53 62
REMARK Flexibility Score: inf
ROOT
ATOM      1  C   UNL     1       0.630  -4.758   4.024  1.00  0.00     0.188 C 
ENDROOT
BRANCH   1   2
ATOM      2  C   UNL     1      -0.344  -4.006   3.092  1.00  0.00     0.188 C 
BRANCH   2   3
ATOM      3  O   UNL     1      -1.490  -4.771   2.764  1.00  0.00    -0.376 OA
BRANCH   3   4
ATOM      4  C   UNL     1      -1.507  -5.351   1.469  1.00  0.00     0.202 C 
BRANCH   4   5
ATOM      5  C   UNL     1      -0.414  -6.392   1.148  1.00  0.00     0.261 C 
BRANCH   5   6
ATOM      6  O   UNL     1       0.954  -5.995   1.398  1.00  0.00    -0.463 OA
BRANCH   6   7
ATOM      7  C   UNL     1       1.433  -4.999   0.609  1.00  0.00     0.312 C 
ATOM      8  O   UNL     1       0.790  -4.526  -0.319  1.00  0.00    -0.252 OA
BRANCH   7   9
ATOM      9  C   UNL     1       2.755  -4.410   1.149  1.00  0.00     0.124 C 
ATOM     10  C   UNL     1       3.800  -3.062  -0.578  1.00  0.00     0.106 C 
ATOM     11  C   UNL     1       4.673  -4.195  -0.189  1.00  0.00    -0.006 C 
ATOM     12  C   UNL     1       2.881  -2.967   0.644  1.00  0.00     0.048 C 
ATOM     13  C   UNL     1       4.081  -4.968   0.736  1.00  0.00    -0.014 C 
BRANCH  10  14
ATOM     14  N   UNL     1       3.141  -3.225  -1.878  1.00  0.00    -0.343 N 
ATOM     15  C   UNL     1       2.507  -4.194  -2.640  1.00  0.00     0.287 C 
ATOM     16  O   UNL     1       1.849  -3.750  -3.587  1.00  0.00    -0.266 OA
ATOM     17  H   UNL     1       3.153  -2.371  -2.368  1.00  0.00     0.164 HD
BRANCH  15  18
ATOM     18  C   UNL     1       2.588  -5.624  -2.377  1.00  0.00     0.192 A 
ATOM     19  C   UNL     1       2.506 -10.918   0.417  1.00  0.00     0.044 C 
ATOM     20  C   UNL     1       2.294  -9.831  -0.598  1.00  0.00    -0.050 A 
ATOM     21  C   UNL     1       1.250  -9.894  -1.535  1.00  0.00     0.007 A 
ATOM     22  C   UNL     1       3.127  -8.704  -0.562  1.00  0.00     0.015 A 
ATOM     23  C   UNL     1       0.939  -8.805  -2.372  1.00  0.00     0.048 A 
ATOM     24  C   UNL     1       2.868  -7.643  -1.440  1.00  0.00     0.021 A 
ATOM     25  C   UNL     1       1.741  -7.674  -2.239  1.00  0.00     0.135 A 
ATOM     26  C   UNL     1       3.523  -6.444  -1.781  1.00  0.00     0.065 A 
ATOM     27  O   UNL     1       1.554  -6.446  -2.813  1.00  0.00    -0.451 OA
ENDBRANCH  15  18
ENDBRANCH  10  14
ENDBRANCH   7   9
ENDBRANCH   6   7
ENDBRANCH   5   6
ENDBRANCH   4   5
ENDBRANCH   3   4
ENDBRANCH   2   3
ENDBRANCH   1   2
BRANCH   1  28
ATOM     28  O   UNL     1       0.226  -5.950   4.673  1.00  0.00    -0.376 OA
BRANCH  28  29
ATOM     29  C   UNL     1      -1.058  -5.985   5.264  1.00  0.00     0.202 C 
BRANCH  29  30
ATOM     30  C   UNL     1      -1.470  -4.875   6.249  1.00  0.00     0.261 C 
BRANCH  30  31
ATOM     31  O   UNL     1      -1.164  -3.518   5.867  1.00  0.00    -0.460 OA
BRANCH  31  32
ATOM     32  C   UNL     1      -0.119  -2.933   6.509  1.00  0.00     0.338 C 
ATOM     33  O   UNL     1       0.564  -3.436   7.393  1.00  0.00    -0.246 OA
BRANCH  32  34
ATOM     34  C   UNL     1       0.236  -1.651   5.849  1.00  0.00     0.060 A 
ATOM     35  C   UNL     1       1.503  -1.512   5.256  1.00  0.00     0.016 A 
ATOM     36  C   UNL     1      -0.646  -0.572   5.859  1.00  0.00     0.016 A 
ATOM     37  C   UNL     1       1.894  -0.298   4.683  1.00  0.00     0.010 A 
ATOM     38  C   UNL     1      -0.239   0.656   5.316  1.00  0.00     0.010 A 
ATOM     39  C   UNL     1       1.042   0.809   4.749  1.00  0.00    -0.014 A 
BRANCH  39  40
ATOM     40  C   UNL     1       1.557   2.169   4.430  1.00  0.00     0.031 A 
ATOM     41  C   UNL     1       1.998   3.050   5.571  1.00  0.00     0.074 A 
ATOM     42  C   UNL     1       1.644   2.622   3.165  1.00  0.00     0.049 A 
ATOM     43  N   UNL     1       2.381   4.300   5.562  1.00  0.00    -0.248 NA
ATOM     44  C   UNL     1       1.998   2.428   6.904  1.00  0.00     0.031 C 
ATOM     45  C   UNL     1       1.314   1.854   1.967  1.00  0.00     0.029 A 
ATOM     46  N   UNL     1       2.025   3.851   2.682  1.00  0.00    -0.354 N 
ATOM     47  C   UNL     1       2.654   4.622   6.888  1.00  0.00     0.074 A 
ATOM     48  C   UNL     1       2.360   3.442   7.674  1.00  0.00     0.031 C 
ATOM     49  C   UNL     1       1.490   2.636   0.887  1.00  0.00     0.029 A 
ATOM     50  C   UNL     1       1.898   3.974   1.317  1.00  0.00     0.049 A 
ATOM     51  H   UNL     1       2.358   4.576   3.258  1.00  0.00     0.167 HD
ATOM     52  C   UNL     1       3.111   5.790   7.403  1.00  0.00     0.034 A 
ATOM     53  C   UNL     1       2.058   5.048   0.514  1.00  0.00     0.034 A 
ATOM     54  C   UNL     1       3.386   6.965   6.612  1.00  0.00     0.049 A 
ATOM     55  C   UNL     1       2.459   6.374   1.123  1.00  0.00     0.074 A 
ATOM     56  C   UNL     1       3.861   8.195   7.035  1.00  0.00     0.029 A 
ATOM     57  N   UNL     1       3.195   7.066   5.240  1.00  0.00    -0.354 N 
ATOM     58  N   UNL     1       2.715   6.668   2.378  1.00  0.00    -0.248 NA
ATOM     59  C   UNL     1       2.599   7.513   0.204  1.00  0.00     0.031 C 
ATOM     60  C   UNL     1       3.875   9.061   5.937  1.00  0.00     0.029 A 
ATOM     61  C   UNL     1       3.504   8.347   4.809  1.00  0.00     0.049 A 
ATOM     62  H   UNL     1       2.885   6.334   4.659  1.00  0.00     0.167 HD
ATOM     63  C   UNL     1       3.082   8.013   2.389  1.00  0.00     0.074 A 
ATOM     64  C   UNL     1       3.027   8.469   1.016  1.00  0.00     0.031 C 
ATOM     65  C   UNL     1       3.442   8.798   3.438  1.00  0.00     0.034 A 
BRANCH  52  66
ATOM     66  C   UNL     1       3.282   5.867   8.902  1.00  0.00     0.023 A 
ATOM     67  C   UNL     1       4.200   5.052   9.588  1.00  0.00     0.031 A 
ATOM     68  C   UNL     1       2.493   6.750   9.661  1.00  0.00     0.131 A 
ATOM     69  C   UNL     1       4.252   5.082  10.989  1.00  0.00     0.055 A 
ATOM     70  C   UNL     1       2.612   6.838  11.049  1.00  0.00     0.041 A 
ATOM     71  F   UNL     1       1.581   7.536   9.066  1.00  0.00    -0.206 F 
ATOM     72  C   UNL     1       3.484   5.989  11.723  1.00  0.00     0.022 A 
BRANCH  69  73
ATOM     73  S   UNL     1       5.220   3.810  11.846  1.00  0.00     0.124 S 
ATOM     74  O   UNL     1       4.605   2.583  11.344  1.00  0.00    -0.237 OA
ATOM     75  O   UNL     1       6.576   4.081  11.383  1.00  0.00    -0.237 OA
ATOM     76  O   UNL     1       4.975   4.087  13.260  1.00  0.00    -0.744 OA
ENDBRANCH  69  73
ENDBRANCH  52  66
BRANCH  53  77
ATOM     77  C   UNL     1       1.795   4.948  -0.953  1.00  0.00     0.023 A 
ATOM     78  C   UNL     1       2.810   5.200  -1.891  1.00  0.00     0.031 A 
ATOM     79  C   UNL     1       0.505   4.673  -1.442  1.00  0.00     0.131 A 
ATOM     80  C   UNL     1       2.508   5.224  -3.262  1.00  0.00     0.055 A 
ATOM     81  C   UNL     1       0.224   4.635  -2.809  1.00  0.00     0.041 A 
ATOM     82  F   UNL     1      -0.507   4.436  -0.592  1.00  0.00    -0.206 F 
ATOM     83  C   UNL     1       1.226   4.926  -3.728  1.00  0.00     0.022 A 
BRANCH  80  84
ATOM     84  S   UNL     1       3.798   5.751  -4.425  1.00  0.00     0.124 S 
ATOM     85  O   UNL     1       4.109   7.089  -3.933  1.00  0.00    -0.237 OA
ATOM     86  O   UNL     1       4.825   4.736  -4.216  1.00  0.00    -0.237 OA
ATOM     87  O   UNL     1       3.128   5.702  -5.722  1.00  0.00    -0.744 OA
ENDBRANCH  80  84
ENDBRANCH  53  77
BRANCH  65  88
ATOM     88  C   UNL     1       3.865  10.219   3.134  1.00  0.00     0.023 A 
ATOM     89  C   UNL     1       2.973  11.171   2.612  1.00  0.00     0.031 A 
ATOM     90  C   UNL     1       5.192  10.624   3.373  1.00  0.00     0.131 A 
ATOM     91  C   UNL     1       3.430  12.460   2.294  1.00  0.00     0.055 A 
ATOM     92  C   UNL     1       5.624  11.926   3.120  1.00  0.00     0.041 A 
ATOM     93  F   UNL     1       6.093   9.758   3.867  1.00  0.00    -0.206 F 
ATOM     94  C   UNL     1       4.744  12.849   2.563  1.00  0.00     0.022 A 
BRANCH  91  95
ATOM     95  S   UNL     1       2.311  13.595   1.426  1.00  0.00     0.124 S 
ATOM     96  O   UNL     1       1.979  12.834   0.226  1.00  0.00    -0.237 OA
ATOM     97  O   UNL     1       1.230  13.766   2.391  1.00  0.00    -0.237 OA
ATOM     98  O   UNL     1       3.134  14.782   1.200  1.00  0.00    -0.744 OA
ENDBRANCH  91  95
ENDBRANCH  65  88
ENDBRANCH  39  40
ENDBRANCH  32  34
ENDBRANCH  31  32
ENDBRANCH  30  31
ENDBRANCH  29  30
ENDBRANCH  28  29
ENDBRANCH   1  28
TORSDOF 22
