REMARK SMILES O=C(OCCOCCOCCOC(=O)c1c(C2CC2)nn(-c2ccc(Cl)c(F)c2)c1Cl)c1ccc(-c2c3nc(c(-c4cc(S(=O)(=O)[O-])ccc4F)c4ccc([nH]4)c(-c4cc(S(=O)(=O)[O-])ccc4F)c4nc(c(-c5cc(S(=O)(=O)[O-])ccc5F)c5ccc2[nH]5)C=C4)C=C3)cc1
REMARK SMILES IDX 7 1 6 2 5 3 4 4 3 5 2 6 1 7 32 8 33 9 94 10 34 11 93 12
REMARK SMILES IDX 35 13 36 14 37 15 87 16 38 17 92 18 86 19 88 20 39 21 91 22
REMARK SMILES IDX 85 23 84 24 40 26 72 27 52 28 71 29 53 30 56 31 70 32 89 33
REMARK SMILES IDX 54 34 55 35 69 37 90 38 57 39 41 40 42 41 50 42 43 43 49 44
REMARK SMILES IDX 51 45 48 46 44 47 45 48 46 49 47 50 73 51 74 52 82 53 75 54
REMARK SMILES IDX 81 55 83 56 80 57 76 58 77 59 78 60 79 61 58 62 59 63 67 64
REMARK SMILES IDX 60 65 66 66 68 67 65 68 61 69 62 70 63 71 64 72 8 73 9 74
REMARK SMILES IDX 10 75 11 76 12 77 13 78 14 79 15 80 16 81 30 82 20 83 21 84
REMARK SMILES IDX 31 85 17 86 18 87 19 88 22 89 23 90 29 91 24 92 27 93 25 94
REMARK SMILES IDX 28 95 26 96
REMARK H PARENT 88 25 56 36
REMARK Flexibility Score: inf
ROOT
ATOM      1  C   UNL     1       3.663  -1.280   0.071  1.00  0.00     0.188 C 
ENDROOT
BRANCH   1   2
ATOM      2  O   UNL     1       4.924  -0.618   0.110  1.00  0.00    -0.376 OA
BRANCH   2   3
ATOM      3  C   UNL     1       5.270   0.120   1.275  1.00  0.00     0.202 C 
BRANCH   3   4
ATOM      4  C   UNL     1       4.600   1.487   1.429  1.00  0.00     0.261 C 
BRANCH   4   5
ATOM      5  O   UNL     1       3.190   1.346   1.682  1.00  0.00    -0.460 OA
BRANCH   5   6
ATOM      6  C   UNL     1       2.100   1.438   0.893  1.00  0.00     0.338 C 
ATOM      7  O   UNL     1       1.051   0.956   1.326  1.00  0.00    -0.246 OA
BRANCH   6   8
ATOM      8  C   UNL     1       2.051   2.083  -0.454  1.00  0.00     0.060 A 
ATOM      9  C   UNL     1       3.134   2.372  -1.281  1.00  0.00     0.016 A 
ATOM     10  C   UNL     1       0.763   2.386  -0.938  1.00  0.00     0.016 A 
ATOM     11  C   UNL     1       2.951   3.092  -2.465  1.00  0.00     0.010 A 
ATOM     12  C   UNL     1       0.572   3.042  -2.156  1.00  0.00     0.010 A 
ATOM     13  C   UNL     1       1.673   3.465  -2.895  1.00  0.00    -0.014 A 
BRANCH  13  14
ATOM     14  C   UNL     1       1.569   4.299  -4.099  1.00  0.00     0.031 A 
ATOM     15  C   UNL     1       2.283   3.857  -5.331  1.00  0.00     0.074 A 
ATOM     16  C   UNL     1       0.842   5.431  -4.206  1.00  0.00     0.049 A 
ATOM     17  N   UNL     1       3.276   4.438  -5.923  1.00  0.00    -0.248 NA
ATOM     18  C   UNL     1       1.849   2.613  -5.976  1.00  0.00     0.031 C 
ATOM     19  C   UNL     1      -0.163   5.956  -3.282  1.00  0.00     0.029 A 
ATOM     20  N   UNL     1       0.812   6.323  -5.246  1.00  0.00    -0.354 N 
ATOM     21  C   UNL     1       3.477   3.758  -7.122  1.00  0.00     0.074 A 
ATOM     22  C   UNL     1       2.640   2.585  -7.052  1.00  0.00     0.031 C 
ATOM     23  C   UNL     1      -0.851   6.944  -3.892  1.00  0.00     0.029 A 
ATOM     24  C   UNL     1      -0.238   7.222  -5.181  1.00  0.00     0.049 A 
ATOM     25  H   UNL     1       1.476   6.324  -5.972  1.00  0.00     0.167 HD
ATOM     26  C   UNL     1       4.207   4.290  -8.143  1.00  0.00     0.034 A 
ATOM     27  C   UNL     1      -0.620   8.123  -6.117  1.00  0.00     0.034 A 
ATOM     28  C   UNL     1       5.031   5.391  -7.699  1.00  0.00     0.049 A 
ATOM     29  C   UNL     1       0.552   8.450  -6.958  1.00  0.00     0.074 A 
ATOM     30  C   UNL     1       5.998   5.556  -6.725  1.00  0.00     0.029 A 
ATOM     31  N   UNL     1       4.731   6.663  -8.127  1.00  0.00    -0.354 N 
ATOM     32  N   UNL     1       1.593   9.112  -6.535  1.00  0.00    -0.248 NA
ATOM     33  C   UNL     1       0.730   7.769  -8.231  1.00  0.00     0.031 C 
ATOM     34  C   UNL     1       5.868   6.907  -6.288  1.00  0.00     0.029 A 
ATOM     35  C   UNL     1       4.840   7.485  -7.034  1.00  0.00     0.049 A 
ATOM     36  H   UNL     1       4.485   6.932  -9.042  1.00  0.00     0.167 HD
ATOM     37  C   UNL     1       2.659   8.611  -7.260  1.00  0.00     0.074 A 
ATOM     38  C   UNL     1       2.050   7.905  -8.380  1.00  0.00     0.031 C 
ATOM     39  C   UNL     1       3.918   8.563  -6.732  1.00  0.00     0.034 A 
BRANCH  26  40
ATOM     40  C   UNL     1       4.022   3.995  -9.618  1.00  0.00     0.023 A 
ATOM     41  C   UNL     1       4.942   4.559 -10.527  1.00  0.00     0.031 A 
ATOM     42  C   UNL     1       2.864   3.430 -10.195  1.00  0.00     0.131 A 
ATOM     43  C   UNL     1       4.667   4.619 -11.905  1.00  0.00     0.055 A 
ATOM     44  C   UNL     1       2.633   3.417 -11.576  1.00  0.00     0.041 A 
ATOM     45  F   UNL     1       1.858   2.950  -9.454  1.00  0.00    -0.206 F 
ATOM     46  C   UNL     1       3.522   4.038 -12.439  1.00  0.00     0.022 A 
BRANCH  43  47
ATOM     47  S   UNL     1       5.727   5.653 -12.954  1.00  0.00     0.124 S 
ATOM     48  O   UNL     1       5.775   6.897 -12.192  1.00  0.00    -0.237 OA
ATOM     49  O   UNL     1       6.960   4.874 -12.994  1.00  0.00    -0.237 OA
ATOM     50  O   UNL     1       4.991   5.724 -14.213  1.00  0.00    -0.744 OA
ENDBRANCH  43  47
ENDBRANCH  26  40
BRANCH  27  51
ATOM     51  C   UNL     1      -1.998   8.589  -6.394  1.00  0.00     0.023 A 
ATOM     52  C   UNL     1      -2.261   9.791  -7.073  1.00  0.00     0.031 A 
ATOM     53  C   UNL     1      -3.096   7.727  -6.168  1.00  0.00     0.131 A 
ATOM     54  C   UNL     1      -3.578  10.100  -7.476  1.00  0.00     0.055 A 
ATOM     55  C   UNL     1      -4.399   8.048  -6.545  1.00  0.00     0.041 A 
ATOM     56  F   UNL     1      -2.923   6.503  -5.643  1.00  0.00    -0.206 F 
ATOM     57  C   UNL     1      -4.645   9.239  -7.207  1.00  0.00     0.022 A 
BRANCH  54  58
ATOM     58  S   UNL     1      -3.898  11.577  -8.488  1.00  0.00     0.124 S 
ATOM     59  O   UNL     1      -3.879  12.642  -7.492  1.00  0.00    -0.237 OA
ATOM     60  O   UNL     1      -2.793  11.557  -9.440  1.00  0.00    -0.237 OA
ATOM     61  O   UNL     1      -5.211  11.303  -9.074  1.00  0.00    -0.744 OA
ENDBRANCH  54  58
ENDBRANCH  27  51
BRANCH  39  62
ATOM     62  C   UNL     1       4.263   9.457  -5.562  1.00  0.00     0.023 A 
ATOM     63  C   UNL     1       3.544   9.498  -4.350  1.00  0.00     0.031 A 
ATOM     64  C   UNL     1       5.446  10.218  -5.643  1.00  0.00     0.131 A 
ATOM     65  C   UNL     1       4.003  10.292  -3.283  1.00  0.00     0.055 A 
ATOM     66  C   UNL     1       5.907  10.992  -4.578  1.00  0.00     0.041 A 
ATOM     67  F   UNL     1       6.197  10.195  -6.757  1.00  0.00    -0.206 F 
ATOM     68  C   UNL     1       5.180  11.038  -3.394  1.00  0.00     0.022 A 
BRANCH  65  69
ATOM     69  S   UNL     1       3.061  10.379  -1.729  1.00  0.00     0.124 S 
ATOM     70  O   UNL     1       1.673  10.458  -2.167  1.00  0.00    -0.237 OA
ATOM     71  O   UNL     1       3.451   9.140  -1.061  1.00  0.00    -0.237 OA
ATOM     72  O   UNL     1       3.570  11.597  -1.095  1.00  0.00    -0.744 OA
ENDBRANCH  65  69
ENDBRANCH  39  62
ENDBRANCH  13  14
ENDBRANCH   6   8
ENDBRANCH   5   6
ENDBRANCH   4   5
ENDBRANCH   3   4
ENDBRANCH   2   3
ENDBRANCH   1   2
BRANCH   1  73
ATOM     73  C   UNL     1       3.084  -1.887   1.361  1.00  0.00     0.188 C 
BRANCH  73  74
ATOM     74  O   UNL     1       3.981  -2.628   2.184  1.00  0.00    -0.376 OA
BRANCH  74  75
ATOM     75  C   UNL     1       4.766  -3.632   1.556  1.00  0.00     0.202 C 
BRANCH  75  76
ATOM     76  C   UNL     1       3.954  -4.796   1.007  1.00  0.00     0.261 C 
BRANCH  76  77
ATOM     77  O   UNL     1       3.642  -4.556  -0.387  1.00  0.00    -0.460 OA
BRANCH  77  78
ATOM     78  C   UNL     1       2.358  -4.606  -0.779  1.00  0.00     0.343 C 
ATOM     79  O   UNL     1       1.391  -4.747  -0.023  1.00  0.00    -0.246 OA
BRANCH  78  80
ATOM     80  C   UNL     1       2.218  -4.556  -2.210  1.00  0.00     0.121 A 
ATOM     81  C   UNL     1       1.339  -3.875  -3.086  1.00  0.00     0.082 A 
ATOM     82  C   UNL     1       2.973  -5.348  -3.080  1.00  0.00     0.147 A 
ATOM     83  N   UNL     1       1.523  -4.210  -4.367  1.00  0.00    -0.170 NA
ATOM     84  N   UNL     1       2.459  -5.184  -4.347  1.00  0.00    -0.221 N 
ATOM     85  Cl  UNL     1       4.316  -6.349  -2.768  1.00  0.00    -0.061 Cl
BRANCH  81  86
ATOM     86  C   UNL     1       0.275  -2.826  -2.789  1.00  0.00     0.041 C 
ATOM     87  C   UNL     1      -0.085  -2.318  -1.417  1.00  0.00     0.011 C 
ATOM     88  C   UNL     1       0.720  -1.452  -2.336  1.00  0.00     0.011 C 
ENDBRANCH  81  86
BRANCH  84  89
ATOM     89  C   UNL     1       2.679  -5.947  -5.516  1.00  0.00     0.069 A 
ATOM     90  C   UNL     1       2.631  -5.314  -6.769  1.00  0.00     0.030 A 
ATOM     91  C   UNL     1       2.856  -7.335  -5.443  1.00  0.00     0.069 A 
ATOM     92  C   UNL     1       2.809  -6.060  -7.939  1.00  0.00     0.026 A 
ATOM     93  C   UNL     1       2.999  -8.070  -6.616  1.00  0.00     0.143 A 
ATOM     94  C   UNL     1       2.988  -7.442  -7.859  1.00  0.00     0.076 A 
ATOM     95  F   UNL     1       3.125  -9.401  -6.519  1.00  0.00    -0.205 F 
ATOM     96  Cl  UNL     1       3.170  -8.361  -9.303  1.00  0.00    -0.081 Cl
ENDBRANCH  84  89
ENDBRANCH  78  80
ENDBRANCH  77  78
ENDBRANCH  76  77
ENDBRANCH  75  76
ENDBRANCH  74  75
ENDBRANCH  73  74
ENDBRANCH   1  73
TORSDOF 22
