REMARK SMILES CS(=O)(=O)Nc1ccc(-c2cc(Cl)cc3c2O[C@H](C(F)(F)F)C(C(=O)OCCOCCOCCOC(=O)c2ccc(-c4c5nc(c(-c6cc(S(=O)(=O)[O-])ccc6F)c6ccc([nH]6)c(-c6cc(S(=O)(=O)[O-])ccc6F)c6nc(c(-c7cc(S(=O)(=O)[O-])ccc7F)c7ccc4[nH]7)C=C6)C=C5)cc2)=C3)cc1
REMARK SMILES IDX 30 1 29 2 28 3 27 4 26 5 24 6 25 7 23 8 10 9 11 10 16 11
REMARK SMILES IDX 12 12 15 13 17 14 13 15 14 16 101 17 18 18 9 19 6 20 7 21
REMARK SMILES IDX 103 22 8 23 102 24 5 25 2 27 1 28 3 29 4 30 19 31 20 32
REMARK SMILES IDX 21 33 22 34 31 35 32 36 33 37 34 38 35 39 36 40 37 41 38 42
REMARK SMILES IDX 39 43 100 44 40 45 99 46 41 47 42 48 43 49 93 50 44 51 98 52
REMARK SMILES IDX 92 53 94 54 45 55 97 56 91 57 90 58 46 60 78 61 58 62 77 63
REMARK SMILES IDX 59 64 62 65 76 66 95 67 60 68 61 69 75 71 96 72 63 73 47 74
REMARK SMILES IDX 48 75 56 76 49 77 55 78 57 79 54 80 50 81 51 82 52 83 53 84
REMARK SMILES IDX 79 85 80 86 88 87 81 88 87 89 89 90 86 91 82 92 83 93 84 94
REMARK SMILES IDX 85 95 64 96 65 97 73 98 66 99 72 100 74 101 71 102 67 103
REMARK SMILES IDX 68 104 69 105 70 106
REMARK H PARENT 5 26 94 59 62 70
REMARK Flexibility Score: inf
ROOT
ATOM      1  C   UNL     1       6.130  -9.938   0.925  1.00  0.00     0.188 C 
ENDROOT
BRANCH   1   2
ATOM      2  O   UNL     1       5.928 -11.034   0.048  1.00  0.00    -0.376 OA
BRANCH   2   3
ATOM      3  C   UNL     1       6.460 -10.871  -1.263  1.00  0.00     0.202 C 
BRANCH   3   4
ATOM      4  C   UNL     1       7.973 -10.608  -1.307  1.00  0.00     0.261 C 
BRANCH   4   5
ATOM      5  O   UNL     1       8.318  -9.294  -0.786  1.00  0.00    -0.460 OA
BRANCH   5   6
ATOM      6  C   UNL     1       8.232  -8.285  -1.681  1.00  0.00     0.338 C 
ATOM      7  O   UNL     1       7.999  -8.453  -2.872  1.00  0.00    -0.246 OA
BRANCH   6   8
ATOM      8  C   UNL     1       8.353  -6.933  -1.063  1.00  0.00     0.087 C 
ATOM      9  C   UNL     1       5.323  -4.959   0.961  1.00  0.00     0.026 A 
ATOM     10  C   UNL     1       4.195  -5.704   0.539  1.00  0.00     0.033 A 
ATOM     11  C   UNL     1       6.506  -5.273   0.267  1.00  0.00     0.135 A 
ATOM     12  C   UNL     1       4.180  -6.502  -0.606  1.00  0.00     0.042 A 
ATOM     13  C   UNL     1       6.421  -5.857  -1.017  1.00  0.00     0.019 A 
ATOM     14  O   UNL     1       7.779  -5.364   0.855  1.00  0.00    -0.475 OA
ATOM     15  Cl  UNL     1       2.810  -7.441  -1.035  1.00  0.00    -0.084 Cl
ATOM     16  C   UNL     1       5.271  -6.503  -1.444  1.00  0.00     0.032 A 
ATOM     17  C   UNL     1       7.676  -6.023  -1.780  1.00  0.00     0.027 C 
ATOM     18  C   UNL     1       8.493  -6.644   0.432  1.00  0.00     0.316 C 
BRANCH   9  19
ATOM     19  C   UNL     1       4.928  -3.697   1.702  1.00  0.00    -0.014 A 
ATOM     20  C   UNL     1       3.055  -1.620   2.478  1.00  0.00     0.048 A 
ATOM     21  C   UNL     1       3.255  -2.754   3.267  1.00  0.00     0.027 A 
ATOM     22  C   UNL     1       3.865  -1.472   1.355  1.00  0.00     0.027 A 
ATOM     23  C   UNL     1       4.188  -3.754   2.900  1.00  0.00     0.011 A 
ATOM     24  C   UNL     1       4.790  -2.489   0.980  1.00  0.00     0.011 A 
BRANCH  20  25
ATOM     25  N   UNL     1       1.892  -0.812   2.733  1.00  0.00    -0.284 N 
ATOM     26  H   UNL     1       1.029  -1.268   2.862  1.00  0.00     0.180 HD
BRANCH  25  27
ATOM     27  S   UNL     1       1.926   0.865   2.825  1.00  0.00     0.229 S 
ATOM     28  C   UNL     1       1.203   1.396   1.287  1.00  0.00     0.183 C 
ATOM     29  O   UNL     1       3.292   1.336   2.900  1.00  0.00    -0.207 OA
ATOM     30  O   UNL     1       0.971   1.208   3.859  1.00  0.00    -0.207 OA
ENDBRANCH  25  27
ENDBRANCH  20  25
ENDBRANCH   9  19
BRANCH  18  31
ATOM     31  C   UNL     1       9.994  -6.630   0.756  1.00  0.00     0.430 C 
ATOM     32  F   UNL     1      10.652  -5.651   0.095  1.00  0.00    -0.167 F 
ATOM     33  F   UNL     1      10.238  -6.481   2.075  1.00  0.00    -0.167 F 
ATOM     34  F   UNL     1      10.574  -7.805   0.388  1.00  0.00    -0.167 F 
ENDBRANCH  18  31
ENDBRANCH   6   8
ENDBRANCH   5   6
ENDBRANCH   4   5
ENDBRANCH   3   4
ENDBRANCH   2   3
ENDBRANCH   1   2
BRANCH   1  35
ATOM     35  C   UNL     1       7.285 -10.128   1.934  1.00  0.00     0.188 C 
BRANCH  35  36
ATOM     36  O   UNL     1       7.974 -11.364   2.040  1.00  0.00    -0.376 OA
BRANCH  36  37
ATOM     37  C   UNL     1       7.256 -12.584   1.981  1.00  0.00     0.202 C 
BRANCH  37  38
ATOM     38  C   UNL     1       6.045 -12.825   2.897  1.00  0.00     0.261 C 
BRANCH  38  39
ATOM     39  O   UNL     1       5.089 -11.760   2.995  1.00  0.00    -0.460 OA
BRANCH  39  40
ATOM     40  C   UNL     1       5.126 -11.051   4.155  1.00  0.00     0.338 C 
ATOM     41  O   UNL     1       5.901 -11.198   5.075  1.00  0.00    -0.246 OA
BRANCH  40  42
ATOM     42  C   UNL     1       4.164  -9.928   4.073  1.00  0.00     0.060 A 
ATOM     43  C   UNL     1       4.654  -8.623   4.165  1.00  0.00     0.016 A 
ATOM     44  C   UNL     1       2.789 -10.156   3.973  1.00  0.00     0.016 A 
ATOM     45  C   UNL     1       3.766  -7.547   4.165  1.00  0.00     0.010 A 
ATOM     46  C   UNL     1       1.900  -9.071   3.991  1.00  0.00     0.010 A 
ATOM     47  C   UNL     1       2.380  -7.757   4.098  1.00  0.00    -0.014 A 
BRANCH  47  48
ATOM     48  C   UNL     1       1.454  -6.606   4.293  1.00  0.00     0.031 A 
ATOM     49  C   UNL     1       1.125  -6.176   5.689  1.00  0.00     0.074 A 
ATOM     50  C   UNL     1       0.923  -5.943   3.249  1.00  0.00     0.049 A 
ATOM     51  N   UNL     1       0.424  -5.151   6.096  1.00  0.00    -0.248 NA
ATOM     52  C   UNL     1       1.610  -7.052   6.763  1.00  0.00     0.031 C 
ATOM     53  C   UNL     1       1.099  -6.336   1.862  1.00  0.00     0.029 A 
ATOM     54  N   UNL     1       0.185  -4.785   3.171  1.00  0.00    -0.354 N 
ATOM     55  C   UNL     1       0.313  -5.301   7.474  1.00  0.00     0.074 A 
ATOM     56  C   UNL     1       1.054  -6.495   7.827  1.00  0.00     0.031 C 
ATOM     57  C   UNL     1       0.633  -5.361   1.063  1.00  0.00     0.029 A 
ATOM     58  C   UNL     1       0.043  -4.311   1.881  1.00  0.00     0.049 A 
ATOM     59  H   UNL     1      -0.204  -4.338   3.957  1.00  0.00     0.167 HD
ATOM     60  C   UNL     1      -0.390  -4.539   8.348  1.00  0.00     0.034 A 
ATOM     61  C   UNL     1      -0.484  -3.159   1.415  1.00  0.00     0.034 A 
ATOM     62  C   UNL     1      -1.149  -3.375   7.954  1.00  0.00     0.049 A 
ATOM     63  C   UNL     1      -1.149  -2.244   2.418  1.00  0.00     0.074 A 
ATOM     64  C   UNL     1      -1.923  -2.544   8.743  1.00  0.00     0.029 A 
ATOM     65  N   UNL     1      -1.244  -2.886   6.654  1.00  0.00    -0.354 N 
ATOM     66  N   UNL     1      -1.179  -2.341   3.729  1.00  0.00    -0.248 NA
ATOM     67  C   UNL     1      -1.871  -1.083   1.886  1.00  0.00     0.031 C 
ATOM     68  C   UNL     1      -2.547  -1.608   7.912  1.00  0.00     0.029 A 
ATOM     69  C   UNL     1      -2.088  -1.785   6.614  1.00  0.00     0.049 A 
ATOM     70  H   UNL     1      -0.779  -3.266   5.874  1.00  0.00     0.167 HD
ATOM     71  C   UNL     1      -1.962  -1.277   4.177  1.00  0.00     0.074 A 
ATOM     72  C   UNL     1      -2.301  -0.501   2.998  1.00  0.00     0.031 C 
ATOM     73  C   UNL     1      -2.393  -0.995   5.436  1.00  0.00     0.034 A 
BRANCH  60  74
ATOM     74  C   UNL     1      -0.462  -5.029   9.776  1.00  0.00     0.023 A 
ATOM     75  C   UNL     1       0.684  -5.162  10.580  1.00  0.00     0.031 A 
ATOM     76  C   UNL     1      -1.690  -5.463  10.311  1.00  0.00     0.131 A 
ATOM     77  C   UNL     1       0.595  -5.805  11.825  1.00  0.00     0.055 A 
ATOM     78  C   UNL     1      -1.787  -6.012  11.591  1.00  0.00     0.041 A 
ATOM     79  F   UNL     1      -2.816  -5.393   9.583  1.00  0.00    -0.206 F 
ATOM     80  C   UNL     1      -0.636  -6.206  12.348  1.00  0.00     0.022 A 
BRANCH  77  81
ATOM     81  S   UNL     1       2.132  -6.287  12.659  1.00  0.00     0.124 S 
ATOM     82  O   UNL     1       2.771  -7.116  11.639  1.00  0.00    -0.237 OA
ATOM     83  O   UNL     1       2.764  -5.000  12.924  1.00  0.00    -0.237 OA
ATOM     84  O   UNL     1       1.669  -7.012  13.841  1.00  0.00    -0.744 OA
ENDBRANCH  77  81
ENDBRANCH  60  74
BRANCH  61  85
ATOM     85  C   UNL     1      -0.416  -2.802  -0.041  1.00  0.00     0.023 A 
ATOM     86  C   UNL     1       0.303  -1.676  -0.480  1.00  0.00     0.031 A 
ATOM     87  C   UNL     1      -1.060  -3.567  -1.027  1.00  0.00     0.131 A 
ATOM     88  C   UNL     1       0.323  -1.316  -1.841  1.00  0.00     0.055 A 
ATOM     89  C   UNL     1      -0.982  -3.248  -2.388  1.00  0.00     0.041 A 
ATOM     90  F   UNL     1      -1.757  -4.661  -0.685  1.00  0.00    -0.206 F 
ATOM     91  C   UNL     1      -0.299  -2.109  -2.801  1.00  0.00     0.022 A 
BRANCH  88  92
ATOM     92  S   UNL     1       1.135   0.230  -2.344  1.00  0.00     0.124 S 
ATOM     93  O   UNL     1       0.265   1.229  -1.731  1.00  0.00    -0.237 OA
ATOM     94  O   UNL     1       2.459   0.089  -1.748  1.00  0.00    -0.237 OA
ATOM     95  O   UNL     1       1.102   0.179  -3.803  1.00  0.00    -0.744 OA
ENDBRANCH  88  92
ENDBRANCH  61  85
BRANCH  73  96
ATOM     96  C   UNL     1      -3.253   0.239   5.631  1.00  0.00     0.023 A 
ATOM     97  C   UNL     1      -4.521   0.370   5.034  1.00  0.00     0.031 A 
ATOM     98  C   UNL     1      -2.820   1.280   6.475  1.00  0.00     0.131 A 
ATOM     99  C   UNL     1      -5.281   1.533   5.241  1.00  0.00     0.055 A 
ATOM    100  C   UNL     1      -3.613   2.401   6.736  1.00  0.00     0.041 A 
ATOM    101  F   UNL     1      -1.628   1.212   7.089  1.00  0.00    -0.206 F 
ATOM    102  C   UNL     1      -4.846   2.538   6.107  1.00  0.00     0.022 A 
BRANCH  99 103
ATOM    103  S   UNL     1      -6.807   1.759   4.287  1.00  0.00     0.124 S 
ATOM    104  O   UNL     1      -6.321   1.665   2.913  1.00  0.00    -0.237 OA
ATOM    105  O   UNL     1      -7.633   0.647   4.747  1.00  0.00    -0.237 OA
ATOM    106  O   UNL     1      -7.273   3.085   4.689  1.00  0.00    -0.744 OA
ENDBRANCH  99 103
ENDBRANCH  73  96
ENDBRANCH  47  48
ENDBRANCH  40  42
ENDBRANCH  39  40
ENDBRANCH  38  39
ENDBRANCH  37  38
ENDBRANCH  36  37
ENDBRANCH  35  36
ENDBRANCH   1  35
TORSDOF 24
