REMARK SMILES O=C(OCCOCCOCCOC(=O)[C@@H]1CC[C@@H](CN2C(=O)CC3(CCCC3)CC2=O)O1)c1ccc(-c2c3nc(c(-c4cc(S(=O)(=O)[O-])ccc4F)c4ccc([nH]4)c(-c4cc(S(=O)(=O)[O-])ccc4F)c4nc(c(-c5cc(S(=O)(=O)[O-])ccc5F)c5ccc2[nH]5)C=C4)C=C3)cc1
REMARK SMILES IDX 7 1 6 2 5 3 4 4 3 5 2 6 1 7 33 8 34 9 95 10 35 11 94 12
REMARK SMILES IDX 36 13 37 14 38 15 88 16 39 17 93 18 87 19 89 20 40 21 92 22
REMARK SMILES IDX 86 23 85 24 41 26 73 27 53 28 72 29 54 30 57 31 71 32 90 33
REMARK SMILES IDX 55 34 56 35 70 37 91 38 58 39 42 40 43 41 51 42 44 43 50 44
REMARK SMILES IDX 52 45 49 46 45 47 46 48 47 49 48 50 74 51 75 52 83 53 76 54
REMARK SMILES IDX 82 55 84 56 81 57 77 58 78 59 79 60 80 61 59 62 60 63 68 64
REMARK SMILES IDX 61 65 67 66 69 67 66 68 62 69 63 70 64 71 65 72 8 73 9 74
REMARK SMILES IDX 10 75 11 76 12 77 13 78 14 79 15 80 16 81 32 82 17 83 18 84
REMARK SMILES IDX 19 85 20 86 21 87 30 88 22 89 23 90 29 91 31 92 24 93 25 94
REMARK SMILES IDX 28 95 26 96 27 97
REMARK H PARENT 89 25 57 36
REMARK Flexibility Score: inf
ROOT
ATOM      1  C   UNL     1       2.424  -1.100  -2.230  1.00  0.00     0.188 C 
ENDROOT
BRANCH   1   2
ATOM      2  O   UNL     1       3.714  -0.685  -1.762  1.00  0.00    -0.376 OA
BRANCH   2   3
ATOM      3  C   UNL     1       4.396  -1.676  -0.987  1.00  0.00     0.202 C 
BRANCH   3   4
ATOM      4  C   UNL     1       4.163  -1.561   0.525  1.00  0.00     0.261 C 
BRANCH   4   5
ATOM      5  O   UNL     1       2.792  -1.243   0.817  1.00  0.00    -0.460 OA
BRANCH   5   6
ATOM      6  C   UNL     1       2.274  -0.015   1.079  1.00  0.00     0.338 C 
ATOM      7  O   UNL     1       1.059   0.096   1.237  1.00  0.00    -0.246 OA
BRANCH   6   8
ATOM      8  C   UNL     1       3.119   1.201   1.252  1.00  0.00     0.060 A 
ATOM      9  C   UNL     1       4.269   1.484   0.511  1.00  0.00     0.016 A 
ATOM     10  C   UNL     1       2.685   2.151   2.187  1.00  0.00     0.016 A 
ATOM     11  C   UNL     1       5.060   2.593   0.804  1.00  0.00     0.010 A 
ATOM     12  C   UNL     1       3.425   3.317   2.412  1.00  0.00     0.010 A 
ATOM     13  C   UNL     1       4.653   3.521   1.760  1.00  0.00    -0.014 A 
BRANCH  13  14
ATOM     14  C   UNL     1       5.550   4.637   2.162  1.00  0.00     0.031 A 
ATOM     15  C   UNL     1       6.015   4.707   3.591  1.00  0.00     0.074 A 
ATOM     16  C   UNL     1       5.964   5.562   1.273  1.00  0.00     0.049 A 
ATOM     17  N   UNL     1       6.654   5.657   4.221  1.00  0.00    -0.248 NA
ATOM     18  C   UNL     1       5.718   3.530   4.423  1.00  0.00     0.031 C 
ATOM     19  C   UNL     1       5.663   5.565  -0.159  1.00  0.00     0.029 A 
ATOM     20  N   UNL     1       6.680   6.719   1.460  1.00  0.00    -0.354 N 
ATOM     21  C   UNL     1       6.849   5.186   5.514  1.00  0.00     0.074 A 
ATOM     22  C   UNL     1       6.172   3.911   5.605  1.00  0.00     0.031 C 
ATOM     23  C   UNL     1       6.089   6.717  -0.700  1.00  0.00     0.029 A 
ATOM     24  C   UNL     1       6.677   7.534   0.350  1.00  0.00     0.049 A 
ATOM     25  H   UNL     1       7.145   6.942   2.298  1.00  0.00     0.167 HD
ATOM     26  C   UNL     1       7.572   5.740   6.519  1.00  0.00     0.034 A 
ATOM     27  C   UNL     1       7.042   8.822   0.212  1.00  0.00     0.034 A 
ATOM     28  C   UNL     1       8.227   7.019   6.409  1.00  0.00     0.049 A 
ATOM     29  C   UNL     1       7.670   9.516   1.385  1.00  0.00     0.074 A 
ATOM     30  C   UNL     1       8.992   7.692   7.344  1.00  0.00     0.029 A 
ATOM     31  N   UNL     1       8.181   7.828   5.278  1.00  0.00    -0.354 N 
ATOM     32  N   UNL     1       7.854   9.069   2.606  1.00  0.00    -0.248 NA
ATOM     33  C   UNL     1       8.180  10.870   1.150  1.00  0.00     0.031 C 
ATOM     34  C   UNL     1       9.368   8.926   6.796  1.00  0.00     0.029 A 
ATOM     35  C   UNL     1       8.884   9.001   5.499  1.00  0.00     0.049 A 
ATOM     36  H   UNL     1       7.715   7.601   4.441  1.00  0.00     0.167 HD
ATOM     37  C   UNL     1       8.562  10.063   3.269  1.00  0.00     0.074 A 
ATOM     38  C   UNL     1       8.741  11.146   2.319  1.00  0.00     0.031 C 
ATOM     39  C   UNL     1       9.053  10.064   4.535  1.00  0.00     0.034 A 
BRANCH  26  40
ATOM     40  C   UNL     1       7.644   4.952   7.806  1.00  0.00     0.023 A 
ATOM     41  C   UNL     1       8.216   3.665   7.840  1.00  0.00     0.031 A 
ATOM     42  C   UNL     1       7.031   5.428   8.976  1.00  0.00     0.131 A 
ATOM     43  C   UNL     1       8.057   2.855   8.974  1.00  0.00     0.055 A 
ATOM     44  C   UNL     1       6.957   4.650  10.135  1.00  0.00     0.041 A 
ATOM     45  F   UNL     1       6.451   6.638   9.002  1.00  0.00    -0.206 F 
ATOM     46  C   UNL     1       7.449   3.346  10.131  1.00  0.00     0.022 A 
BRANCH  43  47
ATOM     47  S   UNL     1       8.470   1.091   8.841  1.00  0.00     0.124 S 
ATOM     48  O   UNL     1       7.622   0.670   7.728  1.00  0.00    -0.237 OA
ATOM     49  O   UNL     1       9.903   1.121   8.577  1.00  0.00    -0.237 OA
ATOM     50  O   UNL     1       8.086   0.550  10.144  1.00  0.00    -0.744 OA
ENDBRANCH  43  47
ENDBRANCH  26  40
BRANCH  27  51
ATOM     51  C   UNL     1       6.778   9.537  -1.065  1.00  0.00     0.023 A 
ATOM     52  C   UNL     1       7.814   9.855  -1.954  1.00  0.00     0.031 A 
ATOM     53  C   UNL     1       5.467   9.914  -1.409  1.00  0.00     0.131 A 
ATOM     54  C   UNL     1       7.525  10.553  -3.138  1.00  0.00     0.055 A 
ATOM     55  C   UNL     1       5.181  10.584  -2.600  1.00  0.00     0.041 A 
ATOM     56  F   UNL     1       4.439   9.622  -0.597  1.00  0.00    -0.206 F 
ATOM     57  C   UNL     1       6.216  10.914  -3.469  1.00  0.00     0.022 A 
BRANCH  54  58
ATOM     58  S   UNL     1       8.896  11.018  -4.232  1.00  0.00     0.124 S 
ATOM     59  O   UNL     1       9.721  11.834  -3.349  1.00  0.00    -0.237 OA
ATOM     60  O   UNL     1       9.444   9.716  -4.600  1.00  0.00    -0.237 OA
ATOM     61  O   UNL     1       8.236  11.742  -5.316  1.00  0.00    -0.744 OA
ENDBRANCH  54  58
ENDBRANCH  27  51
BRANCH  39  62
ATOM     62  C   UNL     1       9.915  11.236   4.912  1.00  0.00     0.023 A 
ATOM     63  C   UNL     1       9.381  12.519   5.113  1.00  0.00     0.031 A 
ATOM     64  C   UNL     1      11.306  11.065   5.027  1.00  0.00     0.131 A 
ATOM     65  C   UNL     1      10.242  13.596   5.364  1.00  0.00     0.055 A 
ATOM     66  C   UNL     1      12.153  12.131   5.327  1.00  0.00     0.041 A 
ATOM     67  F   UNL     1      11.863   9.858   4.838  1.00  0.00    -0.206 F 
ATOM     68  C   UNL     1      11.623  13.408   5.485  1.00  0.00     0.022 A 
BRANCH  65  69
ATOM     69  S   UNL     1       9.544  15.268   5.443  1.00  0.00     0.124 S 
ATOM     70  O   UNL     1       8.954  15.413   4.116  1.00  0.00    -0.237 OA
ATOM     71  O   UNL     1       8.602  15.161   6.552  1.00  0.00    -0.237 OA
ATOM     72  O   UNL     1      10.709  16.114   5.700  1.00  0.00    -0.744 OA
ENDBRANCH  65  69
ENDBRANCH  39  62
ENDBRANCH  13  14
ENDBRANCH   6   8
ENDBRANCH   5   6
ENDBRANCH   4   5
ENDBRANCH   3   4
ENDBRANCH   2   3
ENDBRANCH   1   2
BRANCH   1  73
ATOM     73  C   UNL     1       2.004  -0.268  -3.447  1.00  0.00     0.188 C 
BRANCH  73  74
ATOM     74  O   UNL     1       2.637  -0.651  -4.676  1.00  0.00    -0.376 OA
BRANCH  74  75
ATOM     75  C   UNL     1       4.056  -0.476  -4.746  1.00  0.00     0.202 C 
BRANCH  75  76
ATOM     76  C   UNL     1       4.508   0.955  -5.060  1.00  0.00     0.261 C 
BRANCH  76  77
ATOM     77  O   UNL     1       4.003   1.875  -4.084  1.00  0.00    -0.461 OA
BRANCH  77  78
ATOM     78  C   UNL     1       3.561   3.074  -4.564  1.00  0.00     0.335 C 
ATOM     79  O   UNL     1       3.739   3.488  -5.704  1.00  0.00    -0.249 OA
BRANCH  78  80
ATOM     80  C   UNL     1       2.698   3.774  -3.505  1.00  0.00     0.228 C 
ATOM     81  C   UNL     1       1.320   4.074  -4.070  1.00  0.00     0.047 C 
ATOM     82  O   UNL     1       3.232   4.994  -3.012  1.00  0.00    -0.361 OA
ATOM     83  C   UNL     1       1.287   5.572  -4.269  1.00  0.00     0.037 C 
ATOM     84  C   UNL     1       2.553   6.110  -3.611  1.00  0.00     0.139 C 
BRANCH  84  85
ATOM     85  C   UNL     1       2.328   7.223  -2.555  1.00  0.00     0.160 C 
BRANCH  85  86
ATOM     86  N   UNL     1       1.403   6.776  -1.512  1.00  0.00    -0.280 N 
ATOM     87  C   UNL     1       0.099   7.217  -1.479  1.00  0.00     0.229 C 
ATOM     88  C   UNL     1       1.909   6.013  -0.490  1.00  0.00     0.229 C 
ATOM     89  O   UNL     1      -0.359   8.021  -2.295  1.00  0.00    -0.274 OA
ATOM     90  C   UNL     1      -0.829   6.629  -0.416  1.00  0.00     0.108 C 
ATOM     91  C   UNL     1       0.970   4.939  -0.050  1.00  0.00     0.108 C 
ATOM     92  O   UNL     1       2.966   6.223   0.088  1.00  0.00    -0.274 OA
ATOM     93  C   UNL     1      -0.233   5.616   0.584  1.00  0.00    -0.012 C 
ATOM     94  C   UNL     1      -1.283   4.545   0.978  1.00  0.00     0.008 C 
ATOM     95  C   UNL     1       0.168   6.285   1.926  1.00  0.00     0.008 C 
ATOM     96  C   UNL     1      -1.262   4.479   2.498  1.00  0.00     0.001 C 
ATOM     97  C   UNL     1      -0.931   5.902   2.905  1.00  0.00     0.001 C 
ENDBRANCH  85  86
ENDBRANCH  84  85
ENDBRANCH  78  80
ENDBRANCH  77  78
ENDBRANCH  76  77
ENDBRANCH  75  76
ENDBRANCH  74  75
ENDBRANCH  73  74
ENDBRANCH   1  73
TORSDOF 22
