REMARK SMILES Cc1ccc(NC(=O)C[C@H]([NH2+]Cc2cccnc2)C(=O)OCCOCCOCCOC(=O)c2ccc(-c3c4nc(c(-c5cc(S(=O)(=O)[O-])ccc5F)c5ccc([nH]5)c(-c5cc(S(=O)(=O)[O-])ccc5F)c5nc(c(-c6cc(S(=O)(=O)[O-])ccc6F)c6ccc3[nH]6)C=C5)C=C4)cc2)cc1Cl
REMARK SMILES IDX 25 1 24 2 23 3 22 4 21 5 19 6 20 7 10 8 9 9 7 10 6 11 8 13
REMARK SMILES IDX 5 14 1 15 2 16 3 17 97 18 4 19 96 20 98 21 11 22 12 25 13 26
REMARK SMILES IDX 14 27 18 28 15 29 17 30 16 31 26 32 27 33 28 34 29 35 30 36
REMARK SMILES IDX 31 37 32 38 33 39 34 40 95 41 35 42 94 43 36 44 37 45 38 46
REMARK SMILES IDX 88 47 39 48 93 49 87 50 89 51 40 52 92 53 86 54 85 55 41 57
REMARK SMILES IDX 73 58 53 59 72 60 54 61 57 62 71 63 90 64 55 65 56 66 70 68
REMARK SMILES IDX 91 69 58 70 42 71 43 72 51 73 44 74 50 75 52 76 49 77 45 78
REMARK SMILES IDX 46 79 47 80 48 81 74 82 75 83 83 84 76 85 82 86 84 87 81 88
REMARK SMILES IDX 77 89 78 90 79 91 80 92 59 93 60 94 68 95 61 96 67 97 69 98
REMARK SMILES IDX 66 99 62 100 63 101 64 102 65 103
REMARK H PARENT 6 12 11 23 11 24 89 56 57 67
REMARK Flexibility Score: inf
ROOT
ATOM      1  C   UNL     1       3.071  -5.348  -1.835  1.00  0.00     0.188 C 
ENDROOT
BRANCH   1   2
ATOM      2  O   UNL     1       4.162  -4.452  -2.006  1.00  0.00    -0.376 OA
BRANCH   2   3
ATOM      3  C   UNL     1       4.311  -3.348  -1.131  1.00  0.00     0.202 C 
BRANCH   3   4
ATOM      4  C   UNL     1       3.253  -2.233  -1.182  1.00  0.00     0.261 C 
BRANCH   4   5
ATOM      5  O   UNL     1       1.881  -2.540  -0.839  1.00  0.00    -0.459 OA
BRANCH   5   6
ATOM      6  C   UNL     1       0.977  -2.607  -1.861  1.00  0.00     0.365 C 
ATOM      7  O   UNL     1       1.295  -2.724  -3.039  1.00  0.00    -0.245 OA
BRANCH   6   8
ATOM      8  C   UNL     1      -0.500  -2.374  -1.421  1.00  0.00     0.303 C 
BRANCH   8   9
ATOM      9  C   UNL     1      -0.581  -1.026  -0.718  1.00  0.00     0.177 C 
BRANCH   9  10
ATOM     10  C   UNL     1       0.121  -0.572   0.559  1.00  0.00     0.231 C 
ATOM     11  N   UNL     1       0.302  -1.162   1.761  1.00  0.00    -0.326 N 
ATOM     12  H   UNL     1       0.537  -0.480   2.431  1.00  0.00     0.169 HD
ATOM     13  O   UNL     1       0.449   0.634   0.571  1.00  0.00    -0.274 OA
BRANCH  11  14
ATOM     14  C   UNL     1       0.267  -2.427   2.371  1.00  0.00     0.042 A 
ATOM     15  C   UNL     1       0.178  -6.252   4.457  1.00  0.00     0.046 C 
ATOM     16  C   UNL     1       0.186  -4.926   3.754  1.00  0.00    -0.032 A 
ATOM     17  C   UNL     1       0.325  -3.722   4.450  1.00  0.00     0.007 A 
ATOM     18  C   UNL     1       0.083  -4.855   2.371  1.00  0.00     0.046 A 
ATOM     19  C   UNL     1       0.340  -2.490   3.766  1.00  0.00     0.026 A 
ATOM     20  C   UNL     1       0.218  -3.630   1.710  1.00  0.00     0.047 A 
ATOM     21  Cl  UNL     1      -0.252  -6.267   1.435  1.00  0.00    -0.084 Cl
ENDBRANCH  11  14
ENDBRANCH   9  10
ENDBRANCH   8   9
BRANCH   8  22
ATOM     22  N   UNL     1      -1.212  -3.524  -0.803  1.00  0.00    -0.330 N 
ATOM     23  H   UNL     1      -0.707  -3.788   0.043  1.00  0.00     0.347 HD
ATOM     24  H   UNL     1      -1.235  -4.251  -1.518  1.00  0.00     0.347 HD
BRANCH  22  25
ATOM     25  C   UNL     1      -2.619  -3.285  -0.431  1.00  0.00     0.299 C 
BRANCH  25  26
ATOM     26  C   UNL     1      -3.042  -3.950   0.862  1.00  0.00     0.024 A 
ATOM     27  C   UNL     1      -3.396  -5.299   0.937  1.00  0.00     0.013 A 
ATOM     28  C   UNL     1      -3.104  -3.228   2.057  1.00  0.00     0.120 A 
ATOM     29  C   UNL     1      -3.755  -5.862   2.165  1.00  0.00     0.021 A 
ATOM     30  N   UNL     1      -3.462  -3.739   3.263  1.00  0.00    -0.264 NA
ATOM     31  C   UNL     1      -3.766  -5.052   3.289  1.00  0.00     0.111 A 
ENDBRANCH  25  26
ENDBRANCH  22  25
ENDBRANCH   8  22
ENDBRANCH   6   8
ENDBRANCH   5   6
ENDBRANCH   4   5
ENDBRANCH   3   4
ENDBRANCH   2   3
ENDBRANCH   1   2
BRANCH   1  32
ATOM     32  C   UNL     1       2.400  -5.452  -0.466  1.00  0.00     0.188 C 
BRANCH  32  33
ATOM     33  O   UNL     1       3.269  -5.173   0.614  1.00  0.00    -0.376 OA
BRANCH  33  34
ATOM     34  C   UNL     1       3.389  -6.131   1.647  1.00  0.00     0.202 C 
BRANCH  34  35
ATOM     35  C   UNL     1       4.003  -7.474   1.246  1.00  0.00     0.261 C 
BRANCH  35  36
ATOM     36  O   UNL     1       3.428  -8.079   0.076  1.00  0.00    -0.460 OA
BRANCH  36  37
ATOM     37  C   UNL     1       2.235  -8.703   0.217  1.00  0.00     0.338 C 
ATOM     38  O   UNL     1       1.617  -8.878   1.256  1.00  0.00    -0.246 OA
BRANCH  37  39
ATOM     39  C   UNL     1       1.747  -9.005  -1.147  1.00  0.00     0.060 A 
ATOM     40  C   UNL     1       0.641  -8.326  -1.685  1.00  0.00     0.016 A 
ATOM     41  C   UNL     1       2.434  -9.946  -1.910  1.00  0.00     0.016 A 
ATOM     42  C   UNL     1       0.217  -8.592  -2.991  1.00  0.00     0.010 A 
ATOM     43  C   UNL     1       1.996 -10.227  -3.204  1.00  0.00     0.010 A 
ATOM     44  C   UNL     1       0.875  -9.569  -3.745  1.00  0.00    -0.014 A 
BRANCH  44  45
ATOM     45  C   UNL     1       0.321 -10.070  -5.026  1.00  0.00     0.031 A 
ATOM     46  C   UNL     1      -0.374 -11.400  -5.010  1.00  0.00     0.074 A 
ATOM     47  C   UNL     1       0.513  -9.415  -6.183  1.00  0.00     0.049 A 
ATOM     48  N   UNL     1      -0.694 -12.187  -6.001  1.00  0.00    -0.248 NA
ATOM     49  C   UNL     1      -0.726 -11.921  -3.680  1.00  0.00     0.031 C 
ATOM     50  C   UNL     1       1.118  -8.093  -6.316  1.00  0.00     0.029 A 
ATOM     51  N   UNL     1       0.258  -9.805  -7.476  1.00  0.00    -0.354 N 
ATOM     52  C   UNL     1      -1.246 -13.321  -5.415  1.00  0.00     0.074 A 
ATOM     53  C   UNL     1      -1.197 -13.119  -3.982  1.00  0.00     0.031 C 
ATOM     54  C   UNL     1       1.232  -7.799  -7.623  1.00  0.00     0.029 A 
ATOM     55  C   UNL     1       0.770  -8.939  -8.415  1.00  0.00     0.049 A 
ATOM     56  H   UNL     1      -0.240 -10.622  -7.708  1.00  0.00     0.167 HD
ATOM     57  C   UNL     1      -1.735 -14.430  -6.022  1.00  0.00     0.034 A 
ATOM     58  C   UNL     1       0.913  -9.080  -9.749  1.00  0.00     0.034 A 
ATOM     59  C   UNL     1      -1.755 -14.605  -7.454  1.00  0.00     0.049 A 
ATOM     60  C   UNL     1       0.443 -10.356 -10.409  1.00  0.00     0.074 A 
ATOM     61  C   UNL     1      -2.259 -15.666  -8.185  1.00  0.00     0.029 A 
ATOM     62  N   UNL     1      -1.226 -13.705  -8.373  1.00  0.00    -0.354 N 
ATOM     63  N   UNL     1      -0.079 -11.428  -9.857  1.00  0.00    -0.248 NA
ATOM     64  C   UNL     1       0.582 -10.443 -11.870  1.00  0.00     0.031 C 
ATOM     65  C   UNL     1      -1.949 -15.454  -9.532  1.00  0.00     0.029 A 
ATOM     66  C   UNL     1      -1.350 -14.209  -9.658  1.00  0.00     0.049 A 
ATOM     67  H   UNL     1      -0.822 -12.837  -8.144  1.00  0.00     0.167 HD
ATOM     68  C   UNL     1      -0.363 -12.300 -10.906  1.00  0.00     0.074 A 
ATOM     69  C   UNL     1       0.050 -11.631 -12.123  1.00  0.00     0.031 C 
ATOM     70  C   UNL     1      -0.929 -13.534 -10.866  1.00  0.00     0.034 A 
BRANCH  57  71
ATOM     71  C   UNL     1      -2.201 -15.559  -5.133  1.00  0.00     0.023 A 
ATOM     72  C   UNL     1      -3.243 -15.395  -4.203  1.00  0.00     0.031 A 
ATOM     73  C   UNL     1      -1.546 -16.803  -5.169  1.00  0.00     0.131 A 
ATOM     74  C   UNL     1      -3.527 -16.416  -3.283  1.00  0.00     0.055 A 
ATOM     75  C   UNL     1      -1.903 -17.851  -4.319  1.00  0.00     0.041 A 
ATOM     76  F   UNL     1      -0.525 -17.015  -6.015  1.00  0.00    -0.206 F 
ATOM     77  C   UNL     1      -2.884 -17.653  -3.353  1.00  0.00     0.022 A 
BRANCH  74  78
ATOM     78  S   UNL     1      -4.606 -16.032  -1.876  1.00  0.00     0.124 S 
ATOM     79  O   UNL     1      -3.928 -14.877  -1.289  1.00  0.00    -0.237 OA
ATOM     80  O   UNL     1      -5.884 -15.759  -2.523  1.00  0.00    -0.237 OA
ATOM     81  O   UNL     1      -4.561 -17.248  -1.067  1.00  0.00    -0.744 OA
ENDBRANCH  74  78
ENDBRANCH  57  71
BRANCH  58  82
ATOM     82  C   UNL     1       1.599  -8.015 -10.538  1.00  0.00     0.023 A 
ATOM     83  C   UNL     1       0.913  -7.266 -11.507  1.00  0.00     0.031 A 
ATOM     84  C   UNL     1       2.963  -7.737 -10.333  1.00  0.00     0.131 A 
ATOM     85  C   UNL     1       1.599  -6.291 -12.250  1.00  0.00     0.055 A 
ATOM     86  C   UNL     1       3.627  -6.730 -11.036  1.00  0.00     0.041 A 
ATOM     87  F   UNL     1       3.668  -8.429  -9.423  1.00  0.00    -0.206 F 
ATOM     88  C   UNL     1       2.945  -6.005 -12.007  1.00  0.00     0.022 A 
BRANCH  85  89
ATOM     89  S   UNL     1       0.720  -5.438 -13.588  1.00  0.00     0.124 S 
ATOM     90  O   UNL     1       0.360  -6.549 -14.461  1.00  0.00    -0.237 OA
ATOM     91  O   UNL     1      -0.381  -4.801 -12.872  1.00  0.00    -0.237 OA
ATOM     92  O   UNL     1       1.723  -4.522 -14.125  1.00  0.00    -0.744 OA
ENDBRANCH  85  89
ENDBRANCH  58  82
BRANCH  70  93
ATOM     93  C   UNL     1      -1.210 -14.224 -12.181  1.00  0.00     0.023 A 
ATOM     94  C   UNL     1      -0.186 -14.699 -13.018  1.00  0.00     0.031 A 
ATOM     95  C   UNL     1      -2.543 -14.450 -12.575  1.00  0.00     0.131 A 
ATOM     96  C   UNL     1      -0.513 -15.353 -14.218  1.00  0.00     0.055 A 
ATOM     97  C   UNL     1      -2.861 -15.152 -13.737  1.00  0.00     0.041 A 
ATOM     98  F   UNL     1      -3.562 -14.012 -11.817  1.00  0.00    -0.206 F 
ATOM     99  C   UNL     1      -1.842 -15.602 -14.570  1.00  0.00     0.022 A 
BRANCH  96 100
ATOM    100  S   UNL     1       0.822 -15.822 -15.354  1.00  0.00     0.124 S 
ATOM    101  O   UNL     1       1.434 -14.531 -15.651  1.00  0.00    -0.237 OA
ATOM    102  O   UNL     1       1.619 -16.735 -14.542  1.00  0.00    -0.237 OA
ATOM    103  O   UNL     1       0.117 -16.445 -16.474  1.00  0.00    -0.744 OA
ENDBRANCH  96 100
ENDBRANCH  70  93
ENDBRANCH  44  45
ENDBRANCH  37  39
ENDBRANCH  36  37
ENDBRANCH  35  36
ENDBRANCH  34  35
ENDBRANCH  33  34
ENDBRANCH  32  33
ENDBRANCH   1  32
TORSDOF 26
