REMARK SMILES Cc1c(CC(=O)OCCOCCOCCOC(=O)c2ccc(-c3c4nc(c(-c5cc(S(=O)(=O)[O-])ccc5F)c5ccc([nH]5)c(-c5cc(S(=O)(=O)[O-])ccc5F)c5nc(c(-c6cc(S(=O)(=O)[O-])ccc6F)c6ccc3[nH]6)C=C5)C=C4)cc2)c(O)oc2cc(=O)cc(O)c1-2
REMARK SMILES IDX 12 1 11 2 10 3 9 4 8 5 7 6 5 7 6 8 4 9 3 10 1 11 2 12 92 13
REMARK SMILES IDX 82 14 85 15 90 16 84 17 86 18 89 19 87 20 88 21 83 22 91 24
REMARK SMILES IDX 13 26 14 27 15 28 16 29 17 30 18 31 19 32 20 33 81 34 21 35
REMARK SMILES IDX 80 36 22 37 23 38 24 39 74 40 25 41 79 42 73 43 75 44 26 45
REMARK SMILES IDX 78 46 72 47 71 48 27 50 59 51 39 52 58 53 40 54 43 55 57 56
REMARK SMILES IDX 76 57 41 58 42 59 56 61 77 62 44 63 28 64 29 65 37 66 30 67
REMARK SMILES IDX 36 68 38 69 35 70 31 71 32 72 33 73 34 74 60 75 61 76 69 77
REMARK SMILES IDX 62 78 68 79 70 80 67 81 63 82 64 83 65 84 66 85 45 86 46 87
REMARK SMILES IDX 54 88 47 89 53 90 55 91 52 92 48 93 49 94 50 95 51 96
REMARK H PARENT 83 23 91 25 75 49 43 60
REMARK Flexibility Score: inf
ROOT
ATOM      1  C   UNL     1       2.819   0.602   0.918  1.00  0.00     0.188 C 
ENDROOT
BRANCH   1   2
ATOM      2  C   UNL     1       2.647   2.062   0.453  1.00  0.00     0.188 C 
BRANCH   2   3
ATOM      3  O   UNL     1       3.386   3.090   1.101  1.00  0.00    -0.376 OA
BRANCH   3   4
ATOM      4  C   UNL     1       3.606   2.985   2.499  1.00  0.00     0.202 C 
BRANCH   4   5
ATOM      5  C   UNL     1       2.371   3.144   3.385  1.00  0.00     0.261 C 
BRANCH   5   6
ATOM      6  O   UNL     1       1.416   2.072   3.225  1.00  0.00    -0.463 OA
BRANCH   6   7
ATOM      7  C   UNL     1       0.137   2.452   2.990  1.00  0.00     0.310 C 
ATOM      8  O   UNL     1      -0.225   3.623   2.908  1.00  0.00    -0.252 OA
BRANCH   7   9
ATOM      9  C   UNL     1      -0.883   1.319   2.870  1.00  0.00     0.166 C 
BRANCH   9  10
ATOM     10  C   UNL     1      -0.458  -0.145   2.893  1.00  0.00     0.048 A 
ATOM     11  C   UNL     1      -0.936  -0.385   0.368  1.00  0.00     0.046 C 
ATOM     12  C   UNL     1      -0.330  -0.929   1.637  1.00  0.00    -0.026 A 
ATOM     13  C   UNL     1       0.270  -2.155   1.653  1.00  0.00     0.063 A 
ATOM     14  C   UNL     1      -0.202  -0.780   4.061  1.00  0.00     0.286 A 
ATOM     15  C   UNL     1       0.496  -2.798   2.954  1.00  0.00     0.146 A 
ATOM     16  C   UNL     1       0.689  -2.909   0.450  1.00  0.00     0.130 A 
ATOM     17  O   UNL     1       0.234  -2.090   4.112  1.00  0.00    -0.425 OA
ATOM     18  C   UNL     1       0.860  -4.083   3.043  1.00  0.00     0.100 A 
ATOM     19  C   UNL     1       1.075  -4.191   0.526  1.00  0.00     0.099 A 
ATOM     20  C   UNL     1       1.124  -4.883   1.831  1.00  0.00     0.186 A 
ATOM     21  O   UNL     1       1.425  -6.068   1.912  1.00  0.00    -0.290 OA
BRANCH  14  22
ATOM     22  O   UNL     1      -0.345  -0.175   5.291  1.00  0.00    -0.480 OA
ATOM     23  H   UNL     1      -0.637   0.714   5.345  1.00  0.00     0.297 HD
ENDBRANCH  14  22
BRANCH  16  24
ATOM     24  O   UNL     1       0.797  -2.204  -0.731  1.00  0.00    -0.507 OA
ATOM     25  H   UNL     1       1.060  -2.642  -1.517  1.00  0.00     0.293 HD
ENDBRANCH  16  24
ENDBRANCH   9  10
ENDBRANCH   7   9
ENDBRANCH   6   7
ENDBRANCH   5   6
ENDBRANCH   4   5
ENDBRANCH   3   4
ENDBRANCH   2   3
ENDBRANCH   1   2
BRANCH   1  26
ATOM     26  O   UNL     1       4.107   0.170   1.337  1.00  0.00    -0.376 OA
BRANCH  26  27
ATOM     27  C   UNL     1       5.194   0.415   0.455  1.00  0.00     0.202 C 
BRANCH  27  28
ATOM     28  C   UNL     1       5.107  -0.325  -0.878  1.00  0.00     0.261 C 
BRANCH  28  29
ATOM     29  O   UNL     1       4.149   0.299  -1.755  1.00  0.00    -0.460 OA
BRANCH  29  30
ATOM     30  C   UNL     1       3.375  -0.558  -2.460  1.00  0.00     0.338 C 
ATOM     31  O   UNL     1       3.403  -1.777  -2.437  1.00  0.00    -0.246 OA
BRANCH  30  32
ATOM     32  C   UNL     1       2.380   0.185  -3.249  1.00  0.00     0.060 A 
ATOM     33  C   UNL     1       1.226   0.630  -2.611  1.00  0.00     0.016 A 
ATOM     34  C   UNL     1       2.474   0.235  -4.636  1.00  0.00     0.016 A 
ATOM     35  C   UNL     1       0.110   1.014  -3.350  1.00  0.00     0.010 A 
ATOM     36  C   UNL     1       1.382   0.699  -5.379  1.00  0.00     0.010 A 
ATOM     37  C   UNL     1       0.169   1.040  -4.747  1.00  0.00    -0.014 A 
BRANCH  37  38
ATOM     38  C   UNL     1      -1.054   1.300  -5.556  1.00  0.00     0.031 A 
ATOM     39  C   UNL     1      -1.563   0.229  -6.487  1.00  0.00     0.074 A 
ATOM     40  C   UNL     1      -1.740   2.454  -5.442  1.00  0.00     0.049 A 
ATOM     41  N   UNL     1      -2.438   0.314  -7.454  1.00  0.00    -0.248 NA
ATOM     42  C   UNL     1      -0.998  -1.117  -6.305  1.00  0.00     0.031 C 
ATOM     43  C   UNL     1      -1.442   3.530  -4.495  1.00  0.00     0.029 A 
ATOM     44  N   UNL     1      -2.838   2.912  -6.128  1.00  0.00    -0.354 N 
ATOM     45  C   UNL     1      -2.487  -0.949  -8.034  1.00  0.00     0.074 A 
ATOM     46  C   UNL     1      -1.550  -1.782  -7.309  1.00  0.00     0.031 C 
ATOM     47  C   UNL     1      -2.351   4.506  -4.640  1.00  0.00     0.029 A 
ATOM     48  C   UNL     1      -3.230   4.177  -5.757  1.00  0.00     0.049 A 
ATOM     49  H   UNL     1      -3.300   2.385  -6.820  1.00  0.00     0.167 HD
ATOM     50  C   UNL     1      -3.240  -1.369  -9.081  1.00  0.00     0.034 A 
ATOM     51  C   UNL     1      -4.149   5.005  -6.292  1.00  0.00     0.034 A 
ATOM     52  C   UNL     1      -4.197  -0.533  -9.763  1.00  0.00     0.049 A 
ATOM     53  C   UNL     1      -4.901   4.565  -7.518  1.00  0.00     0.074 A 
ATOM     54  C   UNL     1      -4.994  -0.843 -10.851  1.00  0.00     0.029 A 
ATOM     55  N   UNL     1      -4.497   0.776  -9.412  1.00  0.00    -0.354 N 
ATOM     56  N   UNL     1      -4.838   3.419  -8.155  1.00  0.00    -0.248 NA
ATOM     57  C   UNL     1      -5.821   5.540  -8.118  1.00  0.00     0.031 C 
ATOM     58  C   UNL     1      -5.733   0.295 -11.192  1.00  0.00     0.029 A 
ATOM     59  C   UNL     1      -5.447   1.296 -10.276  1.00  0.00     0.049 A 
ATOM     60  H   UNL     1      -4.093   1.265  -8.659  1.00  0.00     0.167 HD
ATOM     61  C   UNL     1      -5.714   3.533  -9.230  1.00  0.00     0.074 A 
ATOM     62  C   UNL     1      -6.302   4.856  -9.148  1.00  0.00     0.031 C 
ATOM     63  C   UNL     1      -6.005   2.625 -10.195  1.00  0.00     0.034 A 
BRANCH  50  64
ATOM     64  C   UNL     1      -2.997  -2.766  -9.595  1.00  0.00     0.023 A 
ATOM     65  C   UNL     1      -3.321  -3.908  -8.843  1.00  0.00     0.031 A 
ATOM     66  C   UNL     1      -2.401  -2.953 -10.856  1.00  0.00     0.131 A 
ATOM     67  C   UNL     1      -2.991  -5.182  -9.332  1.00  0.00     0.055 A 
ATOM     68  C   UNL     1      -2.140  -4.226 -11.367  1.00  0.00     0.041 A 
ATOM     69  F   UNL     1      -2.049  -1.898 -11.608  1.00  0.00    -0.206 F 
ATOM     70  C   UNL     1      -2.424  -5.349 -10.598  1.00  0.00     0.022 A 
BRANCH  67  71
ATOM     71  S   UNL     1      -3.202  -6.614  -8.239  1.00  0.00     0.124 S 
ATOM     72  O   UNL     1      -2.283  -6.289  -7.150  1.00  0.00    -0.237 OA
ATOM     73  O   UNL     1      -4.622  -6.558  -7.914  1.00  0.00    -0.237 OA
ATOM     74  O   UNL     1      -2.796  -7.744  -9.072  1.00  0.00    -0.744 OA
ENDBRANCH  67  71
ENDBRANCH  50  64
BRANCH  51  75
ATOM     75  C   UNL     1      -4.340   6.366  -5.716  1.00  0.00     0.023 A 
ATOM     76  C   UNL     1      -5.521   6.707  -5.041  1.00  0.00     0.031 A 
ATOM     77  C   UNL     1      -3.324   7.335  -5.809  1.00  0.00     0.131 A 
ATOM     78  C   UNL     1      -5.658   7.988  -4.483  1.00  0.00     0.055 A 
ATOM     79  C   UNL     1      -3.450   8.593  -5.219  1.00  0.00     0.041 A 
ATOM     80  F   UNL     1      -2.174   7.054  -6.443  1.00  0.00    -0.206 F 
ATOM     81  C   UNL     1      -4.624   8.926  -4.552  1.00  0.00     0.022 A 
BRANCH  78  82
ATOM     82  S   UNL     1      -7.214   8.420  -3.657  1.00  0.00     0.124 S 
ATOM     83  O   UNL     1      -8.149   8.431  -4.776  1.00  0.00    -0.237 OA
ATOM     84  O   UNL     1      -7.369   7.329  -2.701  1.00  0.00    -0.237 OA
ATOM     85  O   UNL     1      -6.933   9.726  -3.064  1.00  0.00    -0.744 OA
ENDBRANCH  78  82
ENDBRANCH  51  75
BRANCH  63  86
ATOM     86  C   UNL     1      -7.021   3.023 -11.232  1.00  0.00     0.023 A 
ATOM     87  C   UNL     1      -6.719   3.961 -12.233  1.00  0.00     0.031 A 
ATOM     88  C   UNL     1      -8.295   2.428 -11.238  1.00  0.00     0.131 A 
ATOM     89  C   UNL     1      -7.691   4.299 -13.186  1.00  0.00     0.055 A 
ATOM     90  C   UNL     1      -9.242   2.734 -12.216  1.00  0.00     0.041 A 
ATOM     91  F   UNL     1      -8.630   1.525 -10.303  1.00  0.00    -0.206 F 
ATOM     92  C   UNL     1      -8.944   3.679 -13.194  1.00  0.00     0.022 A 
BRANCH  89  93
ATOM     93  S   UNL     1      -7.311   5.592 -14.399  1.00  0.00     0.124 S 
ATOM     94  O   UNL     1      -7.157   6.768 -13.549  1.00  0.00    -0.237 OA
ATOM     95  O   UNL     1      -6.091   5.091 -15.024  1.00  0.00    -0.237 OA
ATOM     96  O   UNL     1      -8.489   5.605 -15.266  1.00  0.00    -0.744 OA
ENDBRANCH  89  93
ENDBRANCH  63  86
ENDBRANCH  37  38
ENDBRANCH  30  32
ENDBRANCH  29  30
ENDBRANCH  28  29
ENDBRANCH  27  28
ENDBRANCH  26  27
ENDBRANCH   1  26
TORSDOF 23
