REMARK SMILES O=C(OCCOCCOCCOC(=O)c1c(S(=O)(=O)N2CCCCC2)sc2c1CC[NH2+]C2)c1ccc(-c2c3nc(c(-c4cc(S(=O)(=O)[O-])ccc4F)c4ccc([nH]4)c(-c4cc(S(=O)(=O)[O-])ccc4F)c4nc(c(-c5cc(S(=O)(=O)[O-])ccc5F)c5ccc2[nH]5)C=C4)C=C3)cc1
REMARK SMILES IDX 7 1 6 2 5 3 4 4 3 5 2 6 1 7 33 8 34 9 95 10 35 11 94 12
REMARK SMILES IDX 36 13 37 14 38 15 88 16 39 17 93 18 87 19 89 20 40 21 92 22
REMARK SMILES IDX 86 23 85 24 41 26 73 27 53 28 72 29 54 30 57 31 71 32 90 33
REMARK SMILES IDX 55 34 56 35 70 37 91 38 58 39 42 40 43 41 51 42 44 43 50 44
REMARK SMILES IDX 52 45 49 46 45 47 46 48 47 49 48 50 74 51 75 52 83 53 76 54
REMARK SMILES IDX 82 55 84 56 81 57 77 58 78 59 79 60 80 61 59 62 60 63 68 64
REMARK SMILES IDX 61 65 67 66 69 67 66 68 62 69 63 70 64 71 65 72 8 73 9 74
REMARK SMILES IDX 10 75 11 76 12 77 13 78 14 79 15 80 16 81 28 82 26 83 27 84
REMARK SMILES IDX 29 85 32 86 30 87 31 88 17 91 18 92 19 93 20 94 21 95 25 96
REMARK SMILES IDX 22 97 24 98 23 99
REMARK H PARENT 89 25 57 36 31 89 31 90
REMARK Flexibility Score: inf
ROOT
ATOM      1  C   UNL     1       3.575  -0.950   1.242  1.00  0.00     0.188 C 
ENDROOT
BRANCH   1   2
ATOM      2  O   UNL     1       4.779  -0.192   1.268  1.00  0.00    -0.376 OA
BRANCH   2   3
ATOM      3  C   UNL     1       5.278   0.231   0.013  1.00  0.00     0.202 C 
BRANCH   3   4
ATOM      4  C   UNL     1       4.580   1.482  -0.529  1.00  0.00     0.261 C 
BRANCH   4   5
ATOM      5  O   UNL     1       3.163   1.547  -0.274  1.00  0.00    -0.460 OA
BRANCH   5   6
ATOM      6  C   UNL     1       2.072   1.143  -0.948  1.00  0.00     0.338 C 
ATOM      7  O   UNL     1       0.976   1.550  -0.563  1.00  0.00    -0.246 OA
BRANCH   6   8
ATOM      8  C   UNL     1       2.086   0.120  -2.031  1.00  0.00     0.060 A 
ATOM      9  C   UNL     1       3.197  -0.274  -2.772  1.00  0.00     0.016 A 
ATOM     10  C   UNL     1       0.835  -0.456  -2.341  1.00  0.00     0.016 A 
ATOM     11  C   UNL     1       3.047  -1.137  -3.856  1.00  0.00     0.010 A 
ATOM     12  C   UNL     1       0.683  -1.327  -3.416  1.00  0.00     0.010 A 
ATOM     13  C   UNL     1       1.784  -1.617  -4.214  1.00  0.00    -0.014 A 
BRANCH  13  14
ATOM     14  C   UNL     1       1.673  -2.351  -5.473  1.00  0.00     0.031 A 
ATOM     15  C   UNL     1       2.427  -3.627  -5.599  1.00  0.00     0.074 A 
ATOM     16  C   UNL     1       0.905  -1.940  -6.502  1.00  0.00     0.049 A 
ATOM     17  N   UNL     1       3.400  -3.905  -6.405  1.00  0.00    -0.248 NA
ATOM     18  C   UNL     1       2.084  -4.717  -4.677  1.00  0.00     0.031 C 
ATOM     19  C   UNL     1      -0.109  -0.882  -6.509  1.00  0.00     0.029 A 
ATOM     20  N   UNL     1       0.824  -2.461  -7.762  1.00  0.00    -0.354 N 
ATOM     21  C   UNL     1       3.677  -5.260  -6.236  1.00  0.00     0.074 A 
ATOM     22  C   UNL     1       2.918  -5.677  -5.082  1.00  0.00     0.031 C 
ATOM     23  C   UNL     1      -0.846  -0.981  -7.637  1.00  0.00     0.029 A 
ATOM     24  C   UNL     1      -0.262  -2.002  -8.491  1.00  0.00     0.049 A 
ATOM     25  H   UNL     1       1.478  -3.104  -8.120  1.00  0.00     0.167 HD
ATOM     26  C   UNL     1       4.391  -5.978  -7.150  1.00  0.00     0.034 A 
ATOM     27  C   UNL     1      -0.695  -2.454  -9.693  1.00  0.00     0.034 A 
ATOM     28  C   UNL     1       5.160  -5.121  -8.018  1.00  0.00     0.049 A 
ATOM     29  C   UNL     1       0.453  -3.091 -10.376  1.00  0.00     0.074 A 
ATOM     30  C   UNL     1       6.149  -4.176  -7.819  1.00  0.00     0.029 A 
ATOM     31  N   UNL     1       4.739  -4.936  -9.313  1.00  0.00    -0.354 N 
ATOM     32  N   UNL     1       1.508  -2.440 -10.783  1.00  0.00    -0.248 NA
ATOM     33  C   UNL     1       0.624  -4.531 -10.264  1.00  0.00     0.031 C 
ATOM     34  C   UNL     1       5.906  -3.173  -8.802  1.00  0.00     0.029 A 
ATOM     35  C   UNL     1       4.811  -3.587  -9.562  1.00  0.00     0.049 A 
ATOM     36  H   UNL     1       4.444  -5.635  -9.941  1.00  0.00     0.167 HD
ATOM     37  C   UNL     1       2.569  -3.306 -10.580  1.00  0.00     0.074 A 
ATOM     38  C   UNL     1       1.952  -4.612 -10.376  1.00  0.00     0.031 C 
ATOM     39  C   UNL     1       3.829  -2.842 -10.327  1.00  0.00     0.034 A 
BRANCH  26  40
ATOM     40  C   UNL     1       4.220  -7.455  -7.428  1.00  0.00     0.023 A 
ATOM     41  C   UNL     1       5.116  -8.079  -8.321  1.00  0.00     0.031 A 
ATOM     42  C   UNL     1       3.085  -8.215  -7.069  1.00  0.00     0.131 A 
ATOM     43  C   UNL     1       4.846  -9.357  -8.847  1.00  0.00     0.055 A 
ATOM     44  C   UNL     1       2.856  -9.512  -7.539  1.00  0.00     0.041 A 
ATOM     45  F   UNL     1       2.093  -7.711  -6.323  1.00  0.00    -0.206 F 
ATOM     46  C   UNL     1       3.726 -10.083  -8.452  1.00  0.00     0.022 A 
BRANCH  43  47
ATOM     47  S   UNL     1       5.888  -9.985 -10.193  1.00  0.00     0.124 S 
ATOM     48  O   UNL     1       5.896  -8.857 -11.118  1.00  0.00    -0.237 OA
ATOM     49  O   UNL     1       7.142 -10.259  -9.499  1.00  0.00    -0.237 OA
ATOM     50  O   UNL     1       5.163 -11.166 -10.659  1.00  0.00    -0.744 OA
ENDBRANCH  43  47
ENDBRANCH  26  40
BRANCH  27  51
ATOM     51  C   UNL     1      -2.111  -2.611 -10.106  1.00  0.00     0.023 A 
ATOM     52  C   UNL     1      -2.503  -2.691 -11.454  1.00  0.00     0.031 A 
ATOM     53  C   UNL     1      -3.094  -2.910  -9.134  1.00  0.00     0.131 A 
ATOM     54  C   UNL     1      -3.831  -3.042 -11.783  1.00  0.00     0.055 A 
ATOM     55  C   UNL     1      -4.408  -3.240  -9.464  1.00  0.00     0.041 A 
ATOM     56  F   UNL     1      -2.787  -2.971  -7.829  1.00  0.00    -0.206 F 
ATOM     57  C   UNL     1      -4.782  -3.314 -10.795  1.00  0.00     0.022 A 
BRANCH  54  58
ATOM     58  S   UNL     1      -4.311  -3.259 -13.525  1.00  0.00     0.124 S 
ATOM     59  O   UNL     1      -4.318  -1.886 -14.016  1.00  0.00    -0.237 OA
ATOM     60  O   UNL     1      -3.255  -4.126 -14.035  1.00  0.00    -0.237 OA
ATOM     61  O   UNL     1      -5.630  -3.889 -13.438  1.00  0.00    -0.744 OA
ENDBRANCH  54  58
ENDBRANCH  27  51
BRANCH  39  62
ATOM     62  C   UNL     1       4.139  -1.385 -10.602  1.00  0.00     0.023 A 
ATOM     63  C   UNL     1       3.455  -0.300 -10.011  1.00  0.00     0.031 A 
ATOM     64  C   UNL     1       5.268  -1.093 -11.390  1.00  0.00     0.131 A 
ATOM     65  C   UNL     1       3.902   1.018 -10.226  1.00  0.00     0.055 A 
ATOM     66  C   UNL     1       5.717   0.213 -11.589  1.00  0.00     0.041 A 
ATOM     67  F   UNL     1       5.983  -2.083 -11.949  1.00  0.00    -0.206 F 
ATOM     68  C   UNL     1       5.031   1.276 -11.011  1.00  0.00     0.022 A 
BRANCH  65  69
ATOM     69  S   UNL     1       3.022   2.423  -9.475  1.00  0.00     0.124 S 
ATOM     70  O   UNL     1       1.626   2.171  -9.812  1.00  0.00    -0.237 OA
ATOM     71  O   UNL     1       3.375   2.295  -8.063  1.00  0.00    -0.237 OA
ATOM     72  O   UNL     1       3.609   3.587 -10.142  1.00  0.00    -0.744 OA
ENDBRANCH  65  69
ENDBRANCH  39  62
ENDBRANCH  13  14
ENDBRANCH   6   8
ENDBRANCH   5   6
ENDBRANCH   4   5
ENDBRANCH   3   4
ENDBRANCH   2   3
ENDBRANCH   1   2
BRANCH   1  73
ATOM     73  C   UNL     1       2.515  -0.349   2.185  1.00  0.00     0.188 C 
BRANCH  73  74
ATOM     74  O   UNL     1       2.841   0.036   3.519  1.00  0.00    -0.376 OA
BRANCH  74  75
ATOM     75  C   UNL     1       4.099  -0.299   4.069  1.00  0.00     0.202 C 
BRANCH  75  76
ATOM     76  C   UNL     1       4.184  -1.702   4.669  1.00  0.00     0.261 C 
BRANCH  76  77
ATOM     77  O   UNL     1       3.857  -2.768   3.765  1.00  0.00    -0.460 OA
BRANCH  77  78
ATOM     78  C   UNL     1       2.563  -3.205   3.794  1.00  0.00     0.340 C 
ATOM     79  O   UNL     1       1.662  -2.715   4.442  1.00  0.00    -0.246 OA
BRANCH  78  80
ATOM     80  C   UNL     1       2.353  -4.345   2.903  1.00  0.00     0.095 A 
ATOM     81  C   UNL     1       3.052  -5.537   3.062  1.00  0.00     0.150 A 
ATOM     82  C   UNL     1       1.415  -4.429   1.807  1.00  0.00    -0.007 A 
ATOM     83  S   UNL     1       2.508  -6.732   1.972  1.00  0.00    -0.120 S 
ATOM     84  C   UNL     1       1.394  -5.693   1.251  1.00  0.00     0.064 A 
ATOM     85  C   UNL     1       0.556  -3.348   1.214  1.00  0.00     0.099 C 
ATOM     86  C   UNL     1       0.487  -6.134   0.143  1.00  0.00     0.308 C 
ATOM     87  C   UNL     1      -0.502  -3.923   0.243  1.00  0.00     0.265 C 
ATOM     88  N   UNL     1       0.027  -4.979  -0.643  1.00  0.00    -0.342 N 
ATOM     89  H   UNL     1       0.810  -4.605  -1.179  1.00  0.00     0.346 HD
ATOM     90  H   UNL     1      -0.717  -5.284  -1.270  1.00  0.00     0.346 HD
BRANCH  81  91
ATOM     91  S   UNL     1       4.347  -5.976   4.220  1.00  0.00     0.253 S 
ATOM     92  O   UNL     1       5.529  -5.326   3.696  1.00  0.00    -0.206 OA
ATOM     93  O   UNL     1       3.794  -5.595   5.503  1.00  0.00    -0.206 OA
BRANCH  91  94
ATOM     94  N   UNL     1       4.654  -7.660   4.268  1.00  0.00    -0.197 NA
ATOM     95  C   UNL     1       3.570  -8.493   4.843  1.00  0.00     0.102 C 
ATOM     96  C   UNL     1       5.363  -8.222   3.088  1.00  0.00     0.102 C 
ATOM     97  C   UNL     1       4.030  -9.930   5.058  1.00  0.00     0.017 C 
ATOM     98  C   UNL     1       5.780  -9.669   3.316  1.00  0.00     0.017 C 
ATOM     99  C   UNL     1       4.604 -10.517   3.776  1.00  0.00     0.003 C 
ENDBRANCH  91  94
ENDBRANCH  81  91
ENDBRANCH  78  80
ENDBRANCH  77  78
ENDBRANCH  76  77
ENDBRANCH  75  76
ENDBRANCH  74  75
ENDBRANCH  73  74
ENDBRANCH   1  73
TORSDOF 22
