REMARK SMILES O=C(C[NH+]1CC[NH+](Cc2cc(Cl)ccc2[N+](=O)[O-])CC1)OCCOCCOCCOC(=O)c1ccc(-c2c3nc(c(-c4cc(S(=O)(=O)[O-])ccc4F)c4ccc([nH]4)c(-c4cc(S(=O)(=O)[O-])ccc4F)c4nc(c(-c5cc(S(=O)(=O)[O-])ccc5F)c5ccc2[nH]5)C=C4)C=C3)cc1
REMARK SMILES IDX 25 1 24 2 23 3 22 4 21 5 2 6 1 7 3 8 4 9 5 10 20 11 6 13
REMARK SMILES IDX 19 14 7 15 8 17 9 18 10 19 15 20 11 21 14 22 12 23 13 24
REMARK SMILES IDX 16 25 17 26 18 27 26 28 27 29 28 30 29 31 30 32 31 33 32 34
REMARK SMILES IDX 33 35 34 36 95 37 35 38 94 39 36 40 37 41 38 42 88 43 39 44
REMARK SMILES IDX 93 45 87 46 89 47 40 48 92 49 86 50 85 51 41 53 73 54 53 55
REMARK SMILES IDX 72 56 54 57 57 58 71 59 90 60 55 61 56 62 70 64 91 65 58 66
REMARK SMILES IDX 42 67 43 68 51 69 44 70 50 71 52 72 49 73 45 74 46 75 47 76
REMARK SMILES IDX 48 77 74 78 75 79 83 80 76 81 82 82 84 83 81 84 77 85 78 86
REMARK SMILES IDX 79 87 80 88 59 89 60 90 68 91 61 92 67 93 69 94 66 95 62 96
REMARK SMILES IDX 63 97 64 98 65 99
REMARK H PARENT 4 12 7 16 89 52 57 63
REMARK Flexibility Score: inf
ROOT
ATOM      1  C   UNL     1       2.922  -2.332  -0.184  1.00  0.00     0.188 C 
ENDROOT
BRANCH   1   2
ATOM      2  O   UNL     1       4.251  -2.019   0.179  1.00  0.00    -0.376 OA
BRANCH   2   3
ATOM      3  C   UNL     1       4.465  -1.296   1.377  1.00  0.00     0.202 C 
BRANCH   3   4
ATOM      4  C   UNL     1       3.414  -0.330   1.943  1.00  0.00     0.261 C 
BRANCH   4   5
ATOM      5  O   UNL     1       2.352   0.381   1.202  1.00  0.00    -0.459 OA
BRANCH   5   6
ATOM      6  C   UNL     1       1.662   0.994   0.251  1.00  0.00     0.361 C 
ATOM      7  O   UNL     1       0.578   1.485   0.589  1.00  0.00    -0.245 OA
BRANCH   6   8
ATOM      8  C   UNL     1       2.073   1.100  -1.211  1.00  0.00     0.386 C 
BRANCH   8   9
ATOM      9  N   UNL     1       3.093   2.083  -1.638  1.00  0.00    -0.316 N 
ATOM     10  C   UNL     1       3.395   3.160  -0.698  1.00  0.00     0.325 C 
ATOM     11  C   UNL     1       4.335   1.444  -2.074  1.00  0.00     0.325 C 
ATOM     12  H   UNL     1       2.636   2.536  -2.429  1.00  0.00     0.348 HD
ATOM     13  C   UNL     1       4.341   2.804   0.477  1.00  0.00     0.324 C 
ATOM     14  C   UNL     1       5.045   0.823  -0.881  1.00  0.00     0.324 C 
ATOM     15  N   UNL     1       5.278   1.699   0.271  1.00  0.00    -0.322 N 
ATOM     16  H   UNL     1       4.959   1.077   1.014  1.00  0.00     0.348 HD
BRANCH  15  17
ATOM     17  C   UNL     1       6.654   1.878   0.722  1.00  0.00     0.306 C 
BRANCH  17  18
ATOM     18  C   UNL     1       7.565   2.184  -0.447  1.00  0.00     0.085 A 
ATOM     19  C   UNL     1       7.367   3.418  -1.095  1.00  0.00     0.037 A 
ATOM     20  C   UNL     1       8.338   1.200  -1.100  1.00  0.00     0.278 A 
ATOM     21  C   UNL     1       7.781   3.598  -2.411  1.00  0.00     0.042 A 
ATOM     22  C   UNL     1       8.749   1.383  -2.427  1.00  0.00     0.088 A 
ATOM     23  Cl  UNL     1       7.380   5.056  -3.225  1.00  0.00    -0.084 Cl
ATOM     24  C   UNL     1       8.438   2.574  -3.089  1.00  0.00     0.027 A 
BRANCH  20  25
ATOM     25  N   UNL     1       8.663  -0.076  -0.454  1.00  0.00     0.063 N 
ATOM     26  O   UNL     1       8.631  -1.096  -1.154  1.00  0.00    -0.258 OA
ATOM     27  O   UNL     1       8.997  -0.042   0.739  1.00  0.00    -0.258 OA
ENDBRANCH  20  25
ENDBRANCH  17  18
ENDBRANCH  15  17
ENDBRANCH   8   9
ENDBRANCH   6   8
ENDBRANCH   5   6
ENDBRANCH   4   5
ENDBRANCH   3   4
ENDBRANCH   2   3
ENDBRANCH   1   2
BRANCH   1  28
ATOM     28  C   UNL     1       2.071  -3.039   0.866  1.00  0.00     0.188 C 
BRANCH  28  29
ATOM     29  O   UNL     1       2.839  -3.487   1.970  1.00  0.00    -0.376 OA
BRANCH  29  30
ATOM     30  C   UNL     1       3.301  -4.831   1.910  1.00  0.00     0.202 C 
BRANCH  30  31
ATOM     31  C   UNL     1       4.248  -5.242   0.766  1.00  0.00     0.261 C 
BRANCH  31  32
ATOM     32  O   UNL     1       3.792  -5.080  -0.591  1.00  0.00    -0.460 OA
BRANCH  32  33
ATOM     33  C   UNL     1       2.642  -5.669  -0.975  1.00  0.00     0.338 C 
ATOM     34  O   UNL     1       1.906  -6.355  -0.277  1.00  0.00    -0.246 OA
BRANCH  33  35
ATOM     35  C   UNL     1       2.312  -5.191  -2.338  1.00  0.00     0.060 A 
ATOM     36  C   UNL     1       1.102  -4.517  -2.557  1.00  0.00     0.016 A 
ATOM     37  C   UNL     1       3.194  -5.407  -3.401  1.00  0.00     0.016 A 
ATOM     38  C   UNL     1       0.747  -4.108  -3.847  1.00  0.00     0.010 A 
ATOM     39  C   UNL     1       2.827  -5.017  -4.696  1.00  0.00     0.010 A 
ATOM     40  C   UNL     1       1.581  -4.406  -4.933  1.00  0.00    -0.014 A 
BRANCH  40  41
ATOM     41  C   UNL     1       1.044  -4.336  -6.321  1.00  0.00     0.031 A 
ATOM     42  C   UNL     1       0.488  -5.605  -6.918  1.00  0.00     0.074 A 
ATOM     43  C   UNL     1       1.020  -3.194  -7.032  1.00  0.00     0.049 A 
ATOM     44  N   UNL     1       0.021  -5.831  -8.119  1.00  0.00    -0.248 NA
ATOM     45  C   UNL     1       0.464  -6.780  -6.032  1.00  0.00     0.031 C 
ATOM     46  C   UNL     1       1.469  -1.889  -6.555  1.00  0.00     0.029 A 
ATOM     47  N   UNL     1       0.601  -2.954  -8.320  1.00  0.00    -0.354 N 
ATOM     48  C   UNL     1      -0.348  -7.173  -8.134  1.00  0.00     0.074 A 
ATOM     49  C   UNL     1      -0.012  -7.716  -6.836  1.00  0.00     0.031 C 
ATOM     50  C   UNL     1       1.314  -0.987  -7.542  1.00  0.00     0.029 A 
ATOM     51  C   UNL     1       0.792  -1.656  -8.735  1.00  0.00     0.049 A 
ATOM     52  H   UNL     1       0.200  -3.648  -8.892  1.00  0.00     0.167 HD
ATOM     53  C   UNL     1      -0.922  -7.887  -9.133  1.00  0.00     0.034 A 
ATOM     54  C   UNL     1       0.595  -1.084  -9.942  1.00  0.00     0.034 A 
ATOM     55  C   UNL     1      -1.238  -7.341 -10.429  1.00  0.00     0.049 A 
ATOM     56  C   UNL     1       0.052  -1.925 -11.078  1.00  0.00     0.074 A 
ATOM     57  C   UNL     1      -1.825  -7.975 -11.511  1.00  0.00     0.029 A 
ATOM     58  N   UNL     1      -0.978  -6.037 -10.828  1.00  0.00    -0.354 N 
ATOM     59  N   UNL     1      -0.295  -3.193 -11.079  1.00  0.00    -0.248 NA
ATOM     60  C   UNL     1      -0.129  -1.256 -12.375  1.00  0.00     0.031 C 
ATOM     61  C   UNL     1      -1.847  -7.079 -12.584  1.00  0.00     0.029 A 
ATOM     62  C   UNL     1      -1.358  -5.858 -12.149  1.00  0.00     0.049 A 
ATOM     63  H   UNL     1      -0.582  -5.340 -10.255  1.00  0.00     0.167 HD
ATOM     64  C   UNL     1      -0.770  -3.457 -12.364  1.00  0.00     0.074 A 
ATOM     65  C   UNL     1      -0.674  -2.218 -13.105  1.00  0.00     0.031 C 
ATOM     66  C   UNL     1      -1.250  -4.618 -12.882  1.00  0.00     0.034 A 
BRANCH  53  67
ATOM     67  C   UNL     1      -1.185  -9.351  -8.872  1.00  0.00     0.023 A 
ATOM     68  C   UNL     1      -2.084  -9.779  -7.880  1.00  0.00     0.031 A 
ATOM     69  C   UNL     1      -0.495 -10.335  -9.602  1.00  0.00     0.131 A 
ATOM     70  C   UNL     1      -2.213 -11.146  -7.594  1.00  0.00     0.055 A 
ATOM     71  C   UNL     1      -0.691 -11.697  -9.371  1.00  0.00     0.041 A 
ATOM     72  F   UNL     1       0.396  -9.987 -10.544  1.00  0.00    -0.206 F 
ATOM     73  C   UNL     1      -1.542 -12.110  -8.351  1.00  0.00     0.022 A 
BRANCH  70  74
ATOM     74  S   UNL     1      -3.151 -11.641  -6.122  1.00  0.00     0.124 S 
ATOM     75  O   UNL     1      -2.431 -10.936  -5.064  1.00  0.00    -0.237 OA
ATOM     76  O   UNL     1      -4.490 -11.149  -6.421  1.00  0.00    -0.237 OA
ATOM     77  O   UNL     1      -3.010 -13.095  -6.098  1.00  0.00    -0.744 OA
ENDBRANCH  70  74
ENDBRANCH  53  67
BRANCH  54  78
ATOM     78  C   UNL     1       0.958   0.347 -10.176  1.00  0.00     0.023 A 
ATOM     79  C   UNL     1      -0.010   1.295 -10.548  1.00  0.00     0.031 A 
ATOM     80  C   UNL     1       2.297   0.770 -10.105  1.00  0.00     0.131 A 
ATOM     81  C   UNL     1       0.381   2.603 -10.881  1.00  0.00     0.055 A 
ATOM     82  C   UNL     1       2.674   2.086 -10.380  1.00  0.00     0.041 A 
ATOM     83  F   UNL     1       3.266  -0.095  -9.765  1.00  0.00    -0.206 F 
ATOM     84  C   UNL     1       1.714   3.008 -10.785  1.00  0.00     0.022 A 
BRANCH  81  85
ATOM     85  S   UNL     1      -0.866   3.746 -11.537  1.00  0.00     0.124 S 
ATOM     86  O   UNL     1      -1.334   3.027 -12.717  1.00  0.00    -0.237 OA
ATOM     87  O   UNL     1      -1.808   3.838 -10.427  1.00  0.00    -0.237 OA
ATOM     88  O   UNL     1      -0.104   4.963 -11.808  1.00  0.00    -0.744 OA
ENDBRANCH  81  85
ENDBRANCH  54  78
BRANCH  66  89
ATOM     89  C   UNL     1      -1.761  -4.587 -14.305  1.00  0.00     0.023 A 
ATOM     90  C   UNL     1      -0.907  -4.366 -15.399  1.00  0.00     0.031 A 
ATOM     91  C   UNL     1      -3.129  -4.788 -14.566  1.00  0.00     0.131 A 
ATOM     92  C   UNL     1      -1.437  -4.299 -16.698  1.00  0.00     0.055 A 
ATOM     93  C   UNL     1      -3.640  -4.783 -15.865  1.00  0.00     0.041 A 
ATOM     94  F   UNL     1      -3.993  -5.002 -13.561  1.00  0.00    -0.206 F 
ATOM     95  C   UNL     1      -2.794  -4.524 -16.939  1.00  0.00     0.022 A 
BRANCH  92  96
ATOM     96  S   UNL     1      -0.342  -3.821 -18.064  1.00  0.00     0.124 S 
ATOM     97  O   UNL     1       0.140  -2.516 -17.625  1.00  0.00    -0.237 OA
ATOM     98  O   UNL     1       0.643  -4.897 -18.066  1.00  0.00    -0.237 OA
ATOM     99  O   UNL     1      -1.232  -3.796 -19.224  1.00  0.00    -0.744 OA
ENDBRANCH  92  96
ENDBRANCH  66  89
ENDBRANCH  40  41
ENDBRANCH  33  35
ENDBRANCH  32  33
ENDBRANCH  31  32
ENDBRANCH  30  31
ENDBRANCH  29  30
ENDBRANCH  28  29
ENDBRANCH   1  28
TORSDOF 24
