REMARK SMILES COc1cc([C@@H]2[NH2+][C@H](C(=O)OCCOCCOCCOC(=O)c3ccc(-c4c5nc(c(-c6cc(S(=O)(=O)[O-])ccc6F)c6ccc([nH]6)c(-c6cc(S(=O)(=O)[O-])ccc6F)c6nc(c(-c7cc(S(=O)(=O)[O-])ccc7F)c7ccc4[nH]7)C=C6)C=C5)cc3)CS2)ccc1OCc1ccc(Cl)cc1
REMARK SMILES IDX 15 1 14 2 13 3 12 4 11 5 9 6 10 7 8 8 6 9 7 10 87 11 86 14
REMARK SMILES IDX 5 15 3 16 4 17 90 18 89 19 88 20 2 21 1 22 91 23 92 24 93 25
REMARK SMILES IDX 94 26 99 27 95 28 98 29 96 30 97 31 16 32 17 33 18 34 19 35
REMARK SMILES IDX 20 36 21 37 22 38 23 39 24 40 85 41 25 42 84 43 26 44 27 45
REMARK SMILES IDX 28 46 78 47 29 48 83 49 77 50 79 51 30 52 82 53 76 54 75 55
REMARK SMILES IDX 31 57 63 58 43 59 62 60 44 61 47 62 61 63 80 64 45 65 46 66
REMARK SMILES IDX 60 68 81 69 48 70 32 71 33 72 41 73 34 74 40 75 42 76 39 77
REMARK SMILES IDX 35 78 36 79 37 80 38 81 64 82 65 83 73 84 66 85 72 86 74 87
REMARK SMILES IDX 71 88 67 89 68 90 69 91 70 92 49 93 50 94 58 95 51 96 57 97
REMARK SMILES IDX 59 98 56 99 52 100 53 101 54 102 55 103
REMARK H PARENT 7 12 7 13 79 56 47 67
REMARK Flexibility Score: inf
ROOT
ATOM      1  C   UNL     1       3.402  -0.122  -7.787  1.00  0.00     0.188 C 
ENDROOT
BRANCH   1   2
ATOM      2  O   UNL     1       4.781  -0.118  -7.430  1.00  0.00    -0.376 OA
BRANCH   2   3
ATOM      3  C   UNL     1       5.152   0.425  -6.170  1.00  0.00     0.202 C 
BRANCH   3   4
ATOM      4  C   UNL     1       4.691   1.853  -5.851  1.00  0.00     0.261 C 
BRANCH   4   5
ATOM      5  O   UNL     1       3.282   2.077  -6.050  1.00  0.00    -0.459 OA
BRANCH   5   6
ATOM      6  C   UNL     1       2.919   3.187  -6.738  1.00  0.00     0.365 C 
ATOM      7  O   UNL     1       3.724   4.023  -7.145  1.00  0.00    -0.245 OA
BRANCH   6   8
ATOM      8  C   UNL     1       1.411   3.335  -7.023  1.00  0.00     0.304 C 
ATOM      9  C   UNL     1      -0.095   2.738  -5.213  1.00  0.00     0.274 C 
ATOM     10  N   UNL     1       0.484   2.300  -6.485  1.00  0.00    -0.319 N 
ATOM     11  S   UNL     1      -0.296   4.526  -5.311  1.00  0.00    -0.087 SA
ATOM     12  H   UNL     1      -0.266   2.139  -7.158  1.00  0.00     0.348 HD
ATOM     13  H   UNL     1       1.008   1.439  -6.329  1.00  0.00     0.348 HD
ATOM     14  C   UNL     1       0.945   4.731  -6.617  1.00  0.00     0.153 C 
BRANCH   9  15
ATOM     15  C   UNL     1       0.684   2.228  -4.014  1.00  0.00     0.024 A 
ATOM     16  C   UNL     1       1.076   0.450  -2.354  1.00  0.00     0.161 A 
ATOM     17  C   UNL     1       0.302   1.026  -3.382  1.00  0.00     0.061 A 
ATOM     18  C   UNL     1       2.303   1.026  -2.016  1.00  0.00     0.161 A 
ATOM     19  C   UNL     1       2.666   2.234  -2.619  1.00  0.00     0.051 A 
ATOM     20  C   UNL     1       1.853   2.848  -3.567  1.00  0.00     0.015 A 
BRANCH  16  21
ATOM     21  O   UNL     1       0.664  -0.733  -1.796  1.00  0.00    -0.493 OA
ATOM     22  C   UNL     1      -0.560  -0.580  -1.071  1.00  0.00     0.278 C 
ENDBRANCH  16  21
BRANCH  18  23
ATOM     23  O   UNL     1       3.267   0.578  -1.154  1.00  0.00    -0.485 OA
BRANCH  23  24
ATOM     24  C   UNL     1       2.907  -0.199  -0.015  1.00  0.00     0.265 C 
BRANCH  24  25
ATOM     25  C   UNL     1       2.054   0.533   1.003  1.00  0.00    -0.011 A 
ATOM     26  C   UNL     1       1.935   1.932   1.007  1.00  0.00     0.009 A 
ATOM     27  C   UNL     1       1.322  -0.208   1.943  1.00  0.00     0.009 A 
ATOM     28  C   UNL     1       1.002   2.565   1.828  1.00  0.00     0.021 A 
ATOM     29  C   UNL     1       0.399   0.426   2.777  1.00  0.00     0.021 A 
ATOM     30  C   UNL     1       0.221   1.806   2.692  1.00  0.00     0.041 A 
ATOM     31  Cl  UNL     1      -0.994   2.572   3.639  1.00  0.00    -0.084 Cl
ENDBRANCH  24  25
ENDBRANCH  23  24
ENDBRANCH  18  23
ENDBRANCH   9  15
ENDBRANCH   6   8
ENDBRANCH   5   6
ENDBRANCH   4   5
ENDBRANCH   3   4
ENDBRANCH   2   3
ENDBRANCH   1   2
BRANCH   1  32
ATOM     32  C   UNL     1       2.344  -0.493  -6.728  1.00  0.00     0.188 C 
BRANCH  32  33
ATOM     33  O   UNL     1       2.875  -0.987  -5.513  1.00  0.00    -0.376 OA
BRANCH  33  34
ATOM     34  C   UNL     1       2.453  -2.290  -5.156  1.00  0.00     0.202 C 
BRANCH  34  35
ATOM     35  C   UNL     1       3.093  -3.388  -6.015  1.00  0.00     0.261 C 
BRANCH  35  36
ATOM     36  O   UNL     1       2.905  -3.260  -7.439  1.00  0.00    -0.460 OA
BRANCH  36  37
ATOM     37  C   UNL     1       1.651  -3.410  -7.925  1.00  0.00     0.338 C 
ATOM     38  O   UNL     1       0.649  -3.676  -7.280  1.00  0.00    -0.246 OA
BRANCH  37  39
ATOM     39  C   UNL     1       1.657  -2.977  -9.345  1.00  0.00     0.060 A 
ATOM     40  C   UNL     1       0.832  -1.916  -9.750  1.00  0.00     0.016 A 
ATOM     41  C   UNL     1       2.501  -3.595 -10.269  1.00  0.00     0.016 A 
ATOM     42  C   UNL     1       0.841  -1.483 -11.082  1.00  0.00     0.010 A 
ATOM     43  C   UNL     1       2.490  -3.177 -11.605  1.00  0.00     0.010 A 
ATOM     44  C   UNL     1       1.644  -2.135 -12.028  1.00  0.00    -0.014 A 
BRANCH  44  45
ATOM     45  C   UNL     1       1.470  -1.875 -13.484  1.00  0.00     0.031 A 
ATOM     46  C   UNL     1       0.632  -2.840 -14.282  1.00  0.00     0.074 A 
ATOM     47  C   UNL     1       2.044  -0.823 -14.098  1.00  0.00     0.049 A 
ATOM     48  N   UNL     1       0.421  -2.895 -15.572  1.00  0.00    -0.248 NA
ATOM     49  C   UNL     1      -0.051  -3.890 -13.513  1.00  0.00     0.031 C 
ATOM     50  C   UNL     1       2.836   0.214 -13.440  1.00  0.00     0.029 A 
ATOM     51  N   UNL     1       2.060  -0.463 -15.426  1.00  0.00    -0.354 N 
ATOM     52  C   UNL     1      -0.412  -3.991 -15.771  1.00  0.00     0.074 A 
ATOM     53  C   UNL     1      -0.633  -4.591 -14.473  1.00  0.00     0.031 C 
ATOM     54  C   UNL     1       3.271   1.085 -14.368  1.00  0.00     0.029 A 
ATOM     55  C   UNL     1       2.832   0.645 -15.693  1.00  0.00     0.049 A 
ATOM     56  H   UNL     1       1.564  -0.953 -16.122  1.00  0.00     0.167 HD
ATOM     57  C   UNL     1      -0.948  -4.453 -16.928  1.00  0.00     0.034 A 
ATOM     58  C   UNL     1       3.172   1.216 -16.869  1.00  0.00     0.034 A 
ATOM     59  C   UNL     1      -0.706  -3.860 -18.221  1.00  0.00     0.049 A 
ATOM     60  C   UNL     1       2.652   0.620 -18.159  1.00  0.00     0.074 A 
ATOM     61  C   UNL     1      -1.208  -4.244 -19.452  1.00  0.00     0.029 A 
ATOM     62  N   UNL     1       0.121  -2.768 -18.454  1.00  0.00    -0.354 N 
ATOM     63  N   UNL     1       1.861  -0.415 -18.336  1.00  0.00    -0.248 NA
ATOM     64  C   UNL     1       3.068   1.271 -19.410  1.00  0.00     0.031 C 
ATOM     65  C   UNL     1      -0.622  -3.441 -20.436  1.00  0.00     0.029 A 
ATOM     66  C   UNL     1       0.172  -2.492 -19.813  1.00  0.00     0.049 A 
ATOM     67  H   UNL     1       0.601  -2.264 -17.758  1.00  0.00     0.167 HD
ATOM     68  C   UNL     1       1.657  -0.509 -19.712  1.00  0.00     0.074 A 
ATOM     69  C   UNL     1       2.398   0.577 -20.317  1.00  0.00     0.031 C 
ATOM     70  C   UNL     1       0.918  -1.409 -20.412  1.00  0.00     0.034 A 
BRANCH  57  71
ATOM     71  C   UNL     1      -1.805  -5.694 -16.848  1.00  0.00     0.023 A 
ATOM     72  C   UNL     1      -3.009  -5.718 -16.122  1.00  0.00     0.031 A 
ATOM     73  C   UNL     1      -1.397  -6.881 -17.483  1.00  0.00     0.131 A 
ATOM     74  C   UNL     1      -3.721  -6.919 -15.987  1.00  0.00     0.055 A 
ATOM     75  C   UNL     1      -2.156  -8.051 -17.417  1.00  0.00     0.041 A 
ATOM     76  F   UNL     1      -0.244  -6.928 -18.169  1.00  0.00    -0.206 F 
ATOM     77  C   UNL     1      -3.318  -8.079 -16.652  1.00  0.00     0.022 A 
BRANCH  74  78
ATOM     78  S   UNL     1      -5.096  -6.981 -14.805  1.00  0.00     0.124 S 
ATOM     79  O   UNL     1      -4.433  -6.598 -13.561  1.00  0.00    -0.237 OA
ATOM     80  O   UNL     1      -6.031  -6.008 -15.357  1.00  0.00    -0.237 OA
ATOM     81  O   UNL     1      -5.536  -8.374 -14.864  1.00  0.00    -0.744 OA
ENDBRANCH  74  78
ENDBRANCH  57  71
BRANCH  58  82
ATOM     82  C   UNL     1       4.090   2.395 -16.907  1.00  0.00     0.023 A 
ATOM     83  C   UNL     1       3.672   3.627 -17.437  1.00  0.00     0.031 A 
ATOM     84  C   UNL     1       5.427   2.284 -16.483  1.00  0.00     0.131 A 
ATOM     85  C   UNL     1       4.592   4.680 -17.575  1.00  0.00     0.055 A 
ATOM     86  C   UNL     1       6.321   3.354 -16.566  1.00  0.00     0.041 A 
ATOM     87  F   UNL     1       5.887   1.127 -15.981  1.00  0.00    -0.206 F 
ATOM     88  C   UNL     1       5.908   4.557 -17.128  1.00  0.00     0.022 A 
BRANCH  85  89
ATOM     89  S   UNL     1       4.067   6.184 -18.445  1.00  0.00     0.124 S 
ATOM     90  O   UNL     1       3.684   5.654 -19.748  1.00  0.00    -0.237 OA
ATOM     91  O   UNL     1       2.977   6.659 -17.599  1.00  0.00    -0.237 OA
ATOM     92  O   UNL     1       5.267   7.018 -18.438  1.00  0.00    -0.744 OA
ENDBRANCH  85  89
ENDBRANCH  58  82
BRANCH  70  93
ATOM     93  C   UNL     1       0.821  -1.221 -21.910  1.00  0.00     0.023 A 
ATOM     94  C   UNL     1       1.937  -1.356 -22.755  1.00  0.00     0.031 A 
ATOM     95  C   UNL     1      -0.416  -0.902 -22.500  1.00  0.00     0.131 A 
ATOM     96  C   UNL     1       1.804  -1.122 -24.133  1.00  0.00     0.055 A 
ATOM     97  C   UNL     1      -0.555  -0.737 -23.879  1.00  0.00     0.041 A 
ATOM     98  F   UNL     1      -1.517  -0.755 -21.745  1.00  0.00    -0.206 F 
ATOM     99  C   UNL     1       0.561  -0.833 -24.703  1.00  0.00     0.022 A 
BRANCH  96 100
ATOM    100  S   UNL     1       3.297  -1.103 -25.164  1.00  0.00     0.124 S 
ATOM    101  O   UNL     1       4.093  -0.060 -24.525  1.00  0.00    -0.237 OA
ATOM    102  O   UNL     1       3.796  -2.467 -25.017  1.00  0.00    -0.237 OA
ATOM    103  O   UNL     1       2.792  -0.770 -26.494  1.00  0.00    -0.744 OA
ENDBRANCH  96 100
ENDBRANCH  70  93
ENDBRANCH  44  45
ENDBRANCH  37  39
ENDBRANCH  36  37
ENDBRANCH  35  36
ENDBRANCH  34  35
ENDBRANCH  33  34
ENDBRANCH  32  33
ENDBRANCH   1  32
TORSDOF 25
