REMARK SMILES COc1ccc2[nH]c(C(=O)c3cc(C)ccn3)c(CC(=O)OCCOCCOCCOC(=O)c3ccc(-c4c5nc(c(-c6cc(S(=O)(=O)[O-])ccc6F)c6ccc([nH]6)c(-c6cc(S(=O)(=O)[O-])ccc6F)c6nc(c(-c7cc(S(=O)(=O)[O-])ccc7F)c7ccc4[nH]7)C=C6)C=C5)cc3)c2c1
REMARK SMILES IDX 26 1 25 2 24 3 23 4 22 5 20 6 21 7 19 8 18 9 3 10 4 11 98 12
REMARK SMILES IDX 5 13 97 14 6 15 7 16 8 17 2 19 1 20 9 21 10 22 11 23 12 24
REMARK SMILES IDX 17 25 13 26 16 27 14 28 15 29 27 30 28 31 29 32 30 33 31 34
REMARK SMILES IDX 32 35 33 36 34 37 35 38 96 39 36 40 95 41 37 42 38 43 39 44
REMARK SMILES IDX 89 45 40 46 94 47 88 48 90 49 41 50 93 51 87 52 86 53 42 55
REMARK SMILES IDX 74 56 54 57 73 58 55 59 58 60 72 61 91 62 56 63 57 64 71 66
REMARK SMILES IDX 92 67 59 68 43 69 44 70 52 71 45 72 51 73 53 74 50 75 46 76
REMARK SMILES IDX 47 77 48 78 49 79 75 80 76 81 84 82 77 83 83 84 85 85 82 86
REMARK SMILES IDX 78 87 79 88 80 89 81 90 60 91 61 92 69 93 62 94 68 95 70 96
REMARK SMILES IDX 67 97 63 98 64 99 65 100 66 101
REMARK H PARENT 7 18 90 54 58 65
REMARK Flexibility Score: inf
ROOT
ATOM      1  C   UNL     1      -2.627  -8.367   2.512  1.00  0.00     0.188 C 
ENDROOT
BRANCH   1   2
ATOM      2  O   UNL     1      -3.798  -8.456   1.702  1.00  0.00    -0.376 OA
BRANCH   2   3
ATOM      3  C   UNL     1      -3.905  -7.590   0.580  1.00  0.00     0.202 C 
BRANCH   3   4
ATOM      4  C   UNL     1      -3.841  -6.084   0.873  1.00  0.00     0.261 C 
BRANCH   4   5
ATOM      5  O   UNL     1      -2.623  -5.697   1.549  1.00  0.00    -0.463 OA
BRANCH   5   6
ATOM      6  C   UNL     1      -2.744  -4.819   2.582  1.00  0.00     0.310 C 
ATOM      7  O   UNL     1      -3.768  -4.174   2.792  1.00  0.00    -0.252 OA
BRANCH   6   8
ATOM      8  C   UNL     1      -1.578  -4.838   3.571  1.00  0.00     0.161 C 
BRANCH   8   9
ATOM      9  C   UNL     1      -0.158  -4.853   3.045  1.00  0.00     0.000 A 
ATOM     10  C   UNL     1       0.940  -1.630   1.309  1.00  0.00     0.119 A 
ATOM     11  C   UNL     1       2.278  -1.991   1.150  1.00  0.00     0.048 A 
ATOM     12  C   UNL     1       0.019  -2.522   1.869  1.00  0.00     0.057 A 
ATOM     13  C   UNL     1       2.724  -3.265   1.511  1.00  0.00     0.030 A 
ATOM     14  C   UNL     1       0.456  -3.791   2.296  1.00  0.00     0.008 A 
ATOM     15  C   UNL     1       1.792  -4.128   2.094  1.00  0.00     0.046 A 
ATOM     16  N   UNL     1       1.969  -5.383   2.617  1.00  0.00    -0.352 N 
ATOM     17  C   UNL     1       0.896  -5.706   3.418  1.00  0.00     0.093 A 
ATOM     18  H   UNL     1       2.745  -5.965   2.446  1.00  0.00     0.167 HD
BRANCH  10  19
ATOM     19  O   UNL     1       0.458  -0.376   1.040  1.00  0.00    -0.497 OA
ATOM     20  C   UNL     1       0.930   0.171  -0.184  1.00  0.00     0.278 C 
ENDBRANCH  10  19
BRANCH  17  21
ATOM     21  C   UNL     1       0.975  -6.686   4.494  1.00  0.00     0.227 C 
ATOM     22  O   UNL     1       0.151  -6.742   5.399  1.00  0.00    -0.285 OA
BRANCH  21  23
ATOM     23  C   UNL     1       2.127  -7.644   4.528  1.00  0.00     0.113 A 
ATOM     24  C   UNL     1       3.192  -7.447   5.405  1.00  0.00     0.036 A 
ATOM     25  N   UNL     1       2.014  -8.716   3.702  1.00  0.00    -0.253 NA
ATOM     26  C   UNL     1       4.187  -8.431   5.470  1.00  0.00    -0.047 A 
ATOM     27  C   UNL     1       2.951  -9.681   3.846  1.00  0.00     0.112 A 
ATOM     28  C   UNL     1       5.397  -8.297   6.349  1.00  0.00     0.044 C 
ATOM     29  C   UNL     1       4.032  -9.589   4.705  1.00  0.00     0.023 A 
ENDBRANCH  21  23
ENDBRANCH  17  21
ENDBRANCH   8   9
ENDBRANCH   6   8
ENDBRANCH   5   6
ENDBRANCH   4   5
ENDBRANCH   3   4
ENDBRANCH   2   3
ENDBRANCH   1   2
BRANCH   1  30
ATOM     30  C   UNL     1      -1.257  -8.166   1.825  1.00  0.00     0.188 C 
BRANCH  30  31
ATOM     31  O   UNL     1      -1.216  -8.619   0.479  1.00  0.00    -0.376 OA
BRANCH  31  32
ATOM     32  C   UNL     1      -0.357  -9.727   0.264  1.00  0.00     0.202 C 
BRANCH  32  33
ATOM     33  C   UNL     1      -0.878 -11.010   0.913  1.00  0.00     0.261 C 
BRANCH  33  34
ATOM     34  O   UNL     1      -0.977 -10.886   2.351  1.00  0.00    -0.460 OA
BRANCH  34  35
ATOM     35  C   UNL     1      -0.034 -11.477   3.105  1.00  0.00     0.338 C 
ATOM     36  O   UNL     1       0.886 -12.176   2.681  1.00  0.00    -0.246 OA
BRANCH  35  37
ATOM     37  C   UNL     1      -0.261 -11.228   4.554  1.00  0.00     0.060 A 
ATOM     38  C   UNL     1      -0.539  -9.960   5.074  1.00  0.00     0.016 A 
ATOM     39  C   UNL     1      -0.071 -12.284   5.443  1.00  0.00     0.016 A 
ATOM     40  C   UNL     1      -0.556  -9.733   6.458  1.00  0.00     0.010 A 
ATOM     41  C   UNL     1      -0.159 -12.071   6.826  1.00  0.00     0.010 A 
ATOM     42  C   UNL     1      -0.375 -10.786   7.358  1.00  0.00    -0.014 A 
BRANCH  42  43
ATOM     43  C   UNL     1      -0.356 -10.572   8.838  1.00  0.00     0.031 A 
ATOM     44  C   UNL     1       0.857 -10.977   9.638  1.00  0.00     0.074 A 
ATOM     45  C   UNL     1      -1.415 -10.050   9.491  1.00  0.00     0.049 A 
ATOM     46  N   UNL     1       0.986 -11.156  10.929  1.00  0.00    -0.248 NA
ATOM     47  C   UNL     1       2.087 -11.225   8.872  1.00  0.00     0.031 C 
ATOM     48  C   UNL     1      -2.623  -9.515   8.863  1.00  0.00     0.029 A 
ATOM     49  N   UNL     1      -1.652  -9.902  10.839  1.00  0.00    -0.354 N 
ATOM     50  C   UNL     1       2.294 -11.589  11.127  1.00  0.00     0.074 A 
ATOM     51  C   UNL     1       2.911 -11.654   9.817  1.00  0.00     0.031 C 
ATOM     52  C   UNL     1      -3.469  -9.100   9.819  1.00  0.00     0.029 A 
ATOM     53  C   UNL     1      -2.913  -9.428  11.127  1.00  0.00     0.049 A 
ATOM     54  H   UNL     1      -0.985 -10.114  11.531  1.00  0.00     0.167 HD
ATOM     55  C   UNL     1       2.916 -11.909  12.292  1.00  0.00     0.034 A 
ATOM     56  C   UNL     1      -3.579  -9.329  12.297  1.00  0.00     0.034 A 
ATOM     57  C   UNL     1       2.296 -11.814  13.595  1.00  0.00     0.049 A 
ATOM     58  C   UNL     1      -2.911  -9.792  13.569  1.00  0.00     0.074 A 
ATOM     59  C   UNL     1       2.840 -12.115  14.833  1.00  0.00     0.029 A 
ATOM     60  N   UNL     1       0.997 -11.382  13.834  1.00  0.00    -0.354 N 
ATOM     61  N   UNL     1      -1.704 -10.281  13.741  1.00  0.00    -0.248 NA
ATOM     62  C   UNL     1      -3.702  -9.699  14.804  1.00  0.00     0.031 C 
ATOM     63  C   UNL     1       1.851 -11.939  15.807  1.00  0.00     0.029 A 
ATOM     64  C   UNL     1       0.714 -11.443  15.192  1.00  0.00     0.049 A 
ATOM     65  H   UNL     1       0.367 -11.078  13.140  1.00  0.00     0.167 HD
ATOM     66  C   UNL     1      -1.586 -10.527  15.107  1.00  0.00     0.074 A 
ATOM     67  C   UNL     1      -2.834 -10.116  15.714  1.00  0.00     0.031 C 
ATOM     68  C   UNL     1      -0.537 -11.045  15.797  1.00  0.00     0.034 A 
BRANCH  55  69
ATOM     69  C   UNL     1       4.320 -12.461  12.203  1.00  0.00     0.023 A 
ATOM     70  C   UNL     1       5.395 -11.701  11.711  1.00  0.00     0.031 A 
ATOM     71  C   UNL     1       4.581 -13.787  12.598  1.00  0.00     0.131 A 
ATOM     72  C   UNL     1       6.660 -12.293  11.557  1.00  0.00     0.055 A 
ATOM     73  C   UNL     1       5.860 -14.342  12.525  1.00  0.00     0.041 A 
ATOM     74  F   UNL     1       3.592 -14.571  13.054  1.00  0.00    -0.206 F 
ATOM     75  C   UNL     1       6.906 -13.599  11.988  1.00  0.00     0.022 A 
BRANCH  72  76
ATOM     76  S   UNL     1       7.937 -11.383  10.645  1.00  0.00     0.124 S 
ATOM     77  O   UNL     1       7.268 -11.122   9.371  1.00  0.00    -0.237 OA
ATOM     78  O   UNL     1       8.164 -10.219  11.493  1.00  0.00    -0.237 OA
ATOM     79  O   UNL     1       9.047 -12.330  10.572  1.00  0.00    -0.744 OA
ENDBRANCH  72  76
ENDBRANCH  55  69
BRANCH  56  80
ATOM     80  C   UNL     1      -4.995  -8.852  12.322  1.00  0.00     0.023 A 
ATOM     81  C   UNL     1      -5.361  -7.699  13.034  1.00  0.00     0.031 A 
ATOM     82  C   UNL     1      -6.015  -9.581  11.682  1.00  0.00     0.131 A 
ATOM     83  C   UNL     1      -6.713  -7.331  13.122  1.00  0.00     0.055 A 
ATOM     84  C   UNL     1      -7.349  -9.174  11.716  1.00  0.00     0.041 A 
ATOM     85  F   UNL     1      -5.725 -10.701  11.001  1.00  0.00    -0.206 F 
ATOM     86  C   UNL     1      -7.707  -8.049  12.452  1.00  0.00     0.022 A 
BRANCH  83  87
ATOM     87  S   UNL     1      -7.171  -5.956  14.213  1.00  0.00     0.124 S 
ATOM     88  O   UNL     1      -6.670  -6.421  15.502  1.00  0.00    -0.237 OA
ATOM     89  O   UNL     1      -6.454  -4.838  13.612  1.00  0.00    -0.237 OA
ATOM     90  O   UNL     1      -8.627  -5.897  14.094  1.00  0.00    -0.744 OA
ENDBRANCH  83  87
ENDBRANCH  56  80
BRANCH  68  91
ATOM     91  C   UNL     1      -0.681 -11.142  17.299  1.00  0.00     0.023 A 
ATOM     92  C   UNL     1      -1.621 -11.996  17.904  1.00  0.00     0.031 A 
ATOM     93  C   UNL     1       0.117 -10.343  18.138  1.00  0.00     0.131 A 
ATOM     94  C   UNL     1      -1.784 -11.983  19.299  1.00  0.00     0.055 A 
ATOM     95  C   UNL     1      -0.005 -10.383  19.529  1.00  0.00     0.041 A 
ATOM     96  F   UNL     1       1.029  -9.506  17.620  1.00  0.00    -0.206 F 
ATOM     97  C   UNL     1      -0.970 -11.195  20.116  1.00  0.00     0.022 A 
BRANCH  94  98
ATOM     98  S   UNL     1      -3.148 -12.933  20.029  1.00  0.00     0.124 S 
ATOM     99  O   UNL     1      -4.309 -12.366  19.351  1.00  0.00    -0.237 OA
ATOM    100  O   UNL     1      -2.803 -14.303  19.665  1.00  0.00    -0.237 OA
ATOM    101  O   UNL     1      -3.053 -12.629  21.456  1.00  0.00    -0.744 OA
ENDBRANCH  94  98
ENDBRANCH  68  91
ENDBRANCH  42  43
ENDBRANCH  35  37
ENDBRANCH  34  35
ENDBRANCH  33  34
ENDBRANCH  32  33
ENDBRANCH  31  32
ENDBRANCH  30  31
ENDBRANCH   1  30
TORSDOF 24
