REMARK SMILES C[C@@H](c1ccccc1)[C@@H]1[NH2+][C@@H](C(=O)OCCOCCOCCOC(=O)c2ccc(-c3c4nc(c(-c5cc(S(=O)(=O)[O-])ccc5F)c5ccc([nH]5)c(-c5cc(S(=O)(=O)[O-])ccc5F)c5nc(c(-c6cc(S(=O)(=O)[O-])ccc6F)c6ccc3[nH]6)C=C5)C=C4)cc2)CS1
REMARK SMILES IDX 19 1 18 2 17 3 16 4 15 5 14 6 12 7 13 8 11 9 9 10 10 11
REMARK SMILES IDX 90 12 89 15 2 16 1 17 3 18 4 19 8 20 5 21 7 22 6 23 20 24
REMARK SMILES IDX 21 25 22 26 23 27 24 28 25 29 26 30 27 31 88 32 28 33 87 34
REMARK SMILES IDX 29 35 30 36 31 37 81 38 32 39 86 40 80 41 82 42 33 43 85 44
REMARK SMILES IDX 79 45 78 46 34 48 66 49 46 50 65 51 47 52 50 53 64 54 83 55
REMARK SMILES IDX 48 56 49 57 63 59 84 60 51 61 35 62 36 63 44 64 37 65 43 66
REMARK SMILES IDX 45 67 42 68 38 69 39 70 40 71 41 72 67 73 68 74 76 75 69 76
REMARK SMILES IDX 75 77 77 78 74 79 70 80 71 81 72 82 73 83 52 84 53 85 61 86
REMARK SMILES IDX 54 87 60 88 62 89 59 90 55 91 56 92 57 93 58 94
REMARK H PARENT 10 13 10 14 82 47 50 58
REMARK Flexibility Score: inf
ROOT
ATOM      1  C   UNL     1      -1.973  -4.079   4.537  1.00  0.00     0.188 C 
ENDROOT
BRANCH   1   2
ATOM      2  C   UNL     1      -3.139  -3.088   4.726  1.00  0.00     0.188 C 
BRANCH   2   3
ATOM      3  O   UNL     1      -4.465  -3.589   4.870  1.00  0.00    -0.376 OA
BRANCH   3   4
ATOM      4  C   UNL     1      -4.966  -4.542   3.939  1.00  0.00     0.202 C 
BRANCH   4   5
ATOM      5  C   UNL     1      -4.874  -4.250   2.434  1.00  0.00     0.261 C 
BRANCH   5   6
ATOM      6  O   UNL     1      -3.545  -3.961   1.966  1.00  0.00    -0.459 OA
BRANCH   6   7
ATOM      7  C   UNL     1      -3.357  -2.717   1.438  1.00  0.00     0.365 C 
ATOM      8  O   UNL     1      -4.245  -1.901   1.226  1.00  0.00    -0.245 OA
BRANCH   7   9
ATOM      9  C   UNL     1      -1.861  -2.417   1.254  1.00  0.00     0.304 C 
ATOM     10  C   UNL     1      -0.953  -0.186   0.878  1.00  0.00     0.249 C 
ATOM     11  N   UNL     1      -1.540  -1.099   1.880  1.00  0.00    -0.322 N 
ATOM     12  S   UNL     1      -1.467  -0.798  -0.757  1.00  0.00    -0.092 SA
ATOM     13  H   UNL     1      -2.394  -0.686   2.252  1.00  0.00     0.348 HD
ATOM     14  H   UNL     1      -0.866  -1.244   2.632  1.00  0.00     0.348 HD
ATOM     15  C   UNL     1      -1.464  -2.502  -0.208  1.00  0.00     0.153 C 
BRANCH  10  16
ATOM     16  C   UNL     1       0.588  -0.055   1.123  1.00  0.00     0.085 C 
ATOM     17  C   UNL     1       1.437   0.134  -0.144  1.00  0.00     0.020 C 
BRANCH  16  18
ATOM     18  C   UNL     1       0.882   1.076   2.112  1.00  0.00    -0.038 A 
ATOM     19  C   UNL     1       1.302   0.787   3.419  1.00  0.00     0.004 A 
ATOM     20  C   UNL     1       0.733   2.424   1.740  1.00  0.00     0.004 A 
ATOM     21  C   UNL     1       1.573   1.817   4.324  1.00  0.00     0.000 A 
ATOM     22  C   UNL     1       1.002   3.451   2.647  1.00  0.00     0.000 A 
ATOM     23  C   UNL     1       1.423   3.147   3.938  1.00  0.00     0.000 A 
ENDBRANCH  16  18
ENDBRANCH  10  16
ENDBRANCH   7   9
ENDBRANCH   6   7
ENDBRANCH   5   6
ENDBRANCH   4   5
ENDBRANCH   3   4
ENDBRANCH   2   3
ENDBRANCH   1   2
BRANCH   1  24
ATOM     24  O   UNL     1      -2.387  -5.412   4.327  1.00  0.00    -0.376 OA
BRANCH  24  25
ATOM     25  C   UNL     1      -2.130  -6.336   5.375  1.00  0.00     0.202 C 
BRANCH  25  26
ATOM     26  C   UNL     1      -2.538  -6.017   6.829  1.00  0.00     0.261 C 
BRANCH  26  27
ATOM     27  O   UNL     1      -2.409  -4.658   7.277  1.00  0.00    -0.460 OA
BRANCH  27  28
ATOM     28  C   UNL     1      -1.192  -4.255   7.700  1.00  0.00     0.338 C 
ATOM     29  O   UNL     1      -0.164  -4.928   7.705  1.00  0.00    -0.246 OA
BRANCH  28  30
ATOM     30  C   UNL     1      -1.250  -2.803   7.969  1.00  0.00     0.060 A 
ATOM     31  C   UNL     1      -0.506  -1.926   7.167  1.00  0.00     0.016 A 
ATOM     32  C   UNL     1      -2.037  -2.306   9.011  1.00  0.00     0.016 A 
ATOM     33  C   UNL     1      -0.527  -0.552   7.422  1.00  0.00     0.010 A 
ATOM     34  C   UNL     1      -2.039  -0.932   9.278  1.00  0.00     0.010 A 
ATOM     35  C   UNL     1      -1.261  -0.050   8.505  1.00  0.00    -0.014 A 
BRANCH  35  36
ATOM     36  C   UNL     1      -1.063   1.353   8.956  1.00  0.00     0.031 A 
ATOM     37  C   UNL     1      -0.127   1.607  10.107  1.00  0.00     0.074 A 
ATOM     38  C   UNL     1      -1.692   2.383   8.362  1.00  0.00     0.049 A 
ATOM     39  N   UNL     1       0.160   2.725  10.722  1.00  0.00    -0.248 NA
ATOM     40  C   UNL     1       0.575   0.429  10.637  1.00  0.00     0.031 C 
ATOM     41  C   UNL     1      -2.576   2.280   7.204  1.00  0.00     0.029 A 
ATOM     42  N   UNL     1      -1.683   3.723   8.662  1.00  0.00    -0.354 N 
ATOM     43  C   UNL     1       1.065   2.385  11.722  1.00  0.00     0.074 A 
ATOM     44  C   UNL     1       1.245   0.950  11.652  1.00  0.00     0.031 C 
ATOM     45  C   UNL     1      -3.028   3.508   6.891  1.00  0.00     0.029 A 
ATOM     46  C   UNL     1      -2.501   4.476   7.852  1.00  0.00     0.049 A 
ATOM     47  H   UNL     1      -1.143   4.109   9.389  1.00  0.00     0.167 HD
ATOM     48  C   UNL     1       1.694   3.194  12.612  1.00  0.00     0.034 A 
ATOM     49  C   UNL     1      -2.804   5.790   7.897  1.00  0.00     0.034 A 
ATOM     50  C   UNL     1       1.490   4.621  12.682  1.00  0.00     0.049 A 
ATOM     51  C   UNL     1      -2.182   6.655   8.970  1.00  0.00     0.074 A 
ATOM     52  C   UNL     1       2.092   5.538  13.526  1.00  0.00     0.029 A 
ATOM     53  N   UNL     1       0.599   5.338  11.891  1.00  0.00    -0.354 N 
ATOM     54  N   UNL     1      -1.317   6.329   9.903  1.00  0.00    -0.248 NA
ATOM     55  C   UNL     1      -2.579   8.070   8.989  1.00  0.00     0.031 C 
ATOM     56  C   UNL     1       1.503   6.789  13.306  1.00  0.00     0.029 A 
ATOM     57  C   UNL     1       0.602   6.675  12.260  1.00  0.00     0.049 A 
ATOM     58  H   UNL     1       0.046   4.952  11.174  1.00  0.00     0.167 HD
ATOM     59  C   UNL     1      -1.036   7.508  10.591  1.00  0.00     0.074 A 
ATOM     60  C   UNL     1      -1.820   8.551   9.963  1.00  0.00     0.031 C 
ATOM     61  C   UNL     1      -0.193   7.711  11.638  1.00  0.00     0.034 A 
BRANCH  48  62
ATOM     62  C   UNL     1       2.603   2.529  13.621  1.00  0.00     0.023 A 
ATOM     63  C   UNL     1       3.738   1.795  13.230  1.00  0.00     0.031 A 
ATOM     64  C   UNL     1       2.292   2.573  14.992  1.00  0.00     0.131 A 
ATOM     65  C   UNL     1       4.456   1.055  14.182  1.00  0.00     0.055 A 
ATOM     66  C   UNL     1       3.068   1.913  15.946  1.00  0.00     0.041 A 
ATOM     67  F   UNL     1       1.210   3.237  15.427  1.00  0.00    -0.206 F 
ATOM     68  C   UNL     1       4.145   1.130  15.541  1.00  0.00     0.022 A 
BRANCH  65  69
ATOM     69  S   UNL     1       5.675  -0.154  13.596  1.00  0.00     0.124 S 
ATOM     70  O   UNL     1       4.868  -0.976  12.696  1.00  0.00    -0.237 OA
ATOM     71  O   UNL     1       6.678   0.692  12.961  1.00  0.00    -0.237 OA
ATOM     72  O   UNL     1       6.107  -0.827  14.819  1.00  0.00    -0.744 OA
ENDBRANCH  65  69
ENDBRANCH  48  62
BRANCH  49  73
ATOM     73  C   UNL     1      -3.756   6.381   6.913  1.00  0.00     0.023 A 
ATOM     74  C   UNL     1      -3.332   7.356   5.997  1.00  0.00     0.031 A 
ATOM     75  C   UNL     1      -5.115   6.017   6.908  1.00  0.00     0.131 A 
ATOM     76  C   UNL     1      -4.263   7.963   5.139  1.00  0.00     0.055 A 
ATOM     77  C   UNL     1      -6.027   6.586   6.017  1.00  0.00     0.041 A 
ATOM     78  F   UNL     1      -5.575   5.095   7.768  1.00  0.00    -0.206 F 
ATOM     79  C   UNL     1      -5.604   7.574   5.132  1.00  0.00     0.022 A 
BRANCH  76  80
ATOM     80  S   UNL     1      -3.706   9.324   4.077  1.00  0.00     0.124 S 
ATOM     81  O   UNL     1      -3.256  10.302   5.061  1.00  0.00    -0.237 OA
ATOM     82  O   UNL     1      -2.661   8.684   3.285  1.00  0.00    -0.237 OA
ATOM     83  O   UNL     1      -4.910   9.692   3.336  1.00  0.00    -0.744 OA
ENDBRANCH  76  80
ENDBRANCH  49  73
BRANCH  61  84
ATOM     84  C   UNL     1      -0.032   9.131  12.133  1.00  0.00     0.023 A 
ATOM     85  C   UNL     1      -1.087   9.839  12.734  1.00  0.00     0.031 A 
ATOM     86  C   UNL     1       1.205   9.788  11.990  1.00  0.00     0.131 A 
ATOM     87  C   UNL     1      -0.903  11.178  13.117  1.00  0.00     0.055 A 
ATOM     88  C   UNL     1       1.401  11.097  12.434  1.00  0.00     0.041 A 
ATOM     89  F   UNL     1       2.249   9.165  11.420  1.00  0.00    -0.206 F 
ATOM     90  C   UNL     1       0.339  11.805  12.988  1.00  0.00     0.022 A 
BRANCH  87  91
ATOM     91  S   UNL     1      -2.338  12.127  13.695  1.00  0.00     0.124 S 
ATOM     92  O   UNL     1      -3.251  12.017  12.562  1.00  0.00    -0.237 OA
ATOM     93  O   UNL     1      -2.727  11.402  14.900  1.00  0.00    -0.237 OA
ATOM     94  O   UNL     1      -1.795  13.464  13.926  1.00  0.00    -0.744 OA
ENDBRANCH  87  91
ENDBRANCH  61  84
ENDBRANCH  35  36
ENDBRANCH  28  30
ENDBRANCH  27  28
ENDBRANCH  26  27
ENDBRANCH  25  26
ENDBRANCH  24  25
ENDBRANCH   1  24
TORSDOF 22
