REMARK SMILES C[C@H](C(=O)OCCOCCOCCOC(=O)c1ccc(-c2c3nc(c(-c4cc(S(=O)(=O)[O-])ccc4F)c4ccc([nH]4)c(-c4cc(S(=O)(=O)[O-])ccc4F)c4nc(c(-c5cc(S(=O)(=O)[O-])ccc5F)c5ccc2[nH]5)C=C4)C=C3)cc1)N1C(=O)C[C@@H](N2C(=O)/C(=C/c3ccccc3)SC2=S)C1=O
REMARK SMILES IDX 9 1 8 2 7 3 6 4 5 5 3 6 4 7 2 8 1 9 80 10 81 11 99 12 82 13
REMARK SMILES IDX 83 14 84 15 100 16 85 17 86 18 97 19 87 20 88 21 96 22 98 23
REMARK SMILES IDX 89 24 90 25 91 26 95 27 92 28 94 29 93 30 10 31 11 32 12 33
REMARK SMILES IDX 13 34 14 35 15 36 16 37 17 38 18 39 79 40 19 41 78 42 20 43
REMARK SMILES IDX 21 44 22 45 72 46 23 47 77 48 71 49 73 50 24 51 76 52 70 53
REMARK SMILES IDX 69 54 25 56 57 57 37 58 56 59 38 60 41 61 55 62 74 63 39 64
REMARK SMILES IDX 40 65 54 67 75 68 42 69 26 70 27 71 35 72 28 73 34 74 36 75
REMARK SMILES IDX 33 76 29 77 30 78 31 79 32 80 58 81 59 82 67 83 60 84 66 85
REMARK SMILES IDX 68 86 65 87 61 88 62 89 63 90 64 91 43 92 44 93 52 94 45 95
REMARK SMILES IDX 51 96 53 97 50 98 46 99 47 100 48 101 49 102
REMARK H PARENT 73 55 41 66
REMARK Flexibility Score: inf
ROOT
ATOM      1  C   UNL     1       3.177  -0.033  -0.963  1.00  0.00     0.188 C 
ENDROOT
BRANCH   1   2
ATOM      2  O   UNL     1       3.308   1.169  -1.715  1.00  0.00    -0.376 OA
BRANCH   2   3
ATOM      3  C   UNL     1       2.748   2.356  -1.151  1.00  0.00     0.202 C 
BRANCH   3   4
ATOM      4  C   UNL     1       1.245   2.332  -0.821  1.00  0.00     0.261 C 
BRANCH   4   5
ATOM      5  O   UNL     1       0.873   1.350   0.171  1.00  0.00    -0.462 OA
BRANCH   5   6
ATOM      6  C   UNL     1       0.018   0.382  -0.250  1.00  0.00     0.329 C 
ATOM      7  O   UNL     1      -0.477   0.354  -1.373  1.00  0.00    -0.250 OA
BRANCH   6   8
ATOM      8  C   UNL     1      -0.201  -0.748   0.773  1.00  0.00     0.200 C 
ATOM      9  C   UNL     1       0.285  -0.582   2.203  1.00  0.00     0.044 C 
BRANCH   8  10
ATOM     10  N   UNL     1      -1.621  -1.063   0.734  1.00  0.00    -0.267 N 
ATOM     11  C   UNL     1      -2.593  -0.125   0.927  1.00  0.00     0.232 C 
ATOM     12  C   UNL     1      -2.122  -2.314   0.536  1.00  0.00     0.253 C 
ATOM     13  O   UNL     1      -2.427   1.030   1.290  1.00  0.00    -0.274 OA
ATOM     14  C   UNL     1      -3.931  -0.722   0.624  1.00  0.00     0.136 C 
ATOM     15  C   UNL     1      -3.632  -2.205   0.449  1.00  0.00     0.191 C 
ATOM     16  O   UNL     1      -1.488  -3.355   0.447  1.00  0.00    -0.272 OA
BRANCH  15  17
ATOM     17  N   UNL     1      -4.114  -2.786  -0.807  1.00  0.00    -0.280 N 
ATOM     18  C   UNL     1      -3.579  -2.323  -1.997  1.00  0.00     0.266 C 
ATOM     19  C   UNL     1      -5.144  -3.692  -0.918  1.00  0.00     0.149 C 
ATOM     20  O   UNL     1      -2.759  -1.423  -2.095  1.00  0.00    -0.268 OA
ATOM     21  C   UNL     1      -4.212  -2.989  -3.154  1.00  0.00     0.081 C 
ATOM     22  S   UNL     1      -5.428  -4.071  -2.613  1.00  0.00    -0.054 SA
ATOM     23  S   UNL     1      -6.093  -4.319   0.302  1.00  0.00    -0.052 S 
ATOM     24  C   UNL     1      -3.857  -2.676  -4.407  1.00  0.00     0.029 C 
BRANCH  24  25
ATOM     25  C   UNL     1      -4.528  -3.152  -5.616  1.00  0.00    -0.024 A 
ATOM     26  C   UNL     1      -3.840  -3.929  -6.550  1.00  0.00     0.008 A 
ATOM     27  C   UNL     1      -5.862  -2.798  -5.858  1.00  0.00     0.008 A 
ATOM     28  C   UNL     1      -4.493  -4.373  -7.702  1.00  0.00     0.001 A 
ATOM     29  C   UNL     1      -6.513  -3.245  -7.006  1.00  0.00     0.001 A 
ATOM     30  C   UNL     1      -5.829  -4.036  -7.926  1.00  0.00     0.000 A 
ENDBRANCH  24  25
ENDBRANCH  15  17
ENDBRANCH   8  10
ENDBRANCH   6   8
ENDBRANCH   5   6
ENDBRANCH   4   5
ENDBRANCH   3   4
ENDBRANCH   2   3
ENDBRANCH   1   2
BRANCH   1  31
ATOM     31  C   UNL     1       3.732   0.005   0.465  1.00  0.00     0.188 C 
BRANCH  31  32
ATOM     32  O   UNL     1       3.367   1.161   1.204  1.00  0.00    -0.376 OA
BRANCH  32  33
ATOM     33  C   UNL     1       3.957   1.363   2.486  1.00  0.00     0.202 C 
BRANCH  33  34
ATOM     34  C   UNL     1       5.487   1.218   2.570  1.00  0.00     0.261 C 
BRANCH  34  35
ATOM     35  O   UNL     1       6.011  -0.086   2.243  1.00  0.00    -0.460 OA
BRANCH  35  36
ATOM     36  C   UNL     1       5.419  -1.170   2.807  1.00  0.00     0.338 C 
ATOM     37  O   UNL     1       4.674  -1.163   3.762  1.00  0.00    -0.246 OA
BRANCH  36  38
ATOM     38  C   UNL     1       5.601  -2.331   1.886  1.00  0.00     0.060 A 
ATOM     39  C   UNL     1       4.540  -3.239   1.756  1.00  0.00     0.016 A 
ATOM     40  C   UNL     1       6.743  -2.484   1.093  1.00  0.00     0.016 A 
ATOM     41  C   UNL     1       4.636  -4.320   0.874  1.00  0.00     0.010 A 
ATOM     42  C   UNL     1       6.843  -3.574   0.218  1.00  0.00     0.010 A 
ATOM     43  C   UNL     1       5.805  -4.520   0.129  1.00  0.00    -0.014 A 
BRANCH  43  44
ATOM     44  C   UNL     1       6.036  -5.822  -0.556  1.00  0.00     0.031 A 
ATOM     45  C   UNL     1       6.886  -6.847   0.150  1.00  0.00     0.074 A 
ATOM     46  C   UNL     1       5.487  -6.119  -1.749  1.00  0.00     0.049 A 
ATOM     47  N   UNL     1       7.280  -8.027  -0.252  1.00  0.00    -0.248 NA
ATOM     48  C   UNL     1       7.357  -6.481   1.495  1.00  0.00     0.031 C 
ATOM     49  C   UNL     1       4.598  -5.248  -2.514  1.00  0.00     0.029 A 
ATOM     50  N   UNL     1       5.605  -7.246  -2.529  1.00  0.00    -0.354 N 
ATOM     51  C   UNL     1       8.046  -8.544   0.788  1.00  0.00     0.074 A 
ATOM     52  C   UNL     1       8.097  -7.528   1.817  1.00  0.00     0.031 C 
ATOM     53  C   UNL     1       4.258  -5.870  -3.658  1.00  0.00     0.029 A 
ATOM     54  C   UNL     1       4.937  -7.165  -3.730  1.00  0.00     0.049 A 
ATOM     55  H   UNL     1       6.120  -8.039  -2.254  1.00  0.00     0.167 HD
ATOM     56  C   UNL     1       8.643  -9.758   0.885  1.00  0.00     0.034 A 
ATOM     57  C   UNL     1       4.902  -8.019  -4.776  1.00  0.00     0.034 A 
ATOM     58  C   UNL     1       8.601 -10.760  -0.151  1.00  0.00     0.049 A 
ATOM     59  C   UNL     1       5.671  -9.322  -4.695  1.00  0.00     0.074 A 
ATOM     60  C   UNL     1       9.172 -12.021  -0.151  1.00  0.00     0.029 A 
ATOM     61  N   UNL     1       7.966 -10.614  -1.378  1.00  0.00    -0.354 N 
ATOM     62  N   UNL     1       6.394  -9.798  -3.707  1.00  0.00    -0.248 NA
ATOM     63  C   UNL     1       5.612 -10.204  -5.870  1.00  0.00     0.031 C 
ATOM     64  C   UNL     1       8.957 -12.601  -1.405  1.00  0.00     0.029 A 
ATOM     65  C   UNL     1       8.167 -11.745  -2.155  1.00  0.00     0.049 A 
ATOM     66  H   UNL     1       7.450  -9.823  -1.655  1.00  0.00     0.167 HD
ATOM     67  C   UNL     1       6.843 -11.050  -4.131  1.00  0.00     0.074 A 
ATOM     68  C   UNL     1       6.300 -11.258  -5.456  1.00  0.00     0.031 C 
ATOM     69  C   UNL     1       7.627 -11.947  -3.480  1.00  0.00     0.034 A 
BRANCH  56  70
ATOM     70  C   UNL     1       9.441 -10.037   2.136  1.00  0.00     0.023 A 
ATOM     71  C   UNL     1       8.838 -10.084   3.405  1.00  0.00     0.031 A 
ATOM     72  C   UNL     1      10.832 -10.226   2.061  1.00  0.00     0.131 A 
ATOM     73  C   UNL     1       9.633 -10.238   4.551  1.00  0.00     0.055 A 
ATOM     74  C   UNL     1      11.605 -10.468   3.197  1.00  0.00     0.041 A 
ATOM     75  F   UNL     1      11.467 -10.165   0.879  1.00  0.00    -0.206 F 
ATOM     76  C   UNL     1      11.009 -10.459   4.454  1.00  0.00     0.022 A 
BRANCH  73  77
ATOM     77  S   UNL     1       8.867  -9.986   6.176  1.00  0.00     0.124 S 
ATOM     78  O   UNL     1       8.349  -8.626   6.051  1.00  0.00    -0.237 OA
ATOM     79  O   UNL     1       7.870 -11.049   6.223  1.00  0.00    -0.237 OA
ATOM     80  O   UNL     1       9.984 -10.135   7.108  1.00  0.00    -0.744 OA
ENDBRANCH  73  77
ENDBRANCH  56  70
BRANCH  57  81
ATOM     81  C   UNL     1       4.163  -7.664  -6.027  1.00  0.00     0.023 A 
ATOM     82  C   UNL     1       3.098  -8.449  -6.500  1.00  0.00     0.031 A 
ATOM     83  C   UNL     1       4.571  -6.571  -6.814  1.00  0.00     0.131 A 
ATOM     84  C   UNL     1       2.513  -8.161  -7.745  1.00  0.00     0.055 A 
ATOM     85  C   UNL     1       3.945  -6.252  -8.020  1.00  0.00     0.041 A 
ATOM     86  F   UNL     1       5.593  -5.794  -6.420  1.00  0.00    -0.206 F 
ATOM     87  C   UNL     1       2.918  -7.058  -8.499  1.00  0.00     0.022 A 
BRANCH  84  88
ATOM     88  S   UNL     1       1.279  -9.310  -8.417  1.00  0.00     0.124 S 
ATOM     89  O   UNL     1       2.035 -10.556  -8.474  1.00  0.00    -0.237 OA
ATOM     90  O   UNL     1       0.223  -9.244  -7.413  1.00  0.00    -0.237 OA
ATOM     91  O   UNL     1       0.940  -8.726  -9.713  1.00  0.00    -0.744 OA
ENDBRANCH  84  88
ENDBRANCH  57  81
BRANCH  69  92
ATOM     92  C   UNL     1       7.899 -13.268  -4.167  1.00  0.00     0.023 A 
ATOM     93  C   UNL     1       8.639 -13.354  -5.359  1.00  0.00     0.031 A 
ATOM     94  C   UNL     1       7.407 -14.465  -3.612  1.00  0.00     0.131 A 
ATOM     95  C   UNL     1       8.818 -14.598  -5.985  1.00  0.00     0.055 A 
ATOM     96  C   UNL     1       7.646 -15.706  -4.203  1.00  0.00     0.041 A 
ATOM     97  F   UNL     1       6.690 -14.448  -2.476  1.00  0.00    -0.206 F 
ATOM     98  C   UNL     1       8.343 -15.777  -5.404  1.00  0.00     0.022 A 
BRANCH  95  99
ATOM     99  S   UNL     1       9.594 -14.648  -7.625  1.00  0.00     0.124 S 
ATOM    100  O   UNL     1       8.717 -13.780  -8.402  1.00  0.00    -0.237 OA
ATOM    101  O   UNL     1      10.930 -14.127  -7.354  1.00  0.00    -0.237 OA
ATOM    102  O   UNL     1       9.544 -16.064  -7.986  1.00  0.00    -0.744 OA
ENDBRANCH  95  99
ENDBRANCH  69  92
ENDBRANCH  43  44
ENDBRANCH  36  38
ENDBRANCH  35  36
ENDBRANCH  34  35
ENDBRANCH  33  34
ENDBRANCH  32  33
ENDBRANCH  31  32
ENDBRANCH   1  31
TORSDOF 23
