REMARK SMILES CC[C@@](C)(NC(=O)[C@H]1OCCc2ccccc21)C(=O)OCCOCCOCCOC(=O)c1ccc(-c2c3nc(c(-c4cc(S(=O)(=O)[O-])ccc4F)c4ccc([nH]4)c(-c4cc(S(=O)(=O)[O-])ccc4F)c4nc(c(-c5cc(S(=O)(=O)[O-])ccc5F)c5ccc2[nH]5)C=C4)C=C3)cc1
REMARK SMILES IDX 25 1 24 2 23 3 22 4 21 5 20 6 18 7 19 8 3 9 4 10 2 11 1 12
REMARK SMILES IDX 5 13 6 14 7 16 8 17 9 18 17 19 10 20 12 21 16 22 11 23 13 24
REMARK SMILES IDX 15 25 14 26 26 27 27 28 28 29 29 30 30 31 31 32 32 33 33 34
REMARK SMILES IDX 94 35 34 36 93 37 35 38 36 39 37 40 87 41 38 42 92 43 86 44
REMARK SMILES IDX 88 45 39 46 91 47 85 48 84 49 40 51 72 52 52 53 71 54 53 55
REMARK SMILES IDX 56 56 70 57 89 58 54 59 55 60 69 62 90 63 57 64 41 65 42 66
REMARK SMILES IDX 50 67 43 68 49 69 51 70 48 71 44 72 45 73 46 74 47 75 73 76
REMARK SMILES IDX 74 77 82 78 75 79 81 80 83 81 80 82 76 83 77 84 78 85 79 86
REMARK SMILES IDX 58 87 59 88 67 89 60 90 66 91 68 92 65 93 61 94 62 95 63 96
REMARK SMILES IDX 64 97
REMARK H PARENT 5 15 88 50 56 61
REMARK Flexibility Score: inf
ROOT
ATOM      1  C   UNL     1       0.528   5.077   0.285  1.00  0.00     0.188 C 
ENDROOT
BRANCH   1   2
ATOM      2  C   UNL     1       1.053   6.110  -0.685  1.00  0.00     0.188 C 
BRANCH   2   3
ATOM      3  O   UNL     1       0.998   5.705  -2.049  1.00  0.00    -0.376 OA
BRANCH   3   4
ATOM      4  C   UNL     1       2.193   5.090  -2.546  1.00  0.00     0.202 C 
BRANCH   4   5
ATOM      5  C   UNL     1       3.346   6.087  -2.728  1.00  0.00     0.261 C 
BRANCH   5   6
ATOM      6  O   UNL     1       3.918   6.363  -1.436  1.00  0.00    -0.462 OA
BRANCH   6   7
ATOM      7  C   UNL     1       3.948   7.632  -0.981  1.00  0.00     0.331 C 
ATOM      8  O   UNL     1       3.797   8.597  -1.722  1.00  0.00    -0.249 OA
BRANCH   7   9
ATOM      9  C   UNL     1       4.288   7.729   0.559  1.00  0.00     0.135 C 
ATOM     10  C   UNL     1       5.736   8.240   0.603  1.00  0.00     0.047 C 
BRANCH   9  11
ATOM     11  C   UNL     1       3.319   8.785   1.213  1.00  0.00     0.037 C 
ATOM     12  C   UNL     1       3.062  10.114   0.519  1.00  0.00     0.007 C 
ENDBRANCH   9  11
BRANCH   9  13
ATOM     13  N   UNL     1       4.169   6.568   1.542  1.00  0.00    -0.338 N 
ATOM     14  C   UNL     1       4.610   5.274   1.639  1.00  0.00     0.254 C 
ATOM     15  H   UNL     1       3.624   6.818   2.324  1.00  0.00     0.164 HD
ATOM     16  O   UNL     1       4.803   4.847   2.781  1.00  0.00    -0.272 OA
BRANCH  14  17
ATOM     17  C   UNL     1       4.740   4.410   0.393  1.00  0.00     0.237 C 
ATOM     18  O   UNL     1       5.847   4.946  -0.355  1.00  0.00    -0.363 OA
ATOM     19  C   UNL     1       4.659   2.886   0.511  1.00  0.00    -0.007 A 
ATOM     20  C   UNL     1       6.791   3.993  -0.814  1.00  0.00     0.166 C 
ATOM     21  C   UNL     1       5.250   2.120  -0.515  1.00  0.00    -0.039 A 
ATOM     22  C   UNL     1       3.845   2.229   1.446  1.00  0.00     0.007 A 
ATOM     23  C   UNL     1       6.100   2.840  -1.525  1.00  0.00     0.064 C 
ATOM     24  C   UNL     1       5.008   0.747  -0.619  1.00  0.00     0.004 A 
ATOM     25  C   UNL     1       3.628   0.850   1.356  1.00  0.00     0.000 A 
ATOM     26  C   UNL     1       4.197   0.113   0.319  1.00  0.00     0.000 A 
ENDBRANCH  14  17
ENDBRANCH   9  13
ENDBRANCH   7   9
ENDBRANCH   6   7
ENDBRANCH   5   6
ENDBRANCH   4   5
ENDBRANCH   3   4
ENDBRANCH   2   3
ENDBRANCH   1   2
BRANCH   1  27
ATOM     27  O   UNL     1       1.260   3.852   0.225  1.00  0.00    -0.376 OA
BRANCH  27  28
ATOM     28  C   UNL     1       0.479   2.759  -0.262  1.00  0.00     0.202 C 
BRANCH  28  29
ATOM     29  C   UNL     1      -0.334   2.059   0.836  1.00  0.00     0.261 C 
BRANCH  29  30
ATOM     30  O   UNL     1      -1.196   2.993   1.507  1.00  0.00    -0.460 OA
BRANCH  30  31
ATOM     31  C   UNL     1      -0.691   3.509   2.659  1.00  0.00     0.338 C 
ATOM     32  O   UNL     1       0.260   3.077   3.291  1.00  0.00    -0.246 OA
BRANCH  31  33
ATOM     33  C   UNL     1      -1.321   4.830   2.921  1.00  0.00     0.060 A 
ATOM     34  C   UNL     1      -0.559   5.794   3.600  1.00  0.00     0.016 A 
ATOM     35  C   UNL     1      -2.596   5.159   2.442  1.00  0.00     0.016 A 
ATOM     36  C   UNL     1      -1.089   7.056   3.863  1.00  0.00     0.010 A 
ATOM     37  C   UNL     1      -3.133   6.420   2.713  1.00  0.00     0.010 A 
ATOM     38  C   UNL     1      -2.403   7.348   3.478  1.00  0.00    -0.014 A 
BRANCH  38  39
ATOM     39  C   UNL     1      -3.125   8.437   4.179  1.00  0.00     0.031 A 
ATOM     40  C   UNL     1      -3.904   8.042   5.409  1.00  0.00     0.074 A 
ATOM     41  C   UNL     1      -3.071   9.717   3.775  1.00  0.00     0.049 A 
ATOM     42  N   UNL     1      -4.647   8.768   6.199  1.00  0.00    -0.248 NA
ATOM     43  C   UNL     1      -3.838   6.619   5.786  1.00  0.00     0.031 C 
ATOM     44  C   UNL     1      -2.311  10.216   2.630  1.00  0.00     0.029 A 
ATOM     45  N   UNL     1      -3.674  10.836   4.292  1.00  0.00    -0.354 N 
ATOM     46  C   UNL     1      -5.142   7.889   7.158  1.00  0.00     0.074 A 
ATOM     47  C   UNL     1      -4.657   6.572   6.822  1.00  0.00     0.031 C 
ATOM     48  C   UNL     1      -2.496  11.546   2.532  1.00  0.00     0.029 A 
ATOM     49  C   UNL     1      -3.410  11.986   3.586  1.00  0.00     0.049 A 
ATOM     50  H   UNL     1      -4.242  10.817   5.096  1.00  0.00     0.167 HD
ATOM     51  C   UNL     1      -5.923   8.158   8.232  1.00  0.00     0.034 A 
ATOM     52  C   UNL     1      -3.869  13.241   3.771  1.00  0.00     0.034 A 
ATOM     53  C   UNL     1      -6.410   9.477   8.540  1.00  0.00     0.049 A 
ATOM     54  C   UNL     1      -4.801  13.507   4.934  1.00  0.00     0.074 A 
ATOM     55  C   UNL     1      -7.211   9.879   9.592  1.00  0.00     0.029 A 
ATOM     56  N   UNL     1      -6.148  10.613   7.782  1.00  0.00    -0.354 N 
ATOM     57  N   UNL     1      -5.258  12.671   5.840  1.00  0.00    -0.248 NA
ATOM     58  C   UNL     1      -5.263  14.889   5.107  1.00  0.00     0.031 C 
ATOM     59  C   UNL     1      -7.495  11.238   9.429  1.00  0.00     0.029 A 
ATOM     60  C   UNL     1      -6.794  11.709   8.329  1.00  0.00     0.049 A 
ATOM     61  H   UNL     1      -5.586  10.634   6.974  1.00  0.00     0.167 HD
ATOM     62  C   UNL     1      -6.021  13.440   6.718  1.00  0.00     0.074 A 
ATOM     63  C   UNL     1      -5.952  14.804   6.234  1.00  0.00     0.031 C 
ATOM     64  C   UNL     1      -6.708  13.061   7.829  1.00  0.00     0.034 A 
BRANCH  51  65
ATOM     65  C   UNL     1      -6.341   6.987   9.090  1.00  0.00     0.023 A 
ATOM     66  C   UNL     1      -5.404   6.196   9.780  1.00  0.00     0.031 A 
ATOM     67  C   UNL     1      -7.694   6.614   9.163  1.00  0.00     0.131 A 
ATOM     68  C   UNL     1      -5.821   5.029  10.439  1.00  0.00     0.055 A 
ATOM     69  C   UNL     1      -8.114   5.502   9.896  1.00  0.00     0.041 A 
ATOM     70  F   UNL     1      -8.632   7.308   8.499  1.00  0.00    -0.206 F 
ATOM     71  C   UNL     1      -7.174   4.692  10.525  1.00  0.00     0.022 A 
BRANCH  68  72
ATOM     72  S   UNL     1      -4.560   3.870  11.038  1.00  0.00     0.124 S 
ATOM     73  O   UNL     1      -3.848   3.548   9.803  1.00  0.00    -0.237 OA
ATOM     74  O   UNL     1      -3.826   4.675  12.008  1.00  0.00    -0.237 OA
ATOM     75  O   UNL     1      -5.343   2.772  11.601  1.00  0.00    -0.744 OA
ENDBRANCH  68  72
ENDBRANCH  51  65
BRANCH  52  76
ATOM     76  C   UNL     1      -3.482  14.344   2.841  1.00  0.00     0.023 A 
ATOM     77  C   UNL     1      -2.771  15.466   3.299  1.00  0.00     0.031 A 
ATOM     78  C   UNL     1      -3.880  14.327   1.492  1.00  0.00     0.131 A 
ATOM     79  C   UNL     1      -2.526  16.545   2.433  1.00  0.00     0.055 A 
ATOM     80  C   UNL     1      -3.585  15.377   0.620  1.00  0.00     0.041 A 
ATOM     81  F   UNL     1      -4.567  13.284   1.000  1.00  0.00    -0.206 F 
ATOM     82  C   UNL     1      -2.917  16.502   1.093  1.00  0.00     0.022 A 
BRANCH  79  83
ATOM     83  S   UNL     1      -1.771  18.050   3.109  1.00  0.00     0.124 S 
ATOM     84  O   UNL     1      -2.723  18.417   4.152  1.00  0.00    -0.237 OA
ATOM     85  O   UNL     1      -0.475  17.560   3.565  1.00  0.00    -0.237 OA
ATOM     86  O   UNL     1      -1.724  18.953   1.960  1.00  0.00    -0.744 OA
ENDBRANCH  79  83
ENDBRANCH  52  76
BRANCH  64  87
ATOM     87  C   UNL     1      -7.373  14.153   8.634  1.00  0.00     0.023 A 
ATOM     88  C   UNL     1      -8.424  14.929   8.117  1.00  0.00     0.031 A 
ATOM     89  C   UNL     1      -6.929  14.430   9.940  1.00  0.00     0.131 A 
ATOM     90  C   UNL     1      -8.944  15.992   8.871  1.00  0.00     0.055 A 
ATOM     91  C   UNL     1      -7.501  15.439  10.714  1.00  0.00     0.041 A 
ATOM     92  F   UNL     1      -5.928  13.721  10.487  1.00  0.00    -0.206 F 
ATOM     93  C   UNL     1      -8.502  16.240  10.174  1.00  0.00     0.022 A 
BRANCH  90  94
ATOM     94  S   UNL     1     -10.114  17.129   8.079  1.00  0.00     0.124 S 
ATOM     95  O   UNL     1      -9.369  17.558   6.900  1.00  0.00    -0.237 OA
ATOM     96  O   UNL     1     -11.264  16.267   7.827  1.00  0.00    -0.237 OA
ATOM     97  O   UNL     1     -10.324  18.164   9.090  1.00  0.00    -0.744 OA
ENDBRANCH  90  94
ENDBRANCH  64  87
ENDBRANCH  38  39
ENDBRANCH  31  33
ENDBRANCH  30  31
ENDBRANCH  29  30
ENDBRANCH  28  29
ENDBRANCH  27  28
ENDBRANCH   1  27
TORSDOF 23
