REMARK SMILES COc1cc2cc(C(=O)OCCOCCOCCOC(=O)c3ccc(-c4c5nc(c(-c6cc(S(=O)(=O)[O-])ccc6F)c6ccc([nH]6)c(-c6cc(S(=O)(=O)[O-])ccc6F)c6nc(c(-c7cc(S(=O)(=O)[O-])ccc7F)c7ccc4[nH]7)C=C6)C=C5)cc3)n(Cc3ccccc3)c2c(OC)c1OC
REMARK SMILES IDX 15 1 14 2 13 3 12 4 11 5 10 6 8 7 9 8 7 9 3 10 4 11 97 12
REMARK SMILES IDX 5 13 94 14 6 15 93 16 85 17 2 18 1 19 98 20 99 21 95 22
REMARK SMILES IDX 96 23 86 24 87 25 88 26 92 27 89 28 91 29 90 30 16 31 17 32
REMARK SMILES IDX 18 33 19 34 20 35 21 36 22 37 23 38 84 39 24 40 83 41 25 42
REMARK SMILES IDX 26 43 27 44 77 45 28 46 82 47 76 48 78 49 29 50 81 51 75 52
REMARK SMILES IDX 74 53 30 55 62 56 42 57 61 58 43 59 46 60 60 61 79 62 44 63
REMARK SMILES IDX 45 64 59 66 80 67 47 68 31 69 32 70 40 71 33 72 39 73 41 74
REMARK SMILES IDX 38 75 34 76 35 77 36 78 37 79 63 80 64 81 72 82 65 83 71 84
REMARK SMILES IDX 73 85 70 86 66 87 67 88 68 89 69 90 48 91 49 92 57 93 50 94
REMARK SMILES IDX 56 95 58 96 55 97 51 98 52 99 53 100 54 101
REMARK H PARENT 78 54 46 65
REMARK Flexibility Score: inf
ROOT
ATOM      1  C   UNL     1       0.070   0.727   9.973  1.00  0.00     0.188 C 
ENDROOT
BRANCH   1   2
ATOM      2  C   UNL     1      -1.193  -0.134  10.119  1.00  0.00     0.188 C 
BRANCH   2   3
ATOM      3  O   UNL     1      -1.228  -1.036  11.222  1.00  0.00    -0.376 OA
BRANCH   3   4
ATOM      4  C   UNL     1      -0.092  -1.871  11.430  1.00  0.00     0.202 C 
BRANCH   4   5
ATOM      5  C   UNL     1       0.254  -2.806  10.266  1.00  0.00     0.261 C 
BRANCH   5   6
ATOM      6  O   UNL     1       1.064  -2.086   9.317  1.00  0.00    -0.459 OA
BRANCH   6   7
ATOM      7  C   UNL     1       0.976  -2.487   8.025  1.00  0.00     0.355 C 
ATOM      8  O   UNL     1       0.428  -3.512   7.657  1.00  0.00    -0.244 OA
BRANCH   7   9
ATOM      9  C   UNL     1       1.494  -1.459   7.146  1.00  0.00     0.129 A 
ATOM     10  C   UNL     1       1.976   0.724   3.098  1.00  0.00     0.165 A 
ATOM     11  C   UNL     1       1.077   0.508   4.129  1.00  0.00     0.061 A 
ATOM     12  C   UNL     1       3.302   0.325   3.260  1.00  0.00     0.205 A 
ATOM     13  C   UNL     1       1.456  -0.117   5.333  1.00  0.00     0.008 A 
ATOM     14  C   UNL     1       3.724  -0.340   4.456  1.00  0.00     0.189 A 
ATOM     15  C   UNL     1       0.750  -0.495   6.505  1.00  0.00     0.044 A 
ATOM     16  C   UNL     1       2.762  -0.579   5.474  1.00  0.00     0.096 A 
ATOM     17  N   UNL     1       2.788  -1.247   6.700  1.00  0.00    -0.327 N 
BRANCH  10  18
ATOM     18  O   UNL     1       1.562   1.431   1.997  1.00  0.00    -0.493 OA
ATOM     19  C   UNL     1       0.527   0.778   1.247  1.00  0.00     0.278 C 
ENDBRANCH  10  18
BRANCH  12  20
ATOM     20  O   UNL     1       4.245   0.604   2.293  1.00  0.00    -0.490 OA
ATOM     21  C   UNL     1       3.845   0.211   0.971  1.00  0.00     0.278 C 
ENDBRANCH  12  20
BRANCH  14  22
ATOM     22  O   UNL     1       5.005  -0.775   4.682  1.00  0.00    -0.491 OA
ATOM     23  C   UNL     1       5.627  -1.379   3.552  1.00  0.00     0.278 C 
ENDBRANCH  14  22
BRANCH  17  24
ATOM     24  C   UNL     1       3.966  -1.669   7.443  1.00  0.00     0.158 C 
BRANCH  24  25
ATOM     25  C   UNL     1       4.479  -0.535   8.307  1.00  0.00    -0.028 A 
ATOM     26  C   UNL     1       3.736  -0.059   9.398  1.00  0.00     0.005 A 
ATOM     27  C   UNL     1       5.688   0.099   8.011  1.00  0.00     0.005 A 
ATOM     28  C   UNL     1       4.146   1.050  10.136  1.00  0.00     0.000 A 
ATOM     29  C   UNL     1       6.125   1.187   8.774  1.00  0.00     0.000 A 
ATOM     30  C   UNL     1       5.348   1.672   9.826  1.00  0.00     0.000 A 
ENDBRANCH  24  25
ENDBRANCH  17  24
ENDBRANCH   7   9
ENDBRANCH   6   7
ENDBRANCH   5   6
ENDBRANCH   4   5
ENDBRANCH   3   4
ENDBRANCH   2   3
ENDBRANCH   1   2
BRANCH   1  31
ATOM     31  O   UNL     1       0.619   1.259  11.177  1.00  0.00    -0.376 OA
BRANCH  31  32
ATOM     32  C   UNL     1      -0.246   2.099  11.940  1.00  0.00     0.202 C 
BRANCH  32  33
ATOM     33  C   UNL     1      -0.590   3.418  11.241  1.00  0.00     0.261 C 
BRANCH  33  34
ATOM     34  O   UNL     1      -1.573   3.156  10.223  1.00  0.00    -0.460 OA
BRANCH  34  35
ATOM     35  C   UNL     1      -1.411   3.849   9.068  1.00  0.00     0.338 C 
ATOM     36  O   UNL     1      -0.812   4.904   8.943  1.00  0.00    -0.246 OA
BRANCH  35  37
ATOM     37  C   UNL     1      -1.823   2.964   7.944  1.00  0.00     0.060 A 
ATOM     38  C   UNL     1      -2.811   1.982   8.072  1.00  0.00     0.016 A 
ATOM     39  C   UNL     1      -1.088   3.035   6.764  1.00  0.00     0.016 A 
ATOM     40  C   UNL     1      -2.981   1.008   7.072  1.00  0.00     0.010 A 
ATOM     41  C   UNL     1      -1.321   2.109   5.741  1.00  0.00     0.010 A 
ATOM     42  C   UNL     1      -2.206   1.027   5.899  1.00  0.00    -0.014 A 
BRANCH  42  43
ATOM     43  C   UNL     1      -2.615   0.182   4.737  1.00  0.00     0.031 A 
ATOM     44  C   UNL     1      -3.870   0.723   4.201  1.00  0.00     0.074 A 
ATOM     45  C   UNL     1      -2.167  -0.928   4.081  1.00  0.00     0.049 A 
ATOM     46  N   UNL     1      -5.026   0.235   4.502  1.00  0.00    -0.248 NA
ATOM     47  C   UNL     1      -3.891   1.987   3.468  1.00  0.00     0.031 C 
ATOM     48  C   UNL     1      -1.030  -1.798   4.352  1.00  0.00     0.029 A 
ATOM     49  N   UNL     1      -2.639  -1.493   2.905  1.00  0.00    -0.354 N 
ATOM     50  C   UNL     1      -5.918   0.968   3.756  1.00  0.00     0.074 A 
ATOM     51  C   UNL     1      -5.209   2.159   3.343  1.00  0.00     0.031 C 
ATOM     52  C   UNL     1      -0.687  -2.523   3.263  1.00  0.00     0.029 A 
ATOM     53  C   UNL     1      -1.752  -2.380   2.291  1.00  0.00     0.049 A 
ATOM     54  H   UNL     1      -3.527  -1.286   2.535  1.00  0.00     0.167 HD
ATOM     55  C   UNL     1      -7.035   0.364   3.275  1.00  0.00     0.034 A 
ATOM     56  C   UNL     1      -1.942  -3.209   1.235  1.00  0.00     0.034 A 
ATOM     57  C   UNL     1      -7.252  -0.935   3.868  1.00  0.00     0.049 A 
ATOM     58  C   UNL     1      -3.321  -3.721   1.333  1.00  0.00     0.074 A 
ATOM     59  C   UNL     1      -7.708  -1.437   5.067  1.00  0.00     0.029 A 
ATOM     60  N   UNL     1      -6.619  -1.963   3.223  1.00  0.00    -0.354 N 
ATOM     61  N   UNL     1      -3.729  -4.549   2.254  1.00  0.00    -0.248 NA
ATOM     62  C   UNL     1      -4.364  -3.146   0.493  1.00  0.00     0.031 C 
ATOM     63  C   UNL     1      -7.269  -2.793   5.145  1.00  0.00     0.029 A 
ATOM     64  C   UNL     1      -6.548  -3.097   3.995  1.00  0.00     0.049 A 
ATOM     65  H   UNL     1      -6.255  -1.898   2.310  1.00  0.00     0.167 HD
ATOM     66  C   UNL     1      -5.058  -4.230   2.408  1.00  0.00     0.074 A 
ATOM     67  C   UNL     1      -5.436  -3.543   1.180  1.00  0.00     0.031 C 
ATOM     68  C   UNL     1      -5.627  -4.165   3.645  1.00  0.00     0.034 A 
BRANCH  55  69
ATOM     69  C   UNL     1      -7.648   0.735   1.953  1.00  0.00     0.023 A 
ATOM     70  C   UNL     1      -6.959   1.481   0.981  1.00  0.00     0.031 A 
ATOM     71  C   UNL     1      -8.857   0.149   1.541  1.00  0.00     0.131 A 
ATOM     72  C   UNL     1      -7.475   1.679  -0.301  1.00  0.00     0.055 A 
ATOM     73  C   UNL     1      -9.340   0.280   0.234  1.00  0.00     0.041 A 
ATOM     74  F   UNL     1      -9.577  -0.609   2.383  1.00  0.00    -0.206 F 
ATOM     75  C   UNL     1      -8.653   1.056  -0.694  1.00  0.00     0.022 A 
BRANCH  72  76
ATOM     76  S   UNL     1      -6.595   2.748  -1.470  1.00  0.00     0.124 S 
ATOM     77  O   UNL     1      -6.332   1.833  -2.574  1.00  0.00    -0.237 OA
ATOM     78  O   UNL     1      -7.590   3.787  -1.724  1.00  0.00    -0.237 OA
ATOM     79  O   UNL     1      -5.423   3.186  -0.716  1.00  0.00    -0.744 OA
ENDBRANCH  72  76
ENDBRANCH  55  69
BRANCH  56  80
ATOM     80  C   UNL     1      -1.024  -3.673   0.164  1.00  0.00     0.023 A 
ATOM     81  C   UNL     1      -0.022  -2.817  -0.331  1.00  0.00     0.031 A 
ATOM     82  C   UNL     1      -1.324  -4.809  -0.612  1.00  0.00     0.131 A 
ATOM     83  C   UNL     1       0.572  -3.055  -1.587  1.00  0.00     0.055 A 
ATOM     84  C   UNL     1      -0.726  -5.050  -1.855  1.00  0.00     0.041 A 
ATOM     85  F   UNL     1      -2.266  -5.680  -0.219  1.00  0.00    -0.206 F 
ATOM     86  C   UNL     1       0.210  -4.156  -2.361  1.00  0.00     0.022 A 
BRANCH  83  87
ATOM     87  S   UNL     1       1.743  -1.836  -2.253  1.00  0.00     0.124 S 
ATOM     88  O   UNL     1       2.088  -2.368  -3.569  1.00  0.00    -0.237 OA
ATOM     89  O   UNL     1       0.944  -0.616  -2.262  1.00  0.00    -0.237 OA
ATOM     90  O   UNL     1       2.821  -1.878  -1.270  1.00  0.00    -0.744 OA
ENDBRANCH  83  87
ENDBRANCH  56  80
BRANCH  68  91
ATOM     91  C   UNL     1      -5.157  -5.106   4.723  1.00  0.00     0.023 A 
ATOM     92  C   UNL     1      -6.144  -5.897   5.342  1.00  0.00     0.031 A 
ATOM     93  C   UNL     1      -3.848  -5.192   5.229  1.00  0.00     0.131 A 
ATOM     94  C   UNL     1      -5.830  -6.704   6.442  1.00  0.00     0.055 A 
ATOM     95  C   UNL     1      -3.524  -6.049   6.289  1.00  0.00     0.041 A 
ATOM     96  F   UNL     1      -2.861  -4.416   4.760  1.00  0.00    -0.206 F 
ATOM     97  C   UNL     1      -4.519  -6.799   6.911  1.00  0.00     0.022 A 
BRANCH  94  98
ATOM     98  S   UNL     1      -7.144  -7.545   7.364  1.00  0.00     0.124 S 
ATOM     99  O   UNL     1      -6.841  -8.953   7.124  1.00  0.00    -0.237 OA
ATOM    100  O   UNL     1      -6.915  -7.079   8.730  1.00  0.00    -0.237 OA
ATOM    101  O   UNL     1      -8.375  -7.058   6.747  1.00  0.00    -0.744 OA
ENDBRANCH  94  98
ENDBRANCH  68  91
ENDBRANCH  42  43
ENDBRANCH  35  37
ENDBRANCH  34  35
ENDBRANCH  33  34
ENDBRANCH  32  33
ENDBRANCH  31  32
ENDBRANCH   1  31
TORSDOF 25
