REMARK SMILES COc1ccc(CCN2C(=O)C[C@@H](C(=O)OCCOCCOCCOC(=O)c3ccc(-c4c5nc(c(-c6cc(S(=O)(=O)[O-])ccc6F)c6ccc([nH]6)c(-c6cc(S(=O)(=O)[O-])ccc6F)c6nc(c(-c7cc(S(=O)(=O)[O-])ccc7F)c7ccc4[nH]7)C=C6)C=C5)cc3)S/C2=[NH+]\c2ccc(F)cc2)cc1OC
REMARK SMILES IDX 20 1 19 2 18 3 17 4 16 5 14 6 15 7 13 8 9 9 10 10 92 11
REMARK SMILES IDX 11 12 12 13 91 14 93 15 8 17 7 18 6 19 3 20 4 21 102 22 5 23
REMARK SMILES IDX 101 24 2 25 1 26 103 27 104 28 94 29 95 30 100 31 96 32
REMARK SMILES IDX 99 33 97 34 98 35 21 36 22 37 23 38 24 39 25 40 26 41 27 42
REMARK SMILES IDX 28 43 29 44 90 45 30 46 89 47 31 48 32 49 33 50 83 51 34 52
REMARK SMILES IDX 88 53 82 54 84 55 35 56 87 57 81 58 80 59 36 61 68 62 48 63
REMARK SMILES IDX 67 64 49 65 52 66 66 67 85 68 50 69 51 70 65 72 86 73 53 74
REMARK SMILES IDX 37 75 38 76 46 77 39 78 45 79 47 80 44 81 40 82 41 83 42 84
REMARK SMILES IDX 43 85 69 86 70 87 78 88 71 89 77 90 79 91 76 92 72 93 73 94
REMARK SMILES IDX 74 95 75 96 54 97 55 98 63 99 56 100 62 101 64 102 61 103
REMARK SMILES IDX 57 104 58 105 59 106 60 107
REMARK H PARENT 93 16 84 60 52 71
REMARK Flexibility Score: inf
ROOT
ATOM      1  C   UNL     1      -4.033   6.225   0.783  1.00  0.00     0.188 C 
ENDROOT
BRANCH   1   2
ATOM      2  O   UNL     1      -4.299   7.358  -0.033  1.00  0.00    -0.376 OA
BRANCH   2   3
ATOM      3  C   UNL     1      -3.225   8.014  -0.671  1.00  0.00     0.202 C 
BRANCH   3   4
ATOM      4  C   UNL     1      -2.094   8.576   0.201  1.00  0.00     0.261 C 
BRANCH   4   5
ATOM      5  O   UNL     1      -1.827   7.879   1.436  1.00  0.00    -0.462 OA
BRANCH   5   6
ATOM      6  C   UNL     1      -2.259   8.471   2.589  1.00  0.00     0.320 C 
ATOM      7  O   UNL     1      -2.844   9.547   2.625  1.00  0.00    -0.251 OA
BRANCH   6   8
ATOM      8  C   UNL     1      -1.776   7.749   3.850  1.00  0.00     0.180 C 
ATOM      9  N   UNL     1       0.262   5.825   4.855  1.00  0.00    -0.191 N 
ATOM     10  C   UNL     1       0.320   7.202   5.031  1.00  0.00     0.311 C 
ATOM     11  C   UNL     1      -0.937   5.144   4.670  1.00  0.00     0.319 C 
ATOM     12  O   UNL     1       0.942   7.751   5.938  1.00  0.00    -0.247 OA
ATOM     13  C   UNL     1      -0.298   7.991   3.935  1.00  0.00     0.155 C 
ATOM     14  S   UNL     1      -2.272   6.008   3.936  1.00  0.00    -0.022 SA
ATOM     15  N   UNL     1      -0.983   3.885   4.969  1.00  0.00    -0.235 N 
ATOM     16  H   UNL     1      -0.217   3.517   5.466  1.00  0.00     0.313 HD
BRANCH   9  17
ATOM     17  C   UNL     1       1.540   5.176   5.176  1.00  0.00     0.251 C 
BRANCH  17  18
ATOM     18  C   UNL     1       1.873   3.720   4.801  1.00  0.00     0.082 C 
BRANCH  18  19
ATOM     19  C   UNL     1       1.923   3.249   3.358  1.00  0.00    -0.040 A 
ATOM     20  C   UNL     1       1.726   1.867   0.899  1.00  0.00     0.160 A 
ATOM     21  C   UNL     1       0.926   2.981   1.158  1.00  0.00     0.051 A 
ATOM     22  C   UNL     1       2.730   1.511   1.800  1.00  0.00     0.160 A 
ATOM     23  C   UNL     1       1.044   3.680   2.366  1.00  0.00     0.008 A 
ATOM     24  C   UNL     1       2.793   2.189   3.031  1.00  0.00     0.054 A 
BRANCH  20  25
ATOM     25  O   UNL     1       1.494   1.186  -0.267  1.00  0.00    -0.493 OA
ATOM     26  C   UNL     1       0.443   0.226  -0.094  1.00  0.00     0.278 C 
ENDBRANCH  20  25
BRANCH  22  27
ATOM     27  O   UNL     1       3.686   0.540   1.672  1.00  0.00    -0.493 OA
ATOM     28  C   UNL     1       3.758  -0.181   0.451  1.00  0.00     0.278 C 
ENDBRANCH  22  27
ENDBRANCH  18  19
ENDBRANCH  17  18
ENDBRANCH   9  17
BRANCH  15  29
ATOM     29  C   UNL     1      -2.022   2.996   4.652  1.00  0.00     0.125 A 
ATOM     30  C   UNL     1      -2.939   2.552   5.610  1.00  0.00     0.055 A 
ATOM     31  C   UNL     1      -2.014   2.357   3.403  1.00  0.00     0.055 A 
ATOM     32  C   UNL     1      -3.832   1.509   5.313  1.00  0.00     0.043 A 
ATOM     33  C   UNL     1      -2.882   1.306   3.107  1.00  0.00     0.043 A 
ATOM     34  C   UNL     1      -3.791   0.893   4.067  1.00  0.00     0.123 A 
ATOM     35  F   UNL     1      -4.645  -0.095   3.776  1.00  0.00    -0.207 F 
ENDBRANCH  15  29
ENDBRANCH   6   8
ENDBRANCH   5   6
ENDBRANCH   4   5
ENDBRANCH   3   4
ENDBRANCH   2   3
ENDBRANCH   1   2
BRANCH   1  36
ATOM     36  C   UNL     1      -2.823   5.306   0.492  1.00  0.00     0.188 C 
BRANCH  36  37
ATOM     37  O   UNL     1      -2.391   5.339  -0.859  1.00  0.00    -0.376 OA
BRANCH  37  38
ATOM     38  C   UNL     1      -2.558   4.127  -1.575  1.00  0.00     0.202 C 
BRANCH  38  39
ATOM     39  C   UNL     1      -4.008   3.808  -1.964  1.00  0.00     0.261 C 
BRANCH  39  40
ATOM     40  O   UNL     1      -4.971   3.825  -0.894  1.00  0.00    -0.460 OA
BRANCH  40  41
ATOM     41  C   UNL     1      -4.928   2.811  -0.001  1.00  0.00     0.338 C 
ATOM     42  O   UNL     1      -4.128   1.887  -0.003  1.00  0.00    -0.246 OA
BRANCH  41  43
ATOM     43  C   UNL     1      -5.899   3.097   1.084  1.00  0.00     0.060 A 
ATOM     44  C   UNL     1      -5.424   3.420   2.360  1.00  0.00     0.016 A 
ATOM     45  C   UNL     1      -7.272   3.048   0.855  1.00  0.00     0.016 A 
ATOM     46  C   UNL     1      -6.304   3.619   3.426  1.00  0.00     0.010 A 
ATOM     47  C   UNL     1      -8.159   3.260   1.922  1.00  0.00     0.010 A 
ATOM     48  C   UNL     1      -7.682   3.508   3.224  1.00  0.00    -0.014 A 
BRANCH  48  49
ATOM     49  C   UNL     1      -8.618   3.500   4.383  1.00  0.00     0.031 A 
ATOM     50  C   UNL     1      -9.229   2.190   4.807  1.00  0.00     0.074 A 
ATOM     51  C   UNL     1      -8.921   4.625   5.060  1.00  0.00     0.049 A 
ATOM     52  N   UNL     1     -10.172   1.953   5.682  1.00  0.00    -0.248 NA
ATOM     53  C   UNL     1      -8.706   0.986   4.144  1.00  0.00     0.031 C 
ATOM     54  C   UNL     1      -8.344   5.944   4.810  1.00  0.00     0.029 A 
ATOM     55  N   UNL     1      -9.806   4.837   6.091  1.00  0.00    -0.354 N 
ATOM     56  C   UNL     1     -10.377   0.577   5.656  1.00  0.00     0.074 A 
ATOM     57  C   UNL     1      -9.477   0.040   4.657  1.00  0.00     0.031 C 
ATOM     58  C   UNL     1      -8.903   6.831   5.652  1.00  0.00     0.029 A 
ATOM     59  C   UNL     1      -9.917   6.158   6.463  1.00  0.00     0.049 A 
ATOM     60  H   UNL     1     -10.313   4.112   6.524  1.00  0.00     0.167 HD
ATOM     61  C   UNL     1     -11.233  -0.169   6.398  1.00  0.00     0.034 A 
ATOM     62  C   UNL     1     -10.765   6.761   7.323  1.00  0.00     0.034 A 
ATOM     63  C   UNL     1     -12.124   0.378   7.393  1.00  0.00     0.049 A 
ATOM     64  C   UNL     1     -11.787   5.924   8.062  1.00  0.00     0.074 A 
ATOM     65  C   UNL     1     -13.020  -0.293   8.209  1.00  0.00     0.029 A 
ATOM     66  N   UNL     1     -12.243   1.727   7.704  1.00  0.00    -0.354 N 
ATOM     67  N   UNL     1     -11.986   4.627   8.017  1.00  0.00    -0.248 NA
ATOM     68  C   UNL     1     -12.699   6.636   8.969  1.00  0.00     0.031 C 
ATOM     69  C   UNL     1     -13.737   0.653   8.948  1.00  0.00     0.029 A 
ATOM     70  C   UNL     1     -13.224   1.910   8.668  1.00  0.00     0.049 A 
ATOM     71  H   UNL     1     -11.710   2.448   7.299  1.00  0.00     0.167 HD
ATOM     72  C   UNL     1     -13.017   4.367   8.919  1.00  0.00     0.074 A 
ATOM     73  C   UNL     1     -13.390   5.639   9.500  1.00  0.00     0.031 C 
ATOM     74  C   UNL     1     -13.597   3.182   9.243  1.00  0.00     0.034 A 
BRANCH  61  75
ATOM     75  C   UNL     1     -11.291  -1.652   6.112  1.00  0.00     0.023 A 
ATOM     76  C   UNL     1     -10.186  -2.495   6.318  1.00  0.00     0.031 A 
ATOM     77  C   UNL     1     -12.470  -2.226   5.601  1.00  0.00     0.131 A 
ATOM     78  C   UNL     1     -10.259  -3.847   5.947  1.00  0.00     0.055 A 
ATOM     79  C   UNL     1     -12.563  -3.589   5.315  1.00  0.00     0.041 A 
ATOM     80  F   UNL     1     -13.551  -1.467   5.361  1.00  0.00    -0.206 F 
ATOM     81  C   UNL     1     -11.449  -4.405   5.473  1.00  0.00     0.022 A 
BRANCH  78  82
ATOM     82  S   UNL     1      -8.736  -4.832   5.952  1.00  0.00     0.124 S 
ATOM     83  O   UNL     1      -7.888  -4.068   5.040  1.00  0.00    -0.237 OA
ATOM     84  O   UNL     1      -8.348  -4.806   7.358  1.00  0.00    -0.237 OA
ATOM     85  O   UNL     1      -9.167  -6.134   5.447  1.00  0.00    -0.744 OA
ENDBRANCH  78  82
ENDBRANCH  61  75
BRANCH  62  86
ATOM     86  C   UNL     1     -10.741   8.244   7.504  1.00  0.00     0.023 A 
ATOM     87  C   UNL     1     -10.469   8.820   8.756  1.00  0.00     0.031 A 
ATOM     88  C   UNL     1     -11.068   9.108   6.442  1.00  0.00     0.131 A 
ATOM     89  C   UNL     1     -10.579  10.210   8.928  1.00  0.00     0.055 A 
ATOM     90  C   UNL     1     -11.114  10.494   6.603  1.00  0.00     0.041 A 
ATOM     91  F   UNL     1     -11.351   8.613   5.226  1.00  0.00    -0.206 F 
ATOM     92  C   UNL     1     -10.883  11.052   7.856  1.00  0.00     0.022 A 
BRANCH  89  93
ATOM     93  S   UNL     1     -10.423  10.894  10.601  1.00  0.00     0.124 S 
ATOM     94  O   UNL     1     -11.489  10.193  11.308  1.00  0.00    -0.237 OA
ATOM     95  O   UNL     1      -9.060  10.517  10.957  1.00  0.00    -0.237 OA
ATOM     96  O   UNL     1     -10.640  12.326  10.405  1.00  0.00    -0.744 OA
ENDBRANCH  89  93
ENDBRANCH  62  86
BRANCH  74  97
ATOM     97  C   UNL     1     -14.656   3.196  10.323  1.00  0.00     0.023 A 
ATOM     98  C   UNL     1     -15.888   3.854  10.156  1.00  0.00     0.031 A 
ATOM     99  C   UNL     1     -14.423   2.540  11.546  1.00  0.00     0.131 A 
ATOM    100  C   UNL     1     -16.812   3.889  11.213  1.00  0.00     0.055 A 
ATOM    101  C   UNL     1     -15.374   2.520  12.567  1.00  0.00     0.041 A 
ATOM    102  F   UNL     1     -13.264   1.898  11.767  1.00  0.00    -0.206 F 
ATOM    103  C   UNL     1     -16.572   3.209  12.409  1.00  0.00     0.022 A 
BRANCH 100 104
ATOM    104  S   UNL     1     -18.296   4.921  11.042  1.00  0.00     0.124 S 
ATOM    105  O   UNL     1     -17.722   6.239  10.793  1.00  0.00    -0.237 OA
ATOM    106  O   UNL     1     -18.980   4.300   9.913  1.00  0.00    -0.237 OA
ATOM    107  O   UNL     1     -18.968   4.771  12.332  1.00  0.00    -0.744 OA
ENDBRANCH 100 104
ENDBRANCH  74  97
ENDBRANCH  48  49
ENDBRANCH  41  43
ENDBRANCH  40  41
ENDBRANCH  39  40
ENDBRANCH  38  39
ENDBRANCH  37  38
ENDBRANCH  36  37
ENDBRANCH   1  36
TORSDOF 26
