REMARK SMILES CCC(CC)(NC(=O)NC1CCC(C)(C)CC1)C(=O)OCCOCCOCCOC(=O)c1ccc(-c2c3nc(c(-c4cc(S(=O)(=O)[O-])ccc4F)c4ccc([nH]4)c(-c4cc(S(=O)(=O)[O-])ccc4F)c4nc(c(-c5cc(S(=O)(=O)[O-])ccc5F)c5ccc2[nH]5)C=C4)C=C3)cc1
REMARK SMILES IDX 25 1 24 2 23 3 22 4 21 5 20 6 18 7 19 8 3 9 2 10 1 11 4 12
REMARK SMILES IDX 5 13 6 14 7 15 8 17 9 18 10 20 11 21 17 22 12 23 16 24 13 25
REMARK SMILES IDX 14 26 15 27 26 28 27 29 28 30 29 31 30 32 31 33 32 34 33 35
REMARK SMILES IDX 94 36 34 37 93 38 35 39 36 40 37 41 87 42 38 43 92 44 86 45
REMARK SMILES IDX 88 46 39 47 91 48 85 49 84 50 40 52 72 53 52 54 71 55 53 56
REMARK SMILES IDX 56 57 70 58 89 59 54 60 55 61 69 63 90 64 57 65 41 66 42 67
REMARK SMILES IDX 50 68 43 69 49 70 51 71 48 72 44 73 45 74 46 75 47 76 73 77
REMARK SMILES IDX 74 78 82 79 75 80 81 81 83 82 80 83 76 84 77 85 78 86 79 87
REMARK SMILES IDX 58 88 59 89 67 90 60 91 66 92 68 93 65 94 61 95 62 96 63 97
REMARK SMILES IDX 64 98
REMARK H PARENT 6 16 9 19 88 51 56 62
REMARK Flexibility Score: inf
ROOT
ATOM      1  C   UNL     1       3.896  -5.002  -2.317  1.00  0.00     0.188 C 
ENDROOT
BRANCH   1   2
ATOM      2  C   UNL     1       3.842  -3.638  -1.624  1.00  0.00     0.188 C 
BRANCH   2   3
ATOM      3  O   UNL     1       5.067  -2.870  -0.439  1.00  0.00    -0.376 OA
BRANCH   3   4
ATOM      4  C   UNL     1       5.351  -1.841   0.739  1.00  0.00     0.202 C 
BRANCH   4   5
ATOM      5  C   UNL     1       4.570  -1.593   2.163  1.00  0.00     0.261 C 
BRANCH   5   6
ATOM      6  O   UNL     1       3.131  -1.899   2.255  1.00  0.00    -0.461 OA
BRANCH   6   7
ATOM      7  C   UNL     1       2.154  -0.985   2.096  1.00  0.00     0.331 C 
ATOM      8  O   UNL     1       2.322   0.190   2.401  1.00  0.00    -0.249 OA
BRANCH   7   9
ATOM      9  C   UNL     1       0.780  -1.610   1.545  1.00  0.00     0.139 C 
BRANCH   9  10
ATOM     10  C   UNL     1       0.194  -0.718   0.379  1.00  0.00     0.037 C 
ATOM     11  C   UNL     1       0.531   0.756   0.298  1.00  0.00     0.007 C 
ENDBRANCH   9  10
BRANCH   9  12
ATOM     12  C   UNL     1      -0.138  -1.597   2.804  1.00  0.00     0.037 C 
ATOM     13  C   UNL     1      -1.617  -1.921   2.596  1.00  0.00     0.007 C 
ENDBRANCH   9  12
BRANCH   9  14
ATOM     14  N   UNL     1       0.655  -2.980   0.901  1.00  0.00    -0.322 N 
ATOM     15  C   UNL     1       1.138  -4.217   1.003  1.00  0.00     0.315 C 
ATOM     16  H   UNL     1       0.001  -2.941   0.167  1.00  0.00     0.166 HD
ATOM     17  O   UNL     1       0.338  -5.151   1.082  1.00  0.00    -0.249 OA
ATOM     18  N   UNL     1       2.413  -4.500   0.733  1.00  0.00    -0.335 N 
ATOM     19  H   UNL     1       2.594  -5.461   0.620  1.00  0.00     0.165 HD
BRANCH  18  20
ATOM     20  C   UNL     1       3.585  -3.656   0.574  1.00  0.00     0.083 C 
ATOM     21  C   UNL     1       5.139  -4.717   0.159  1.00  0.00     0.025 C 
ATOM     22  C   UNL     1       3.310  -1.930  -0.416  1.00  0.00     0.025 C 
ATOM     23  C   UNL     1       6.281  -4.203  -1.268  1.00  0.00     0.008 C 
ATOM     24  C   UNL     1       4.599  -1.403  -1.770  1.00  0.00     0.008 C 
ATOM     25  C   UNL     1       6.030  -2.577  -2.215  1.00  0.00    -0.035 C 
ATOM     26  C   UNL     1       6.003  -2.858  -3.742  1.00  0.00     0.011 C 
ATOM     27  C   UNL     1       7.338  -1.781  -2.001  1.00  0.00     0.011 C 
ENDBRANCH  18  20
ENDBRANCH   9  14
ENDBRANCH   7   9
ENDBRANCH   6   7
ENDBRANCH   5   6
ENDBRANCH   4   5
ENDBRANCH   3   4
ENDBRANCH   2   3
ENDBRANCH   1   2
BRANCH   1  28
ATOM     28  O   UNL     1       3.745  -6.245  -1.692  1.00  0.00    -0.376 OA
BRANCH  28  29
ATOM     29  C   UNL     1       4.085  -7.311  -2.587  1.00  0.00     0.202 C 
BRANCH  29  30
ATOM     30  C   UNL     1       4.038  -7.171  -4.159  1.00  0.00     0.261 C 
BRANCH  30  31
ATOM     31  O   UNL     1       3.716  -5.904  -4.799  1.00  0.00    -0.460 OA
BRANCH  31  32
ATOM     32  C   UNL     1       2.407  -5.545  -4.920  1.00  0.00     0.338 C 
ATOM     33  O   UNL     1       1.462  -6.257  -4.612  1.00  0.00    -0.246 OA
BRANCH  32  34
ATOM     34  C   UNL     1       2.286  -4.069  -5.222  1.00  0.00     0.060 A 
ATOM     35  C   UNL     1       1.273  -3.318  -4.596  1.00  0.00     0.016 A 
ATOM     36  C   UNL     1       3.157  -3.404  -6.089  1.00  0.00     0.016 A 
ATOM     37  C   UNL     1       1.088  -1.947  -4.888  1.00  0.00     0.010 A 
ATOM     38  C   UNL     1       2.970  -2.034  -6.381  1.00  0.00     0.010 A 
ATOM     39  C   UNL     1       1.906  -1.296  -5.822  1.00  0.00    -0.014 A 
BRANCH  39  40
ATOM     40  C   UNL     1       1.525   0.037  -6.412  1.00  0.00     0.031 A 
ATOM     41  C   UNL     1       0.842   0.037  -7.767  1.00  0.00     0.074 A 
ATOM     42  C   UNL     1       1.760   1.229  -5.820  1.00  0.00     0.049 A 
ATOM     43  N   UNL     1       0.522   1.040  -8.546  1.00  0.00    -0.248 NA
ATOM     44  C   UNL     1       0.479  -1.281  -8.311  1.00  0.00     0.031 C 
ATOM     45  C   UNL     1       2.346   1.423  -4.496  1.00  0.00     0.029 A 
ATOM     46  N   UNL     1       1.547   2.518  -6.275  1.00  0.00    -0.354 N 
ATOM     47  C   UNL     1      -0.057   0.474  -9.680  1.00  0.00     0.074 A 
ATOM     48  C   UNL     1      -0.026  -0.961  -9.492  1.00  0.00     0.031 C 
ATOM     49  C   UNL     1       2.468   2.744  -4.258  1.00  0.00     0.029 A 
ATOM     50  C   UNL     1       2.013   3.503  -5.426  1.00  0.00     0.049 A 
ATOM     51  H   UNL     1       1.101   2.716  -7.130  1.00  0.00     0.167 HD
ATOM     52  C   UNL     1      -0.569   1.082 -10.778  1.00  0.00     0.034 A 
ATOM     53  C   UNL     1       2.102   4.847  -5.581  1.00  0.00     0.034 A 
ATOM     54  C   UNL     1      -0.621   2.509 -10.977  1.00  0.00     0.049 A 
ATOM     55  C   UNL     1       1.619   5.496  -6.870  1.00  0.00     0.074 A 
ATOM     56  C   UNL     1      -1.175   3.204 -12.039  1.00  0.00     0.029 A 
ATOM     57  N   UNL     1      -0.089   3.457 -10.118  1.00  0.00    -0.354 N 
ATOM     58  N   UNL     1       1.043   4.943  -7.912  1.00  0.00    -0.248 NA
ATOM     59  C   UNL     1       1.806   6.952  -7.004  1.00  0.00     0.031 C 
ATOM     60  C   UNL     1      -0.894   4.563 -11.871  1.00  0.00     0.029 A 
ATOM     61  C   UNL     1      -0.247   4.725 -10.658  1.00  0.00     0.049 A 
ATOM     62  H   UNL     1       0.339   3.260  -9.254  1.00  0.00     0.167 HD
ATOM     63  C   UNL     1       0.774   5.988  -8.800  1.00  0.00     0.074 A 
ATOM     64  C   UNL     1       1.226   7.205  -8.168  1.00  0.00     0.031 C 
ATOM     65  C   UNL     1       0.205   5.943 -10.032  1.00  0.00     0.034 A 
BRANCH  52  66
ATOM     66  C   UNL     1      -1.072   0.205 -11.898  1.00  0.00     0.023 A 
ATOM     67  C   UNL     1      -2.217  -0.596 -11.762  1.00  0.00     0.031 A 
ATOM     68  C   UNL     1      -0.406   0.205 -13.137  1.00  0.00     0.131 A 
ATOM     69  C   UNL     1      -2.638  -1.396 -12.835  1.00  0.00     0.055 A 
ATOM     70  C   UNL     1      -0.870  -0.538 -14.222  1.00  0.00     0.041 A 
ATOM     71  F   UNL     1       0.706   0.937 -13.314  1.00  0.00    -0.206 F 
ATOM     72  C   UNL     1      -1.989  -1.351 -14.072  1.00  0.00     0.022 A 
BRANCH  69  73
ATOM     73  S   UNL     1      -3.987  -2.576 -12.563  1.00  0.00     0.124 S 
ATOM     74  O   UNL     1      -3.438  -3.411 -11.498  1.00  0.00    -0.237 OA
ATOM     75  O   UNL     1      -5.096  -1.707 -12.187  1.00  0.00    -0.237 OA
ATOM     76  O   UNL     1      -4.127  -3.241 -13.857  1.00  0.00    -0.744 OA
ENDBRANCH  69  73
ENDBRANCH  52  66
BRANCH  53  77
ATOM     77  C   UNL     1       2.757   5.711  -4.542  1.00  0.00     0.023 A 
ATOM     78  C   UNL     1       2.081   6.795  -3.951  1.00  0.00     0.031 A 
ATOM     79  C   UNL     1       4.122   5.556  -4.237  1.00  0.00     0.131 A 
ATOM     80  C   UNL     1       2.784   7.717  -3.154  1.00  0.00     0.055 A 
ATOM     81  C   UNL     1       4.799   6.433  -3.385  1.00  0.00     0.041 A 
ATOM     82  F   UNL     1       4.832   4.558  -4.786  1.00  0.00    -0.206 F 
ATOM     83  C   UNL     1       4.135   7.533  -2.854  1.00  0.00     0.022 A 
BRANCH  80  84
ATOM     84  S   UNL     1       1.949   9.247  -2.640  1.00  0.00     0.124 S 
ATOM     85  O   UNL     1       1.544   9.807  -3.924  1.00  0.00    -0.237 OA
ATOM     86  O   UNL     1       0.876   8.737  -1.794  1.00  0.00    -0.237 OA
ATOM     87  O   UNL     1       2.996   9.987  -1.938  1.00  0.00    -0.744 OA
ENDBRANCH  80  84
ENDBRANCH  53  77
BRANCH  65  88
ATOM     88  C   UNL     1      -0.003   7.248 -10.769  1.00  0.00     0.023 A 
ATOM     89  C   UNL     1       1.077   8.024 -11.226  1.00  0.00     0.031 A 
ATOM     90  C   UNL     1      -1.305   7.711 -11.040  1.00  0.00     0.131 A 
ATOM     91  C   UNL     1       0.838   9.238 -11.892  1.00  0.00     0.055 A 
ATOM     92  C   UNL     1      -1.536   8.889 -11.754  1.00  0.00     0.041 A 
ATOM     93  F   UNL     1      -2.377   7.016 -10.628  1.00  0.00    -0.206 F 
ATOM     94  C   UNL     1      -0.462   9.665 -12.176  1.00  0.00     0.022 A 
BRANCH  91  95
ATOM     95  S   UNL     1       2.250  10.294 -12.323  1.00  0.00     0.124 S 
ATOM     96  O   UNL     1       2.842  10.559 -11.016  1.00  0.00    -0.237 OA
ATOM     97  O   UNL     1       3.025   9.434 -13.211  1.00  0.00    -0.237 OA
ATOM     98  O   UNL     1       1.631  11.450 -12.969  1.00  0.00    -0.744 OA
ENDBRANCH  91  95
ENDBRANCH  65  88
ENDBRANCH  39  40
ENDBRANCH  32  34
ENDBRANCH  31  32
ENDBRANCH  30  31
ENDBRANCH  29  30
ENDBRANCH  28  29
ENDBRANCH   1  28
TORSDOF 24
