REMARK SMILES CC(C)Oc1ccc(-c2ccc(/C(=C\c3ccc(S(C)(=O)=O)cc3)C(=O)OCCOCCOCCOC(=O)c3ccc(-c4c5nc(c(-c6cc(S(=O)(=O)[O-])ccc6F)c6ccc([nH]6)c(-c6cc(S(=O)(=O)[O-])ccc6F)c6nc(c(-c7cc(S(=O)(=O)[O-])ccc7F)c7ccc4[nH]7)C=C6)C=C5)cc3)cc2)cc1
REMARK SMILES IDX 31 1 30 2 29 3 28 4 27 5 25 6 26 7 13 8 14 9 12 10 9 11
REMARK SMILES IDX 10 12 103 13 11 14 102 15 8 16 5 17 6 18 105 19 7 20 104 21
REMARK SMILES IDX 4 22 2 23 1 24 3 25 15 26 16 27 24 28 17 29 23 30 18 31
REMARK SMILES IDX 19 32 20 33 21 34 22 35 32 36 33 37 34 38 35 39 36 40 37 41
REMARK SMILES IDX 38 42 39 43 40 44 101 45 41 46 100 47 42 48 43 49 44 50
REMARK SMILES IDX 94 51 45 52 99 53 93 54 95 55 46 56 98 57 92 58 91 59 47 61
REMARK SMILES IDX 79 62 59 63 78 64 60 65 63 66 77 67 96 68 61 69 62 70 76 72
REMARK SMILES IDX 97 73 64 74 48 75 49 76 57 77 50 78 56 79 58 80 55 81 51 82
REMARK SMILES IDX 52 83 53 84 54 85 80 86 81 87 89 88 82 89 88 90 90 91 87 92
REMARK SMILES IDX 83 93 84 94 85 95 86 96 65 97 66 98 74 99 67 100 73 101
REMARK SMILES IDX 75 102 72 103 68 104 69 105 70 106 71 107
REMARK H PARENT 95 60 63 71
REMARK Flexibility Score: inf
ROOT
ATOM      1  C   UNL     1      -6.334   7.841   3.990  1.00  0.00     0.188 C 
ENDROOT
BRANCH   1   2
ATOM      2  O   UNL     1      -7.209   8.921   3.766  1.00  0.00    -0.376 OA
BRANCH   2   3
ATOM      3  C   UNL     1      -8.602   8.710   3.659  1.00  0.00     0.202 C 
BRANCH   3   4
ATOM      4  C   UNL     1      -9.372   7.558   4.333  1.00  0.00     0.261 C 
BRANCH   4   5
ATOM      5  O   UNL     1      -8.604   6.534   4.966  1.00  0.00    -0.460 OA
BRANCH   5   6
ATOM      6  C   UNL     1      -8.544   5.324   4.345  1.00  0.00     0.338 C 
ATOM      7  O   UNL     1      -9.079   5.050   3.283  1.00  0.00    -0.246 OA
BRANCH   6   8
ATOM      8  C   UNL     1      -7.641   4.386   5.104  1.00  0.00     0.067 C 
ATOM      9  C   UNL     1      -7.793   4.416   6.454  1.00  0.00     0.024 C 
BRANCH   8  10
ATOM     10  C   UNL     1      -6.671   3.534   4.346  1.00  0.00    -0.011 A 
ATOM     11  C   UNL     1      -4.603   2.044   3.013  1.00  0.00    -0.018 A 
ATOM     12  C   UNL     1      -5.245   1.554   4.156  1.00  0.00     0.009 A 
ATOM     13  C   UNL     1      -5.055   3.272   2.518  1.00  0.00     0.009 A 
ATOM     14  C   UNL     1      -6.286   2.259   4.775  1.00  0.00     0.009 A 
ATOM     15  C   UNL     1      -6.063   4.004   3.172  1.00  0.00     0.009 A 
BRANCH  11  16
ATOM     16  C   UNL     1      -3.547   1.260   2.338  1.00  0.00    -0.018 A 
ATOM     17  C   UNL     1      -1.583  -0.283   0.988  1.00  0.00     0.119 A 
ATOM     18  C   UNL     1      -2.712  -0.890   1.530  1.00  0.00     0.047 A 
ATOM     19  C   UNL     1      -1.435   1.094   1.102  1.00  0.00     0.047 A 
ATOM     20  C   UNL     1      -3.676  -0.132   2.199  1.00  0.00     0.012 A 
ATOM     21  C   UNL     1      -2.402   1.854   1.781  1.00  0.00     0.012 A 
BRANCH  17  22
ATOM     22  O   UNL     1      -0.780  -1.097   0.249  1.00  0.00    -0.491 OA
BRANCH  22  23
ATOM     23  C   UNL     1       0.635  -1.121   0.478  1.00  0.00     0.167 C 
ATOM     24  C   UNL     1       1.385   0.039  -0.167  1.00  0.00     0.052 C 
ATOM     25  C   UNL     1       1.018  -1.354   1.937  1.00  0.00     0.052 C 
ENDBRANCH  22  23
ENDBRANCH  17  22
ENDBRANCH  11  16
ENDBRANCH   8  10
BRANCH   9  26
ATOM     26  C   UNL     1      -7.140   3.552   7.449  1.00  0.00    -0.025 A 
ATOM     27  C   UNL     1      -7.958   2.635   8.125  1.00  0.00     0.009 A 
ATOM     28  C   UNL     1      -5.750   3.498   7.621  1.00  0.00     0.009 A 
ATOM     29  C   UNL     1      -7.392   1.594   8.858  1.00  0.00     0.021 A 
ATOM     30  C   UNL     1      -5.175   2.447   8.347  1.00  0.00     0.021 A 
ATOM     31  C   UNL     1      -6.001   1.485   8.934  1.00  0.00     0.067 A 
BRANCH  31  32
ATOM     32  S   UNL     1      -5.307   0.003   9.630  1.00  0.00     0.175 S 
ATOM     33  C   UNL     1      -5.466   0.237  11.376  1.00  0.00     0.163 C 
ATOM     34  O   UNL     1      -6.181  -1.093   9.251  1.00  0.00    -0.224 OA
ATOM     35  O   UNL     1      -3.894  -0.027   9.312  1.00  0.00    -0.224 OA
ENDBRANCH  31  32
ENDBRANCH   9  26
ENDBRANCH   6   8
ENDBRANCH   5   6
ENDBRANCH   4   5
ENDBRANCH   3   4
ENDBRANCH   2   3
ENDBRANCH   1   2
BRANCH   1  36
ATOM     36  C   UNL     1      -5.939   7.648   5.470  1.00  0.00     0.188 C 
BRANCH  36  37
ATOM     37  O   UNL     1      -6.363   8.591   6.447  1.00  0.00    -0.376 OA
BRANCH  37  38
ATOM     38  C   UNL     1      -6.227   9.978   6.168  1.00  0.00     0.202 C 
BRANCH  38  39
ATOM     39  C   UNL     1      -4.855  10.543   5.771  1.00  0.00     0.261 C 
BRANCH  39  40
ATOM     40  O   UNL     1      -4.178   9.839   4.718  1.00  0.00    -0.460 OA
BRANCH  40  41
ATOM     41  C   UNL     1      -3.049   9.180   5.087  1.00  0.00     0.338 C 
ATOM     42  O   UNL     1      -2.553   9.138   6.201  1.00  0.00    -0.246 OA
BRANCH  41  43
ATOM     43  C   UNL     1      -2.575   8.350   3.961  1.00  0.00     0.060 A 
ATOM     44  C   UNL     1      -2.561   6.957   4.112  1.00  0.00     0.016 A 
ATOM     45  C   UNL     1      -2.110   8.938   2.784  1.00  0.00     0.016 A 
ATOM     46  C   UNL     1      -2.088   6.145   3.080  1.00  0.00     0.010 A 
ATOM     47  C   UNL     1      -1.608   8.124   1.763  1.00  0.00     0.010 A 
ATOM     48  C   UNL     1      -1.584   6.725   1.909  1.00  0.00    -0.014 A 
BRANCH  48  49
ATOM     49  C   UNL     1      -0.915   5.883   0.886  1.00  0.00     0.031 A 
ATOM     50  C   UNL     1       0.578   5.727   0.935  1.00  0.00     0.074 A 
ATOM     51  C   UNL     1      -1.628   5.267  -0.073  1.00  0.00     0.049 A 
ATOM     52  N   UNL     1       1.375   5.120   0.096  1.00  0.00    -0.248 NA
ATOM     53  C   UNL     1       1.259   6.346   2.081  1.00  0.00     0.031 C 
ATOM     54  C   UNL     1      -3.084   5.304  -0.189  1.00  0.00     0.029 A 
ATOM     55  N   UNL     1      -1.225   4.489  -1.130  1.00  0.00    -0.354 N 
ATOM     56  C   UNL     1       2.659   5.299   0.599  1.00  0.00     0.074 A 
ATOM     57  C   UNL     1       2.528   6.081   1.812  1.00  0.00     0.031 C 
ATOM     58  C   UNL     1      -3.454   4.573  -1.255  1.00  0.00     0.029 A 
ATOM     59  C   UNL     1      -2.260   4.076  -1.937  1.00  0.00     0.049 A 
ATOM     60  H   UNL     1      -0.285   4.250  -1.295  1.00  0.00     0.167 HD
ATOM     61  C   UNL     1       3.836   4.859   0.091  1.00  0.00     0.034 A 
ATOM     62  C   UNL     1      -2.242   3.415  -3.114  1.00  0.00     0.034 A 
ATOM     63  C   UNL     1       3.951   4.104  -1.133  1.00  0.00     0.049 A 
ATOM     64  C   UNL     1      -0.910   3.029  -3.715  1.00  0.00     0.074 A 
ATOM     65  C   UNL     1       5.093   3.599  -1.729  1.00  0.00     0.029 A 
ATOM     66  N   UNL     1       2.889   3.767  -1.963  1.00  0.00    -0.354 N 
ATOM     67  N   UNL     1       0.299   3.204  -3.230  1.00  0.00    -0.248 NA
ATOM     68  C   UNL     1      -0.938   2.376  -5.031  1.00  0.00     0.031 C 
ATOM     69  C   UNL     1       4.733   3.030  -2.955  1.00  0.00     0.029 A 
ATOM     70  C   UNL     1       3.355   3.103  -3.087  1.00  0.00     0.049 A 
ATOM     71  H   UNL     1       1.943   3.970  -1.780  1.00  0.00     0.167 HD
ATOM     72  C   UNL     1       1.170   2.667  -4.177  1.00  0.00     0.074 A 
ATOM     73  C   UNL     1       0.349   2.147  -5.249  1.00  0.00     0.031 C 
ATOM     74  C   UNL     1       2.526   2.608  -4.162  1.00  0.00     0.034 A 
BRANCH  61  75
ATOM     75  C   UNL     1       5.094   5.250   0.825  1.00  0.00     0.023 A 
ATOM     76  C   UNL     1       5.365   4.795   2.127  1.00  0.00     0.031 A 
ATOM     77  C   UNL     1       6.021   6.122   0.225  1.00  0.00     0.131 A 
ATOM     78  C   UNL     1       6.495   5.267   2.811  1.00  0.00     0.055 A 
ATOM     79  C   UNL     1       7.184   6.526   0.882  1.00  0.00     0.041 A 
ATOM     80  F   UNL     1       5.803   6.608  -1.007  1.00  0.00    -0.206 F 
ATOM     81  C   UNL     1       7.420   6.109   2.189  1.00  0.00     0.022 A 
BRANCH  78  82
ATOM     82  S   UNL     1       6.665   4.877   4.574  1.00  0.00     0.124 S 
ATOM     83  O   UNL     1       5.430   5.436   5.120  1.00  0.00    -0.237 OA
ATOM     84  O   UNL     1       6.760   3.422   4.567  1.00  0.00    -0.237 OA
ATOM     85  O   UNL     1       7.884   5.582   4.965  1.00  0.00    -0.744 OA
ENDBRANCH  78  82
ENDBRANCH  61  75
BRANCH  62  86
ATOM     86  C   UNL     1      -3.510   3.149  -3.857  1.00  0.00     0.023 A 
ATOM     87  C   UNL     1      -3.925   1.840  -4.150  1.00  0.00     0.031 A 
ATOM     88  C   UNL     1      -4.293   4.211  -4.348  1.00  0.00     0.131 A 
ATOM     89  C   UNL     1      -5.061   1.627  -4.948  1.00  0.00     0.055 A 
ATOM     90  C   UNL     1      -5.456   3.994  -5.088  1.00  0.00     0.041 A 
ATOM     91  F   UNL     1      -3.936   5.484  -4.112  1.00  0.00    -0.206 F 
ATOM     92  C   UNL     1      -5.839   2.695  -5.403  1.00  0.00     0.022 A 
BRANCH  89  93
ATOM     93  S   UNL     1      -5.456  -0.064  -5.476  1.00  0.00     0.124 S 
ATOM     94  O   UNL     1      -4.241  -0.443  -6.188  1.00  0.00    -0.237 OA
ATOM     95  O   UNL     1      -5.693  -0.735  -4.202  1.00  0.00    -0.237 OA
ATOM     96  O   UNL     1      -6.641   0.110  -6.314  1.00  0.00    -0.744 OA
ENDBRANCH  89  93
ENDBRANCH  62  86
BRANCH  74  97
ATOM     97  C   UNL     1       3.204   1.931  -5.329  1.00  0.00     0.023 A 
ATOM     98  C   UNL     1       3.198   2.493  -6.618  1.00  0.00     0.031 A 
ATOM     99  C   UNL     1       3.877   0.710  -5.143  1.00  0.00     0.131 A 
ATOM    100  C   UNL     1       3.819   1.815  -7.679  1.00  0.00     0.055 A 
ATOM    101  C   UNL     1       4.540   0.068  -6.190  1.00  0.00     0.041 A 
ATOM    102  F   UNL     1       3.914   0.128  -3.933  1.00  0.00    -0.206 F 
ATOM    103  C   UNL     1       4.505   0.616  -7.469  1.00  0.00     0.022 A 
BRANCH 100 104
ATOM    104  S   UNL     1       3.665   2.487  -9.357  1.00  0.00     0.124 S 
ATOM    105  O   UNL     1       2.221   2.467  -9.562  1.00  0.00    -0.237 OA
ATOM    106  O   UNL     1       4.272   3.808  -9.223  1.00  0.00    -0.237 OA
ATOM    107  O   UNL     1       4.421   1.541 -10.177  1.00  0.00    -0.744 OA
ENDBRANCH 100 104
ENDBRANCH  74  97
ENDBRANCH  48  49
ENDBRANCH  41  43
ENDBRANCH  40  41
ENDBRANCH  39  40
ENDBRANCH  38  39
ENDBRANCH  37  38
ENDBRANCH  36  37
ENDBRANCH   1  36
TORSDOF 26
