REMARK SMILES C[C@@H]1CC[C@H](C)[N@H+]1Cc1cc2c(cc1Cl)C=C(C(=O)OCCOCCOCCOC(=O)c1ccc(-c3c4nc(c(-c5cc(S(=O)(=O)[O-])ccc5F)c5ccc([nH]5)c(-c5cc(S(=O)(=O)[O-])ccc5F)c5nc(c(-c6cc(S(=O)(=O)[O-])ccc6F)c6ccc3[nH]6)C=C5)C=C4)cc1)[C@@H](C(F)(F)F)O2
REMARK SMILES IDX 25 1 24 2 23 3 22 4 21 5 20 6 18 7 19 8 17 9 9 10 10 11
REMARK SMILES IDX 14 12 11 13 13 14 15 15 12 16 100 17 16 18 95 19 8 20 7 21
REMARK SMILES IDX 6 22 5 23 4 24 3 25 2 26 1 28 96 29 97 30 98 31 99 32 26 33
REMARK SMILES IDX 27 34 28 35 29 36 30 37 31 38 32 39 33 40 94 41 34 42 93 43
REMARK SMILES IDX 35 44 36 45 37 46 87 47 38 48 92 49 86 50 88 51 39 52 91 53
REMARK SMILES IDX 85 54 84 55 40 57 72 58 52 59 71 60 53 61 56 62 70 63 89 64
REMARK SMILES IDX 54 65 55 66 69 68 90 69 57 70 41 71 42 72 50 73 43 74 49 75
REMARK SMILES IDX 51 76 48 77 44 78 45 79 46 80 47 81 73 82 74 83 82 84 75 85
REMARK SMILES IDX 81 86 83 87 80 88 76 89 77 90 78 91 79 92 58 93 59 94 67 95
REMARK SMILES IDX 60 96 66 97 68 98 65 99 61 100 62 101 63 102 64 103
REMARK H PARENT 7 27 88 56 56 67
REMARK Flexibility Score: inf
ROOT
ATOM      1  C   UNL     1      -7.614   1.370   0.688  1.00  0.00     0.188 C 
ENDROOT
BRANCH   1   2
ATOM      2  C   UNL     1      -8.515   2.622   0.631  1.00  0.00     0.188 C 
BRANCH   2   3
ATOM      3  O   UNL     1      -9.885   2.306   0.466  1.00  0.00    -0.376 OA
BRANCH   3   4
ATOM      4  C   UNL     1     -10.494   2.647  -0.767  1.00  0.00     0.202 C 
BRANCH   4   5
ATOM      5  C   UNL     1      -9.941   2.033  -2.066  1.00  0.00     0.261 C 
BRANCH   5   6
ATOM      6  O   UNL     1      -8.515   1.877  -2.128  1.00  0.00    -0.460 OA
BRANCH   6   7
ATOM      7  C   UNL     1      -7.815   2.909  -2.644  1.00  0.00     0.338 C 
ATOM      8  O   UNL     1      -8.279   3.948  -3.080  1.00  0.00    -0.246 OA
BRANCH   7   9
ATOM      9  C   UNL     1      -6.368   2.643  -2.489  1.00  0.00     0.087 C 
ATOM     10  C   UNL     1      -1.374   3.110  -1.950  1.00  0.00     0.029 A 
ATOM     11  C   UNL     1      -2.251   2.015  -2.133  1.00  0.00     0.058 A 
ATOM     12  C   UNL     1      -1.949   4.388  -1.842  1.00  0.00     0.050 A 
ATOM     13  C   UNL     1      -3.640   2.193  -2.193  1.00  0.00     0.128 A 
ATOM     14  C   UNL     1      -3.338   4.549  -1.800  1.00  0.00     0.033 A 
ATOM     15  Cl  UNL     1      -1.031   5.850  -1.909  1.00  0.00    -0.084 Cl
ATOM     16  C   UNL     1      -4.184   3.459  -1.991  1.00  0.00     0.019 A 
ATOM     17  O   UNL     1      -4.404   1.088  -2.452  1.00  0.00    -0.475 OA
ATOM     18  C   UNL     1      -5.620   3.662  -2.053  1.00  0.00     0.027 C 
ATOM     19  C   UNL     1      -5.800   1.290  -2.834  1.00  0.00     0.316 C 
BRANCH  10  20
ATOM     20  C   UNL     1       0.128   2.864  -1.942  1.00  0.00     0.301 C 
BRANCH  20  21
ATOM     21  N   UNL     1       0.791   2.654  -0.648  1.00  0.00    -0.327 N 
ATOM     22  C   UNL     1       1.048   0.240  -0.173  1.00  0.00     0.075 C 
ATOM     23  C   UNL     1       0.321   1.533   0.173  1.00  0.00     0.181 C 
ATOM     24  C   UNL     1       0.607   1.962   1.611  1.00  0.00     0.071 C 
ATOM     25  C   UNL     1       0.395   3.459   1.558  1.00  0.00     0.071 C 
ATOM     26  C   UNL     1       0.958   3.845   0.196  1.00  0.00     0.181 C 
ATOM     27  H   UNL     1       1.710   2.389  -1.002  1.00  0.00     0.348 HD
ATOM     28  C   UNL     1       2.442   4.208   0.267  1.00  0.00     0.075 C 
ENDBRANCH  20  21
ENDBRANCH  10  20
BRANCH  19  29
ATOM     29  C   UNL     1      -5.990   0.967  -4.323  1.00  0.00     0.430 C 
ATOM     30  F   UNL     1      -5.468  -0.242  -4.642  1.00  0.00    -0.167 F 
ATOM     31  F   UNL     1      -7.304   0.917  -4.653  1.00  0.00    -0.167 F 
ATOM     32  F   UNL     1      -5.408   1.884  -5.127  1.00  0.00    -0.167 F 
ENDBRANCH  19  29
ENDBRANCH   7   9
ENDBRANCH   6   7
ENDBRANCH   5   6
ENDBRANCH   4   5
ENDBRANCH   3   4
ENDBRANCH   2   3
ENDBRANCH   1   2
BRANCH   1  33
ATOM     33  O   UNL     1      -8.197   0.073   0.610  1.00  0.00    -0.376 OA
BRANCH  33  34
ATOM     34  C   UNL     1      -9.334  -0.222   1.415  1.00  0.00     0.202 C 
BRANCH  34  35
ATOM     35  C   UNL     1      -9.260  -0.017   2.936  1.00  0.00     0.261 C 
BRANCH  35  36
ATOM     36  O   UNL     1      -8.794   1.275   3.357  1.00  0.00    -0.460 OA
BRANCH  36  37
ATOM     37  C   UNL     1      -7.568   1.293   3.940  1.00  0.00     0.338 C 
ATOM     38  O   UNL     1      -6.841   0.334   4.148  1.00  0.00    -0.246 OA
BRANCH  37  39
ATOM     39  C   UNL     1      -7.130   2.694   4.114  1.00  0.00     0.060 A 
ATOM     40  C   UNL     1      -7.920   3.618   4.799  1.00  0.00     0.016 A 
ATOM     41  C   UNL     1      -5.891   3.080   3.582  1.00  0.00     0.016 A 
ATOM     42  C   UNL     1      -7.455   4.925   4.970  1.00  0.00     0.010 A 
ATOM     43  C   UNL     1      -5.434   4.390   3.743  1.00  0.00     0.010 A 
ATOM     44  C   UNL     1      -6.206   5.319   4.454  1.00  0.00    -0.014 A 
BRANCH  44  45
ATOM     45  C   UNL     1      -5.652   6.651   4.805  1.00  0.00     0.031 A 
ATOM     46  C   UNL     1      -5.693   7.804   3.848  1.00  0.00     0.074 A 
ATOM     47  C   UNL     1      -5.113   6.808   6.030  1.00  0.00     0.049 A 
ATOM     48  N   UNL     1      -5.389   9.057   4.067  1.00  0.00    -0.248 NA
ATOM     49  C   UNL     1      -6.122   7.520   2.470  1.00  0.00     0.031 C 
ATOM     50  C   UNL     1      -4.981   5.739   7.021  1.00  0.00     0.029 A 
ATOM     51  N   UNL     1      -4.595   7.913   6.657  1.00  0.00    -0.354 N 
ATOM     52  C   UNL     1      -5.618   9.722   2.869  1.00  0.00     0.074 A 
ATOM     53  C   UNL     1      -6.034   8.721   1.909  1.00  0.00     0.031 C 
ATOM     54  C   UNL     1      -4.452   6.247   8.144  1.00  0.00     0.029 A 
ATOM     55  C   UNL     1      -4.189   7.672   7.950  1.00  0.00     0.049 A 
ATOM     56  H   UNL     1      -4.519   8.793   6.224  1.00  0.00     0.167 HD
ATOM     57  C   UNL     1      -5.511  11.048   2.611  1.00  0.00     0.034 A 
ATOM     58  C   UNL     1      -3.686   8.505   8.884  1.00  0.00     0.034 A 
ATOM     59  C   UNL     1      -5.083  12.026   3.583  1.00  0.00     0.049 A 
ATOM     60  C   UNL     1      -3.567   9.974   8.563  1.00  0.00     0.074 A 
ATOM     61  C   UNL     1      -4.986  13.399   3.425  1.00  0.00     0.029 A 
ATOM     62  N   UNL     1      -4.678  11.748   4.880  1.00  0.00    -0.354 N 
ATOM     63  N   UNL     1      -3.911  10.608   7.467  1.00  0.00    -0.248 NA
ATOM     64  C   UNL     1      -3.019  10.847   9.611  1.00  0.00     0.031 C 
ATOM     65  C   UNL     1      -4.460  13.940   4.598  1.00  0.00     0.029 A 
ATOM     66  C   UNL     1      -4.306  12.919   5.522  1.00  0.00     0.049 A 
ATOM     67  H   UNL     1      -4.657  10.851   5.286  1.00  0.00     0.167 HD
ATOM     68  C   UNL     1      -3.665  11.957   7.711  1.00  0.00     0.074 A 
ATOM     69  C   UNL     1      -3.158  12.048   9.064  1.00  0.00     0.031 C 
ATOM     70  C   UNL     1      -3.842  13.018   6.885  1.00  0.00     0.034 A 
BRANCH  57  71
ATOM     71  C   UNL     1      -5.900  11.567   1.248  1.00  0.00     0.023 A 
ATOM     72  C   UNL     1      -4.952  12.231   0.446  1.00  0.00     0.031 A 
ATOM     73  C   UNL     1      -7.245  11.583   0.840  1.00  0.00     0.131 A 
ATOM     74  C   UNL     1      -5.373  12.931  -0.693  1.00  0.00     0.055 A 
ATOM     75  C   UNL     1      -7.653  12.246  -0.318  1.00  0.00     0.041 A 
ATOM     76  F   UNL     1      -8.188  10.970   1.575  1.00  0.00    -0.206 F 
ATOM     77  C   UNL     1      -6.717  12.939  -1.081  1.00  0.00     0.022 A 
BRANCH  74  78
ATOM     78  S   UNL     1      -4.210  13.928  -1.665  1.00  0.00     0.124 S 
ATOM     79  O   UNL     1      -4.370  13.357  -3.001  1.00  0.00    -0.237 OA
ATOM     80  O   UNL     1      -4.747  15.275  -1.494  1.00  0.00    -0.237 OA
ATOM     81  O   UNL     1      -2.920  13.677  -1.033  1.00  0.00    -0.744 OA
ENDBRANCH  74  78
ENDBRANCH  57  71
BRANCH  58  82
ATOM     82  C   UNL     1      -3.354   7.971  10.238  1.00  0.00     0.023 A 
ATOM     83  C   UNL     1      -2.375   6.976  10.408  1.00  0.00     0.031 A 
ATOM     84  C   UNL     1      -4.073   8.390  11.372  1.00  0.00     0.131 A 
ATOM     85  C   UNL     1      -2.179   6.398  11.669  1.00  0.00     0.055 A 
ATOM     86  C   UNL     1      -3.824   7.862  12.639  1.00  0.00     0.041 A 
ATOM     87  F   UNL     1      -5.032   9.322  11.258  1.00  0.00    -0.206 F 
ATOM     88  C   UNL     1      -2.883   6.849  12.790  1.00  0.00     0.022 A 
BRANCH  85  89
ATOM     89  S   UNL     1      -1.098   4.955  11.872  1.00  0.00     0.124 S 
ATOM     90  O   UNL     1      -0.053   5.479  12.745  1.00  0.00    -0.237 OA
ATOM     91  O   UNL     1      -2.004   3.985  12.482  1.00  0.00    -0.237 OA
ATOM     92  O   UNL     1      -0.685   4.641  10.508  1.00  0.00    -0.744 OA
ENDBRANCH  85  89
ENDBRANCH  58  82
BRANCH  70  93
ATOM     93  C   UNL     1      -3.532  14.406   7.398  1.00  0.00     0.023 A 
ATOM     94  C   UNL     1      -4.553  15.377   7.446  1.00  0.00     0.031 A 
ATOM     95  C   UNL     1      -2.217  14.814   7.678  1.00  0.00     0.131 A 
ATOM     96  C   UNL     1      -4.235  16.713   7.721  1.00  0.00     0.055 A 
ATOM     97  C   UNL     1      -1.913  16.137   8.003  1.00  0.00     0.041 A 
ATOM     98  F   UNL     1      -1.205  13.932   7.632  1.00  0.00    -0.206 F 
ATOM     99  C   UNL     1      -2.922  17.096   8.009  1.00  0.00     0.022 A 
BRANCH  96 100
ATOM    100  S   UNL     1      -5.493  18.017   7.617  1.00  0.00     0.124 S 
ATOM    101  O   UNL     1      -5.500  18.539   8.981  1.00  0.00    -0.237 OA
ATOM    102  O   UNL     1      -4.926  18.911   6.611  1.00  0.00    -0.237 OA
ATOM    103  O   UNL     1      -6.704  17.308   7.216  1.00  0.00    -0.744 OA
ENDBRANCH  96 100
ENDBRANCH  70  93
ENDBRANCH  44  45
ENDBRANCH  37  39
ENDBRANCH  36  37
ENDBRANCH  35  36
ENDBRANCH  34  35
ENDBRANCH  33  34
ENDBRANCH   1  33
TORSDOF 23
