REMARK SMILES C[C@H](Nc1ccc2c(c1)Cc1ccccc1-2)[C@@H](C)C(=O)OCCOCCOCCOC(=O)c1ccc(-c2c3nc(c(-c4cc(S(=O)(=O)[O-])ccc4F)c4ccc([nH]4)c(-c4cc(S(=O)(=O)[O-])ccc4F)c4nc(c(-c5cc(S(=O)(=O)[O-])ccc5F)c5ccc2[nH]5)C=C4)C=C3)cc1
REMARK SMILES IDX 25 1 24 2 23 3 22 4 21 5 19 6 20 7 17 8 18 9 2 10 1 11 3 12
REMARK SMILES IDX 4 14 5 15 9 16 6 17 8 18 7 19 10 20 16 21 11 22 15 23 12 24
REMARK SMILES IDX 14 25 13 26 26 27 27 28 28 29 29 30 30 31 31 32 32 33 33 34
REMARK SMILES IDX 34 35 95 36 35 37 94 38 36 39 37 40 38 41 88 42 39 43 93 44
REMARK SMILES IDX 87 45 89 46 40 47 92 48 86 49 85 50 41 52 73 53 53 54 72 55
REMARK SMILES IDX 54 56 57 57 71 58 90 59 55 60 56 61 70 63 91 64 58 65 42 66
REMARK SMILES IDX 43 67 51 68 44 69 50 70 52 71 49 72 45 73 46 74 47 75 48 76
REMARK SMILES IDX 74 77 75 78 83 79 76 80 82 81 84 82 81 83 77 84 78 85 79 86
REMARK SMILES IDX 80 87 59 88 60 89 68 90 61 91 67 92 69 93 66 94 62 95 63 96
REMARK SMILES IDX 64 97 65 98
REMARK H PARENT 3 13 89 51 57 62
REMARK Flexibility Score: inf
ROOT
ATOM      1  C   UNL     1      -1.962  -0.282   4.796  1.00  0.00     0.188 C 
ENDROOT
BRANCH   1   2
ATOM      2  O   UNL     1      -2.832  -1.352   5.135  1.00  0.00    -0.376 OA
BRANCH   2   3
ATOM      3  C   UNL     1      -2.319  -2.659   4.914  1.00  0.00     0.202 C 
BRANCH   3   4
ATOM      4  C   UNL     1      -2.131  -3.114   3.455  1.00  0.00     0.261 C 
BRANCH   4   5
ATOM      5  O   UNL     1      -1.284  -2.304   2.602  1.00  0.00    -0.463 OA
BRANCH   5   6
ATOM      6  C   UNL     1      -1.950  -1.552   1.684  1.00  0.00     0.310 C 
ATOM      7  O   UNL     1      -3.175  -1.450   1.654  1.00  0.00    -0.252 OA
BRANCH   6   8
ATOM      8  C   UNL     1      -1.093  -0.915   0.593  1.00  0.00     0.118 C 
ATOM      9  C   UNL     1      -1.336  -1.764  -0.663  1.00  0.00     0.022 C 
BRANCH   8  10
ATOM     10  C   UNL     1       0.415  -0.659   0.881  1.00  0.00     0.090 C 
ATOM     11  C   UNL     1       0.581   0.404   1.975  1.00  0.00     0.031 C 
BRANCH  10  12
ATOM     12  N   UNL     1       1.063  -0.162  -0.355  1.00  0.00    -0.382 N 
ATOM     13  H   UNL     1       0.600  -0.318  -1.210  1.00  0.00     0.160 HD
BRANCH  12  14
ATOM     14  C   UNL     1       2.282   0.510  -0.395  1.00  0.00     0.035 A 
ATOM     15  C   UNL     1       3.419   0.095   0.322  1.00  0.00     0.026 A 
ATOM     16  C   UNL     1       2.342   1.715  -1.114  1.00  0.00     0.030 A 
ATOM     17  C   UNL     1       4.610   0.847   0.316  1.00  0.00     0.011 A 
ATOM     18  C   UNL     1       3.507   2.465  -1.096  1.00  0.00    -0.034 A 
ATOM     19  C   UNL     1       4.649   2.033  -0.398  1.00  0.00    -0.014 A 
ATOM     20  C   UNL     1       3.756   3.810  -1.746  1.00  0.00     0.072 C 
ATOM     21  C   UNL     1       5.704   3.010  -0.591  1.00  0.00    -0.015 A 
ATOM     22  C   UNL     1       5.206   4.060  -1.396  1.00  0.00    -0.036 A 
ATOM     23  C   UNL     1       7.013   3.042  -0.141  1.00  0.00     0.009 A 
ATOM     24  C   UNL     1       5.995   5.140  -1.760  1.00  0.00     0.005 A 
ATOM     25  C   UNL     1       7.820   4.127  -0.510  1.00  0.00     0.001 A 
ATOM     26  C   UNL     1       7.315   5.164  -1.313  1.00  0.00     0.000 A 
ENDBRANCH  12  14
ENDBRANCH  10  12
ENDBRANCH   8  10
ENDBRANCH   6   8
ENDBRANCH   5   6
ENDBRANCH   4   5
ENDBRANCH   3   4
ENDBRANCH   2   3
ENDBRANCH   1   2
BRANCH   1  27
ATOM     27  C   UNL     1      -0.592  -0.307   5.472  1.00  0.00     0.188 C 
BRANCH  27  28
ATOM     28  O   UNL     1       0.243  -1.384   5.074  1.00  0.00    -0.376 OA
BRANCH  28  29
ATOM     29  C   UNL     1       1.430  -1.632   5.832  1.00  0.00     0.202 C 
BRANCH  29  30
ATOM     30  C   UNL     1       1.875  -0.739   7.015  1.00  0.00     0.261 C 
BRANCH  30  31
ATOM     31  O   UNL     1       1.522   0.651   6.958  1.00  0.00    -0.460 OA
BRANCH  31  32
ATOM     32  C   UNL     1       2.078   1.385   5.964  1.00  0.00     0.338 C 
ATOM     33  O   UNL     1       2.958   1.006   5.209  1.00  0.00    -0.246 OA
BRANCH  32  34
ATOM     34  C   UNL     1       1.254   2.618   5.778  1.00  0.00     0.060 A 
ATOM     35  C   UNL     1       0.995   3.036   4.467  1.00  0.00     0.016 A 
ATOM     36  C   UNL     1       0.658   3.300   6.846  1.00  0.00     0.016 A 
ATOM     37  C   UNL     1       0.173   4.140   4.217  1.00  0.00     0.010 A 
ATOM     38  C   UNL     1      -0.145   4.425   6.596  1.00  0.00     0.010 A 
ATOM     39  C   UNL     1      -0.370   4.871   5.280  1.00  0.00    -0.014 A 
BRANCH  39  40
ATOM     40  C   UNL     1      -0.966   6.213   5.021  1.00  0.00     0.031 A 
ATOM     41  C   UNL     1      -0.097   7.426   5.241  1.00  0.00     0.074 A 
ATOM     42  C   UNL     1      -2.217   6.373   4.548  1.00  0.00     0.049 A 
ATOM     43  N   UNL     1      -0.394   8.696   5.149  1.00  0.00    -0.248 NA
ATOM     44  C   UNL     1       1.300   7.159   5.617  1.00  0.00     0.031 C 
ATOM     45  C   UNL     1      -3.140   5.293   4.208  1.00  0.00     0.029 A 
ATOM     46  N   UNL     1      -2.927   7.519   4.269  1.00  0.00    -0.354 N 
ATOM     47  C   UNL     1       0.775   9.382   5.465  1.00  0.00     0.074 A 
ATOM     48  C   UNL     1       1.774   8.383   5.783  1.00  0.00     0.031 C 
ATOM     49  C   UNL     1      -4.297   5.827   3.775  1.00  0.00     0.029 A 
ATOM     50  C   UNL     1      -4.218   7.287   3.851  1.00  0.00     0.049 A 
ATOM     51  H   UNL     1      -2.546   8.423   4.360  1.00  0.00     0.167 HD
ATOM     52  C   UNL     1       1.001  10.719   5.484  1.00  0.00     0.034 A 
ATOM     53  C   UNL     1      -5.229   8.147   3.593  1.00  0.00     0.034 A 
ATOM     54  C   UNL     1       0.000  11.710   5.172  1.00  0.00     0.049 A 
ATOM     55  C   UNL     1      -4.990   9.636   3.735  1.00  0.00     0.074 A 
ATOM     56  C   UNL     1       0.129  13.088   5.165  1.00  0.00     0.029 A 
ATOM     57  N   UNL     1      -1.316  11.434   4.825  1.00  0.00    -0.354 N 
ATOM     58  N   UNL     1      -3.887  10.272   4.058  1.00  0.00    -0.248 NA
ATOM     59  C   UNL     1      -6.135  10.522   3.476  1.00  0.00     0.031 C 
ATOM     60  C   UNL     1      -1.126  13.646   4.897  1.00  0.00     0.029 A 
ATOM     61  C   UNL     1      -2.018  12.617   4.642  1.00  0.00     0.049 A 
ATOM     62  H   UNL     1      -1.696  10.532   4.724  1.00  0.00     0.167 HD
ATOM     63  C   UNL     1      -4.200  11.631   4.004  1.00  0.00     0.074 A 
ATOM     64  C   UNL     1      -5.588  11.722   3.608  1.00  0.00     0.031 C 
ATOM     65  C   UNL     1      -3.407  12.705   4.253  1.00  0.00     0.034 A 
BRANCH  52  66
ATOM     66  C   UNL     1       2.369  11.183   5.926  1.00  0.00     0.023 A 
ATOM     67  C   UNL     1       3.532  10.879   5.198  1.00  0.00     0.031 A 
ATOM     68  C   UNL     1       2.511  11.912   7.120  1.00  0.00     0.131 A 
ATOM     69  C   UNL     1       4.790  11.238   5.708  1.00  0.00     0.055 A 
ATOM     70  C   UNL     1       3.758  12.342   7.578  1.00  0.00     0.041 A 
ATOM     71  F   UNL     1       1.440  12.209   7.872  1.00  0.00    -0.206 F 
ATOM     72  C   UNL     1       4.909  11.991   6.879  1.00  0.00     0.022 A 
BRANCH  69  73
ATOM     73  S   UNL     1       6.274  10.573   4.905  1.00  0.00     0.124 S 
ATOM     74  O   UNL     1       6.041   9.134   5.001  1.00  0.00    -0.237 OA
ATOM     75  O   UNL     1       6.194  11.147   3.568  1.00  0.00    -0.237 OA
ATOM     76  O   UNL     1       7.367  11.075   5.736  1.00  0.00    -0.744 OA
ENDBRANCH  69  73
ENDBRANCH  52  66
BRANCH  53  77
ATOM     77  C   UNL     1      -6.590   7.639   3.237  1.00  0.00     0.023 A 
ATOM     78  C   UNL     1      -7.199   7.961   2.013  1.00  0.00     0.031 A 
ATOM     79  C   UNL     1      -7.338   6.887   4.162  1.00  0.00     0.131 A 
ATOM     80  C   UNL     1      -8.527   7.573   1.765  1.00  0.00     0.055 A 
ATOM     81  C   UNL     1      -8.636   6.452   3.887  1.00  0.00     0.041 A 
ATOM     82  F   UNL     1      -6.815   6.565   5.356  1.00  0.00    -0.206 F 
ATOM     83  C   UNL     1      -9.243   6.807   2.687  1.00  0.00     0.022 A 
BRANCH  80  84
ATOM     84  S   UNL     1      -9.346   8.170   0.259  1.00  0.00     0.124 S 
ATOM     85  O   UNL     1      -9.256   9.616   0.427  1.00  0.00    -0.237 OA
ATOM     86  O   UNL     1      -8.512   7.593  -0.789  1.00  0.00    -0.237 OA
ATOM     87  O   UNL     1     -10.693   7.612   0.359  1.00  0.00    -0.744 OA
ENDBRANCH  80  84
ENDBRANCH  53  77
BRANCH  65  88
ATOM     88  C   UNL     1      -4.005  14.080   4.046  1.00  0.00     0.023 A 
ATOM     89  C   UNL     1      -5.053  14.568   4.846  1.00  0.00     0.031 A 
ATOM     90  C   UNL     1      -3.511  14.916   3.027  1.00  0.00     0.131 A 
ATOM     91  C   UNL     1      -5.607  15.831   4.581  1.00  0.00     0.055 A 
ATOM     92  C   UNL     1      -4.022  16.197   2.810  1.00  0.00     0.041 A 
ATOM     93  F   UNL     1      -2.514  14.504   2.228  1.00  0.00    -0.206 F 
ATOM     94  C   UNL     1      -5.086  16.656   3.581  1.00  0.00     0.022 A 
BRANCH  91  95
ATOM     95  S   UNL     1      -7.084  16.349   5.499  1.00  0.00     0.124 S 
ATOM     96  O   UNL     1      -8.027  15.280   5.186  1.00  0.00    -0.237 OA
ATOM     97  O   UNL     1      -6.599  16.389   6.875  1.00  0.00    -0.237 OA
ATOM     98  O   UNL     1      -7.410  17.652   4.920  1.00  0.00    -0.744 OA
ENDBRANCH  91  95
ENDBRANCH  65  88
ENDBRANCH  39  40
ENDBRANCH  32  34
ENDBRANCH  31  32
ENDBRANCH  30  31
ENDBRANCH  29  30
ENDBRANCH  28  29
ENDBRANCH  27  28
ENDBRANCH   1  27
TORSDOF 23
