REMARK SMILES NS(=O)(=O)c1ccc(-n2nc(C(=O)NCCCC(=O)OCCOCCOCCOC(=O)c3ccc(-c4c5nc(c(-c6cc(S(=O)(=O)[O-])ccc6F)c6ccc([nH]6)c(-c6cc(S(=O)(=O)[O-])ccc6F)c6nc(c(-c7cc(S(=O)(=O)[O-])ccc7F)c7ccc4[nH]7)C=C6)C=C5)cc3)cc2-c2ccccc2)cc1
REMARK SMILES IDX 22 1 21 2 20 3 18 4 19 5 17 6 16 7 15 8 14 9 12 10 13 11
REMARK SMILES IDX 11 13 9 14 10 15 96 16 95 17 8 18 5 19 6 20 104 21 7 22
REMARK SMILES IDX 103 23 2 24 3 25 4 26 1 27 97 30 98 31 102 32 99 33 101 34
REMARK SMILES IDX 100 35 23 36 24 37 25 38 26 39 27 40 28 41 29 42 30 43 31 44
REMARK SMILES IDX 32 45 33 46 94 47 34 48 93 49 35 50 36 51 37 52 87 53 38 54
REMARK SMILES IDX 92 55 86 56 88 57 39 58 91 59 85 60 84 61 40 63 72 64 52 65
REMARK SMILES IDX 71 66 53 67 56 68 70 69 89 70 54 71 55 72 69 74 90 75 57 76
REMARK SMILES IDX 41 77 42 78 50 79 43 80 49 81 51 82 48 83 44 84 45 85 46 86
REMARK SMILES IDX 47 87 73 88 74 89 82 90 75 91 81 92 83 93 80 94 76 95 77 96
REMARK SMILES IDX 78 97 79 98 58 99 59 100 67 101 60 102 66 103 68 104 65 105
REMARK SMILES IDX 61 106 62 107 63 108 64 109
REMARK H PARENT 14 12 1 28 1 29 88 62 56 73
REMARK Flexibility Score: inf
ROOT
ATOM      1  C   UNL     1       2.801 -15.532   3.349  1.00  0.00     0.202 C 
ENDROOT
BRANCH   1   2
ATOM      2  C   UNL     1       2.257 -14.828   4.601  1.00  0.00     0.261 C 
BRANCH   2   3
ATOM      3  O   UNL     1       2.927 -13.589   4.900  1.00  0.00    -0.463 OA
BRANCH   3   4
ATOM      4  C   UNL     1       3.630 -13.513   6.053  1.00  0.00     0.305 C 
ATOM      5  O   UNL     1       3.643 -14.378   6.921  1.00  0.00    -0.252 OA
BRANCH   4   6
ATOM      6  C   UNL     1       4.455 -12.242   6.183  1.00  0.00     0.124 C 
BRANCH   6   7
ATOM      7  C   UNL     1       4.487 -11.236   5.032  1.00  0.00     0.033 C 
BRANCH   7   8
ATOM      8  C   UNL     1       3.144 -10.655   4.604  1.00  0.00     0.117 C 
BRANCH   8   9
ATOM      9  N   UNL     1       2.596  -9.747   5.587  1.00  0.00    -0.351 N 
ATOM     10  C   UNL     1       2.232  -8.421   5.562  1.00  0.00     0.271 C 
ATOM     11  O   UNL     1       1.786  -7.994   6.633  1.00  0.00    -0.267 OA
ATOM     12  H   UNL     1       2.454 -10.169   6.465  1.00  0.00     0.163 HD
BRANCH  10  13
ATOM     13  C   UNL     1       2.321  -7.562   4.356  1.00  0.00     0.151 A 
ATOM     14  N   UNL     1       2.015  -5.765   3.203  1.00  0.00    -0.232 N 
ATOM     15  N   UNL     1       2.039  -6.243   4.467  1.00  0.00    -0.162 NA
ATOM     16  C   UNL     1       2.515  -6.677   2.296  1.00  0.00     0.075 A 
ATOM     17  C   UNL     1       2.663  -7.846   3.011  1.00  0.00     0.065 A 
BRANCH  14  18
ATOM     18  C   UNL     1       1.512  -4.468   2.929  1.00  0.00     0.065 A 
ATOM     19  C   UNL     1       0.755  -1.888   2.245  1.00  0.00     0.082 A 
ATOM     20  C   UNL     1       0.373  -2.953   1.426  1.00  0.00     0.024 A 
ATOM     21  C   UNL     1       1.460  -2.108   3.434  1.00  0.00     0.024 A 
ATOM     22  C   UNL     1       0.764  -4.245   1.764  1.00  0.00     0.030 A 
ATOM     23  C   UNL     1       1.816  -3.411   3.795  1.00  0.00     0.030 A 
BRANCH  19  24
ATOM     24  S   UNL     1       0.377  -0.245   1.719  1.00  0.00     0.238 S 
ATOM     25  O   UNL     1       1.092   0.703   2.549  1.00  0.00    -0.207 OA
ATOM     26  O   UNL     1      -1.039  -0.147   1.473  1.00  0.00    -0.207 OA
BRANCH  24  27
ATOM     27  N   UNL     1       1.129  -0.175   0.219  1.00  0.00    -0.225 NA
ATOM     28  H   UNL     1       0.979   0.745  -0.194  1.00  0.00     0.137 HD
ATOM     29  H   UNL     1       0.736  -0.891  -0.392  1.00  0.00     0.137 HD
ENDBRANCH  24  27
ENDBRANCH  19  24
ENDBRANCH  14  18
BRANCH  16  30
ATOM     30  C   UNL     1       2.881  -6.409   0.907  1.00  0.00     0.000 A 
ATOM     31  C   UNL     1       3.775  -5.376   0.591  1.00  0.00     0.010 A 
ATOM     32  C   UNL     1       2.369  -7.209  -0.121  1.00  0.00     0.010 A 
ATOM     33  C   UNL     1       4.131  -5.133  -0.735  1.00  0.00     0.001 A 
ATOM     34  C   UNL     1       2.727  -6.964  -1.446  1.00  0.00     0.001 A 
ATOM     35  C   UNL     1       3.606  -5.926  -1.753  1.00  0.00     0.000 A 
ENDBRANCH  16  30
ENDBRANCH  10  13
ENDBRANCH   8   9
ENDBRANCH   7   8
ENDBRANCH   6   7
ENDBRANCH   4   6
ENDBRANCH   3   4
ENDBRANCH   2   3
ENDBRANCH   1   2
BRANCH   1  36
ATOM     36  O   UNL     1       4.219 -15.685   3.305  1.00  0.00    -0.376 OA
BRANCH  36  37
ATOM     37  C   UNL     1       4.976 -14.486   3.118  1.00  0.00     0.188 C 
BRANCH  37  38
ATOM     38  C   UNL     1       4.457 -13.560   2.013  1.00  0.00     0.188 C 
BRANCH  38  39
ATOM     39  O   UNL     1       3.161 -13.019   2.239  1.00  0.00    -0.376 OA
BRANCH  39  40
ATOM     40  C   UNL     1       2.424 -12.423   1.165  1.00  0.00     0.202 C 
BRANCH  40  41
ATOM     41  C   UNL     1       2.541 -12.848  -0.311  1.00  0.00     0.261 C 
BRANCH  41  42
ATOM     42  O   UNL     1       3.824 -13.225  -0.765  1.00  0.00    -0.460 OA
BRANCH  42  43
ATOM     43  C   UNL     1       4.845 -12.372  -0.548  1.00  0.00     0.338 C 
ATOM     44  O   UNL     1       4.777 -11.227  -0.146  1.00  0.00    -0.246 OA
BRANCH  43  45
ATOM     45  C   UNL     1       6.071 -13.162  -0.771  1.00  0.00     0.060 A 
ATOM     46  C   UNL     1       7.246 -12.454  -0.989  1.00  0.00     0.016 A 
ATOM     47  C   UNL     1       5.993 -14.561  -0.956  1.00  0.00     0.016 A 
ATOM     48  C   UNL     1       8.204 -13.072  -1.752  1.00  0.00     0.010 A 
ATOM     49  C   UNL     1       6.956 -15.184  -1.695  1.00  0.00     0.010 A 
ATOM     50  C   UNL     1       7.943 -14.367  -2.215  1.00  0.00    -0.014 A 
BRANCH  50  51
ATOM     51  C   UNL     1       8.600 -14.788  -3.423  1.00  0.00     0.031 A 
ATOM     52  C   UNL     1       9.964 -15.265  -3.212  1.00  0.00     0.074 A 
ATOM     53  C   UNL     1       7.976 -14.725  -4.614  1.00  0.00     0.049 A 
ATOM     54  N   UNL     1      11.041 -14.591  -3.419  1.00  0.00    -0.248 NA
ATOM     55  C   UNL     1      10.156 -16.527  -2.492  1.00  0.00     0.031 C 
ATOM     56  C   UNL     1       6.565 -14.462  -4.914  1.00  0.00     0.029 A 
ATOM     57  N   UNL     1       8.504 -14.972  -5.837  1.00  0.00    -0.354 N 
ATOM     58  C   UNL     1      12.073 -15.443  -3.075  1.00  0.00     0.074 A 
ATOM     59  C   UNL     1      11.477 -16.505  -2.306  1.00  0.00     0.031 C 
ATOM     60  C   UNL     1       6.316 -14.793  -6.203  1.00  0.00     0.029 A 
ATOM     61  C   UNL     1       7.569 -15.163  -6.843  1.00  0.00     0.049 A 
ATOM     62  H   UNL     1       9.474 -15.013  -5.998  1.00  0.00     0.167 HD
ATOM     63  C   UNL     1      13.289 -15.331  -3.669  1.00  0.00     0.034 A 
ATOM     64  C   UNL     1       7.820 -15.672  -8.079  1.00  0.00     0.034 A 
ATOM     65  C   UNL     1      13.410 -14.084  -4.392  1.00  0.00     0.049 A 
ATOM     66  C   UNL     1       9.264 -15.417  -8.352  1.00  0.00     0.074 A 
ATOM     67  C   UNL     1      13.359 -12.751  -4.029  1.00  0.00     0.029 A 
ATOM     68  N   UNL     1      13.200 -14.106  -5.755  1.00  0.00    -0.354 N 
ATOM     69  N   UNL     1       9.750 -14.211  -8.488  1.00  0.00    -0.248 NA
ATOM     70  C   UNL     1      10.242 -16.420  -7.942  1.00  0.00     0.031 C 
ATOM     71  C   UNL     1      12.647 -12.107  -5.083  1.00  0.00     0.029 A 
ATOM     72  C   UNL     1      12.362 -13.059  -6.066  1.00  0.00     0.049 A 
ATOM     73  H   UNL     1      13.581 -14.754  -6.391  1.00  0.00     0.167 HD
ATOM     74  C   UNL     1      10.934 -14.209  -7.763  1.00  0.00     0.074 A 
ATOM     75  C   UNL     1      11.241 -15.622  -7.543  1.00  0.00     0.031 C 
ATOM     76  C   UNL     1      11.394 -13.075  -7.150  1.00  0.00     0.034 A 
BRANCH  63  77
ATOM     77  C   UNL     1      14.228 -16.482  -3.884  1.00  0.00     0.023 A 
ATOM     78  C   UNL     1      15.514 -16.181  -4.359  1.00  0.00     0.031 A 
ATOM     79  C   UNL     1      13.855 -17.846  -3.907  1.00  0.00     0.131 A 
ATOM     80  C   UNL     1      16.330 -17.189  -4.896  1.00  0.00     0.055 A 
ATOM     81  C   UNL     1      14.700 -18.854  -4.370  1.00  0.00     0.041 A 
ATOM     82  F   UNL     1      12.624 -18.266  -3.589  1.00  0.00    -0.206 F 
ATOM     83  C   UNL     1      15.936 -18.525  -4.897  1.00  0.00     0.022 A 
BRANCH  80  84
ATOM     84  S   UNL     1      17.839 -16.692  -5.761  1.00  0.00     0.124 S 
ATOM     85  O   UNL     1      17.331 -15.700  -6.703  1.00  0.00    -0.237 OA
ATOM     86  O   UNL     1      18.657 -16.182  -4.667  1.00  0.00    -0.237 OA
ATOM     87  O   UNL     1      18.306 -17.939  -6.364  1.00  0.00    -0.744 OA
ENDBRANCH  80  84
ENDBRANCH  63  77
BRANCH  64  88
ATOM     88  C   UNL     1       6.974 -16.674  -8.789  1.00  0.00     0.023 A 
ATOM     89  C   UNL     1       7.068 -16.930 -10.173  1.00  0.00     0.031 A 
ATOM     90  C   UNL     1       6.175 -17.569  -8.037  1.00  0.00     0.131 A 
ATOM     91  C   UNL     1       6.372 -18.027 -10.744  1.00  0.00     0.055 A 
ATOM     92  C   UNL     1       5.486 -18.641  -8.605  1.00  0.00     0.041 A 
ATOM     93  F   UNL     1       6.101 -17.483  -6.699  1.00  0.00    -0.206 F 
ATOM     94  C   UNL     1       5.587 -18.879  -9.964  1.00  0.00     0.022 A 
BRANCH  91  95
ATOM     95  S   UNL     1       6.547 -18.418 -12.516  1.00  0.00     0.124 S 
ATOM     96  O   UNL     1       5.882 -17.287 -13.152  1.00  0.00    -0.237 OA
ATOM     97  O   UNL     1       7.994 -18.495 -12.678  1.00  0.00    -0.237 OA
ATOM     98  O   UNL     1       5.849 -19.697 -12.655  1.00  0.00    -0.744 OA
ENDBRANCH  91  95
ENDBRANCH  64  88
BRANCH  76  99
ATOM     99  C   UNL     1      10.686 -11.765  -7.456  1.00  0.00     0.023 A 
ATOM    100  C   UNL     1       9.311 -11.527  -7.219  1.00  0.00     0.031 A 
ATOM    101  C   UNL     1      11.466 -10.676  -7.881  1.00  0.00     0.131 A 
ATOM    102  C   UNL     1       8.764 -10.245  -7.429  1.00  0.00     0.055 A 
ATOM    103  C   UNL     1      10.926  -9.402  -8.066  1.00  0.00     0.041 A 
ATOM    104  F   UNL     1      12.785 -10.824  -8.088  1.00  0.00    -0.206 F 
ATOM    105  C   UNL     1       9.570  -9.183  -7.847  1.00  0.00     0.022 A 
BRANCH 102 106
ATOM    106  S   UNL     1       6.985  -9.944  -7.160  1.00  0.00     0.124 S 
ATOM    107  O   UNL     1       6.341 -10.979  -7.961  1.00  0.00    -0.237 OA
ATOM    108  O   UNL     1       6.853 -10.081  -5.712  1.00  0.00    -0.237 OA
ATOM    109  O   UNL     1       6.790  -8.581  -7.658  1.00  0.00    -0.744 OA
ENDBRANCH 102 106
ENDBRANCH  76  99
ENDBRANCH  50  51
ENDBRANCH  43  45
ENDBRANCH  42  43
ENDBRANCH  41  42
ENDBRANCH  40  41
ENDBRANCH  39  40
ENDBRANCH  38  39
ENDBRANCH  37  38
ENDBRANCH  36  37
ENDBRANCH   1  36
TORSDOF 28
