REMARK SMILES C[C@H](Nc1ccc(F)cc1Br)[C@@H](C)C(=O)OCCOCCOCCOC(=O)c1ccc(-c2c3nc(c(-c4cc(S(=O)(=O)[O-])ccc4F)c4ccc([nH]4)c(-c4cc(S(=O)(=O)[O-])ccc4F)c4nc(c(-c5cc(S(=O)(=O)[O-])ccc5F)c5ccc2[nH]5)C=C4)C=C3)cc1
REMARK SMILES IDX 20 1 19 2 18 3 17 4 16 5 14 6 15 7 12 8 13 9 2 10 1 11 3 12
REMARK SMILES IDX 4 14 5 15 10 16 6 17 9 18 11 19 7 20 8 21 21 22 22 23 23 24
REMARK SMILES IDX 24 25 25 26 26 27 27 28 28 29 29 30 90 31 30 32 89 33 31 34
REMARK SMILES IDX 32 35 33 36 83 37 34 38 88 39 82 40 84 41 35 42 87 43 81 44
REMARK SMILES IDX 80 45 36 47 68 48 48 49 67 50 49 51 52 52 66 53 85 54 50 55
REMARK SMILES IDX 51 56 65 58 86 59 53 60 37 61 38 62 46 63 39 64 45 65 47 66
REMARK SMILES IDX 44 67 40 68 41 69 42 70 43 71 69 72 70 73 78 74 71 75 77 76
REMARK SMILES IDX 79 77 76 78 72 79 73 80 74 81 75 82 54 83 55 84 63 85 56 86
REMARK SMILES IDX 62 87 64 88 61 89 57 90 58 91 59 92 60 93
REMARK H PARENT 3 13 84 46 52 57
REMARK Flexibility Score: inf
ROOT
ATOM      1  C   UNL     1      -2.122  -4.452   2.434  1.00  0.00     0.188 C 
ENDROOT
BRANCH   1   2
ATOM      2  O   UNL     1      -2.711  -5.540   1.742  1.00  0.00    -0.376 OA
BRANCH   2   3
ATOM      3  C   UNL     1      -2.302  -5.808   0.405  1.00  0.00     0.202 C 
BRANCH   3   4
ATOM      4  C   UNL     1      -2.325  -4.672  -0.639  1.00  0.00     0.261 C 
BRANCH   4   5
ATOM      5  O   UNL     1      -1.411  -3.546  -0.467  1.00  0.00    -0.463 OA
BRANCH   5   6
ATOM      6  C   UNL     1      -2.003  -2.356  -0.175  1.00  0.00     0.310 C 
ATOM      7  O   UNL     1      -3.206  -2.258   0.062  1.00  0.00    -0.252 OA
BRANCH   6   8
ATOM      8  C   UNL     1      -1.124  -1.096  -0.224  1.00  0.00     0.118 C 
ATOM      9  C   UNL     1      -1.684  -0.286  -1.405  1.00  0.00     0.022 C 
BRANCH   8  10
ATOM     10  C   UNL     1       0.426  -1.208  -0.276  1.00  0.00     0.090 C 
ATOM     11  C   UNL     1       1.056  -1.551   1.083  1.00  0.00     0.031 C 
BRANCH  10  12
ATOM     12  N   UNL     1       1.036   0.091  -0.664  1.00  0.00    -0.381 N 
ATOM     13  H   UNL     1       0.769   0.938  -0.238  1.00  0.00     0.160 HD
BRANCH  12  14
ATOM     14  C   UNL     1       2.012   0.044  -1.668  1.00  0.00     0.049 A 
ATOM     15  C   UNL     1       1.603  -0.225  -2.982  1.00  0.00     0.030 A 
ATOM     16  C   UNL     1       3.395   0.116  -1.406  1.00  0.00     0.044 A 
ATOM     17  C   UNL     1       2.530  -0.466  -3.992  1.00  0.00     0.041 A 
ATOM     18  C   UNL     1       4.327  -0.166  -2.407  1.00  0.00     0.057 A 
ATOM     19  Br  UNL     1       4.079   0.621   0.294  1.00  0.00    -0.048 Br
ATOM     20  C   UNL     1       3.882  -0.464  -3.687  1.00  0.00     0.124 A 
ATOM     21  F   UNL     1       4.772  -0.750  -4.646  1.00  0.00    -0.207 F 
ENDBRANCH  12  14
ENDBRANCH  10  12
ENDBRANCH   8  10
ENDBRANCH   6   8
ENDBRANCH   5   6
ENDBRANCH   4   5
ENDBRANCH   3   4
ENDBRANCH   2   3
ENDBRANCH   1   2
BRANCH   1  22
ATOM     22  C   UNL     1      -0.621  -4.215   2.276  1.00  0.00     0.188 C 
BRANCH  22  23
ATOM     23  O   UNL     1       0.031  -5.185   1.482  1.00  0.00    -0.376 OA
BRANCH  23  24
ATOM     24  C   UNL     1       1.360  -5.571   1.783  1.00  0.00     0.202 C 
BRANCH  24  25
ATOM     25  C   UNL     1       1.499  -6.318   3.117  1.00  0.00     0.261 C 
BRANCH  25  26
ATOM     26  O   UNL     1       1.203  -5.526   4.283  1.00  0.00    -0.460 OA
BRANCH  26  27
ATOM     27  C   UNL     1       1.952  -4.408   4.443  1.00  0.00     0.338 C 
ATOM     28  O   UNL     1       2.946  -4.107   3.798  1.00  0.00    -0.246 OA
BRANCH  27  29
ATOM     29  C   UNL     1       1.218  -3.468   5.323  1.00  0.00     0.060 A 
ATOM     30  C   UNL     1       1.093  -2.140   4.895  1.00  0.00     0.016 A 
ATOM     31  C   UNL     1       0.622  -3.877   6.519  1.00  0.00     0.016 A 
ATOM     32  C   UNL     1       0.425  -1.206   5.684  1.00  0.00     0.010 A 
ATOM     33  C   UNL     1      -0.036  -2.933   7.319  1.00  0.00     0.010 A 
ATOM     34  C   UNL     1      -0.100  -1.582   6.927  1.00  0.00    -0.014 A 
BRANCH  34  35
ATOM     35  C   UNL     1      -0.505  -0.516   7.884  1.00  0.00     0.031 A 
ATOM     36  C   UNL     1       0.451  -0.153   8.993  1.00  0.00     0.074 A 
ATOM     37  C   UNL     1      -1.641   0.188   7.721  1.00  0.00     0.049 A 
ATOM     38  N   UNL     1       0.339   0.755   9.927  1.00  0.00    -0.248 NA
ATOM     39  C   UNL     1       1.704  -0.922   9.049  1.00  0.00     0.031 C 
ATOM     40  C   UNL     1      -2.617  -0.020   6.653  1.00  0.00     0.029 A 
ATOM     41  N   UNL     1      -2.155   1.236   8.445  1.00  0.00    -0.354 N 
ATOM     42  C   UNL     1       1.503   0.664  10.685  1.00  0.00     0.074 A 
ATOM     43  C   UNL     1       2.282  -0.420  10.128  1.00  0.00     0.031 C 
ATOM     44  C   UNL     1      -3.607   0.881   6.786  1.00  0.00     0.029 A 
ATOM     45  C   UNL     1      -3.360   1.702   7.970  1.00  0.00     0.049 A 
ATOM     46  H   UNL     1      -1.704   1.617   9.233  1.00  0.00     0.167 HD
ATOM     47  C   UNL     1       1.896   1.423  11.739  1.00  0.00     0.034 A 
ATOM     48  C   UNL     1      -4.175   2.668   8.444  1.00  0.00     0.034 A 
ATOM     49  C   UNL     1       1.108   2.499  12.291  1.00  0.00     0.049 A 
ATOM     50  C   UNL     1      -3.760   3.440   9.676  1.00  0.00     0.074 A 
ATOM     51  C   UNL     1       1.408   3.325  13.361  1.00  0.00     0.029 A 
ATOM     52  N   UNL     1      -0.139   2.896  11.824  1.00  0.00    -0.354 N 
ATOM     53  N   UNL     1      -2.663   3.334  10.393  1.00  0.00    -0.248 NA
ATOM     54  C   UNL     1      -4.689   4.472  10.154  1.00  0.00     0.031 C 
ATOM     55  C   UNL     1       0.311   4.161  13.592  1.00  0.00     0.029 A 
ATOM     56  C   UNL     1      -0.633   3.931  12.605  1.00  0.00     0.049 A 
ATOM     57  H   UNL     1      -0.604   2.501  11.052  1.00  0.00     0.167 HD
ATOM     58  C   UNL     1      -2.756   4.314  11.380  1.00  0.00     0.074 A 
ATOM     59  C   UNL     1      -4.006   5.010  11.152  1.00  0.00     0.031 C 
ATOM     60  C   UNL     1      -1.886   4.616  12.380  1.00  0.00     0.034 A 
BRANCH  47  61
ATOM     61  C   UNL     1       3.209   1.066  12.397  1.00  0.00     0.023 A 
ATOM     62  C   UNL     1       4.434   1.142  11.710  1.00  0.00     0.031 A 
ATOM     63  C   UNL     1       3.230   0.601  13.724  1.00  0.00     0.131 A 
ATOM     64  C   UNL     1       5.611   0.688  12.323  1.00  0.00     0.055 A 
ATOM     65  C   UNL     1       4.418   0.236  14.360  1.00  0.00     0.041 A 
ATOM     66  F   UNL     1       2.091   0.478  14.424  1.00  0.00    -0.206 F 
ATOM     67  C   UNL     1       5.617   0.262  13.654  1.00  0.00     0.022 A 
BRANCH  64  68
ATOM     68  S   UNL     1       7.104   0.504  11.309  1.00  0.00     0.124 S 
ATOM     69  O   UNL     1       6.642  -0.410  10.267  1.00  0.00    -0.237 OA
ATOM     70  O   UNL     1       7.368   1.874  10.885  1.00  0.00    -0.237 OA
ATOM     71  O   UNL     1       8.081  -0.063  12.236  1.00  0.00    -0.744 OA
ENDBRANCH  64  68
ENDBRANCH  47  61
BRANCH  48  72
ATOM     72  C   UNL     1      -5.489   2.946   7.787  1.00  0.00     0.023 A 
ATOM     73  C   UNL     1      -5.785   4.207   7.241  1.00  0.00     0.031 A 
ATOM     74  C   UNL     1      -6.500   1.968   7.765  1.00  0.00     0.131 A 
ATOM     75  C   UNL     1      -7.073   4.470   6.744  1.00  0.00     0.055 A 
ATOM     76  C   UNL     1      -7.758   2.216   7.212  1.00  0.00     0.041 A 
ATOM     77  F   UNL     1      -6.278   0.750   8.283  1.00  0.00    -0.206 F 
ATOM     78  C   UNL     1      -8.055   3.478   6.710  1.00  0.00     0.022 A 
BRANCH  75  79
ATOM     79  S   UNL     1      -7.481   6.163   6.233  1.00  0.00     0.124 S 
ATOM     80  O   UNL     1      -7.229   6.912   7.459  1.00  0.00    -0.237 OA
ATOM     81  O   UNL     1      -6.539   6.386   5.141  1.00  0.00    -0.237 OA
ATOM     82  O   UNL     1      -8.884   6.070   5.834  1.00  0.00    -0.744 OA
ENDBRANCH  75  79
ENDBRANCH  48  72
BRANCH  60  83
ATOM     83  C   UNL     1      -2.233   5.794  13.265  1.00  0.00     0.023 A 
ATOM     84  C   UNL     1      -3.385   5.810  14.072  1.00  0.00     0.031 A 
ATOM     85  C   UNL     1      -1.414   6.939  13.269  1.00  0.00     0.131 A 
ATOM     86  C   UNL     1      -3.731   6.973  14.776  1.00  0.00     0.055 A 
ATOM     87  C   UNL     1      -1.721   8.064  14.037  1.00  0.00     0.041 A 
ATOM     88  F   UNL     1      -0.302   6.988  12.519  1.00  0.00    -0.206 F 
ATOM     89  C   UNL     1      -2.897   8.094  14.780  1.00  0.00     0.022 A 
BRANCH  86  90
ATOM     90  S   UNL     1      -5.361   7.056  15.570  1.00  0.00     0.124 S 
ATOM     91  O   UNL     1      -6.255   6.749  14.457  1.00  0.00    -0.237 OA
ATOM     92  O   UNL     1      -5.256   6.032  16.604  1.00  0.00    -0.237 OA
ATOM     93  O   UNL     1      -5.434   8.431  16.062  1.00  0.00    -0.744 OA
ENDBRANCH  86  90
ENDBRANCH  60  83
ENDBRANCH  34  35
ENDBRANCH  27  29
ENDBRANCH  26  27
ENDBRANCH  25  26
ENDBRANCH  24  25
ENDBRANCH  23  24
ENDBRANCH  22  23
ENDBRANCH   1  22
TORSDOF 23
