REMARK SMILES Cc1cc(C[N@@H+]2CCCn3nc(CCC(=O)OCCOCCOCCOC(=O)c4ccc(-c5c6nc(c(-c7cc(S(=O)(=O)[O-])ccc7F)c7ccc([nH]7)c(-c7cc(S(=O)(=O)[O-])ccc7F)c7nc(c(-c8cc(S(=O)(=O)[O-])ccc8F)c8ccc5[nH]8)C=C7)C=C6)cc4)cc3C2)ccc1F
REMARK SMILES IDX 20 1 19 2 18 3 17 4 15 5 16 6 14 7 13 8 12 9 93 10 10 11
REMARK SMILES IDX 92 12 11 13 94 14 6 15 5 17 4 18 1 19 2 20 3 21 97 22 96 23
REMARK SMILES IDX 98 24 95 25 7 26 9 28 8 29 21 31 22 32 23 33 24 34 25 35
REMARK SMILES IDX 26 36 27 37 28 38 29 39 30 40 91 41 31 42 90 43 32 44 33 45
REMARK SMILES IDX 34 46 84 47 35 48 89 49 83 50 85 51 36 52 88 53 82 54 81 55
REMARK SMILES IDX 37 57 69 58 49 59 68 60 50 61 53 62 67 63 86 64 51 65 52 66
REMARK SMILES IDX 66 68 87 69 54 70 38 71 39 72 47 73 40 74 46 75 48 76 45 77
REMARK SMILES IDX 41 78 42 79 43 80 44 81 70 82 71 83 79 84 72 85 78 86 80 87
REMARK SMILES IDX 77 88 73 89 74 90 75 91 76 92 55 93 56 94 64 95 57 96 63 97
REMARK SMILES IDX 65 98 62 99 58 100 59 101 60 102 61 103
REMARK H PARENT 6 16 85 56 53 67
REMARK Flexibility Score: 90.00
ROOT
ATOM      1  O   UNL     1       1.119   4.465  -5.119  1.00  0.00    -0.376 OA
ENDROOT
BRANCH   1   2
ATOM      2  C   UNL     1      -0.182   4.751  -4.604  1.00  0.00     0.202 C 
BRANCH   2   3
ATOM      3  C   UNL     1      -1.383   4.439  -5.516  1.00  0.00     0.261 C 
BRANCH   3   4
ATOM      4  O   UNL     1      -1.447   3.045  -5.882  1.00  0.00    -0.463 OA
BRANCH   4   5
ATOM      5  C   UNL     1      -1.950   2.716  -7.088  1.00  0.00     0.306 C 
ATOM      6  O   UNL     1      -2.448   3.531  -7.860  1.00  0.00    -0.252 OA
BRANCH   5   7
ATOM      7  C   UNL     1      -1.696   1.272  -7.486  1.00  0.00     0.129 C 
BRANCH   7   8
ATOM      8  C   UNL     1      -1.728   0.123  -6.480  1.00  0.00     0.070 C 
BRANCH   8   9
ATOM      9  C   UNL     1      -2.744   0.155  -5.392  1.00  0.00     0.064 A 
ATOM     10  C   UNL     1      -3.770   0.525  -3.446  1.00  0.00     0.093 A 
ATOM     11  N   UNL     1      -4.272  -0.562  -4.099  1.00  0.00    -0.263 N 
ATOM     12  C   UNL     1      -2.777   0.994  -4.267  1.00  0.00     0.055 A 
ATOM     13  N   UNL     1      -3.715  -0.763  -5.316  1.00  0.00    -0.178 NA
BRANCH  10  14
ATOM     14  C   UNL     1      -4.221   1.084  -2.151  1.00  0.00     0.319 C 
BRANCH  14  15
ATOM     15  N   UNL     1      -4.178   0.173  -1.030  1.00  0.00    -0.326 N 
ATOM     16  H   UNL     1      -5.144   0.335  -0.744  1.00  0.00     0.348 HD
BRANCH  15  17
ATOM     17  C   UNL     1      -3.514   0.616   0.191  1.00  0.00     0.299 C 
BRANCH  17  18
ATOM     18  C   UNL     1      -2.073   0.191   0.415  1.00  0.00     0.007 A 
ATOM     19  C   UNL     1       1.274   1.739   1.494  1.00  0.00     0.047 C 
ATOM     20  C   UNL     1       0.223   0.754   1.073  1.00  0.00    -0.015 A 
ATOM     21  C   UNL     1      -1.083   1.147   0.731  1.00  0.00     0.016 A 
ATOM     22  C   UNL     1       0.535  -0.604   1.080  1.00  0.00     0.126 A 
ATOM     23  C   UNL     1      -0.417  -1.562   0.771  1.00  0.00     0.040 A 
ATOM     24  F   UNL     1       1.769  -1.005   1.414  1.00  0.00    -0.207 F 
ATOM     25  C   UNL     1      -1.717  -1.166   0.467  1.00  0.00     0.012 A 
ENDBRANCH  17  18
ENDBRANCH  15  17
BRANCH  15  26
ATOM     26  C   UNL     1      -4.483  -1.229  -1.210  1.00  0.00     0.264 CG0
ATOM     27  G   UNL     1      -5.644  -1.486  -2.172  1.00  0.00     0.000 G0
ENDBRANCH  15  26
ENDBRANCH  14  15
ENDBRANCH  10  14
BRANCH  11  28
ATOM     28  C   UNL     1      -5.232  -1.539  -3.640  1.00  0.00     0.150 C 
BRANCH  28  29
ATOM     29  C   UNL     1      -5.644  -1.486  -2.172  1.00  0.00     0.085 CG0
ATOM     30  G   UNL     1      -4.483  -1.229  -1.210  1.00  0.00     0.000 G0
ENDBRANCH  28  29
ENDBRANCH  11  28
ENDBRANCH   8   9
ENDBRANCH   7   8
ENDBRANCH   5   7
ENDBRANCH   4   5
ENDBRANCH   3   4
ENDBRANCH   2   3
ENDBRANCH   1   2
BRANCH   1  31
ATOM     31  C   UNL     1       1.320   3.184  -5.723  1.00  0.00     0.188 C 
BRANCH  31  32
ATOM     32  C   UNL     1       1.046   1.921  -4.872  1.00  0.00     0.188 C 
BRANCH  32  33
ATOM     33  O   UNL     1       0.030   2.140  -3.910  1.00  0.00    -0.376 OA
BRANCH  33  34
ATOM     34  C   UNL     1       0.292   1.861  -2.547  1.00  0.00     0.202 C 
BRANCH  34  35
ATOM     35  C   UNL     1       1.374   2.679  -1.834  1.00  0.00     0.261 C 
BRANCH  35  36
ATOM     36  O   UNL     1       2.377   3.216  -2.683  1.00  0.00    -0.460 OA
BRANCH  36  37
ATOM     37  C   UNL     1       3.347   2.320  -2.908  1.00  0.00     0.338 C 
ATOM     38  O   UNL     1       3.447   1.206  -2.381  1.00  0.00    -0.246 OA
BRANCH  37  39
ATOM     39  C   UNL     1       4.289   2.843  -3.925  1.00  0.00     0.060 A 
ATOM     40  C   UNL     1       4.480   1.893  -4.951  1.00  0.00     0.016 A 
ATOM     41  C   UNL     1       5.377   3.336  -3.214  1.00  0.00     0.016 A 
ATOM     42  C   UNL     1       5.528   1.017  -4.838  1.00  0.00     0.010 A 
ATOM     43  C   UNL     1       6.425   2.464  -3.074  1.00  0.00     0.010 A 
ATOM     44  C   UNL     1       6.415   1.262  -3.808  1.00  0.00    -0.014 A 
BRANCH  44  45
ATOM     45  C   UNL     1       7.485   0.359  -3.509  1.00  0.00     0.031 A 
ATOM     46  C   UNL     1       8.668   0.476  -4.356  1.00  0.00     0.074 A 
ATOM     47  C   UNL     1       7.411  -0.356  -2.373  1.00  0.00     0.049 A 
ATOM     48  N   UNL     1       9.612  -0.389  -4.407  1.00  0.00    -0.248 NA
ATOM     49  C   UNL     1       8.823   1.582  -5.302  1.00  0.00     0.031 C 
ATOM     50  C   UNL     1       8.517  -0.879  -1.595  1.00  0.00     0.029 A 
ATOM     51  N   UNL     1       6.273  -0.905  -1.776  1.00  0.00    -0.354 N 
ATOM     52  C   UNL     1      10.649   0.238  -5.058  1.00  0.00     0.074 A 
ATOM     53  C   UNL     1      10.049   1.344  -5.763  1.00  0.00     0.031 C 
ATOM     54  C   UNL     1       8.051  -1.845  -0.787  1.00  0.00     0.029 A 
ATOM     55  C   UNL     1       6.682  -2.119  -1.197  1.00  0.00     0.049 A 
ATOM     56  H   UNL     1       5.367  -0.519  -1.764  1.00  0.00     0.167 HD
ATOM     57  C   UNL     1      11.920  -0.101  -4.710  1.00  0.00     0.034 A 
ATOM     58  C   UNL     1       6.214  -3.341  -1.599  1.00  0.00     0.034 A 
ATOM     59  C   UNL     1      11.910  -1.258  -3.798  1.00  0.00     0.049 A 
ATOM     60  C   UNL     1       7.308  -4.236  -2.166  1.00  0.00     0.074 A 
ATOM     61  C   UNL     1      12.051  -1.399  -2.426  1.00  0.00     0.029 A 
ATOM     62  N   UNL     1      11.345  -2.451  -4.236  1.00  0.00    -0.354 N 
ATOM     63  N   UNL     1       8.562  -3.894  -2.285  1.00  0.00    -0.248 NA
ATOM     64  C   UNL     1       7.031  -5.537  -2.773  1.00  0.00     0.031 C 
ATOM     65  C   UNL     1      11.549  -2.682  -2.049  1.00  0.00     0.029 A 
ATOM     66  C   UNL     1      11.124  -3.337  -3.190  1.00  0.00     0.049 A 
ATOM     67  H   UNL     1      11.127  -2.644  -5.176  1.00  0.00     0.167 HD
ATOM     68  C   UNL     1       9.219  -4.809  -3.064  1.00  0.00     0.074 A 
ATOM     69  C   UNL     1       8.216  -5.826  -3.334  1.00  0.00     0.031 C 
ATOM     70  C   UNL     1      10.510  -4.632  -3.483  1.00  0.00     0.034 A 
BRANCH  57  71
ATOM     71  C   UNL     1      13.098   0.833  -4.930  1.00  0.00     0.023 A 
ATOM     72  C   UNL     1      13.097   1.935  -5.817  1.00  0.00     0.031 A 
ATOM     73  C   UNL     1      14.270   0.697  -4.162  1.00  0.00     0.131 A 
ATOM     74  C   UNL     1      14.133   2.887  -5.840  1.00  0.00     0.055 A 
ATOM     75  C   UNL     1      15.327   1.617  -4.214  1.00  0.00     0.041 A 
ATOM     76  F   UNL     1      14.432  -0.316  -3.299  1.00  0.00    -0.206 F 
ATOM     77  C   UNL     1      15.254   2.733  -5.036  1.00  0.00     0.022 A 
BRANCH  74  78
ATOM     78  S   UNL     1      14.006   4.392  -6.855  1.00  0.00     0.124 S 
ATOM     79  O   UNL     1      14.229   5.451  -5.872  1.00  0.00    -0.237 OA
ATOM     80  O   UNL     1      15.082   4.207  -7.824  1.00  0.00    -0.237 OA
ATOM     81  O   UNL     1      12.653   4.338  -7.401  1.00  0.00    -0.744 OA
ENDBRANCH  74  78
ENDBRANCH  57  71
BRANCH  58  82
ATOM     82  C   UNL     1       4.825  -3.294  -2.144  1.00  0.00     0.023 A 
ATOM     83  C   UNL     1       4.617  -3.253  -3.532  1.00  0.00     0.031 A 
ATOM     84  C   UNL     1       3.796  -2.835  -1.297  1.00  0.00     0.131 A 
ATOM     85  C   UNL     1       3.483  -2.600  -4.037  1.00  0.00     0.055 A 
ATOM     86  C   UNL     1       2.688  -2.163  -1.809  1.00  0.00     0.041 A 
ATOM     87  F   UNL     1       3.935  -2.901   0.038  1.00  0.00    -0.206 F 
ATOM     88  C   UNL     1       2.550  -2.007  -3.183  1.00  0.00     0.022 A 
BRANCH  85  89
ATOM     89  S   UNL     1       3.308  -2.339  -5.824  1.00  0.00     0.124 S 
ATOM     90  O   UNL     1       2.407  -3.424  -6.189  1.00  0.00    -0.237 OA
ATOM     91  O   UNL     1       2.742  -0.993  -5.909  1.00  0.00    -0.237 OA
ATOM     92  O   UNL     1       4.679  -2.457  -6.311  1.00  0.00    -0.744 OA
ENDBRANCH  85  89
ENDBRANCH  58  82
BRANCH  70  93
ATOM     93  C   UNL     1      11.297  -5.651  -4.280  1.00  0.00     0.023 A 
ATOM     94  C   UNL     1      12.390  -5.229  -5.073  1.00  0.00     0.031 A 
ATOM     95  C   UNL     1      11.107  -7.040  -4.203  1.00  0.00     0.131 A 
ATOM     96  C   UNL     1      13.170  -6.134  -5.799  1.00  0.00     0.055 A 
ATOM     97  C   UNL     1      11.847  -7.945  -4.975  1.00  0.00     0.041 A 
ATOM     98  F   UNL     1      10.252  -7.583  -3.323  1.00  0.00    -0.206 F 
ATOM     99  C   UNL     1      12.878  -7.492  -5.787  1.00  0.00     0.022 A 
BRANCH  96 100
ATOM    100  S   UNL     1      14.638  -5.578  -6.707  1.00  0.00     0.124 S 
ATOM    101  O   UNL     1      15.700  -6.326  -6.039  1.00  0.00    -0.237 OA
ATOM    102  O   UNL     1      14.332  -6.006  -8.068  1.00  0.00    -0.237 OA
ATOM    103  O   UNL     1      14.660  -4.135  -6.493  1.00  0.00    -0.744 OA
ENDBRANCH  96 100
ENDBRANCH  70  93
ENDBRANCH  44  45
ENDBRANCH  37  39
ENDBRANCH  36  37
ENDBRANCH  35  36
ENDBRANCH  34  35
ENDBRANCH  33  34
ENDBRANCH  32  33
ENDBRANCH  31  32
ENDBRANCH   1  31
TORSDOF 24
