REMARK SMILES CC(C)[NH2+][C@]1(C(=O)OCCOCCOCCOC(=O)c2ccc(-c3c4nc(c(-c5cc(S(=O)(=O)[O-])ccc5F)c5ccc([nH]5)c(-c5cc(S(=O)(=O)[O-])ccc5F)c5nc(c(-c6cc(S(=O)(=O)[O-])ccc6F)c6ccc3[nH]6)C=C5)C=C4)cc2)CC[C@H](Oc2cccc(CO)c2)C1
REMARK SMILES IDX 12 1 11 2 10 3 9 4 8 5 6 6 7 7 5 8 83 9 95 10 84 11 85 12
REMARK SMILES IDX 4 13 2 16 1 17 3 18 86 19 87 20 88 21 94 22 89 23 91 24
REMARK SMILES IDX 90 25 92 26 93 27 13 29 14 30 15 31 16 32 17 33 18 34 19 35
REMARK SMILES IDX 20 36 21 37 82 38 22 39 81 40 23 41 24 42 25 43 75 44 26 45
REMARK SMILES IDX 80 46 74 47 76 48 27 49 79 50 73 51 72 52 28 54 60 55 40 56
REMARK SMILES IDX 59 57 41 58 44 59 58 60 77 61 42 62 43 63 57 65 78 66 45 67
REMARK SMILES IDX 29 68 30 69 38 70 31 71 37 72 39 73 36 74 32 75 33 76 34 77
REMARK SMILES IDX 35 78 61 79 62 80 70 81 63 82 69 83 71 84 68 85 64 86 65 87
REMARK SMILES IDX 66 88 67 89 46 90 47 91 55 92 48 93 54 94 56 95 53 96 49 97
REMARK SMILES IDX 50 98 51 99 52 100
REMARK H PARENT 4 14 4 15 93 28 76 53 44 64
REMARK Flexibility Score: inf
ROOT
ATOM      1  C   UNL     1      -1.103   1.462   0.536  1.00  0.00     0.188 C 
ENDROOT
BRANCH   1   2
ATOM      2  O   UNL     1      -1.023   0.361   1.435  1.00  0.00    -0.376 OA
BRANCH   2   3
ATOM      3  C   UNL     1       0.053  -0.549   1.233  1.00  0.00     0.202 C 
BRANCH   3   4
ATOM      4  C   UNL     1       0.099  -1.311  -0.103  1.00  0.00     0.261 C 
BRANCH   4   5
ATOM      5  O   UNL     1      -0.101  -0.503  -1.283  1.00  0.00    -0.459 OA
BRANCH   5   6
ATOM      6  C   UNL     1      -1.222  -0.805  -2.007  1.00  0.00     0.368 C 
ATOM      7  O   UNL     1      -1.928  -1.778  -1.756  1.00  0.00    -0.245 OA
BRANCH   6   8
ATOM      8  C   UNL     1      -1.457   0.151  -3.224  1.00  0.00     0.198 C 
ATOM      9  C   UNL     1      -0.911   1.589  -3.087  1.00  0.00     0.085 C 
ATOM     10  C   UNL     1      -0.581  -0.322  -4.401  1.00  0.00     0.126 C 
ATOM     11  C   UNL     1      -0.858   2.096  -4.535  1.00  0.00     0.052 C 
ATOM     12  C   UNL     1      -0.431   0.876  -5.365  1.00  0.00     0.180 C 
BRANCH   8  13
ATOM     13  N   UNL     1      -2.915   0.323  -3.452  1.00  0.00    -0.330 N 
ATOM     14  H   UNL     1      -3.314   0.636  -2.567  1.00  0.00     0.347 HD
ATOM     15  H   UNL     1      -2.948   0.967  -4.243  1.00  0.00     0.347 HD
BRANCH  13  16
ATOM     16  C   UNL     1      -3.733  -0.798  -3.906  1.00  0.00     0.176 C 
ATOM     17  C   UNL     1      -5.133  -0.576  -3.322  1.00  0.00     0.075 C 
ATOM     18  C   UNL     1      -3.849  -0.848  -5.426  1.00  0.00     0.075 C 
ENDBRANCH  13  16
ENDBRANCH   8  13
BRANCH  12  19
ATOM     19  O   UNL     1      -1.240   0.544  -6.487  1.00  0.00    -0.490 OA
BRANCH  19  20
ATOM     20  C   UNL     1      -1.593   1.433  -7.447  1.00  0.00     0.120 A 
ATOM     21  C   UNL     1      -1.053   2.692  -7.666  1.00  0.00     0.046 A 
ATOM     22  C   UNL     1      -2.638   0.979  -8.261  1.00  0.00     0.052 A 
ATOM     23  C   UNL     1      -1.609   3.516  -8.651  1.00  0.00     0.004 A 
ATOM     24  C   UNL     1      -3.218   1.796  -9.233  1.00  0.00    -0.019 A 
ATOM     25  C   UNL     1      -2.691   3.077  -9.422  1.00  0.00     0.006 A 
BRANCH  24  26
ATOM     26  C   UNL     1      -4.379   1.294 -10.048  1.00  0.00     0.191 C 
BRANCH  26  27
ATOM     27  O   UNL     1      -5.483   2.182  -9.963  1.00  0.00    -0.392 OA
ATOM     28  H   UNL     1      -5.771   2.253  -9.040  1.00  0.00     0.211 HD
ENDBRANCH  26  27
ENDBRANCH  24  26
ENDBRANCH  19  20
ENDBRANCH  12  19
ENDBRANCH   6   8
ENDBRANCH   5   6
ENDBRANCH   4   5
ENDBRANCH   3   4
ENDBRANCH   2   3
ENDBRANCH   1   2
BRANCH   1  29
ATOM     29  C   UNL     1       0.136   2.355   0.436  1.00  0.00     0.188 C 
BRANCH  29  30
ATOM     30  O   UNL     1       1.379   1.683   0.251  1.00  0.00    -0.376 OA
BRANCH  30  31
ATOM     31  C   UNL     1       2.532   2.526   0.151  1.00  0.00     0.202 C 
BRANCH  31  32
ATOM     32  C   UNL     1       2.729   3.560   1.282  1.00  0.00     0.261 C 
BRANCH  32  33
ATOM     33  O   UNL     1       1.687   4.554   1.395  1.00  0.00    -0.460 OA
BRANCH  33  34
ATOM     34  C   UNL     1       1.375   5.251   0.276  1.00  0.00     0.338 C 
ATOM     35  O   UNL     1       2.047   5.307  -0.742  1.00  0.00    -0.246 OA
BRANCH  34  36
ATOM     36  C   UNL     1      -0.039   5.710   0.370  1.00  0.00     0.060 A 
ATOM     37  C   UNL     1      -0.820   5.663  -0.794  1.00  0.00     0.016 A 
ATOM     38  C   UNL     1      -0.620   6.122   1.574  1.00  0.00     0.016 A 
ATOM     39  C   UNL     1      -2.154   6.080  -0.771  1.00  0.00     0.010 A 
ATOM     40  C   UNL     1      -1.956   6.551   1.594  1.00  0.00     0.010 A 
ATOM     41  C   UNL     1      -2.720   6.571   0.412  1.00  0.00    -0.014 A 
BRANCH  41  42
ATOM     42  C   UNL     1      -4.011   7.313   0.347  1.00  0.00     0.031 A 
ATOM     43  C   UNL     1      -3.957   8.819   0.263  1.00  0.00     0.074 A 
ATOM     44  C   UNL     1      -5.202   6.688   0.280  1.00  0.00     0.049 A 
ATOM     45  N   UNL     1      -4.933   9.688   0.187  1.00  0.00    -0.248 NA
ATOM     46  C   UNL     1      -2.614   9.421   0.260  1.00  0.00     0.031 C 
ATOM     47  C   UNL     1      -5.402   5.240   0.289  1.00  0.00     0.029 A 
ATOM     48  N   UNL     1      -6.475   7.200   0.183  1.00  0.00    -0.354 N 
ATOM     49  C   UNL     1      -4.323  10.935   0.106  1.00  0.00     0.074 A 
ATOM     50  C   UNL     1      -2.896  10.712   0.202  1.00  0.00     0.031 C 
ATOM     51  C   UNL     1      -6.721   4.981   0.205  1.00  0.00     0.029 A 
ATOM     52  C   UNL     1      -7.464   6.242   0.169  1.00  0.00     0.049 A 
ATOM     53  H   UNL     1      -6.663   8.165   0.130  1.00  0.00     0.167 HD
ATOM     54  C   UNL     1      -4.891  12.156  -0.055  1.00  0.00     0.034 A 
ATOM     55  C   UNL     1      -8.809   6.367   0.149  1.00  0.00     0.034 A 
ATOM     56  C   UNL     1      -6.312  12.385  -0.122  1.00  0.00     0.049 A 
ATOM     57  C   UNL     1      -9.425   7.751   0.097  1.00  0.00     0.074 A 
ATOM     58  C   UNL     1      -6.986  13.589  -0.245  1.00  0.00     0.029 A 
ATOM     59  N   UNL     1      -7.282  11.394  -0.067  1.00  0.00    -0.354 N 
ATOM     60  N   UNL     1      -8.833   8.923   0.031  1.00  0.00    -0.248 NA
ATOM     61  C   UNL     1     -10.894   7.826   0.105  1.00  0.00     0.031 C 
ATOM     62  C   UNL     1      -8.361  13.331  -0.200  1.00  0.00     0.029 A 
ATOM     63  C   UNL     1      -8.546  11.960  -0.130  1.00  0.00     0.049 A 
ATOM     64  H   UNL     1      -7.099  10.429   0.006  1.00  0.00     0.167 HD
ATOM     65  C   UNL     1      -9.861   9.864  -0.053  1.00  0.00     0.074 A 
ATOM     66  C   UNL     1     -11.104   9.125  -0.048  1.00  0.00     0.031 C 
ATOM     67  C   UNL     1      -9.784  11.217  -0.128  1.00  0.00     0.034 A 
BRANCH  54  68
ATOM     68  C   UNL     1      -3.960  13.341  -0.129  1.00  0.00     0.023 A 
ATOM     69  C   UNL     1      -3.055  13.496  -1.194  1.00  0.00     0.031 A 
ATOM     70  C   UNL     1      -3.955  14.310   0.889  1.00  0.00     0.131 A 
ATOM     71  C   UNL     1      -2.140  14.559  -1.184  1.00  0.00     0.055 A 
ATOM     72  C   UNL     1      -3.095  15.409   0.853  1.00  0.00     0.041 A 
ATOM     73  F   UNL     1      -4.779  14.198   1.943  1.00  0.00    -0.206 F 
ATOM     74  C   UNL     1      -2.171  15.531  -0.181  1.00  0.00     0.022 A 
BRANCH  71  75
ATOM     75  S   UNL     1      -0.818  14.576  -2.425  1.00  0.00     0.124 S 
ATOM     76  O   UNL     1      -0.133  13.316  -2.144  1.00  0.00    -0.237 OA
ATOM     77  O   UNL     1      -1.562  14.633  -3.678  1.00  0.00    -0.237 OA
ATOM     78  O   UNL     1      -0.055  15.778  -2.097  1.00  0.00    -0.744 OA
ENDBRANCH  71  75
ENDBRANCH  54  68
BRANCH  55  79
ATOM     79  C   UNL     1      -9.697   5.166   0.231  1.00  0.00     0.023 A 
ATOM     80  C   UNL     1     -10.633   4.877  -0.778  1.00  0.00     0.031 A 
ATOM     81  C   UNL     1      -9.707   4.359   1.383  1.00  0.00     0.131 A 
ATOM     82  C   UNL     1     -11.582   3.860  -0.584  1.00  0.00     0.055 A 
ATOM     83  C   UNL     1     -10.609   3.305   1.541  1.00  0.00     0.041 A 
ATOM     84  F   UNL     1      -8.846   4.595   2.385  1.00  0.00    -0.206 F 
ATOM     85  C   UNL     1     -11.568   3.064   0.563  1.00  0.00     0.022 A 
BRANCH  82  86
ATOM     86  S   UNL     1     -12.927   3.684  -1.791  1.00  0.00     0.124 S 
ATOM     87  O   UNL     1     -13.511   5.020  -1.781  1.00  0.00    -0.237 OA
ATOM     88  O   UNL     1     -12.201   3.310  -2.999  1.00  0.00    -0.237 OA
ATOM     89  O   UNL     1     -13.764   2.632  -1.217  1.00  0.00    -0.744 OA
ENDBRANCH  82  86
ENDBRANCH  55  79
BRANCH  67  90
ATOM     90  C   UNL     1     -11.082  11.980  -0.276  1.00  0.00     0.023 A 
ATOM     91  C   UNL     1     -12.057  11.997   0.737  1.00  0.00     0.031 A 
ATOM     92  C   UNL     1     -11.353  12.688  -1.462  1.00  0.00     0.131 A 
ATOM     93  C   UNL     1     -13.281  12.649   0.521  1.00  0.00     0.055 A 
ATOM     94  C   UNL     1     -12.547  13.388  -1.646  1.00  0.00     0.041 A 
ATOM     95  F   UNL     1     -10.461  12.710  -2.465  1.00  0.00    -0.206 F 
ATOM     96  C   UNL     1     -13.526  13.358  -0.658  1.00  0.00     0.022 A 
BRANCH  93  97
ATOM     97  S   UNL     1     -14.595  12.473   1.760  1.00  0.00     0.124 S 
ATOM     98  O   UNL     1     -14.750  11.024   1.837  1.00  0.00    -0.237 OA
ATOM     99  O   UNL     1     -14.006  13.114   2.932  1.00  0.00    -0.237 OA
ATOM    100  O   UNL     1     -15.725  13.188   1.168  1.00  0.00    -0.744 OA
ENDBRANCH  93  97
ENDBRANCH  67  90
ENDBRANCH  41  42
ENDBRANCH  34  36
ENDBRANCH  33  34
ENDBRANCH  32  33
ENDBRANCH  31  32
ENDBRANCH  30  31
ENDBRANCH  29  30
ENDBRANCH   1  29
TORSDOF 26
