REMARK SMILES C[C@H](NC1=[NH+]S(=O)(=O)c2ccccc21)C(=O)OCCOCCOCCOC(=O)c1ccc(-c2c3nc(c(-c4cc(S(=O)(=O)[O-])ccc4F)c4ccc([nH]4)c(-c4cc(S(=O)(=O)[O-])ccc4F)c4nc(c(-c5cc(S(=O)(=O)[O-])ccc5F)c5ccc2[nH]5)C=C4)C=C3)cc1
REMARK SMILES IDX 22 1 21 2 20 3 19 4 18 5 17 6 15 7 16 8 2 9 1 10 3 11 4 12
REMARK SMILES IDX 5 14 14 15 6 16 9 18 13 19 7 20 8 21 10 22 12 23 11 24 23 25
REMARK SMILES IDX 24 26 25 27 26 28 27 29 28 30 29 31 30 32 91 33 31 34 90 35
REMARK SMILES IDX 32 36 33 37 34 38 84 39 35 40 89 41 83 42 85 43 36 44 88 45
REMARK SMILES IDX 82 46 81 47 37 49 69 50 49 51 68 52 50 53 53 54 67 55 86 56
REMARK SMILES IDX 51 57 52 58 66 60 87 61 54 62 38 63 39 64 47 65 40 66 46 67
REMARK SMILES IDX 48 68 45 69 41 70 42 71 43 72 44 73 70 74 71 75 79 76 72 77
REMARK SMILES IDX 78 78 80 79 77 80 73 81 74 82 75 83 76 84 55 85 56 86 64 87
REMARK SMILES IDX 57 88 63 89 65 90 62 91 58 92 59 93 60 94 61 95
REMARK H PARENT 3 13 5 17 85 48 53 59
REMARK Flexibility Score: inf
ROOT
ATOM      1  C   UNL     1      -1.409   0.602   0.954  1.00  0.00     0.188 C 
ENDROOT
BRANCH   1   2
ATOM      2  C   UNL     1      -2.170   1.755   0.274  1.00  0.00     0.188 C 
BRANCH   2   3
ATOM      3  O   UNL     1      -3.518   1.542  -0.133  1.00  0.00    -0.376 OA
BRANCH   3   4
ATOM      4  C   UNL     1      -3.837   0.377  -0.885  1.00  0.00     0.202 C 
BRANCH   4   5
ATOM      5  C   UNL     1      -3.000   0.074  -2.135  1.00  0.00     0.261 C 
BRANCH   5   6
ATOM      6  O   UNL     1      -1.590  -0.095  -1.873  1.00  0.00    -0.460 OA
BRANCH   6   7
ATOM      7  C   UNL     1      -0.764   0.586  -2.720  1.00  0.00     0.350 C 
ATOM      8  O   UNL     1      -1.161   1.210  -3.700  1.00  0.00    -0.247 OA
BRANCH   7   9
ATOM      9  C   UNL     1       0.719   0.538  -2.319  1.00  0.00     0.279 C 
ATOM     10  C   UNL     1       1.533   0.231  -3.577  1.00  0.00     0.071 C 
BRANCH   9  11
ATOM     11  N   UNL     1       1.064  -0.458  -1.287  1.00  0.00    -0.260 N 
ATOM     12  C   UNL     1       2.329  -0.516  -0.748  1.00  0.00     0.292 C 
ATOM     13  H   UNL     1       0.378  -1.093  -0.979  1.00  0.00     0.306 HD
ATOM     14  N   UNL     1       3.168   0.480  -0.813  1.00  0.00    -0.162 N 
ATOM     15  C   UNL     1       2.873  -1.757  -0.149  1.00  0.00     0.087 A 
ATOM     16  S   UNL     1       4.646   0.059  -0.242  1.00  0.00     0.329 S 
ATOM     17  H   UNL     1       2.942   1.373  -1.162  1.00  0.00     0.327 HD
ATOM     18  C   UNL     1       4.220  -1.588   0.115  1.00  0.00     0.124 A 
ATOM     19  C   UNL     1       2.276  -2.987   0.055  1.00  0.00     0.018 A 
ATOM     20  O   UNL     1       4.921   0.705   1.011  1.00  0.00    -0.179 OA
ATOM     21  O   UNL     1       5.604   0.007  -1.336  1.00  0.00    -0.179 OA
ATOM     22  C   UNL     1       5.056  -2.610   0.520  1.00  0.00     0.025 A 
ATOM     23  C   UNL     1       3.089  -4.043   0.492  1.00  0.00     0.001 A 
ATOM     24  C   UNL     1       4.470  -3.861   0.705  1.00  0.00     0.002 A 
ENDBRANCH   9  11
ENDBRANCH   7   9
ENDBRANCH   6   7
ENDBRANCH   5   6
ENDBRANCH   4   5
ENDBRANCH   3   4
ENDBRANCH   2   3
ENDBRANCH   1   2
BRANCH   1  25
ATOM     25  O   UNL     1      -2.141  -0.606   1.080  1.00  0.00    -0.376 OA
BRANCH  25  26
ATOM     26  C   UNL     1      -2.515  -0.973   2.405  1.00  0.00     0.202 C 
BRANCH  26  27
ATOM     27  C   UNL     1      -3.434  -0.002   3.166  1.00  0.00     0.261 C 
BRANCH  27  28
ATOM     28  O   UNL     1      -2.935   1.337   3.323  1.00  0.00    -0.460 OA
BRANCH  28  29
ATOM     29  C   UNL     1      -1.830   1.498   4.090  1.00  0.00     0.338 C 
ATOM     30  O   UNL     1      -1.228   0.624   4.687  1.00  0.00    -0.246 OA
BRANCH  29  31
ATOM     31  C   UNL     1      -1.351   2.883   3.884  1.00  0.00     0.060 A 
ATOM     32  C   UNL     1      -0.064   3.090   3.371  1.00  0.00     0.016 A 
ATOM     33  C   UNL     1      -2.184   3.970   4.162  1.00  0.00     0.016 A 
ATOM     34  C   UNL     1       0.400   4.389   3.150  1.00  0.00     0.010 A 
ATOM     35  C   UNL     1      -1.710   5.269   3.964  1.00  0.00     0.010 A 
ATOM     36  C   UNL     1      -0.407   5.487   3.481  1.00  0.00    -0.014 A 
BRANCH  36  37
ATOM     37  C   UNL     1       0.179   6.850   3.530  1.00  0.00     0.031 A 
ATOM     38  C   UNL     1       0.716   7.338   4.848  1.00  0.00     0.074 A 
ATOM     39  C   UNL     1       0.236   7.638   2.442  1.00  0.00     0.049 A 
ATOM     40  N   UNL     1       1.214   8.503   5.168  1.00  0.00    -0.248 NA
ATOM     41  C   UNL     1       0.675   6.372   5.957  1.00  0.00     0.031 C 
ATOM     42  C   UNL     1      -0.209   7.263   1.101  1.00  0.00     0.029 A 
ATOM     43  N   UNL     1       0.687   8.927   2.299  1.00  0.00    -0.354 N 
ATOM     44  C   UNL     1       1.548   8.412   6.515  1.00  0.00     0.074 A 
ATOM     45  C   UNL     1       1.155   7.092   6.958  1.00  0.00     0.031 C 
ATOM     46  C   UNL     1      -0.018   8.306   0.273  1.00  0.00     0.029 A 
ATOM     47  C   UNL     1       0.527   9.432   1.030  1.00  0.00     0.049 A 
ATOM     48  H   UNL     1       1.089   9.441   3.037  1.00  0.00     0.167 HD
ATOM     49  C   UNL     1       2.137   9.341   7.309  1.00  0.00     0.034 A 
ATOM     50  C   UNL     1       0.769  10.668   0.546  1.00  0.00     0.034 A 
ATOM     51  C   UNL     1       2.495  10.665   6.861  1.00  0.00     0.049 A 
ATOM     52  C   UNL     1       1.327  11.725   1.473  1.00  0.00     0.074 A 
ATOM     53  C   UNL     1       3.094  11.686   7.577  1.00  0.00     0.029 A 
ATOM     54  N   UNL     1       2.270  11.158   5.582  1.00  0.00    -0.354 N 
ATOM     55  N   UNL     1       1.643  11.629   2.745  1.00  0.00    -0.248 NA
ATOM     56  C   UNL     1       1.563  13.055   0.895  1.00  0.00     0.031 C 
ATOM     57  C   UNL     1       3.164  12.816   6.755  1.00  0.00     0.029 A 
ATOM     58  C   UNL     1       2.684  12.479   5.499  1.00  0.00     0.049 A 
ATOM     59  H   UNL     1       1.874  10.644   4.841  1.00  0.00     0.167 HD
ATOM     60  C   UNL     1       2.146  12.877   3.108  1.00  0.00     0.074 A 
ATOM     61  C   UNL     1       2.096  13.705   1.920  1.00  0.00     0.031 C 
ATOM     62  C   UNL     1       2.615  13.298   4.311  1.00  0.00     0.034 A 
BRANCH  49  63
ATOM     63  C   UNL     1       2.359   8.963   8.754  1.00  0.00     0.023 A 
ATOM     64  C   UNL     1       3.209   7.903   9.119  1.00  0.00     0.031 A 
ATOM     65  C   UNL     1       1.658   9.627   9.776  1.00  0.00     0.131 A 
ATOM     66  C   UNL     1       3.268   7.484  10.457  1.00  0.00     0.055 A 
ATOM     67  C   UNL     1       1.788   9.259  11.116  1.00  0.00     0.041 A 
ATOM     68  F   UNL     1       0.812  10.628   9.486  1.00  0.00    -0.206 F 
ATOM     69  C   UNL     1       2.583   8.170  11.461  1.00  0.00     0.022 A 
BRANCH  66  70
ATOM     70  S   UNL     1       4.117   5.926  10.840  1.00  0.00     0.124 S 
ATOM     71  O   UNL     1       3.394   4.979   9.994  1.00  0.00    -0.237 OA
ATOM     72  O   UNL     1       5.492   6.212  10.450  1.00  0.00    -0.237 OA
ATOM     73  O   UNL     1       3.897   5.760  12.275  1.00  0.00    -0.744 OA
ENDBRANCH  66  70
ENDBRANCH  49  63
BRANCH  50  74
ATOM     74  C   UNL     1       0.448  11.002  -0.872  1.00  0.00     0.023 A 
ATOM     75  C   UNL     1       1.455  11.353  -1.785  1.00  0.00     0.031 A 
ATOM     76  C   UNL     1      -0.886  11.031  -1.318  1.00  0.00     0.131 A 
ATOM     77  C   UNL     1       1.111  11.754  -3.087  1.00  0.00     0.055 A 
ATOM     78  C   UNL     1      -1.219  11.383  -2.627  1.00  0.00     0.041 A 
ATOM     79  F   UNL     1      -1.888  10.711  -0.484  1.00  0.00    -0.206 F 
ATOM     80  C   UNL     1      -0.218  11.758  -3.517  1.00  0.00     0.022 A 
BRANCH  77  81
ATOM     81  S   UNL     1       2.422  12.343  -4.194  1.00  0.00     0.124 S 
ATOM     82  O   UNL     1       2.940  13.490  -3.457  1.00  0.00    -0.237 OA
ATOM     83  O   UNL     1       3.300  11.180  -4.272  1.00  0.00    -0.237 OA
ATOM     84  O   UNL     1       1.708  12.664  -5.427  1.00  0.00    -0.744 OA
ENDBRANCH  77  81
ENDBRANCH  50  74
BRANCH  62  85
ATOM     85  C   UNL     1       3.160  14.705   4.385  1.00  0.00     0.023 A 
ATOM     86  C   UNL     1       2.332  15.833   4.249  1.00  0.00     0.031 A 
ATOM     87  C   UNL     1       4.535  14.917   4.595  1.00  0.00     0.131 A 
ATOM     88  C   UNL     1       2.893  17.120   4.274  1.00  0.00     0.055 A 
ATOM     89  C   UNL     1       5.079  16.200   4.676  1.00  0.00     0.041 A 
ATOM     90  F   UNL     1       5.373  13.877   4.731  1.00  0.00    -0.206 F 
ATOM     91  C   UNL     1       4.258  17.310   4.503  1.00  0.00     0.022 A 
BRANCH  88  92
ATOM     92  S   UNL     1       1.828  18.546   3.920  1.00  0.00     0.124 S 
ATOM     93  O   UNL     1       1.324  18.226   2.588  1.00  0.00    -0.237 OA
ATOM     94  O   UNL     1       0.852  18.484   5.003  1.00  0.00    -0.237 OA
ATOM     95  O   UNL     1       2.745  19.683   3.978  1.00  0.00    -0.744 OA
ENDBRANCH  88  92
ENDBRANCH  62  85
ENDBRANCH  36  37
ENDBRANCH  29  31
ENDBRANCH  28  29
ENDBRANCH  27  28
ENDBRANCH  26  27
ENDBRANCH  25  26
ENDBRANCH   1  25
TORSDOF 21
