REMARK SMILES CCc1ccsc1C(=O)N(CC(=O)OCCOCCOCCOC(=O)c1ccc(-c2c3nc(c(-c4cc(S(=O)(=O)[O-])ccc4F)c4ccc([nH]4)c(-c4cc(S(=O)(=O)[O-])ccc4F)c4nc(c(-c5cc(S(=O)(=O)[O-])ccc5F)c5ccc2[nH]5)C=C4)C=C3)cc1)C(C)(C)C
REMARK SMILES IDX 18 1 17 2 16 3 15 4 14 5 12 6 13 7 11 8 10 9 8 10 9 11 7 12
REMARK SMILES IDX 3 13 4 14 5 15 6 16 2 17 1 18 89 19 90 20 91 21 92 22 19 23
REMARK SMILES IDX 20 24 21 25 22 26 23 27 24 28 25 29 26 30 27 31 88 32 28 33
REMARK SMILES IDX 87 34 29 35 30 36 31 37 81 38 32 39 86 40 80 41 82 42 33 43
REMARK SMILES IDX 85 44 79 45 78 46 34 48 66 49 46 50 65 51 47 52 50 53 64 54
REMARK SMILES IDX 83 55 48 56 49 57 63 59 84 60 51 61 35 62 36 63 44 64 37 65
REMARK SMILES IDX 43 66 45 67 42 68 38 69 39 70 40 71 41 72 67 73 68 74 76 75
REMARK SMILES IDX 69 76 75 77 77 78 74 79 70 80 71 81 72 82 73 83 52 84 53 85
REMARK SMILES IDX 61 86 54 87 60 88 62 89 59 90 55 91 56 92 57 93 58 94
REMARK H PARENT 82 47 50 58
REMARK Flexibility Score: inf
ROOT
ATOM      1  C   UNL     1       1.277   4.108   4.184  1.00  0.00     0.188 C 
ENDROOT
BRANCH   1   2
ATOM      2  O   UNL     1       2.377   3.225   4.392  1.00  0.00    -0.376 OA
BRANCH   2   3
ATOM      3  C   UNL     1       3.220   2.947   3.279  1.00  0.00     0.202 C 
BRANCH   3   4
ATOM      4  C   UNL     1       2.605   2.065   2.191  1.00  0.00     0.261 C 
BRANCH   4   5
ATOM      5  O   UNL     1       1.638   2.753   1.364  1.00  0.00    -0.462 OA
BRANCH   5   6
ATOM      6  C   UNL     1       0.368   2.258   1.358  1.00  0.00     0.325 C 
ATOM      7  O   UNL     1      -0.029   1.381   2.118  1.00  0.00    -0.250 OA
BRANCH   6   8
ATOM      8  C   UNL     1      -0.508   2.805   0.215  1.00  0.00     0.243 C 
BRANCH   8   9
ATOM      9  N   UNL     1       0.019   3.937  -0.551  1.00  0.00    -0.322 N 
BRANCH   9  10
ATOM     10  C   UNL     1       0.969   3.778  -1.594  1.00  0.00     0.265 C 
ATOM     11  O   UNL     1       1.605   4.786  -1.926  1.00  0.00    -0.268 OA
BRANCH  10  12
ATOM     12  C   UNL     1       1.164   2.535  -2.394  1.00  0.00     0.095 A 
ATOM     13  C   UNL     1       1.235   1.137  -2.227  1.00  0.00    -0.025 A 
ATOM     14  C   UNL     1       1.541   0.480  -3.483  1.00  0.00     0.016 A 
ATOM     15  C   UNL     1       1.725   1.332  -4.536  1.00  0.00     0.066 A 
ATOM     16  S   UNL     1       1.459   2.933  -4.085  1.00  0.00    -0.138 S 
BRANCH  13  17
ATOM     17  C   UNL     1       1.085   0.316  -0.969  1.00  0.00     0.034 C 
ATOM     18  C   UNL     1       1.601  -1.117  -1.000  1.00  0.00     0.009 C 
ENDBRANCH  13  17
ENDBRANCH  10  12
ENDBRANCH   9  10
BRANCH   9  19
ATOM     19  C   UNL     1      -0.572   5.323  -0.309  1.00  0.00     0.035 C 
ATOM     20  C   UNL     1       0.499   6.425  -0.107  1.00  0.00     0.034 C 
ATOM     21  C   UNL     1      -1.462   5.705  -1.511  1.00  0.00     0.034 C 
ATOM     22  C   UNL     1      -1.484   5.385   0.934  1.00  0.00     0.034 C 
ENDBRANCH   9  19
ENDBRANCH   8   9
ENDBRANCH   6   8
ENDBRANCH   5   6
ENDBRANCH   4   5
ENDBRANCH   3   4
ENDBRANCH   2   3
ENDBRANCH   1   2
BRANCH   1  23
ATOM     23  C   UNL     1       1.520   5.299   3.246  1.00  0.00     0.188 C 
BRANCH  23  24
ATOM     24  O   UNL     1       2.683   6.077   3.508  1.00  0.00    -0.376 OA
BRANCH  24  25
ATOM     25  C   UNL     1       2.764   6.671   4.801  1.00  0.00     0.202 C 
BRANCH  25  26
ATOM     26  C   UNL     1       1.641   7.668   5.093  1.00  0.00     0.261 C 
BRANCH  26  27
ATOM     27  O   UNL     1       0.441   6.968   5.487  1.00  0.00    -0.460 OA
BRANCH  27  28
ATOM     28  C   UNL     1      -0.707   7.506   5.023  1.00  0.00     0.338 C 
ATOM     29  O   UNL     1      -0.825   8.516   4.340  1.00  0.00    -0.246 OA
BRANCH  28  30
ATOM     30  C   UNL     1      -1.853   6.649   5.359  1.00  0.00     0.060 A 
ATOM     31  C   UNL     1      -2.242   5.669   4.446  1.00  0.00     0.016 A 
ATOM     32  C   UNL     1      -2.662   6.947   6.450  1.00  0.00     0.016 A 
ATOM     33  C   UNL     1      -3.486   5.050   4.554  1.00  0.00     0.010 A 
ATOM     34  C   UNL     1      -3.887   6.283   6.593  1.00  0.00     0.010 A 
ATOM     35  C   UNL     1      -4.336   5.369   5.618  1.00  0.00    -0.014 A 
BRANCH  35  36
ATOM     36  C   UNL     1      -5.743   4.878   5.646  1.00  0.00     0.031 A 
ATOM     37  C   UNL     1      -6.864   5.884   5.588  1.00  0.00     0.074 A 
ATOM     38  C   UNL     1      -6.039   3.564   5.695  1.00  0.00     0.049 A 
ATOM     39  N   UNL     1      -8.130   5.742   5.883  1.00  0.00    -0.248 NA
ATOM     40  C   UNL     1      -6.496   7.239   5.150  1.00  0.00     0.031 C 
ATOM     41  C   UNL     1      -5.070   2.471   5.639  1.00  0.00     0.029 A 
ATOM     42  N   UNL     1      -7.252   2.927   5.811  1.00  0.00    -0.354 N 
ATOM     43  C   UNL     1      -8.696   7.006   5.740  1.00  0.00     0.074 A 
ATOM     44  C   UNL     1      -7.633   7.897   5.323  1.00  0.00     0.031 C 
ATOM     45  C   UNL     1      -5.724   1.300   5.714  1.00  0.00     0.029 A 
ATOM     46  C   UNL     1      -7.145   1.560   5.923  1.00  0.00     0.049 A 
ATOM     47  H   UNL     1      -8.114   3.404   5.813  1.00  0.00     0.167 HD
ATOM     48  C   UNL     1      -9.980   7.386   5.955  1.00  0.00     0.034 A 
ATOM     49  C   UNL     1      -8.072   0.628   6.227  1.00  0.00     0.034 A 
ATOM     50  C   UNL     1     -11.033   6.470   6.323  1.00  0.00     0.049 A 
ATOM     51  C   UNL     1      -9.483   1.072   6.520  1.00  0.00     0.074 A 
ATOM     52  C   UNL     1     -12.365   6.740   6.587  1.00  0.00     0.029 A 
ATOM     53  N   UNL     1     -10.874   5.096   6.461  1.00  0.00    -0.354 N 
ATOM     54  N   UNL     1      -9.987   2.285   6.512  1.00  0.00    -0.248 NA
ATOM     55  C   UNL     1     -10.445   0.024   6.886  1.00  0.00     0.031 C 
ATOM     56  C   UNL     1     -12.997   5.539   6.933  1.00  0.00     0.029 A 
ATOM     57  C   UNL     1     -12.077   4.510   6.821  1.00  0.00     0.049 A 
ATOM     58  H   UNL     1     -10.029   4.610   6.323  1.00  0.00     0.167 HD
ATOM     59  C   UNL     1     -11.326   2.142   6.864  1.00  0.00     0.074 A 
ATOM     60  C   UNL     1     -11.556   0.725   7.054  1.00  0.00     0.031 C 
ATOM     61  C   UNL     1     -12.281   3.095   7.020  1.00  0.00     0.034 A 
BRANCH  48  62
ATOM     62  C   UNL     1     -10.286   8.863   5.884  1.00  0.00     0.023 A 
ATOM     63  C   UNL     1     -10.189   9.595   4.689  1.00  0.00     0.031 A 
ATOM     64  C   UNL     1     -10.632   9.560   7.056  1.00  0.00     0.131 A 
ATOM     65  C   UNL     1     -10.360  10.989   4.708  1.00  0.00     0.055 A 
ATOM     66  C   UNL     1     -10.878  10.934   7.054  1.00  0.00     0.041 A 
ATOM     67  F   UNL     1     -10.717   8.918   8.233  1.00  0.00    -0.206 F 
ATOM     68  C   UNL     1     -10.726  11.660   5.877  1.00  0.00     0.022 A 
BRANCH  65  69
ATOM     69  S   UNL     1      -9.951  11.934   3.214  1.00  0.00     0.124 S 
ATOM     70  O   UNL     1      -8.548  11.578   3.015  1.00  0.00    -0.237 OA
ATOM     71  O   UNL     1     -10.890  11.400   2.236  1.00  0.00    -0.237 OA
ATOM     72  O   UNL     1     -10.184  13.321   3.611  1.00  0.00    -0.744 OA
ENDBRANCH  65  69
ENDBRANCH  48  62
BRANCH  49  73
ATOM     73  C   UNL     1      -7.681  -0.804   6.374  1.00  0.00     0.023 A 
ATOM     74  C   UNL     1      -8.198  -1.792   5.522  1.00  0.00     0.031 A 
ATOM     75  C   UNL     1      -6.808  -1.209   7.401  1.00  0.00     0.131 A 
ATOM     76  C   UNL     1      -7.862  -3.140   5.732  1.00  0.00     0.055 A 
ATOM     77  C   UNL     1      -6.436  -2.543   7.572  1.00  0.00     0.041 A 
ATOM     78  F   UNL     1      -6.290  -0.305   8.248  1.00  0.00    -0.206 F 
ATOM     79  C   UNL     1      -6.973  -3.519   6.740  1.00  0.00     0.022 A 
BRANCH  76  80
ATOM     80  S   UNL     1      -8.661  -4.406   4.707  1.00  0.00     0.124 S 
ATOM     81  O   UNL     1     -10.071  -4.184   5.006  1.00  0.00    -0.237 OA
ATOM     82  O   UNL     1      -8.222  -4.032   3.367  1.00  0.00    -0.237 OA
ATOM     83  O   UNL     1      -8.104  -5.658   5.216  1.00  0.00    -0.744 OA
ENDBRANCH  76  80
ENDBRANCH  49  73
BRANCH  61  84
ATOM     84  C   UNL     1     -13.666   2.617   7.375  1.00  0.00     0.023 A 
ATOM     85  C   UNL     1     -13.957   2.078   8.640  1.00  0.00     0.031 A 
ATOM     86  C   UNL     1     -14.701   2.688   6.428  1.00  0.00     0.131 A 
ATOM     87  C   UNL     1     -15.242   1.583   8.907  1.00  0.00     0.055 A 
ATOM     88  C   UNL     1     -15.991   2.240   6.716  1.00  0.00     0.041 A 
ATOM     89  F   UNL     1     -14.474   3.193   5.205  1.00  0.00    -0.206 F 
ATOM     90  C   UNL     1     -16.264   1.673   7.958  1.00  0.00     0.022 A 
BRANCH  87  91
ATOM     91  S   UNL     1     -15.544   0.746  10.488  1.00  0.00     0.124 S 
ATOM     92  O   UNL     1     -14.582  -0.351  10.439  1.00  0.00    -0.237 OA
ATOM     93  O   UNL     1     -15.262   1.799  11.458  1.00  0.00    -0.237 OA
ATOM     94  O   UNL     1     -16.947   0.344  10.402  1.00  0.00    -0.744 OA
ENDBRANCH  87  91
ENDBRANCH  61  84
ENDBRANCH  35  36
ENDBRANCH  28  30
ENDBRANCH  27  28
ENDBRANCH  26  27
ENDBRANCH  25  26
ENDBRANCH  24  25
ENDBRANCH  23  24
ENDBRANCH   1  23
TORSDOF 25
