REMARK SMILES C[NH+]1CCC(C(=O)N2C[C@@H](C(=O)OCCOCCOCCOC(=O)c3ccc(-c4c5nc(c(-c6cc(S(=O)(=O)[O-])ccc6F)c6ccc([nH]6)c(-c6cc(S(=O)(=O)[O-])ccc6F)c6nc(c(-c7cc(S(=O)(=O)[O-])ccc7F)c7ccc4[nH]7)C=C6)C=C5)cc3)[C@H](c3ccc4c(c3)OCO4)C2)CC1
REMARK SMILES IDX 18 1 17 2 16 3 15 4 14 5 13 6 11 7 12 8 10 9 8 10 9 11 98 12
REMARK SMILES IDX 88 13 6 14 7 15 5 16 1 17 2 18 3 19 100 20 4 22 99 23 89 24
REMARK SMILES IDX 90 25 94 26 91 27 93 28 92 29 95 30 97 31 96 32 19 33 20 34
REMARK SMILES IDX 21 35 22 36 23 37 24 38 25 39 26 40 87 41 27 42 86 43 28 44
REMARK SMILES IDX 29 45 30 46 80 47 31 48 85 49 79 50 81 51 32 52 84 53 78 54
REMARK SMILES IDX 77 55 33 57 65 58 45 59 64 60 46 61 49 62 63 63 82 64 47 65
REMARK SMILES IDX 48 66 62 68 83 69 50 70 34 71 35 72 43 73 36 74 42 75 44 76
REMARK SMILES IDX 41 77 37 78 38 79 39 80 40 81 66 82 67 83 75 84 68 85 74 86
REMARK SMILES IDX 76 87 73 88 69 89 70 90 71 91 72 92 51 93 52 94 60 95 53 96
REMARK SMILES IDX 59 97 61 98 58 99 54 100 55 101 56 102 57 103
REMARK H PARENT 2 21 81 56 49 67
REMARK Flexibility Score: inf
ROOT
ATOM      1  C   UNL     1       0.630  -1.805   5.080  1.00  0.00     0.188 C 
ENDROOT
BRANCH   1   2
ATOM      2  C   UNL     1       1.622  -2.991   5.122  1.00  0.00     0.188 C 
BRANCH   2   3
ATOM      3  O   UNL     1       1.985  -3.576   6.366  1.00  0.00    -0.376 OA
BRANCH   3   4
ATOM      4  C   UNL     1       2.374  -2.754   7.456  1.00  0.00     0.202 C 
BRANCH   4   5
ATOM      5  C   UNL     1       3.401  -1.634   7.249  1.00  0.00     0.261 C 
BRANCH   5   6
ATOM      6  O   UNL     1       3.168  -0.815   6.097  1.00  0.00    -0.463 OA
BRANCH   6   7
ATOM      7  C   UNL     1       4.068  -0.903   5.077  1.00  0.00     0.311 C 
ATOM      8  O   UNL     1       5.059  -1.617   5.068  1.00  0.00    -0.252 OA
BRANCH   7   9
ATOM      9  C   UNL     1       3.677   0.036   3.964  1.00  0.00     0.128 C 
ATOM     10  N   UNL     1       3.670   0.370   1.673  1.00  0.00    -0.341 N 
ATOM     11  C   UNL     1       3.484  -0.684   2.646  1.00  0.00     0.135 C 
ATOM     12  C   UNL     1       4.675   1.306   2.165  1.00  0.00     0.128 C 
ATOM     13  C   UNL     1       4.775   1.093   3.693  1.00  0.00     0.055 C 
BRANCH  10  14
ATOM     14  C   UNL     1       3.404   0.302   0.320  1.00  0.00     0.226 C 
ATOM     15  O   UNL     1       4.265   0.645  -0.496  1.00  0.00    -0.275 OA
BRANCH  14  16
ATOM     16  C   UNL     1       1.958   0.120  -0.163  1.00  0.00     0.090 C 
ATOM     17  C   UNL     1      -2.346   0.006  -0.166  1.00  0.00     0.332 C 
ATOM     18  N   UNL     1      -0.931   0.023   0.216  1.00  0.00    -0.337 N 
ATOM     19  C   UNL     1      -0.299   1.274  -0.220  1.00  0.00     0.262 C 
ATOM     20  C   UNL     1      -0.226  -1.128  -0.370  1.00  0.00     0.262 C 
ATOM     21  H   UNL     1      -0.873  -0.038   1.232  1.00  0.00     0.347 HD
ATOM     22  C   UNL     1       1.139   1.338   0.287  1.00  0.00     0.075 C 
ATOM     23  C   UNL     1       1.219  -1.174   0.153  1.00  0.00     0.075 C 
ENDBRANCH  14  16
ENDBRANCH  10  14
BRANCH  13  24
ATOM     24  C   UNL     1       4.532   2.255   4.655  1.00  0.00    -0.038 A 
ATOM     25  C   UNL     1       3.978   3.493   4.265  1.00  0.00     0.008 A 
ATOM     26  C   UNL     1       4.679   1.989   6.035  1.00  0.00     0.054 A 
ATOM     27  C   UNL     1       3.464   4.388   5.215  1.00  0.00     0.051 A 
ATOM     28  C   UNL     1       4.076   2.834   6.935  1.00  0.00     0.166 A 
ATOM     29  C   UNL     1       3.470   3.998   6.535  1.00  0.00     0.165 A 
ATOM     30  O   UNL     1       3.908   2.590   8.264  1.00  0.00    -0.454 OA
ATOM     31  O   UNL     1       2.852   4.631   7.569  1.00  0.00    -0.454 OA
ATOM     32  C   UNL     1       2.919   3.592   8.570  1.00  0.00     0.468 C 
ENDBRANCH  13  24
ENDBRANCH   7   9
ENDBRANCH   6   7
ENDBRANCH   5   6
ENDBRANCH   4   5
ENDBRANCH   3   4
ENDBRANCH   2   3
ENDBRANCH   1   2
BRANCH   1  33
ATOM     33  O   UNL     1       0.225  -1.352   6.349  1.00  0.00    -0.376 OA
BRANCH  33  34
ATOM     34  C   UNL     1      -1.006  -1.810   6.879  1.00  0.00     0.202 C 
BRANCH  34  35
ATOM     35  C   UNL     1      -1.653  -3.174   6.551  1.00  0.00     0.261 C 
BRANCH  35  36
ATOM     36  O   UNL     1      -1.138  -3.938   5.454  1.00  0.00    -0.460 OA
BRANCH  36  37
ATOM     37  C   UNL     1      -1.806  -3.851   4.280  1.00  0.00     0.338 C 
ATOM     38  O   UNL     1      -2.781  -3.147   4.046  1.00  0.00    -0.246 OA
BRANCH  37  39
ATOM     39  C   UNL     1      -1.063  -4.604   3.250  1.00  0.00     0.060 A 
ATOM     40  C   UNL     1      -0.387  -3.889   2.255  1.00  0.00     0.016 A 
ATOM     41  C   UNL     1      -1.039  -6.000   3.245  1.00  0.00     0.016 A 
ATOM     42  C   UNL     1       0.301  -4.566   1.245  1.00  0.00     0.010 A 
ATOM     43  C   UNL     1      -0.373  -6.676   2.212  1.00  0.00     0.010 A 
ATOM     44  C   UNL     1       0.280  -5.963   1.190  1.00  0.00    -0.014 A 
BRANCH  44  45
ATOM     45  C   UNL     1       0.758  -6.652  -0.040  1.00  0.00     0.031 A 
ATOM     46  C   UNL     1      -0.269  -7.102  -1.048  1.00  0.00     0.074 A 
ATOM     47  C   UNL     1       2.069  -6.833  -0.293  1.00  0.00     0.049 A 
ATOM     48  N   UNL     1      -0.114  -7.800  -2.141  1.00  0.00    -0.248 NA
ATOM     49  C   UNL     1      -1.661  -6.702  -0.782  1.00  0.00     0.031 C 
ATOM     50  C   UNL     1       3.167  -6.357   0.547  1.00  0.00     0.029 A 
ATOM     51  N   UNL     1       2.700  -7.473  -1.334  1.00  0.00    -0.354 N 
ATOM     52  C   UNL     1      -1.388  -7.955  -2.677  1.00  0.00     0.074 A 
ATOM     53  C   UNL     1      -2.305  -7.280  -1.784  1.00  0.00     0.031 C 
ATOM     54  C   UNL     1       4.335  -6.735  -0.005  1.00  0.00     0.029 A 
ATOM     55  C   UNL     1       4.071  -7.529  -1.204  1.00  0.00     0.049 A 
ATOM     56  H   UNL     1       2.217  -7.857  -2.101  1.00  0.00     0.167 HD
ATOM     57  C   UNL     1      -1.758  -8.606  -3.806  1.00  0.00     0.034 A 
ATOM     58  C   UNL     1       4.996  -8.180  -1.943  1.00  0.00     0.034 A 
ATOM     59  C   UNL     1      -0.833  -9.264  -4.694  1.00  0.00     0.049 A 
ATOM     60  C   UNL     1       4.541  -8.989  -3.142  1.00  0.00     0.074 A 
ATOM     61  C   UNL     1      -1.106  -9.934  -5.875  1.00  0.00     0.029 A 
ATOM     62  N   UNL     1       0.538  -9.351  -4.497  1.00  0.00    -0.354 N 
ATOM     63  N   UNL     1       3.330  -9.136  -3.632  1.00  0.00    -0.248 NA
ATOM     64  C   UNL     1       5.577  -9.717  -3.888  1.00  0.00     0.031 C 
ATOM     65  C   UNL     1       0.083 -10.500  -6.342  1.00  0.00     0.029 A 
ATOM     66  C   UNL     1       1.117 -10.099  -5.511  1.00  0.00     0.049 A 
ATOM     67  H   UNL     1       1.028  -8.941  -3.748  1.00  0.00     0.167 HD
ATOM     68  C   UNL     1       3.475  -9.930  -4.770  1.00  0.00     0.074 A 
ATOM     69  C   UNL     1       4.886 -10.221  -4.898  1.00  0.00     0.031 C 
ATOM     70  C   UNL     1       2.528 -10.373  -5.637  1.00  0.00     0.034 A 
BRANCH  57  71
ATOM     71  C   UNL     1      -3.233  -8.710  -4.107  1.00  0.00     0.023 A 
ATOM     72  C   UNL     1      -4.017  -7.590  -4.429  1.00  0.00     0.031 A 
ATOM     73  C   UNL     1      -3.860  -9.969  -4.080  1.00  0.00     0.131 A 
ATOM     74  C   UNL     1      -5.392  -7.746  -4.666  1.00  0.00     0.055 A 
ATOM     75  C   UNL     1      -5.211 -10.128  -4.390  1.00  0.00     0.041 A 
ATOM     76  F   UNL     1      -3.166 -11.070  -3.750  1.00  0.00    -0.206 F 
ATOM     77  C   UNL     1      -5.988  -9.010  -4.677  1.00  0.00     0.022 A 
BRANCH  74  78
ATOM     78  S   UNL     1      -6.419  -6.262  -4.848  1.00  0.00     0.124 S 
ATOM     79  O   UNL     1      -6.192  -5.588  -3.572  1.00  0.00    -0.237 OA
ATOM     80  O   UNL     1      -5.839  -5.618  -6.021  1.00  0.00    -0.237 OA
ATOM     81  O   UNL     1      -7.766  -6.797  -5.031  1.00  0.00    -0.744 OA
ENDBRANCH  74  78
ENDBRANCH  57  71
BRANCH  58  82
ATOM     82  C   UNL     1       6.442  -8.172  -1.558  1.00  0.00     0.023 A 
ATOM     83  C   UNL     1       7.430  -7.721  -2.451  1.00  0.00     0.031 A 
ATOM     84  C   UNL     1       6.871  -8.732  -0.341  1.00  0.00     0.131 A 
ATOM     85  C   UNL     1       8.789  -7.910  -2.149  1.00  0.00     0.055 A 
ATOM     86  C   UNL     1       8.223  -8.846  -0.011  1.00  0.00     0.041 A 
ATOM     87  F   UNL     1       5.976  -9.196   0.547  1.00  0.00    -0.206 F 
ATOM     88  C   UNL     1       9.192  -8.453  -0.928  1.00  0.00     0.022 A 
BRANCH  85  89
ATOM     89  S   UNL     1      10.020  -7.578  -3.442  1.00  0.00     0.124 S 
ATOM     90  O   UNL     1       9.543  -8.430  -4.526  1.00  0.00    -0.237 OA
ATOM     91  O   UNL     1       9.870  -6.141  -3.641  1.00  0.00    -0.237 OA
ATOM     92  O   UNL     1      11.279  -7.994  -2.828  1.00  0.00    -0.744 OA
ENDBRANCH  85  89
ENDBRANCH  58  82
BRANCH  70  93
ATOM     93  C   UNL     1       2.997 -11.148  -6.848  1.00  0.00     0.023 A 
ATOM     94  C   UNL     1       3.612 -12.408  -6.742  1.00  0.00     0.031 A 
ATOM     95  C   UNL     1       2.823 -10.607  -8.136  1.00  0.00     0.131 A 
ATOM     96  C   UNL     1       4.084 -13.055  -7.895  1.00  0.00     0.055 A 
ATOM     97  C   UNL     1       3.230 -11.287  -9.284  1.00  0.00     0.041 A 
ATOM     98  F   UNL     1       2.244  -9.406  -8.300  1.00  0.00    -0.206 F 
ATOM     99  C   UNL     1       3.879 -12.512  -9.166  1.00  0.00     0.022 A 
BRANCH  96 100
ATOM    100  S   UNL     1       5.061 -14.572  -7.707  1.00  0.00     0.124 S 
ATOM    101  O   UNL     1       6.157 -14.124  -6.854  1.00  0.00    -0.237 OA
ATOM    102  O   UNL     1       4.105 -15.485  -7.090  1.00  0.00    -0.237 OA
ATOM    103  O   UNL     1       5.440 -14.908  -9.079  1.00  0.00    -0.744 OA
ENDBRANCH  96 100
ENDBRANCH  70  93
ENDBRANCH  44  45
ENDBRANCH  37  39
ENDBRANCH  36  37
ENDBRANCH  35  36
ENDBRANCH  34  35
ENDBRANCH  33  34
ENDBRANCH   1  33
TORSDOF 23
