REMARK SMILES CC(C)[C@@H](NC(=O)/C(=C\c1ccccc1F)NC(=O)c1ccccc1)C(=O)OCCOCCOCCOC(=O)c1ccc(-c2c3nc(c(-c4cc(S(=O)(=O)[O-])ccc4F)c4ccc([nH]4)c(-c4cc(S(=O)(=O)[O-])ccc4F)c4nc(c(-c5cc(S(=O)(=O)[O-])ccc5F)c5ccc2[nH]5)C=C4)C=C3)cc1
REMARK SMILES IDX 32 1 31 2 30 3 29 4 28 5 26 6 27 7 4 8 2 9 1 10 3 11 5 12
REMARK SMILES IDX 6 13 7 15 8 16 9 17 17 18 18 19 19 21 20 22 21 23 25 24
REMARK SMILES IDX 22 25 24 26 23 27 10 28 11 29 15 30 12 31 14 32 16 33 13 34
REMARK SMILES IDX 33 35 34 36 35 37 36 38 37 39 38 40 39 41 40 42 41 43 102 44
REMARK SMILES IDX 42 45 101 46 43 47 44 48 45 49 95 50 46 51 100 52 94 53
REMARK SMILES IDX 96 54 47 55 99 56 93 57 92 58 48 60 80 61 60 62 79 63 61 64
REMARK SMILES IDX 64 65 78 66 97 67 62 68 63 69 77 71 98 72 65 73 49 74 50 75
REMARK SMILES IDX 58 76 51 77 57 78 59 79 56 80 52 81 53 82 54 83 55 84 81 85
REMARK SMILES IDX 82 86 90 87 83 88 89 89 91 90 88 91 84 92 85 93 86 94 87 95
REMARK SMILES IDX 66 96 67 97 75 98 68 99 74 100 76 101 73 102 69 103 70 104
REMARK SMILES IDX 71 105 72 106
REMARK H PARENT 5 14 17 20 96 59 64 70
REMARK Flexibility Score: inf
ROOT
ATOM      1  C   UNL     1      -1.041  -2.221   5.234  1.00  0.00     0.188 C 
ENDROOT
BRANCH   1   2
ATOM      2  O   UNL     1      -0.821  -3.609   5.442  1.00  0.00    -0.376 OA
BRANCH   2   3
ATOM      3  C   UNL     1      -1.348  -4.486   4.462  1.00  0.00     0.202 C 
BRANCH   3   4
ATOM      4  C   UNL     1      -0.398  -4.789   3.283  1.00  0.00     0.261 C 
BRANCH   4   5
ATOM      5  O   UNL     1       0.011  -3.717   2.401  1.00  0.00    -0.462 OA
BRANCH   5   6
ATOM      6  C   UNL     1      -0.988  -3.017   1.822  1.00  0.00     0.328 C 
ATOM      7  O   UNL     1      -2.147  -3.169   2.179  1.00  0.00    -0.250 OA
BRANCH   6   8
ATOM      8  C   UNL     1      -0.556  -1.955   0.774  1.00  0.00     0.195 C 
BRANCH   8   9
ATOM      9  C   UNL     1       0.941  -1.953   0.320  1.00  0.00     0.017 C 
ATOM     10  C   UNL     1       1.196  -0.927  -0.809  1.00  0.00     0.010 C 
ATOM     11  C   UNL     1       1.912  -1.578   1.451  1.00  0.00     0.010 C 
ENDBRANCH   8   9
BRANCH   8  12
ATOM     12  N   UNL     1      -1.451  -1.971  -0.409  1.00  0.00    -0.337 N 
ATOM     13  C   UNL     1      -2.752  -1.582  -0.575  1.00  0.00     0.268 C 
ATOM     14  H   UNL     1      -1.031  -2.326  -1.225  1.00  0.00     0.164 HD
ATOM     15  O   UNL     1      -3.107  -1.184  -1.683  1.00  0.00    -0.268 OA
BRANCH  13  16
ATOM     16  C   UNL     1      -3.756  -1.775   0.518  1.00  0.00     0.107 C 
ATOM     17  C   UNL     1      -4.006  -0.768   1.381  1.00  0.00     0.043 C 
BRANCH  16  18
ATOM     18  N   UNL     1      -4.350  -3.017   0.721  1.00  0.00    -0.317 N 
ATOM     19  C   UNL     1      -4.219  -4.219   0.054  1.00  0.00     0.255 C 
ATOM     20  H   UNL     1      -4.979  -3.043   1.478  1.00  0.00     0.170 HD
ATOM     21  O   UNL     1      -4.546  -5.279   0.586  1.00  0.00    -0.269 OA
BRANCH  19  22
ATOM     22  C   UNL     1      -3.757  -4.257  -1.339  1.00  0.00     0.040 A 
ATOM     23  C   UNL     1      -4.662  -3.911  -2.345  1.00  0.00     0.014 A 
ATOM     24  C   UNL     1      -2.442  -4.620  -1.647  1.00  0.00     0.014 A 
ATOM     25  C   UNL     1      -4.224  -3.848  -3.665  1.00  0.00     0.001 A 
ATOM     26  C   UNL     1      -2.002  -4.524  -2.969  1.00  0.00     0.001 A 
ATOM     27  C   UNL     1      -2.891  -4.130  -3.972  1.00  0.00     0.000 A 
ENDBRANCH  19  22
ENDBRANCH  16  18
BRANCH  17  28
ATOM     28  C   UNL     1      -3.285   0.510   1.377  1.00  0.00     0.012 A 
ATOM     29  C   UNL     1      -2.204   0.660   2.251  1.00  0.00     0.011 A 
ATOM     30  C   UNL     1      -3.553   1.523   0.456  1.00  0.00     0.130 A 
ATOM     31  C   UNL     1      -1.321   1.727   2.098  1.00  0.00     0.001 A 
ATOM     32  C   UNL     1      -2.710   2.627   0.347  1.00  0.00     0.040 A 
ATOM     33  F   UNL     1      -4.612   1.430  -0.358  1.00  0.00    -0.206 F 
ATOM     34  C   UNL     1      -1.571   2.712   1.147  1.00  0.00     0.003 A 
ENDBRANCH  17  28
ENDBRANCH  13  16
ENDBRANCH   8  12
ENDBRANCH   6   8
ENDBRANCH   5   6
ENDBRANCH   4   5
ENDBRANCH   3   4
ENDBRANCH   2   3
ENDBRANCH   1   2
BRANCH   1  35
ATOM     35  C   UNL     1       0.188  -1.478   4.704  1.00  0.00     0.188 C 
BRANCH  35  36
ATOM     36  O   UNL     1       1.483  -2.010   4.960  1.00  0.00    -0.376 OA
BRANCH  36  37
ATOM     37  C   UNL     1       1.758  -2.535   6.251  1.00  0.00     0.202 C 
BRANCH  37  38
ATOM     38  C   UNL     1       1.937  -1.551   7.410  1.00  0.00     0.261 C 
BRANCH  38  39
ATOM     39  O   UNL     1       1.190  -0.337   7.293  1.00  0.00    -0.460 OA
BRANCH  39  40
ATOM     40  C   UNL     1       1.872   0.662   6.686  1.00  0.00     0.338 C 
ATOM     41  O   UNL     1       3.015   0.613   6.237  1.00  0.00    -0.246 OA
BRANCH  40  42
ATOM     42  C   UNL     1       0.993   1.825   6.509  1.00  0.00     0.060 A 
ATOM     43  C   UNL     1       0.814   2.318   5.213  1.00  0.00     0.016 A 
ATOM     44  C   UNL     1       0.413   2.472   7.603  1.00  0.00     0.016 A 
ATOM     45  C   UNL     1       0.065   3.474   5.003  1.00  0.00     0.010 A 
ATOM     46  C   UNL     1      -0.321   3.644   7.391  1.00  0.00     0.010 A 
ATOM     47  C   UNL     1      -0.480   4.163   6.093  1.00  0.00    -0.014 A 
BRANCH  47  48
ATOM     48  C   UNL     1      -1.033   5.525   5.898  1.00  0.00     0.031 A 
ATOM     49  C   UNL     1      -0.147   6.700   6.211  1.00  0.00     0.074 A 
ATOM     50  C   UNL     1      -2.268   5.729   5.406  1.00  0.00     0.049 A 
ATOM     51  N   UNL     1      -0.447   7.969   6.285  1.00  0.00    -0.248 NA
ATOM     52  C   UNL     1       1.270   6.396   6.469  1.00  0.00     0.031 C 
ATOM     53  C   UNL     1      -3.179   4.685   4.938  1.00  0.00     0.029 A 
ATOM     54  N   UNL     1      -2.967   6.895   5.217  1.00  0.00    -0.354 N 
ATOM     55  C   UNL     1       0.737   8.616   6.617  1.00  0.00     0.074 A 
ATOM     56  C   UNL     1       1.758   7.598   6.738  1.00  0.00     0.031 C 
ATOM     57  C   UNL     1      -4.322   5.260   4.523  1.00  0.00     0.029 A 
ATOM     58  C   UNL     1      -4.247   6.703   4.752  1.00  0.00     0.049 A 
ATOM     59  H   UNL     1      -2.588   7.786   5.397  1.00  0.00     0.167 HD
ATOM     60  C   UNL     1       0.951   9.938   6.809  1.00  0.00     0.034 A 
ATOM     61  C   UNL     1      -5.254   7.584   4.577  1.00  0.00     0.034 A 
ATOM     62  C   UNL     1      -0.071  10.944   6.683  1.00  0.00     0.049 A 
ATOM     63  C   UNL     1      -5.034   9.037   4.926  1.00  0.00     0.074 A 
ATOM     64  C   UNL     1       0.033  12.307   6.897  1.00  0.00     0.029 A 
ATOM     65  N   UNL     1      -1.382  10.698   6.303  1.00  0.00    -0.354 N 
ATOM     66  N   UNL     1      -3.942   9.627   5.354  1.00  0.00    -0.248 NA
ATOM     67  C   UNL     1      -6.188   9.940   4.789  1.00  0.00     0.031 C 
ATOM     68  C   UNL     1      -1.229  12.877   6.700  1.00  0.00     0.029 A 
ATOM     69  C   UNL     1      -2.103  11.880   6.298  1.00  0.00     0.049 A 
ATOM     70  H   UNL     1      -1.746   9.813   6.071  1.00  0.00     0.167 HD
ATOM     71  C   UNL     1      -4.273  10.971   5.516  1.00  0.00     0.074 A 
ATOM     72  C   UNL     1      -5.665  11.107   5.141  1.00  0.00     0.031 C 
ATOM     73  C   UNL     1      -3.492  12.000   5.930  1.00  0.00     0.034 A 
BRANCH  60  74
ATOM     74  C   UNL     1       2.327  10.361   7.243  1.00  0.00     0.023 A 
ATOM     75  C   UNL     1       3.426  10.307   6.371  1.00  0.00     0.031 A 
ATOM     76  C   UNL     1       2.538  10.822   8.554  1.00  0.00     0.131 A 
ATOM     77  C   UNL     1       4.699  10.671   6.835  1.00  0.00     0.055 A 
ATOM     78  C   UNL     1       3.794  11.242   8.991  1.00  0.00     0.041 A 
ATOM     79  F   UNL     1       1.523  10.868   9.432  1.00  0.00    -0.206 F 
ATOM     80  C   UNL     1       4.886  11.160   8.131  1.00  0.00     0.022 A 
BRANCH  77  81
ATOM     81  S   UNL     1       6.128  10.419   5.748  1.00  0.00     0.124 S 
ATOM     82  O   UNL     1       6.154   8.963   5.631  1.00  0.00    -0.237 OA
ATOM     83  O   UNL     1       5.745  11.149   4.545  1.00  0.00    -0.237 OA
ATOM     84  O   UNL     1       7.238  10.998   6.502  1.00  0.00    -0.744 OA
ENDBRANCH  77  81
ENDBRANCH  60  74
BRANCH  61  85
ATOM     85  C   UNL     1      -6.592   7.115   4.119  1.00  0.00     0.023 A 
ATOM     86  C   UNL     1      -7.112   7.503   2.875  1.00  0.00     0.031 A 
ATOM     87  C   UNL     1      -7.388   6.298   4.944  1.00  0.00     0.131 A 
ATOM     88  C   UNL     1      -8.403   7.095   2.501  1.00  0.00     0.055 A 
ATOM     89  C   UNL     1      -8.652   5.860   4.549  1.00  0.00     0.041 A 
ATOM     90  F   UNL     1      -6.938   5.906   6.147  1.00  0.00    -0.206 F 
ATOM     91  C   UNL     1      -9.169   6.264   3.323  1.00  0.00     0.022 A 
BRANCH  88  92
ATOM     92  S   UNL     1      -9.090   7.698   0.934  1.00  0.00     0.124 S 
ATOM     93  O   UNL     1      -9.214   9.127   1.198  1.00  0.00    -0.237 OA
ATOM     94  O   UNL     1      -8.059   7.309  -0.023  1.00  0.00    -0.237 OA
ATOM     95  O   UNL     1     -10.352   6.971   0.815  1.00  0.00    -0.744 OA
ENDBRANCH  88  92
ENDBRANCH  61  85
BRANCH  73  96
ATOM     96  C   UNL     1      -4.103  13.376   5.964  1.00  0.00     0.023 A 
ATOM     97  C   UNL     1      -5.024  13.751   6.955  1.00  0.00     0.031 A 
ATOM     98  C   UNL     1      -3.700  14.344   5.026  1.00  0.00     0.131 A 
ATOM     99  C   UNL     1      -5.530  15.060   6.974  1.00  0.00     0.055 A 
ATOM    100  C   UNL     1      -4.175  15.655   5.075  1.00  0.00     0.041 A 
ATOM    101  F   UNL     1      -2.817  14.035   4.063  1.00  0.00    -0.206 F 
ATOM    102  C   UNL     1      -5.098  16.018   6.052  1.00  0.00     0.022 A 
BRANCH  99 103
ATOM    103  S   UNL     1      -6.777  15.499   8.216  1.00  0.00     0.124 S 
ATOM    104  O   UNL     1      -7.907  14.668   7.816  1.00  0.00    -0.237 OA
ATOM    105  O   UNL     1      -6.123  15.126   9.467  1.00  0.00    -0.237 OA
ATOM    106  O   UNL     1      -6.964  16.936   8.023  1.00  0.00    -0.744 OA
ENDBRANCH  99 103
ENDBRANCH  73  96
ENDBRANCH  47  48
ENDBRANCH  40  42
ENDBRANCH  39  40
ENDBRANCH  38  39
ENDBRANCH  37  38
ENDBRANCH  36  37
ENDBRANCH  35  36
ENDBRANCH   1  35
TORSDOF 26
