REMARK SMILES O=C(OCCOCCOCCOC(=O)c1ccccc1C[NH2+]C1CCCC1)c1ccc(-c2c3nc(c(-c4cc(S(=O)(=O)[O-])ccc4F)c4ccc([nH]4)c(-c4cc(S(=O)(=O)[O-])ccc4F)c4nc(c(-c5cc(S(=O)(=O)[O-])ccc5F)c5ccc2[nH]5)C=C4)C=C3)cc1
REMARK SMILES IDX 7 1 6 2 5 3 4 4 3 5 2 6 1 7 28 8 29 9 90 10 30 11 89 12
REMARK SMILES IDX 31 13 32 14 33 15 83 16 34 17 88 18 82 19 84 20 35 21 87 22
REMARK SMILES IDX 81 23 80 24 36 26 68 27 48 28 67 29 49 30 52 31 66 32 85 33
REMARK SMILES IDX 50 34 51 35 65 37 86 38 53 39 37 40 38 41 46 42 39 43 45 44
REMARK SMILES IDX 47 45 44 46 40 47 41 48 42 49 43 50 69 51 70 52 78 53 71 54
REMARK SMILES IDX 77 55 79 56 76 57 72 58 73 59 74 60 75 61 54 62 55 63 63 64
REMARK SMILES IDX 56 65 62 66 64 67 61 68 57 69 58 70 59 71 60 72 8 73 9 74
REMARK SMILES IDX 10 75 11 76 12 77 13 78 14 79 15 80 16 81 20 82 17 83 19 84
REMARK SMILES IDX 18 85 21 86 22 87 23 90 24 91 27 92 25 93 26 94
REMARK H PARENT 84 25 52 36 22 88 22 89
REMARK Flexibility Score: inf
ROOT
ATOM      1  C   UNL     1       2.579  -1.970   0.793  1.00  0.00     0.188 C 
ENDROOT
BRANCH   1   2
ATOM      2  O   UNL     1       3.823  -1.521   0.241  1.00  0.00    -0.376 OA
BRANCH   2   3
ATOM      3  C   UNL     1       4.715  -0.953   1.205  1.00  0.00     0.202 C 
BRANCH   3   4
ATOM      4  C   UNL     1       4.561   0.562   1.381  1.00  0.00     0.261 C 
BRANCH   4   5
ATOM      5  O   UNL     1       3.182   0.957   1.330  1.00  0.00    -0.460 OA
BRANCH   5   6
ATOM      6  C   UNL     1       2.488   1.395   0.248  1.00  0.00     0.338 C 
ATOM      7  O   UNL     1       1.286   1.629   0.380  1.00  0.00    -0.246 OA
BRANCH   6   8
ATOM      8  C   UNL     1       3.113   1.674  -1.082  1.00  0.00     0.060 A 
ATOM      9  C   UNL     1       4.203   0.990  -1.628  1.00  0.00     0.016 A 
ATOM     10  C   UNL     1       2.512   2.679  -1.859  1.00  0.00     0.016 A 
ATOM     11  C   UNL     1       4.773   1.385  -2.837  1.00  0.00     0.010 A 
ATOM     12  C   UNL     1       3.037   3.036  -3.104  1.00  0.00     0.010 A 
ATOM     13  C   UNL     1       4.205   2.423  -3.575  1.00  0.00    -0.014 A 
BRANCH  13  14
ATOM     14  C   UNL     1       4.902   2.949  -4.770  1.00  0.00     0.031 A 
ATOM     15  C   UNL     1       5.559   4.292  -4.684  1.00  0.00     0.074 A 
ATOM     16  C   UNL     1       4.995   2.219  -5.894  1.00  0.00     0.049 A 
ATOM     17  N   UNL     1       6.120   5.005  -5.623  1.00  0.00    -0.248 NA
ATOM     18  C   UNL     1       5.593   4.908  -3.349  1.00  0.00     0.031 C 
ATOM     19  C   UNL     1       4.499   0.855  -6.048  1.00  0.00     0.029 A 
ATOM     20  N   UNL     1       5.526   2.524  -7.122  1.00  0.00    -0.354 N 
ATOM     21  C   UNL     1       6.577   6.156  -4.994  1.00  0.00     0.074 A 
ATOM     22  C   UNL     1       6.181   6.064  -3.604  1.00  0.00     0.031 C 
ATOM     23  C   UNL     1       4.718   0.453  -7.309  1.00  0.00     0.029 A 
ATOM     24  C   UNL     1       5.293   1.553  -8.066  1.00  0.00     0.049 A 
ATOM     25  H   UNL     1       6.022   3.354  -7.307  1.00  0.00     0.167 HD
ATOM     26  C   UNL     1       7.275   7.188  -5.530  1.00  0.00     0.034 A 
ATOM     27  C   UNL     1       5.460   1.567  -9.402  1.00  0.00     0.034 A 
ATOM     28  C   UNL     1       7.622   7.264  -6.927  1.00  0.00     0.049 A 
ATOM     29  C   UNL     1       6.082   2.785 -10.022  1.00  0.00     0.074 A 
ATOM     30  C   UNL     1       8.284   8.270  -7.606  1.00  0.00     0.029 A 
ATOM     31  N   UNL     1       7.311   6.287  -7.869  1.00  0.00    -0.354 N 
ATOM     32  N   UNL     1       6.480   3.889  -9.432  1.00  0.00    -0.248 NA
ATOM     33  C   UNL     1       6.292   2.762 -11.473  1.00  0.00     0.031 C 
ATOM     34  C   UNL     1       8.319   7.930  -8.965  1.00  0.00     0.029 A 
ATOM     35  C   UNL     1       7.736   6.682  -9.127  1.00  0.00     0.049 A 
ATOM     36  H   UNL     1       6.854   5.438  -7.670  1.00  0.00     0.167 HD
ATOM     37  C   UNL     1       7.017   4.684 -10.435  1.00  0.00     0.074 A 
ATOM     38  C   UNL     1       6.886   3.932 -11.671  1.00  0.00     0.031 C 
ATOM     39  C   UNL     1       7.582   5.915 -10.342  1.00  0.00     0.034 A 
BRANCH  26  40
ATOM     40  C   UNL     1       7.611   8.322  -4.594  1.00  0.00     0.023 A 
ATOM     41  C   UNL     1       8.438   8.129  -3.472  1.00  0.00     0.031 A 
ATOM     42  C   UNL     1       6.987   9.572  -4.744  1.00  0.00     0.131 A 
ATOM     43  C   UNL     1       8.524   9.124  -2.486  1.00  0.00     0.055 A 
ATOM     44  C   UNL     1       7.150  10.592  -3.804  1.00  0.00     0.041 A 
ATOM     45  F   UNL     1       6.166   9.806  -5.779  1.00  0.00    -0.206 F 
ATOM     46  C   UNL     1       7.902  10.363  -2.655  1.00  0.00     0.022 A 
BRANCH  43  47
ATOM     47  S   UNL     1       9.282   8.698  -0.892  1.00  0.00     0.124 S 
ATOM     48  O   UNL     1       8.491   7.538  -0.487  1.00  0.00    -0.237 OA
ATOM     49  O   UNL     1      10.666   8.429  -1.263  1.00  0.00    -0.237 OA
ATOM     50  O   UNL     1       9.074   9.896  -0.082  1.00  0.00    -0.744 OA
ENDBRANCH  43  47
ENDBRANCH  26  40
BRANCH  27  51
ATOM     51  C   UNL     1       4.944   0.434 -10.222  1.00  0.00     0.023 A 
ATOM     52  C   UNL     1       5.802  -0.445 -10.898  1.00  0.00     0.031 A 
ATOM     53  C   UNL     1       3.557   0.201 -10.310  1.00  0.00     0.131 A 
ATOM     54  C   UNL     1       5.264  -1.511 -11.640  1.00  0.00     0.055 A 
ATOM     55  C   UNL     1       3.029  -0.877 -11.021  1.00  0.00     0.041 A 
ATOM     56  F   UNL     1       2.692   1.006  -9.670  1.00  0.00    -0.206 F 
ATOM     57  C   UNL     1       3.886  -1.739 -11.697  1.00  0.00     0.022 A 
BRANCH  54  58
ATOM     58  S   UNL     1       6.394  -2.588 -12.565  1.00  0.00     0.124 S 
ATOM     59  O   UNL     1       7.074  -1.634 -13.433  1.00  0.00    -0.237 OA
ATOM     60  O   UNL     1       7.198  -3.169 -11.495  1.00  0.00    -0.237 OA
ATOM     61  O   UNL     1       5.498  -3.520 -13.245  1.00  0.00    -0.744 OA
ENDBRANCH  54  58
ENDBRANCH  27  51
BRANCH  39  62
ATOM     62  C   UNL     1       8.143   6.494 -11.611  1.00  0.00     0.023 A 
ATOM     63  C   UNL     1       7.309   6.980 -12.630  1.00  0.00     0.031 A 
ATOM     64  C   UNL     1       9.535   6.567 -11.791  1.00  0.00     0.131 A 
ATOM     65  C   UNL     1       7.878   7.489 -13.806  1.00  0.00     0.055 A 
ATOM     66  C   UNL     1      10.095   7.116 -12.943  1.00  0.00     0.041 A 
ATOM     67  F   UNL     1      10.370   6.112 -10.843  1.00  0.00    -0.206 F 
ATOM     68  C   UNL     1       9.265   7.575 -13.962  1.00  0.00     0.022 A 
BRANCH  65  69
ATOM     69  S   UNL     1       6.780   8.002 -15.155  1.00  0.00     0.124 S 
ATOM     70  O   UNL     1       6.157   6.737 -15.533  1.00  0.00    -0.237 OA
ATOM     71  O   UNL     1       5.908   8.972 -14.501  1.00  0.00    -0.237 OA
ATOM     72  O   UNL     1       7.695   8.564 -16.147  1.00  0.00    -0.744 OA
ENDBRANCH  65  69
ENDBRANCH  39  62
ENDBRANCH  13  14
ENDBRANCH   6   8
ENDBRANCH   5   6
ENDBRANCH   4   5
ENDBRANCH   3   4
ENDBRANCH   2   3
ENDBRANCH   1   2
BRANCH   1  73
ATOM     73  C   UNL     1       2.035  -3.165   0.004  1.00  0.00     0.188 C 
BRANCH  73  74
ATOM     74  O   UNL     1       2.745  -4.391   0.203  1.00  0.00    -0.376 OA
BRANCH  74  75
ATOM     75  C   UNL     1       4.108  -4.413  -0.215  1.00  0.00     0.202 C 
BRANCH  75  76
ATOM     76  C   UNL     1       4.360  -4.498  -1.725  1.00  0.00     0.261 C 
BRANCH  76  77
ATOM     77  O   UNL     1       3.786  -3.422  -2.488  1.00  0.00    -0.460 OA
BRANCH  77  78
ATOM     78  C   UNL     1       2.843  -3.808  -3.374  1.00  0.00     0.338 C 
ATOM     79  O   UNL     1       2.391  -4.947  -3.527  1.00  0.00    -0.246 OA
BRANCH  78  80
ATOM     80  C   UNL     1       2.437  -2.708  -4.260  1.00  0.00     0.068 A 
ATOM     81  C   UNL     1       1.429  -1.827  -3.849  1.00  0.00     0.016 A 
ATOM     82  C   UNL     1       2.922  -2.682  -5.578  1.00  0.00     0.021 A 
ATOM     83  C   UNL     1       0.873  -0.935  -4.767  1.00  0.00     0.001 A 
ATOM     84  C   UNL     1       2.287  -1.843  -6.505  1.00  0.00     0.010 A 
ATOM     85  C   UNL     1       1.281  -0.964  -6.099  1.00  0.00     0.001 A 
BRANCH  82  86
ATOM     86  C   UNL     1       4.122  -3.497  -5.996  1.00  0.00     0.298 C 
BRANCH  86  87
ATOM     87  N   UNL     1       3.771  -4.874  -6.317  1.00  0.00    -0.340 N 
ATOM     88  H   UNL     1       3.214  -4.885  -7.172  1.00  0.00     0.346 HD
ATOM     89  H   UNL     1       3.240  -5.263  -5.538  1.00  0.00     0.346 HD
BRANCH  87  90
ATOM     90  C   UNL     1       4.966  -5.689  -6.516  1.00  0.00     0.182 C 
ATOM     91  C   UNL     1       4.604  -7.133  -6.852  1.00  0.00     0.065 C 
ATOM     92  C   UNL     1       5.837  -5.290  -7.708  1.00  0.00     0.065 C 
ATOM     93  C   UNL     1       5.920  -7.710  -7.360  1.00  0.00     0.006 C 
ATOM     94  C   UNL     1       6.654  -6.543  -8.022  1.00  0.00     0.006 C 
ENDBRANCH  87  90
ENDBRANCH  86  87
ENDBRANCH  82  86
ENDBRANCH  78  80
ENDBRANCH  77  78
ENDBRANCH  76  77
ENDBRANCH  75  76
ENDBRANCH  74  75
ENDBRANCH  73  74
ENDBRANCH   1  73
TORSDOF 23
