REMARK SMILES COc1cccc(S[C@H]2CC[C@@]([NH3+])(C(=O)OCCOCCOCCOC(=O)c3ccc(-c4c5nc(c(-c6cc(S(=O)(=O)[O-])ccc6F)c6ccc([nH]6)c(-c6cc(S(=O)(=O)[O-])ccc6F)c6nc(c(-c7cc(S(=O)(=O)[O-])ccc7F)c7ccc4[nH]7)C=C6)C=C5)cc3)C2)c1
REMARK SMILES IDX 20 1 19 2 18 3 17 4 16 5 14 6 15 7 12 8 9 9 10 10 91 11
REMARK SMILES IDX 11 12 8 13 7 14 3 15 4 16 92 17 5 18 6 19 2 20 1 21 13 22
REMARK SMILES IDX 21 26 22 27 23 28 24 29 25 30 26 31 27 32 28 33 29 34 90 35
REMARK SMILES IDX 30 36 89 37 31 38 32 39 33 40 83 41 34 42 88 43 82 44 84 45
REMARK SMILES IDX 35 46 87 47 81 48 80 49 36 51 68 52 48 53 67 54 49 55 52 56
REMARK SMILES IDX 66 57 85 58 50 59 51 60 65 62 86 63 53 64 37 65 38 66 46 67
REMARK SMILES IDX 39 68 45 69 47 70 44 71 40 72 41 73 42 74 43 75 69 76 70 77
REMARK SMILES IDX 78 78 71 79 77 80 79 81 76 82 72 83 73 84 74 85 75 86 54 87
REMARK SMILES IDX 55 88 63 89 56 90 62 91 64 92 61 93 57 94 58 95 59 96 60 97
REMARK H PARENT 13 23 13 24 13 25 84 50 52 61
REMARK Flexibility Score: inf
ROOT
ATOM      1  C   UNL     1       8.692  -2.050   0.154  1.00  0.00     0.188 C 
ENDROOT
BRANCH   1   2
ATOM      2  O   UNL     1       9.291  -2.820  -0.882  1.00  0.00    -0.376 OA
BRANCH   2   3
ATOM      3  C   UNL     1       9.082  -2.378  -2.211  1.00  0.00     0.202 C 
BRANCH   3   4
ATOM      4  C   UNL     1       7.633  -2.434  -2.727  1.00  0.00     0.261 C 
BRANCH   4   5
ATOM      5  O   UNL     1       6.636  -1.810  -1.871  1.00  0.00    -0.459 OA
BRANCH   5   6
ATOM      6  C   UNL     1       5.780  -2.622  -1.195  1.00  0.00     0.368 C 
ATOM      7  O   UNL     1       5.725  -3.837  -1.385  1.00  0.00    -0.245 OA
BRANCH   6   8
ATOM      8  C   UNL     1       4.795  -1.906  -0.168  1.00  0.00     0.193 C 
ATOM      9  C   UNL     1       5.207  -1.352   2.334  1.00  0.00     0.059 C 
ATOM     10  C   UNL     1       5.135  -0.070   1.498  1.00  0.00     0.022 C 
ATOM     11  C   UNL     1       4.979  -2.494   1.272  1.00  0.00     0.095 C 
ATOM     12  C   UNL     1       4.846  -0.390   0.023  1.00  0.00     0.082 C 
BRANCH   9  13
ATOM     13  S   UNL     1       6.776  -1.853   3.516  1.00  0.00    -0.122 SA
BRANCH  13  14
ATOM     14  C   UNL     1       7.996  -0.483   5.249  1.00  0.00     0.011 A 
ATOM     15  C   UNL     1      10.322   0.321   6.370  1.00  0.00     0.119 A 
ATOM     16  C   UNL     1       9.745   1.424   6.958  1.00  0.00     0.046 A 
ATOM     17  C   UNL     1       9.512  -0.598   5.658  1.00  0.00     0.061 A 
ATOM     18  C   UNL     1       8.381   1.623   6.837  1.00  0.00     0.005 A 
ATOM     19  C   UNL     1       7.561   0.764   6.054  1.00  0.00     0.015 A 
BRANCH  15  20
ATOM     20  O   UNL     1      11.667   0.161   6.585  1.00  0.00    -0.497 OA
ATOM     21  C   UNL     1      12.389  -0.541   5.574  1.00  0.00     0.278 C 
ENDBRANCH  15  20
ENDBRANCH  13  14
ENDBRANCH   9  13
BRANCH   8  22
ATOM     22  N   UNL     1       3.441  -2.201  -0.724  1.00  0.00    -0.343 N 
ATOM     23  H   UNL     1       3.363  -1.802  -1.659  1.00  0.00     0.345 HD
ATOM     24  H   UNL     1       2.728  -1.792  -0.119  1.00  0.00     0.345 HD
ATOM     25  H   UNL     1       3.307  -3.211  -0.773  1.00  0.00     0.345 HD
ENDBRANCH   8  22
ENDBRANCH   6   8
ENDBRANCH   5   6
ENDBRANCH   4   5
ENDBRANCH   3   4
ENDBRANCH   2   3
ENDBRANCH   1   2
BRANCH   1  26
ATOM     26  C   UNL     1       8.428  -0.563  -0.108  1.00  0.00     0.188 C 
BRANCH  26  27
ATOM     27  O   UNL     1       9.545   0.080  -0.703  1.00  0.00    -0.376 OA
BRANCH  27  28
ATOM     28  C   UNL     1       9.786   1.392  -0.211  1.00  0.00     0.202 C 
BRANCH  28  29
ATOM     29  C   UNL     1      10.686   1.278   1.019  1.00  0.00     0.261 C 
BRANCH  29  30
ATOM     30  O   UNL     1      10.065   0.532   2.079  1.00  0.00    -0.460 OA
BRANCH  30  31
ATOM     31  C   UNL     1       8.922   1.062   2.572  1.00  0.00     0.338 C 
ATOM     32  O   UNL     1       8.490   2.185   2.385  1.00  0.00    -0.246 OA
BRANCH  31  33
ATOM     33  C   UNL     1       8.168  -0.023   3.224  1.00  0.00     0.060 A 
ATOM     34  C   UNL     1       6.550   0.382   3.974  1.00  0.00     0.016 A 
ATOM     35  C   UNL     1       9.004  -1.590   3.651  1.00  0.00     0.016 A 
ATOM     36  C   UNL     1       5.850  -0.720   5.282  1.00  0.00     0.010 A 
ATOM     37  C   UNL     1       8.314  -2.638   5.004  1.00  0.00     0.010 A 
ATOM     38  C   UNL     1       6.787  -2.162   5.857  1.00  0.00    -0.014 A 
BRANCH  38  39
ATOM     39  C   UNL     1       6.387  -2.841   7.131  1.00  0.00     0.031 A 
ATOM     40  C   UNL     1       6.694  -2.257   8.494  1.00  0.00     0.074 A 
ATOM     41  C   UNL     1       5.795  -4.043   7.099  1.00  0.00     0.049 A 
ATOM     42  N   UNL     1       6.112  -2.441   9.656  1.00  0.00    -0.248 NA
ATOM     43  C   UNL     1       7.833  -1.352   8.569  1.00  0.00     0.031 C 
ATOM     44  C   UNL     1       5.534  -4.824   5.897  1.00  0.00     0.029 A 
ATOM     45  N   UNL     1       5.326  -4.822   8.127  1.00  0.00    -0.354 N 
ATOM     46  C   UNL     1       6.742  -1.568  10.549  1.00  0.00     0.074 A 
ATOM     47  C   UNL     1       7.778  -0.891   9.808  1.00  0.00     0.031 C 
ATOM     48  C   UNL     1       4.966  -5.987   6.255  1.00  0.00     0.029 A 
ATOM     49  C   UNL     1       4.807  -6.020   7.709  1.00  0.00     0.049 A 
ATOM     50  H   UNL     1       5.359  -4.548   9.072  1.00  0.00     0.167 HD
ATOM     51  C   UNL     1       6.530  -1.379  11.877  1.00  0.00     0.034 A 
ATOM     52  C   UNL     1       4.250  -7.022   8.416  1.00  0.00     0.034 A 
ATOM     53  C   UNL     1       5.721  -2.271  12.670  1.00  0.00     0.049 A 
ATOM     54  C   UNL     1       4.025  -6.847   9.895  1.00  0.00     0.074 A 
ATOM     55  C   UNL     1       5.400  -2.199  14.015  1.00  0.00     0.029 A 
ATOM     56  N   UNL     1       5.200  -3.472  12.204  1.00  0.00    -0.354 N 
ATOM     57  N   UNL     1       4.383  -5.855  10.680  1.00  0.00    -0.248 NA
ATOM     58  C   UNL     1       3.269  -7.907  10.570  1.00  0.00     0.031 C 
ATOM     59  C   UNL     1       4.788  -3.406  14.382  1.00  0.00     0.029 A 
ATOM     60  C   UNL     1       4.623  -4.182  13.244  1.00  0.00     0.049 A 
ATOM     61  H   UNL     1       5.236  -3.775  11.268  1.00  0.00     0.167 HD
ATOM     62  C   UNL     1       3.873  -6.162  11.941  1.00  0.00     0.074 A 
ATOM     63  C   UNL     1       3.165  -7.420  11.798  1.00  0.00     0.031 C 
ATOM     64  C   UNL     1       3.968  -5.464  13.105  1.00  0.00     0.034 A 
BRANCH  51  65
ATOM     65  C   UNL     1       7.252  -0.224  12.551  1.00  0.00     0.023 A 
ATOM     66  C   UNL     1       7.043   1.108  12.138  1.00  0.00     0.031 A 
ATOM     67  C   UNL     1       8.151  -0.438  13.612  1.00  0.00     0.131 A 
ATOM     68  C   UNL     1       7.750   2.161  12.745  1.00  0.00     0.055 A 
ATOM     69  C   UNL     1       8.803   0.620  14.256  1.00  0.00     0.041 A 
ATOM     70  F   UNL     1       8.423  -1.680  14.040  1.00  0.00    -0.206 F 
ATOM     71  C   UNL     1       8.613   1.927  13.817  1.00  0.00     0.022 A 
BRANCH  68  72
ATOM     72  S   UNL     1       7.619   3.829  12.038  1.00  0.00     0.124 S 
ATOM     73  O   UNL     1       7.962   3.594  10.637  1.00  0.00    -0.237 OA
ATOM     74  O   UNL     1       6.227   4.175  12.303  1.00  0.00    -0.237 OA
ATOM     75  O   UNL     1       8.607   4.599  12.790  1.00  0.00    -0.744 OA
ENDBRANCH  68  72
ENDBRANCH  51  65
BRANCH  52  76
ATOM     76  C   UNL     1       3.836  -8.255   7.694  1.00  0.00     0.023 A 
ATOM     77  C   UNL     1       2.485  -8.570   7.495  1.00  0.00     0.031 A 
ATOM     78  C   UNL     1       4.808  -9.101   7.127  1.00  0.00     0.131 A 
ATOM     79  C   UNL     1       2.139  -9.707   6.749  1.00  0.00     0.055 A 
ATOM     80  C   UNL     1       4.458 -10.207   6.352  1.00  0.00     0.041 A 
ATOM     81  F   UNL     1       6.114  -8.832   7.281  1.00  0.00    -0.206 F 
ATOM     82  C   UNL     1       3.116 -10.516   6.162  1.00  0.00     0.022 A 
BRANCH  79  83
ATOM     83  S   UNL     1       0.385 -10.131   6.572  1.00  0.00     0.124 S 
ATOM     84  O   UNL     1      -0.030 -10.282   7.962  1.00  0.00    -0.237 OA
ATOM     85  O   UNL     1      -0.139  -8.964   5.869  1.00  0.00    -0.237 OA
ATOM     86  O   UNL     1       0.410 -11.366   5.791  1.00  0.00    -0.744 OA
ENDBRANCH  79  83
ENDBRANCH  52  76
BRANCH  64  87
ATOM     87  C   UNL     1       3.277  -6.051  14.315  1.00  0.00     0.023 A 
ATOM     88  C   UNL     1       3.647  -7.301  14.845  1.00  0.00     0.031 A 
ATOM     89  C   UNL     1       2.204  -5.372  14.920  1.00  0.00     0.131 A 
ATOM     90  C   UNL     1       2.892  -7.873  15.879  1.00  0.00     0.055 A 
ATOM     91  C   UNL     1       1.509  -5.911  16.004  1.00  0.00     0.041 A 
ATOM     92  F   UNL     1       1.804  -4.176  14.460  1.00  0.00    -0.206 F 
ATOM     93  C   UNL     1       1.836  -7.178  16.475  1.00  0.00     0.022 A 
BRANCH  90  94
ATOM     94  S   UNL     1       3.208  -9.602  16.329  1.00  0.00     0.124 S 
ATOM     95  O   UNL     1       3.054 -10.280  15.045  1.00  0.00    -0.237 OA
ATOM     96  O   UNL     1       4.565  -9.543  16.861  1.00  0.00    -0.237 OA
ATOM     97  O   UNL     1       2.167  -9.896  17.313  1.00  0.00    -0.744 OA
ENDBRANCH  90  94
ENDBRANCH  64  87
ENDBRANCH  38  39
ENDBRANCH  31  33
ENDBRANCH  30  31
ENDBRANCH  29  30
ENDBRANCH  28  29
ENDBRANCH  27  28
ENDBRANCH  26  27
ENDBRANCH   1  26
TORSDOF 24
