REMARK SMILES C#CCN(CC(=O)OCCOCCOCCOC(=O)c1ccc(-c2c3nc(c(-c4cc(S(=O)(=O)[O-])ccc4F)c4ccc([nH]4)c(-c4cc(S(=O)(=O)[O-])ccc4F)c4nc(c(-c5cc(S(=O)(=O)[O-])ccc5F)c5ccc2[nH]5)C=C4)C=C3)cc1)C(=O)CCc1ccc(Cl)cc1Cl
REMARK SMILES IDX 12 1 11 2 10 3 9 4 8 5 6 6 7 7 5 8 4 9 3 10 2 11 1 12 83 13
REMARK SMILES IDX 84 14 85 15 86 16 87 17 88 18 93 19 89 20 92 21 94 22 90 23
REMARK SMILES IDX 91 24 13 25 14 26 15 27 16 28 17 29 18 30 19 31 20 32 21 33
REMARK SMILES IDX 82 34 22 35 81 36 23 37 24 38 25 39 75 40 26 41 80 42 74 43
REMARK SMILES IDX 76 44 27 45 79 46 73 47 72 48 28 50 60 51 40 52 59 53 41 54
REMARK SMILES IDX 44 55 58 56 77 57 42 58 43 59 57 61 78 62 45 63 29 64 30 65
REMARK SMILES IDX 38 66 31 67 37 68 39 69 36 70 32 71 33 72 34 73 35 74 61 75
REMARK SMILES IDX 62 76 70 77 63 78 69 79 71 80 68 81 64 82 65 83 66 84 67 85
REMARK SMILES IDX 46 86 47 87 55 88 48 89 54 90 56 91 53 92 49 93 50 94 51 95
REMARK SMILES IDX 52 96
REMARK H PARENT 76 49 44 60
REMARK Flexibility Score: inf
ROOT
ATOM      1  C   UNL     1      -5.416  -3.950   1.272  1.00  0.00     0.188 C 
ENDROOT
BRANCH   1   2
ATOM      2  O   UNL     1      -6.797  -3.636   1.463  1.00  0.00    -0.376 OA
BRANCH   2   3
ATOM      3  C   UNL     1      -7.346  -2.583   0.681  1.00  0.00     0.202 C 
BRANCH   3   4
ATOM      4  C   UNL     1      -6.830  -1.187   1.032  1.00  0.00     0.261 C 
BRANCH   4   5
ATOM      5  O   UNL     1      -5.400  -1.087   0.885  1.00  0.00    -0.462 OA
BRANCH   5   6
ATOM      6  C   UNL     1      -4.841  -0.103   1.633  1.00  0.00     0.325 C 
ATOM      7  O   UNL     1      -5.488   0.786   2.179  1.00  0.00    -0.250 OA
BRANCH   6   8
ATOM      8  C   UNL     1      -3.377  -0.376   1.984  1.00  0.00     0.243 C 
BRANCH   8   9
ATOM      9  N   UNL     1      -2.399  -0.934   1.044  1.00  0.00    -0.320 N 
BRANCH   9  10
ATOM     10  C   UNL     1      -1.900  -0.064  -0.011  1.00  0.00     0.210 C 
BRANCH  10  11
ATOM     11  C   UNL     1      -0.380  -0.064  -0.011  1.00  0.00    -0.085 C 
ATOM     12  C   UNL     1       0.924  -0.064  -0.011  1.00  0.00     0.006 C 
ENDBRANCH  10  11
ENDBRANCH   9  10
BRANCH   9  13
ATOM     13  C   UNL     1      -1.916  -2.226   1.046  1.00  0.00     0.224 C 
ATOM     14  O   UNL     1      -1.578  -2.780  -0.005  1.00  0.00    -0.275 OA
BRANCH  13  15
ATOM     15  C   UNL     1      -1.773  -2.985   2.353  1.00  0.00     0.105 C 
BRANCH  15  16
ATOM     16  C   UNL     1      -0.814  -2.420   3.409  1.00  0.00     0.047 C 
BRANCH  16  17
ATOM     17  C   UNL     1      -1.368  -1.298   4.256  1.00  0.00    -0.029 A 
ATOM     18  C   UNL     1      -0.839  -0.007   4.078  1.00  0.00     0.007 A 
ATOM     19  C   UNL     1      -2.441  -1.467   5.154  1.00  0.00     0.045 A 
ATOM     20  C   UNL     1      -1.427   1.093   4.704  1.00  0.00     0.021 A 
ATOM     21  C   UNL     1      -3.034  -0.363   5.770  1.00  0.00     0.041 A 
ATOM     22  Cl  UNL     1      -3.154  -3.008   5.457  1.00  0.00    -0.084 Cl
ATOM     23  C   UNL     1      -2.537   0.913   5.525  1.00  0.00     0.042 A 
ATOM     24  Cl  UNL     1      -3.332   2.283   6.194  1.00  0.00    -0.084 Cl
ENDBRANCH  16  17
ENDBRANCH  15  16
ENDBRANCH  13  15
ENDBRANCH   9  13
ENDBRANCH   8   9
ENDBRANCH   6   8
ENDBRANCH   5   6
ENDBRANCH   4   5
ENDBRANCH   3   4
ENDBRANCH   2   3
ENDBRANCH   1   2
BRANCH   1  25
ATOM     25  C   UNL     1      -4.840  -3.865  -0.150  1.00  0.00     0.188 C 
BRANCH  25  26
ATOM     26  O   UNL     1      -5.748  -4.396  -1.115  1.00  0.00    -0.376 OA
BRANCH  26  27
ATOM     27  C   UNL     1      -5.131  -5.283  -2.041  1.00  0.00     0.202 C 
BRANCH  27  28
ATOM     28  C   UNL     1      -5.170  -6.707  -1.496  1.00  0.00     0.261 C 
BRANCH  28  29
ATOM     29  O   UNL     1      -4.448  -6.781  -0.252  1.00  0.00    -0.460 OA
BRANCH  29  30
ATOM     30  C   UNL     1      -3.438  -7.675  -0.191  1.00  0.00     0.338 C 
ATOM     31  O   UNL     1      -3.057  -8.414  -1.079  1.00  0.00    -0.246 OA
BRANCH  30  32
ATOM     32  C   UNL     1      -2.890  -7.680   1.181  1.00  0.00     0.060 A 
ATOM     33  C   UNL     1      -2.284  -6.540   1.709  1.00  0.00     0.016 A 
ATOM     34  C   UNL     1      -2.889  -8.871   1.906  1.00  0.00     0.016 A 
ATOM     35  C   UNL     1      -1.624  -6.607   2.944  1.00  0.00     0.010 A 
ATOM     36  C   UNL     1      -2.254  -8.928   3.153  1.00  0.00     0.010 A 
ATOM     37  C   UNL     1      -1.577  -7.807   3.667  1.00  0.00    -0.014 A 
BRANCH  37  38
ATOM     38  C   UNL     1      -0.666  -7.952   4.841  1.00  0.00     0.031 A 
ATOM     39  C   UNL     1       0.578  -8.791   4.686  1.00  0.00     0.074 A 
ATOM     40  C   UNL     1      -0.876  -7.311   6.007  1.00  0.00     0.049 A 
ATOM     41  N   UNL     1       1.418  -9.214   5.595  1.00  0.00    -0.248 NA
ATOM     42  C   UNL     1       0.915  -9.203   3.315  1.00  0.00     0.031 C 
ATOM     43  C   UNL     1      -1.962  -6.373   6.272  1.00  0.00     0.029 A 
ATOM     44  N   UNL     1      -0.172  -7.346   7.189  1.00  0.00    -0.354 N 
ATOM     45  C   UNL     1       2.365  -9.970   4.913  1.00  0.00     0.074 A 
ATOM     46  C   UNL     1       1.987  -9.954   3.515  1.00  0.00     0.031 C 
ATOM     47  C   UNL     1      -1.838  -5.901   7.525  1.00  0.00     0.029 A 
ATOM     48  C   UNL     1      -0.717  -6.566   8.186  1.00  0.00     0.049 A 
ATOM     49  H   UNL     1       0.646  -7.880   7.312  1.00  0.00     0.167 HD
ATOM     50  C   UNL     1       3.447 -10.624   5.404  1.00  0.00     0.034 A 
ATOM     51  C   UNL     1      -0.381  -6.439   9.488  1.00  0.00     0.034 A 
ATOM     52  C   UNL     1       3.824 -10.635   6.795  1.00  0.00     0.049 A 
ATOM     53  C   UNL     1       0.754  -7.276  10.040  1.00  0.00     0.074 A 
ATOM     54  C   UNL     1       4.846 -11.338   7.410  1.00  0.00     0.029 A 
ATOM     55  N   UNL     1       3.200  -9.896   7.791  1.00  0.00    -0.354 N 
ATOM     56  N   UNL     1       1.565  -8.095   9.409  1.00  0.00    -0.248 NA
ATOM     57  C   UNL     1       1.004  -7.186  11.486  1.00  0.00     0.031 C 
ATOM     58  C   UNL     1       4.812 -11.058   8.782  1.00  0.00     0.029 A 
ATOM     59  C   UNL     1       3.809 -10.132   9.014  1.00  0.00     0.049 A 
ATOM     60  H   UNL     1       2.436  -9.291   7.649  1.00  0.00     0.167 HD
ATOM     61  C   UNL     1       2.429  -8.597  10.381  1.00  0.00     0.074 A 
ATOM     62  C   UNL     1       2.061  -7.970  11.632  1.00  0.00     0.031 C 
ATOM     63  C   UNL     1       3.433  -9.501  10.255  1.00  0.00     0.034 A 
BRANCH  50  64
ATOM     64  C   UNL     1       4.248 -11.444   4.426  1.00  0.00     0.023 A 
ATOM     65  C   UNL     1       5.003 -10.846   3.402  1.00  0.00     0.031 A 
ATOM     66  C   UNL     1       4.212 -12.848   4.490  1.00  0.00     0.131 A 
ATOM     67  C   UNL     1       5.638 -11.652   2.444  1.00  0.00     0.055 A 
ATOM     68  C   UNL     1       4.905 -13.643   3.577  1.00  0.00     0.041 A 
ATOM     69  F   UNL     1       3.486 -13.470   5.432  1.00  0.00    -0.206 F 
ATOM     70  C   UNL     1       5.613 -13.046   2.538  1.00  0.00     0.022 A 
BRANCH  67  71
ATOM     71  S   UNL     1       6.388 -10.855   0.998  1.00  0.00     0.124 S 
ATOM     72  O   UNL     1       5.234 -10.194   0.394  1.00  0.00    -0.237 OA
ATOM     73  O   UNL     1       7.385  -9.978   1.601  1.00  0.00    -0.237 OA
ATOM     74  O   UNL     1       6.927 -11.976   0.230  1.00  0.00    -0.744 OA
ENDBRANCH  67  71
ENDBRANCH  50  64
BRANCH  51  75
ATOM     75  C   UNL     1      -1.166  -5.562  10.412  1.00  0.00     0.023 A 
ATOM     76  C   UNL     1      -0.546  -4.521  11.124  1.00  0.00     0.031 A 
ATOM     77  C   UNL     1      -2.520  -5.827  10.687  1.00  0.00     0.131 A 
ATOM     78  C   UNL     1      -1.259  -3.828  12.117  1.00  0.00     0.055 A 
ATOM     79  C   UNL     1      -3.243  -5.090  11.626  1.00  0.00     0.041 A 
ATOM     80  F   UNL     1      -3.162  -6.822  10.053  1.00  0.00    -0.206 F 
ATOM     81  C   UNL     1      -2.607  -4.095  12.362  1.00  0.00     0.022 A 
BRANCH  78  82
ATOM     82  S   UNL     1      -0.362  -2.661  13.180  1.00  0.00     0.124 S 
ATOM     83  O   UNL     1       0.700  -3.505  13.717  1.00  0.00    -0.237 OA
ATOM     84  O   UNL     1       0.052  -1.639  12.224  1.00  0.00    -0.237 OA
ATOM     85  O   UNL     1      -1.371  -2.236  14.147  1.00  0.00    -0.744 OA
ENDBRANCH  78  82
ENDBRANCH  51  75
BRANCH  63  86
ATOM     86  C   UNL     1       4.232  -9.819  11.496  1.00  0.00     0.023 A 
ATOM     87  C   UNL     1       3.670 -10.514  12.582  1.00  0.00     0.031 A 
ATOM     88  C   UNL     1       5.571  -9.401  11.600  1.00  0.00     0.131 A 
ATOM     89  C   UNL     1       4.425 -10.721  13.747  1.00  0.00     0.055 A 
ATOM     90  C   UNL     1       6.334  -9.655  12.741  1.00  0.00     0.041 A 
ATOM     91  F   UNL     1       6.159  -8.735  10.593  1.00  0.00    -0.206 F 
ATOM     92  C   UNL     1       5.758 -10.307  13.828  1.00  0.00     0.022 A 
BRANCH  89  93
ATOM     93  S   UNL     1       3.618 -11.465  15.191  1.00  0.00     0.124 S 
ATOM     94  O   UNL     1       2.513 -10.542  15.433  1.00  0.00    -0.237 OA
ATOM     95  O   UNL     1       3.247 -12.786  14.695  1.00  0.00    -0.237 OA
ATOM     96  O   UNL     1       4.665 -11.459  16.212  1.00  0.00    -0.744 OA
ENDBRANCH  89  93
ENDBRANCH  63  86
ENDBRANCH  37  38
ENDBRANCH  30  32
ENDBRANCH  29  30
ENDBRANCH  28  29
ENDBRANCH  27  28
ENDBRANCH  26  27
ENDBRANCH  25  26
ENDBRANCH   1  25
TORSDOF 27
