REMARK SMILES Cc1cc2c(c(C)c1Br)C=C(C(=O)OCCOCCOCCOC(=O)c1ccc(-c3c4nc(c(-c5cc(S(=O)(=O)[O-])ccc5F)c5ccc([nH]5)c(-c5cc(S(=O)(=O)[O-])ccc5F)c5nc(c(-c6cc(S(=O)(=O)[O-])ccc6F)c6ccc3[nH]6)C=C5)C=C4)cc1)[C@@H](C(F)(F)F)O2
REMARK SMILES IDX 19 1 18 2 17 3 16 4 15 5 14 6 12 7 13 8 11 9 1 10 2 11 3 12
REMARK SMILES IDX 8 13 4 14 6 15 9 16 5 17 94 18 7 19 10 20 89 21 90 22 91 23
REMARK SMILES IDX 92 24 93 25 20 26 21 27 22 28 23 29 24 30 25 31 26 32 27 33
REMARK SMILES IDX 88 34 28 35 87 36 29 37 30 38 31 39 81 40 32 41 86 42 80 43
REMARK SMILES IDX 82 44 33 45 85 46 79 47 78 48 34 50 66 51 46 52 65 53 47 54
REMARK SMILES IDX 50 55 64 56 83 57 48 58 49 59 63 61 84 62 51 63 35 64 36 65
REMARK SMILES IDX 44 66 37 67 43 68 45 69 42 70 38 71 39 72 40 73 41 74 67 75
REMARK SMILES IDX 68 76 76 77 69 78 75 79 77 80 74 81 70 82 71 83 72 84 73 85
REMARK SMILES IDX 52 86 53 87 61 88 54 89 60 90 62 91 59 92 55 93 56 94 57 95
REMARK SMILES IDX 58 96
REMARK H PARENT 82 49 50 60
REMARK Flexibility Score: inf
ROOT
ATOM      1  C   UNL     1      -3.436   2.831  -6.795  1.00  0.00     0.188 C 
ENDROOT
BRANCH   1   2
ATOM      2  C   UNL     1      -2.620   4.000  -7.387  1.00  0.00     0.188 C 
BRANCH   2   3
ATOM      3  O   UNL     1      -2.727   4.266  -8.766  1.00  0.00    -0.376 OA
BRANCH   3   4
ATOM      4  C   UNL     1      -2.127   3.447  -9.750  1.00  0.00     0.202 C 
BRANCH   4   5
ATOM      5  C   UNL     1      -1.116   2.318  -9.495  1.00  0.00     0.261 C 
BRANCH   5   6
ATOM      6  O   UNL     1      -1.054   1.783  -8.175  1.00  0.00    -0.460 OA
BRANCH   6   7
ATOM      7  C   UNL     1       0.076   2.077  -7.487  1.00  0.00     0.338 C 
ATOM      8  O   UNL     1       1.012   2.755  -7.878  1.00  0.00    -0.246 OA
BRANCH   7   9
ATOM      9  C   UNL     1      -0.030   1.525  -6.125  1.00  0.00     0.087 C 
ATOM     10  C   UNL     1       0.738  -0.163   0.067  1.00  0.00     0.046 C 
ATOM     11  C   UNL     1       0.530   0.580  -1.226  1.00  0.00    -0.033 A 
ATOM     12  C   UNL     1       0.056  -0.137  -2.331  1.00  0.00     0.051 A 
ATOM     13  C   UNL     1       0.828   1.950  -1.378  1.00  0.00     0.024 A 
ATOM     14  C   UNL     1      -0.055   0.467  -3.580  1.00  0.00     0.128 A 
ATOM     15  C   UNL     1       0.688   2.591  -2.634  1.00  0.00    -0.026 A 
ATOM     16  Br  UNL     1       1.464   2.912   0.150  1.00  0.00    -0.050 Br
ATOM     17  C   UNL     1       0.293   1.812  -3.753  1.00  0.00     0.021 A 
ATOM     18  O   UNL     1      -0.509  -0.355  -4.573  1.00  0.00    -0.475 OA
ATOM     19  C   UNL     1       0.959   4.069  -2.821  1.00  0.00     0.046 C 
ATOM     20  C   UNL     1       0.298   2.341  -5.117  1.00  0.00     0.027 C 
ATOM     21  C   UNL     1      -0.485   0.107  -5.945  1.00  0.00     0.316 C 
BRANCH  21  22
ATOM     22  C   UNL     1       0.336  -0.893  -6.772  1.00  0.00     0.430 C 
ATOM     23  F   UNL     1      -0.092  -2.165  -6.569  1.00  0.00    -0.167 F 
ATOM     24  F   UNL     1       0.222  -0.663  -8.103  1.00  0.00    -0.167 F 
ATOM     25  F   UNL     1       1.651  -0.857  -6.467  1.00  0.00    -0.167 F 
ENDBRANCH  21  22
ENDBRANCH   7   9
ENDBRANCH   6   7
ENDBRANCH   5   6
ENDBRANCH   4   5
ENDBRANCH   3   4
ENDBRANCH   2   3
ENDBRANCH   1   2
BRANCH   1  26
ATOM     26  O   UNL     1      -4.331   2.104  -7.622  1.00  0.00    -0.376 OA
BRANCH  26  27
ATOM     27  C   UNL     1      -5.319   2.828  -8.347  1.00  0.00     0.202 C 
BRANCH  27  28
ATOM     28  C   UNL     1      -6.255   3.777  -7.588  1.00  0.00     0.261 C 
BRANCH  28  29
ATOM     29  O   UNL     1      -5.557   4.839  -6.914  1.00  0.00    -0.460 OA
BRANCH  29  30
ATOM     30  C   UNL     1      -5.790   4.931  -5.580  1.00  0.00     0.338 C 
ATOM     31  O   UNL     1      -6.574   4.269  -4.923  1.00  0.00    -0.246 OA
BRANCH  30  32
ATOM     32  C   UNL     1      -4.789   5.830  -4.976  1.00  0.00     0.060 A 
ATOM     33  C   UNL     1      -3.881   5.282  -4.060  1.00  0.00     0.016 A 
ATOM     34  C   UNL     1      -4.758   7.193  -5.278  1.00  0.00     0.016 A 
ATOM     35  C   UNL     1      -2.942   6.100  -3.436  1.00  0.00     0.010 A 
ATOM     36  C   UNL     1      -3.836   8.019  -4.624  1.00  0.00     0.010 A 
ATOM     37  C   UNL     1      -2.939   7.479  -3.685  1.00  0.00    -0.014 A 
BRANCH  37  38
ATOM     38  C   UNL     1      -2.137   8.360  -2.803  1.00  0.00     0.031 A 
ATOM     39  C   UNL     1      -2.773   8.858  -1.533  1.00  0.00     0.074 A 
ATOM     40  C   UNL     1      -0.852   8.647  -3.076  1.00  0.00     0.049 A 
ATOM     41  N   UNL     1      -2.261   9.598  -0.586  1.00  0.00    -0.248 NA
ATOM     42  C   UNL     1      -4.169   8.454  -1.298  1.00  0.00     0.031 C 
ATOM     43  C   UNL     1      -0.107   8.169  -4.240  1.00  0.00     0.029 A 
ATOM     44  N   UNL     1       0.059   9.403  -2.381  1.00  0.00    -0.354 N 
ATOM     45  C   UNL     1      -3.261   9.725   0.372  1.00  0.00     0.074 A 
ATOM     46  C   UNL     1      -4.421   9.022  -0.129  1.00  0.00     0.031 C 
ATOM     47  C   UNL     1       1.152   8.640  -4.174  1.00  0.00     0.029 A 
ATOM     48  C   UNL     1       1.295   9.475  -2.981  1.00  0.00     0.049 A 
ATOM     49  H   UNL     1      -0.152   9.853  -1.531  1.00  0.00     0.167 HD
ATOM     50  C   UNL     1      -3.212  10.357   1.568  1.00  0.00     0.034 A 
ATOM     51  C   UNL     1       2.405  10.150  -2.615  1.00  0.00     0.034 A 
ATOM     52  C   UNL     1      -2.067  11.080   2.050  1.00  0.00     0.049 A 
ATOM     53  C   UNL     1       2.383  10.978  -1.352  1.00  0.00     0.074 A 
ATOM     54  C   UNL     1      -1.920  11.761   3.245  1.00  0.00     0.029 A 
ATOM     55  N   UNL     1      -0.878  11.233   1.353  1.00  0.00    -0.354 N 
ATOM     56  N   UNL     1       1.426  11.099  -0.461  1.00  0.00    -0.248 NA
ATOM     57  C   UNL     1       3.584  11.772  -1.051  1.00  0.00     0.031 C 
ATOM     58  C   UNL     1      -0.666  12.379   3.243  1.00  0.00     0.029 A 
ATOM     59  C   UNL     1      -0.008  12.034   2.072  1.00  0.00     0.049 A 
ATOM     60  H   UNL     1      -0.681  10.831   0.476  1.00  0.00     0.167 HD
ATOM     61  C   UNL     1       1.915  11.970   0.509  1.00  0.00     0.074 A 
ATOM     62  C   UNL     1       3.254  12.342   0.101  1.00  0.00     0.031 C 
ATOM     63  C   UNL     1       1.313  12.416   1.639  1.00  0.00     0.034 A 
BRANCH  50  64
ATOM     64  C   UNL     1      -4.452  10.320   2.416  1.00  0.00     0.023 A 
ATOM     65  C   UNL     1      -4.879   9.131   3.031  1.00  0.00     0.031 A 
ATOM     66  C   UNL     1      -5.218  11.482   2.606  1.00  0.00     0.131 A 
ATOM     67  C   UNL     1      -6.068   9.121   3.773  1.00  0.00     0.055 A 
ATOM     68  C   UNL     1      -6.368  11.479   3.395  1.00  0.00     0.041 A 
ATOM     69  F   UNL     1      -4.862  12.637   2.020  1.00  0.00    -0.206 F 
ATOM     70  C   UNL     1      -6.804  10.292   3.978  1.00  0.00     0.022 A 
BRANCH  67  71
ATOM     71  S   UNL     1      -6.688   7.537   4.399  1.00  0.00     0.124 S 
ATOM     72  O   UNL     1      -6.973   6.821   3.158  1.00  0.00    -0.237 OA
ATOM     73  O   UNL     1      -5.560   7.039   5.178  1.00  0.00    -0.237 OA
ATOM     74  O   UNL     1      -7.865   7.914   5.179  1.00  0.00    -0.744 OA
ENDBRANCH  67  71
ENDBRANCH  50  64
BRANCH  51  75
ATOM     75  C   UNL     1       3.622  10.121  -3.474  1.00  0.00     0.023 A 
ATOM     76  C   UNL     1       4.806   9.511  -3.033  1.00  0.00     0.031 A 
ATOM     77  C   UNL     1       3.625  10.743  -4.735  1.00  0.00     0.131 A 
ATOM     78  C   UNL     1       5.956   9.558  -3.839  1.00  0.00     0.055 A 
ATOM     79  C   UNL     1       4.760  10.754  -5.548  1.00  0.00     0.041 A 
ATOM     80  F   UNL     1       2.518  11.344  -5.198  1.00  0.00    -0.206 F 
ATOM     81  C   UNL     1       5.936  10.164  -5.098  1.00  0.00     0.022 A 
BRANCH  78  82
ATOM     82  S   UNL     1       7.498   8.843  -3.204  1.00  0.00     0.124 S 
ATOM     83  O   UNL     1       7.785   9.717  -2.073  1.00  0.00    -0.237 OA
ATOM     84  O   UNL     1       7.091   7.480  -2.877  1.00  0.00    -0.237 OA
ATOM     85  O   UNL     1       8.417   8.960  -4.334  1.00  0.00    -0.744 OA
ENDBRANCH  78  82
ENDBRANCH  51  75
BRANCH  63  86
ATOM     86  C   UNL     1       2.084  13.358   2.524  1.00  0.00     0.023 A 
ATOM     87  C   UNL     1       2.261  14.705   2.170  1.00  0.00     0.031 A 
ATOM     88  C   UNL     1       2.565  12.925   3.772  1.00  0.00     0.131 A 
ATOM     89  C   UNL     1       2.913  15.576   3.055  1.00  0.00     0.055 A 
ATOM     90  C   UNL     1       3.179  13.805   4.664  1.00  0.00     0.041 A 
ATOM     91  F   UNL     1       2.411  11.648   4.157  1.00  0.00    -0.206 F 
ATOM     92  C   UNL     1       3.356  15.139   4.307  1.00  0.00     0.022 A 
BRANCH  89  93
ATOM     93  S   UNL     1       3.174  17.300   2.554  1.00  0.00     0.124 S 
ATOM     94  O   UNL     1       4.140  17.156   1.470  1.00  0.00    -0.237 OA
ATOM     95  O   UNL     1       1.834  17.724   2.161  1.00  0.00    -0.237 OA
ATOM     96  O   UNL     1       3.691  17.935   3.766  1.00  0.00    -0.744 OA
ENDBRANCH  89  93
ENDBRANCH  63  86
ENDBRANCH  37  38
ENDBRANCH  30  32
ENDBRANCH  29  30
ENDBRANCH  28  29
ENDBRANCH  27  28
ENDBRANCH  26  27
ENDBRANCH   1  26
TORSDOF 21
