REMARK SMILES O=C(CS(=O)(=O)NCc1ccc(N2CCOCC2)nc1)OCCOCCOCCOC(=O)c1ccc(-c2c3nc(c(-c4cc(S(=O)(=O)[O-])ccc4F)c4ccc([nH]4)c(-c4cc(S(=O)(=O)[O-])ccc4F)c4nc(c(-c5cc(S(=O)(=O)[O-])ccc5F)c5ccc2[nH]5)C=C4)C=C3)cc1
REMARK SMILES IDX 25 1 24 2 23 3 22 4 21 5 2 6 1 7 3 8 4 9 5 10 6 11 7 12 8 14
REMARK SMILES IDX 9 15 10 16 20 17 11 18 19 19 12 20 13 21 14 22 18 23 15 24
REMARK SMILES IDX 17 25 16 26 26 27 27 28 28 29 29 30 30 31 31 32 32 33 33 34
REMARK SMILES IDX 34 35 95 36 35 37 94 38 36 39 37 40 38 41 88 42 39 43 93 44
REMARK SMILES IDX 87 45 89 46 40 47 92 48 86 49 85 50 41 52 73 53 53 54 72 55
REMARK SMILES IDX 54 56 57 57 71 58 90 59 55 60 56 61 70 63 91 64 58 65 42 66
REMARK SMILES IDX 43 67 51 68 44 69 50 70 52 71 49 72 45 73 46 74 47 75 48 76
REMARK SMILES IDX 74 77 75 78 83 79 76 80 82 81 84 82 81 83 77 84 78 85 79 86
REMARK SMILES IDX 80 87 59 88 60 89 68 90 61 91 67 92 69 93 66 94 62 95 63 96
REMARK SMILES IDX 64 97 65 98
REMARK H PARENT 7 13 89 51 57 62
REMARK Flexibility Score: inf
ROOT
ATOM      1  C   UNL     1       3.298   0.361   2.062  1.00  0.00     0.188 C 
ENDROOT
BRANCH   1   2
ATOM      2  O   UNL     1       4.677   0.512   1.798  1.00  0.00    -0.376 OA
BRANCH   2   3
ATOM      3  C   UNL     1       5.177   0.091   0.544  1.00  0.00     0.202 C 
BRANCH   3   4
ATOM      4  C   UNL     1       4.473   0.694  -0.658  1.00  0.00     0.261 C 
BRANCH   4   5
ATOM      5  O   UNL     1       3.066   0.377  -0.823  1.00  0.00    -0.462 OA
BRANCH   5   6
ATOM      6  C   UNL     1       2.383  -0.778  -0.893  1.00  0.00     0.322 C 
ATOM      7  O   UNL     1       1.178  -0.714  -1.148  1.00  0.00    -0.251 OA
BRANCH   6   8
ATOM      8  C   UNL     1       2.980  -2.090  -0.557  1.00  0.00     0.276 C 
BRANCH   8   9
ATOM      9  S   UNL     1       4.034  -2.747  -1.800  1.00  0.00     0.222 S 
ATOM     10  O   UNL     1       5.167  -1.873  -1.976  1.00  0.00    -0.212 OA
ATOM     11  O   UNL     1       4.265  -4.136  -1.455  1.00  0.00    -0.212 OA
BRANCH   9  12
ATOM     12  N   UNL     1       3.172  -2.816  -3.208  1.00  0.00    -0.210 NA
ATOM     13  H   UNL     1       2.407  -3.464  -3.018  1.00  0.00     0.141 HD
BRANCH  12  14
ATOM     14  C   UNL     1       2.554  -1.693  -3.905  1.00  0.00     0.135 C 
BRANCH  14  15
ATOM     15  C   UNL     1       3.412  -0.484  -4.114  1.00  0.00    -0.015 A 
ATOM     16  C   UNL     1       2.971   0.801  -3.801  1.00  0.00     0.010 A 
ATOM     17  C   UNL     1       4.683  -0.591  -4.660  1.00  0.00     0.118 A 
ATOM     18  C   UNL     1       3.830   1.884  -3.975  1.00  0.00     0.047 A 
ATOM     19  N   UNL     1       5.504   0.456  -4.899  1.00  0.00    -0.239 NA
ATOM     20  C   UNL     1       5.089   1.684  -4.534  1.00  0.00     0.128 A 
BRANCH  20  21
ATOM     21  N   UNL     1       5.881   2.760  -4.832  1.00  0.00    -0.352 N 
ATOM     22  C   UNL     1       6.353   3.696  -3.818  1.00  0.00     0.146 C 
ATOM     23  C   UNL     1       6.670   2.728  -6.056  1.00  0.00     0.146 C 
ATOM     24  C   UNL     1       6.433   5.095  -4.456  1.00  0.00     0.181 C 
ATOM     25  C   UNL     1       6.664   4.155  -6.624  1.00  0.00     0.181 C 
ATOM     26  O   UNL     1       7.204   5.098  -5.676  1.00  0.00    -0.378 OA
ENDBRANCH  20  21
ENDBRANCH  14  15
ENDBRANCH  12  14
ENDBRANCH   9  12
ENDBRANCH   8   9
ENDBRANCH   6   8
ENDBRANCH   5   6
ENDBRANCH   4   5
ENDBRANCH   3   4
ENDBRANCH   2   3
ENDBRANCH   1   2
BRANCH   1  27
ATOM     27  C   UNL     1       2.485   1.667   2.113  1.00  0.00     0.188 C 
BRANCH  27  28
ATOM     28  O   UNL     1       3.144   2.925   2.104  1.00  0.00    -0.376 OA
BRANCH  28  29
ATOM     29  C   UNL     1       4.390   3.076   2.767  1.00  0.00     0.202 C 
BRANCH  29  30
ATOM     30  C   UNL     1       4.508   2.721   4.260  1.00  0.00     0.261 C 
BRANCH  30  31
ATOM     31  O   UNL     1       4.162   1.369   4.623  1.00  0.00    -0.460 OA
BRANCH  31  32
ATOM     32  C   UNL     1       2.993   1.225   5.301  1.00  0.00     0.338 C 
ATOM     33  O   UNL     1       2.235   2.124   5.626  1.00  0.00    -0.246 OA
BRANCH  32  34
ATOM     34  C   UNL     1       2.625  -0.207   5.442  1.00  0.00     0.060 A 
ATOM     35  C   UNL     1       1.357  -0.602   4.987  1.00  0.00     0.016 A 
ATOM     36  C   UNL     1       3.464  -1.139   6.057  1.00  0.00     0.016 A 
ATOM     37  C   UNL     1       0.891  -1.899   5.216  1.00  0.00     0.010 A 
ATOM     38  C   UNL     1       2.985  -2.436   6.309  1.00  0.00     0.010 A 
ATOM     39  C   UNL     1       1.674  -2.803   5.943  1.00  0.00    -0.014 A 
BRANCH  39  40
ATOM     40  C   UNL     1       1.011  -3.983   6.570  1.00  0.00     0.031 A 
ATOM     41  C   UNL     1       0.549  -3.848   8.002  1.00  0.00     0.074 A 
ATOM     42  C   UNL     1       0.753  -5.118   5.893  1.00  0.00     0.049 A 
ATOM     43  N   UNL     1      -0.052  -4.715   8.775  1.00  0.00    -0.248 NA
ATOM     44  C   UNL     1       0.810  -2.551   8.645  1.00  0.00     0.031 C 
ATOM     45  C   UNL     1       1.083  -5.362   4.491  1.00  0.00     0.029 A 
ATOM     46  N   UNL     1       0.144  -6.281   6.302  1.00  0.00    -0.354 N 
ATOM     47  C   UNL     1      -0.228  -4.074   9.999  1.00  0.00     0.074 A 
ATOM     48  C   UNL     1       0.369  -2.763   9.874  1.00  0.00     0.031 C 
ATOM     49  C   UNL     1       0.672  -6.599   4.156  1.00  0.00     0.029 A 
ATOM     50  C   UNL     1       0.079  -7.249   5.326  1.00  0.00     0.049 A 
ATOM     51  H   UNL     1      -0.213  -6.410   7.210  1.00  0.00     0.167 HD
ATOM     52  C   UNL     1      -0.839  -4.528  11.122  1.00  0.00     0.034 A 
ATOM     53  C   UNL     1      -0.392  -8.514   5.375  1.00  0.00     0.034 A 
ATOM     54  C   UNL     1      -1.426  -5.840  11.243  1.00  0.00     0.049 A 
ATOM     55  C   UNL     1      -0.989  -9.033   6.666  1.00  0.00     0.074 A 
ATOM     56  C   UNL     1      -2.079  -6.394  12.330  1.00  0.00     0.029 A 
ATOM     57  N   UNL     1      -1.418  -6.811  10.249  1.00  0.00    -0.354 N 
ATOM     58  N   UNL     1      -1.155  -8.415   7.813  1.00  0.00    -0.248 NA
ATOM     59  C   UNL     1      -1.475 -10.420   6.659  1.00  0.00     0.031 C 
ATOM     60  C   UNL     1      -2.389  -7.724  12.025  1.00  0.00     0.029 A 
ATOM     61  C   UNL     1      -2.023  -7.971  10.711  1.00  0.00     0.049 A 
ATOM     62  H   UNL     1      -1.039  -6.693   9.348  1.00  0.00     0.167 HD
ATOM     63  C   UNL     1      -1.811  -9.323   8.644  1.00  0.00     0.074 A 
ATOM     64  C   UNL     1      -2.012 -10.526   7.865  1.00  0.00     0.031 C 
ATOM     65  C   UNL     1      -2.223  -9.170   9.931  1.00  0.00     0.034 A 
BRANCH  52  66
ATOM     66  C   UNL     1      -0.834  -3.614  12.328  1.00  0.00     0.023 A 
ATOM     67  C   UNL     1      -1.465  -2.357  12.315  1.00  0.00     0.031 A 
ATOM     68  C   UNL     1      -0.140  -3.988  13.493  1.00  0.00     0.131 A 
ATOM     69  C   UNL     1      -1.313  -1.487  13.406  1.00  0.00     0.055 A 
ATOM     70  C   UNL     1      -0.073  -3.155  14.611  1.00  0.00     0.041 A 
ATOM     71  F   UNL     1       0.505  -5.163  13.557  1.00  0.00    -0.206 F 
ATOM     72  C   UNL     1      -0.645  -1.888  14.565  1.00  0.00     0.022 A 
BRANCH  69  73
ATOM     73  S   UNL     1      -1.850   0.237  13.220  1.00  0.00     0.124 S 
ATOM     74  O   UNL     1      -1.080   0.660  12.053  1.00  0.00    -0.237 OA
ATOM     75  O   UNL     1      -3.288   0.100  13.023  1.00  0.00    -0.237 OA
ATOM     76  O   UNL     1      -1.447   0.858  14.480  1.00  0.00    -0.744 OA
ENDBRANCH  69  73
ENDBRANCH  52  66
BRANCH  53  77
ATOM     77  C   UNL     1      -0.309  -9.405   4.179  1.00  0.00     0.023 A 
ATOM     78  C   UNL     1      -1.468  -9.914   3.568  1.00  0.00     0.031 A 
ATOM     79  C   UNL     1       0.935  -9.822   3.674  1.00  0.00     0.131 A 
ATOM     80  C   UNL     1      -1.360 -10.845   2.523  1.00  0.00     0.055 A 
ATOM     81  C   UNL     1       1.038 -10.705   2.597  1.00  0.00     0.041 A 
ATOM     82  F   UNL     1       2.075  -9.375   4.223  1.00  0.00    -0.206 F 
ATOM     83  C   UNL     1      -0.115 -11.233   2.023  1.00  0.00     0.022 A 
BRANCH  80  84
ATOM     84  S   UNL     1      -2.873 -11.614   1.880  1.00  0.00     0.124 S 
ATOM     85  O   UNL     1      -3.406 -12.262   3.073  1.00  0.00    -0.237 OA
ATOM     86  O   UNL     1      -3.615 -10.457   1.390  1.00  0.00    -0.237 OA
ATOM     87  O   UNL     1      -2.381 -12.519   0.843  1.00  0.00    -0.744 OA
ENDBRANCH  80  84
ENDBRANCH  53  77
BRANCH  65  88
ATOM     88  C   UNL     1      -3.006 -10.307  10.552  1.00  0.00     0.023 A 
ATOM     89  C   UNL     1      -2.446 -11.579  10.767  1.00  0.00     0.031 A 
ATOM     90  C   UNL     1      -4.351 -10.112  10.919  1.00  0.00     0.131 A 
ATOM     91  C   UNL     1      -3.246 -12.622  11.262  1.00  0.00     0.055 A 
ATOM     92  C   UNL     1      -5.120 -11.133  11.480  1.00  0.00     0.041 A 
ATOM     93  F   UNL     1      -4.945  -8.921  10.736  1.00  0.00    -0.206 F 
ATOM     94  C   UNL     1      -4.574 -12.402  11.637  1.00  0.00     0.022 A 
BRANCH  91  95
ATOM     95  S   UNL     1      -2.566 -14.305  11.290  1.00  0.00     0.124 S 
ATOM     96  O   UNL     1      -2.159 -14.491   9.902  1.00  0.00    -0.237 OA
ATOM     97  O   UNL     1      -1.484 -14.187  12.262  1.00  0.00    -0.237 OA
ATOM     98  O   UNL     1      -3.698 -15.125  11.720  1.00  0.00    -0.744 OA
ENDBRANCH  91  95
ENDBRANCH  65  88
ENDBRANCH  39  40
ENDBRANCH  32  34
ENDBRANCH  31  32
ENDBRANCH  30  31
ENDBRANCH  29  30
ENDBRANCH  28  29
ENDBRANCH  27  28
ENDBRANCH   1  27
TORSDOF 25
