REMARK SMILES O=C(OCCOCCOCCOC(=O)[C@H]1CCc2[nH]nc(C(F)(F)F)c2C1)c1ccc(-c2c3nc(c(-c4cc(S(=O)(=O)[O-])ccc4F)c4ccc([nH]4)c(-c4cc(S(=O)(=O)[O-])ccc4F)c4nc(c(-c5cc(S(=O)(=O)[O-])ccc5F)c5ccc2[nH]5)C=C4)C=C3)cc1
REMARK SMILES IDX 7 1 6 2 5 3 4 4 3 5 2 6 1 7 28 8 29 9 90 10 30 11 89 12
REMARK SMILES IDX 31 13 32 14 33 15 83 16 34 17 88 18 82 19 84 20 35 21 87 22
REMARK SMILES IDX 81 23 80 24 36 26 68 27 48 28 67 29 49 30 52 31 66 32 85 33
REMARK SMILES IDX 50 34 51 35 65 37 86 38 53 39 37 40 38 41 46 42 39 43 45 44
REMARK SMILES IDX 47 45 44 46 40 47 41 48 42 49 43 50 69 51 70 52 78 53 71 54
REMARK SMILES IDX 77 55 79 56 76 57 72 58 73 59 74 60 75 61 54 62 55 63 63 64
REMARK SMILES IDX 56 65 62 66 64 67 61 68 57 69 58 70 59 71 60 72 8 73 9 74
REMARK SMILES IDX 10 75 11 76 12 77 13 78 14 79 15 80 16 81 27 82 17 83 26 84
REMARK SMILES IDX 18 85 21 86 19 87 20 88 22 90 23 91 24 92 25 93
REMARK H PARENT 84 25 52 36 19 89
REMARK Flexibility Score: inf
ROOT
ATOM      1  C   UNL     1       4.228   3.220   3.608  1.00  0.00     0.188 C 
ENDROOT
BRANCH   1   2
ATOM      2  O   UNL     1       3.650   4.528   3.709  1.00  0.00    -0.376 OA
BRANCH   2   3
ATOM      3  C   UNL     1       3.850   5.168   4.964  1.00  0.00     0.202 C 
BRANCH   3   4
ATOM      4  C   UNL     1       3.096   4.575   6.160  1.00  0.00     0.261 C 
BRANCH   4   5
ATOM      5  O   UNL     1       2.445   3.313   5.938  1.00  0.00    -0.460 OA
BRANCH   5   6
ATOM      6  C   UNL     1       1.335   2.977   5.240  1.00  0.00     0.338 C 
ATOM      7  O   UNL     1       1.028   1.784   5.205  1.00  0.00    -0.246 OA
BRANCH   6   8
ATOM      8  C   UNL     1       0.492   3.932   4.449  1.00  0.00     0.060 A 
ATOM      9  C   UNL     1       0.553   5.321   4.527  1.00  0.00     0.016 A 
ATOM     10  C   UNL     1      -0.479   3.367   3.589  1.00  0.00     0.016 A 
ATOM     11  C   UNL     1      -0.301   6.120   3.766  1.00  0.00     0.010 A 
ATOM     12  C   UNL     1      -1.359   4.164   2.838  1.00  0.00     0.010 A 
ATOM     13  C   UNL     1      -1.271   5.553   2.929  1.00  0.00    -0.014 A 
BRANCH  13  14
ATOM     14  C   UNL     1      -2.323   6.473   2.437  1.00  0.00     0.031 A 
ATOM     15  C   UNL     1      -3.371   6.853   3.437  1.00  0.00     0.074 A 
ATOM     16  C   UNL     1      -2.224   7.107   1.254  1.00  0.00     0.049 A 
ATOM     17  N   UNL     1      -4.235   7.826   3.403  1.00  0.00    -0.248 NA
ATOM     18  C   UNL     1      -3.422   6.030   4.657  1.00  0.00     0.031 C 
ATOM     19  C   UNL     1      -1.232   6.811   0.233  1.00  0.00     0.029 A 
ATOM     20  N   UNL     1      -2.917   8.170   0.733  1.00  0.00    -0.354 N 
ATOM     21  C   UNL     1      -4.926   7.744   4.604  1.00  0.00     0.074 A 
ATOM     22  C   UNL     1      -4.381   6.627   5.341  1.00  0.00     0.031 C 
ATOM     23  C   UNL     1      -1.288   7.742  -0.733  1.00  0.00     0.029 A 
ATOM     24  C   UNL     1      -2.393   8.649  -0.452  1.00  0.00     0.049 A 
ATOM     25  H   UNL     1      -3.714   8.556   1.163  1.00  0.00     0.167 HD
ATOM     26  C   UNL     1      -5.944   8.522   5.036  1.00  0.00     0.034 A 
ATOM     27  C   UNL     1      -2.778   9.688  -1.224  1.00  0.00     0.034 A 
ATOM     28  C   UNL     1      -6.528   9.559   4.229  1.00  0.00     0.049 A 
ATOM     29  C   UNL     1      -3.989  10.467  -0.766  1.00  0.00     0.074 A 
ATOM     30  C   UNL     1      -7.638  10.337   4.492  1.00  0.00     0.029 A 
ATOM     31  N   UNL     1      -6.062   9.938   2.973  1.00  0.00    -0.354 N 
ATOM     32  N   UNL     1      -4.668  10.356   0.356  1.00  0.00    -0.248 NA
ATOM     33  C   UNL     1      -4.508  11.486  -1.684  1.00  0.00     0.031 C 
ATOM     34  C   UNL     1      -7.893  11.122   3.363  1.00  0.00     0.029 A 
ATOM     35  C   UNL     1      -6.883  10.913   2.434  1.00  0.00     0.049 A 
ATOM     36  H   UNL     1      -5.264   9.565   2.531  1.00  0.00     0.167 HD
ATOM     37  C   UNL     1      -5.685  11.303   0.281  1.00  0.00     0.074 A 
ATOM     38  C   UNL     1      -5.508  11.995  -0.981  1.00  0.00     0.031 C 
ATOM     39  C   UNL     1      -6.681  11.574   1.165  1.00  0.00     0.034 A 
BRANCH  26  40
ATOM     40  C   UNL     1      -6.548   8.147   6.363  1.00  0.00     0.023 A 
ATOM     41  C   UNL     1      -5.811   8.221   7.559  1.00  0.00     0.031 A 
ATOM     42  C   UNL     1      -7.827   7.569   6.408  1.00  0.00     0.131 A 
ATOM     43  C   UNL     1      -6.322   7.636   8.728  1.00  0.00     0.055 A 
ATOM     44  C   UNL     1      -8.367   7.072   7.595  1.00  0.00     0.041 A 
ATOM     45  F   UNL     1      -8.554   7.428   5.288  1.00  0.00    -0.206 F 
ATOM     46  C   UNL     1      -7.606   7.087   8.760  1.00  0.00     0.022 A 
BRANCH  43  47
ATOM     47  S   UNL     1      -5.211   7.425  10.148  1.00  0.00     0.124 S 
ATOM     48  O   UNL     1      -4.158   6.589   9.575  1.00  0.00    -0.237 OA
ATOM     49  O   UNL     1      -4.834   8.797  10.463  1.00  0.00    -0.237 OA
ATOM     50  O   UNL     1      -6.050   6.761  11.144  1.00  0.00    -0.744 OA
ENDBRANCH  43  47
ENDBRANCH  26  40
BRANCH  27  51
ATOM     51  C   UNL     1      -2.099  10.011  -2.523  1.00  0.00     0.023 A 
ATOM     52  C   UNL     1      -1.601  11.299  -2.801  1.00  0.00     0.031 A 
ATOM     53  C   UNL     1      -2.025   9.057  -3.557  1.00  0.00     0.131 A 
ATOM     54  C   UNL     1      -1.109  11.607  -4.084  1.00  0.00     0.055 A 
ATOM     55  C   UNL     1      -1.466   9.346  -4.804  1.00  0.00     0.041 A 
ATOM     56  F   UNL     1      -2.505   7.817  -3.376  1.00  0.00    -0.206 F 
ATOM     57  C   UNL     1      -1.020  10.633  -5.080  1.00  0.00     0.022 A 
BRANCH  54  58
ATOM     58  S   UNL     1      -0.718  13.335  -4.491  1.00  0.00     0.124 S 
ATOM     59  O   UNL     1      -1.983  14.001  -4.202  1.00  0.00    -0.237 OA
ATOM     60  O   UNL     1       0.384  13.624  -3.580  1.00  0.00    -0.237 OA
ATOM     61  O   UNL     1      -0.355  13.277  -5.906  1.00  0.00    -0.744 OA
ENDBRANCH  54  58
ENDBRANCH  27  51
BRANCH  39  62
ATOM     62  C   UNL     1      -7.619  12.700   0.807  1.00  0.00     0.023 A 
ATOM     63  C   UNL     1      -8.476  12.629  -0.303  1.00  0.00     0.031 A 
ATOM     64  C   UNL     1      -7.645  13.864   1.595  1.00  0.00     0.131 A 
ATOM     65  C   UNL     1      -9.275  13.732  -0.635  1.00  0.00     0.055 A 
ATOM     66  C   UNL     1      -8.498  14.928   1.303  1.00  0.00     0.041 A 
ATOM     67  F   UNL     1      -6.844  13.984   2.666  1.00  0.00    -0.206 F 
ATOM     68  C   UNL     1      -9.307  14.872   0.173  1.00  0.00     0.022 A 
BRANCH  65  69
ATOM     69  S   UNL     1     -10.185  13.705  -2.204  1.00  0.00     0.124 S 
ATOM     70  O   UNL     1      -9.116  13.482  -3.171  1.00  0.00    -0.237 OA
ATOM     71  O   UNL     1     -11.110  12.593  -2.009  1.00  0.00    -0.237 OA
ATOM     72  O   UNL     1     -10.808  15.026  -2.261  1.00  0.00    -0.744 OA
ENDBRANCH  65  69
ENDBRANCH  39  62
ENDBRANCH  13  14
ENDBRANCH   6   8
ENDBRANCH   5   6
ENDBRANCH   4   5
ENDBRANCH   3   4
ENDBRANCH   2   3
ENDBRANCH   1   2
BRANCH   1  73
ATOM     73  C   UNL     1       4.922   3.000   2.257  1.00  0.00     0.188 C 
BRANCH  73  74
ATOM     74  O   UNL     1       6.234   3.558   2.155  1.00  0.00    -0.376 OA
BRANCH  74  75
ATOM     75  C   UNL     1       6.322   4.979   2.198  1.00  0.00     0.202 C 
BRANCH  75  76
ATOM     76  C   UNL     1       5.992   5.713   0.895  1.00  0.00     0.261 C 
BRANCH  76  77
ATOM     77  O   UNL     1       4.674   5.434   0.413  1.00  0.00    -0.463 OA
BRANCH  77  78
ATOM     78  C   UNL     1       4.545   4.868  -0.817  1.00  0.00     0.309 C 
ATOM     79  O   UNL     1       5.472   4.431  -1.482  1.00  0.00    -0.252 OA
BRANCH  78  80
ATOM     80  C   UNL     1       3.099   4.876  -1.316  1.00  0.00     0.104 C 
ATOM     81  C   UNL     1       2.119   4.148  -0.371  1.00  0.00     0.022 C 
ATOM     82  C   UNL     1       2.631   6.318  -1.627  1.00  0.00     0.055 C 
ATOM     83  C   UNL     1       1.823   4.891   0.942  1.00  0.00     0.057 C 
ATOM     84  C   UNL     1       2.345   7.033  -0.357  1.00  0.00     0.006 A 
ATOM     85  C   UNL     1       2.010   6.353   0.789  1.00  0.00     0.039 A 
ATOM     86  C   UNL     1       2.400   8.402   0.019  1.00  0.00     0.169 A 
ATOM     87  N   UNL     1       2.016   7.271   1.787  1.00  0.00    -0.282 N 
ATOM     88  N   UNL     1       2.249   8.520   1.359  1.00  0.00    -0.171 NA
ATOM     89  H   UNL     1       1.864   7.043   2.733  1.00  0.00     0.190 HD
BRANCH  86  90
ATOM     90  C   UNL     1       2.647   9.592  -0.874  1.00  0.00     0.435 C 
ATOM     91  F   UNL     1       1.661  10.518  -0.796  1.00  0.00    -0.164 F 
ATOM     92  F   UNL     1       3.820  10.215  -0.573  1.00  0.00    -0.164 F 
ATOM     93  F   UNL     1       2.741   9.224  -2.183  1.00  0.00    -0.164 F 
ENDBRANCH  86  90
ENDBRANCH  78  80
ENDBRANCH  77  78
ENDBRANCH  76  77
ENDBRANCH  75  76
ENDBRANCH  74  75
ENDBRANCH  73  74
ENDBRANCH   1  73
TORSDOF 21
