REMARK SMILES Cc1cc([N+](=O)[O-])ccc1-c1ccc(/C=C/C(=O)Nc2ccc(O)c(C(=O)OCCOCCOCCOC(=O)c3ccc(-c4c5nc(c(-c6cc(S(=O)(=O)[O-])ccc6F)c6ccc([nH]6)c(-c6cc(S(=O)(=O)[O-])ccc6F)c6nc(c(-c7cc(S(=O)(=O)[O-])ccc7F)c7ccc4[nH]7)C=C6)C=C5)cc3)c2)o1
REMARK SMILES IDX 32 1 31 2 30 3 29 4 28 5 26 6 27 7 25 8 20 9 21 10 103 11
REMARK SMILES IDX 22 12 23 13 19 14 17 15 18 16 16 18 15 19 14 20 11 21 12 22
REMARK SMILES IDX 104 23 13 24 10 25 1 26 2 27 3 28 4 29 9 30 8 31 5 32 6 33
REMARK SMILES IDX 7 34 24 35 33 37 34 38 35 39 36 40 37 41 38 42 39 43 40 44
REMARK SMILES IDX 41 45 102 46 42 47 101 48 43 49 44 50 45 51 95 52 46 53
REMARK SMILES IDX 100 54 94 55 96 56 47 57 99 58 93 59 92 60 48 62 80 63 60 64
REMARK SMILES IDX 79 65 61 66 64 67 78 68 97 69 62 70 63 71 77 73 98 74 65 75
REMARK SMILES IDX 49 76 50 77 58 78 51 79 57 80 59 81 56 82 52 83 53 84 54 85
REMARK SMILES IDX 55 86 81 87 82 88 90 89 83 90 89 91 91 92 88 93 84 94 85 95
REMARK SMILES IDX 86 96 87 97 66 98 67 99 75 100 68 101 74 102 76 103 73 104
REMARK SMILES IDX 69 105 70 106 71 107 72 108
REMARK H PARENT 19 17 24 36 96 61 64 72
REMARK Flexibility Score: inf
ROOT
ATOM      1  C   UNL     1       9.731  10.571  -1.264  1.00  0.00     0.188 C 
ENDROOT
BRANCH   1   2
ATOM      2  O   UNL     1       9.818   9.400  -2.088  1.00  0.00    -0.376 OA
BRANCH   2   3
ATOM      3  C   UNL     1       9.141   9.262  -3.340  1.00  0.00     0.202 C 
BRANCH   3   4
ATOM      4  C   UNL     1       8.108   8.091  -3.449  1.00  0.00     0.261 C 
BRANCH   4   5
ATOM      5  O   UNL     1       6.715   8.460  -3.158  1.00  0.00    -0.460 OA
BRANCH   5   6
ATOM      6  C   UNL     1       5.823   7.432  -3.144  1.00  0.00     0.342 C 
ATOM      7  O   UNL     1       5.992   6.365  -3.725  1.00  0.00    -0.246 OA
BRANCH   6   8
ATOM      8  C   UNL     1       4.484   7.713  -2.529  1.00  0.00     0.103 A 
ATOM      9  C   UNL     1       3.035   7.801  -0.512  1.00  0.00     0.042 A 
ATOM     10  C   UNL     1       1.911   7.720  -1.320  1.00  0.00     0.030 A 
ATOM     11  C   UNL     1       4.292   7.792  -1.139  1.00  0.00     0.045 A 
ATOM     12  C   UNL     1       2.065   7.661  -2.714  1.00  0.00     0.049 A 
ATOM     13  C   UNL     1       3.335   7.646  -3.309  1.00  0.00     0.130 A 
BRANCH   9  14
ATOM     14  N   UNL     1       2.982   7.940   0.898  1.00  0.00    -0.322 N 
ATOM     15  C   UNL     1       2.077   7.441   1.811  1.00  0.00     0.248 C 
ATOM     16  O   UNL     1       1.985   7.869   2.956  1.00  0.00    -0.270 OA
ATOM     17  H   UNL     1       3.707   8.480   1.288  1.00  0.00     0.170 HD
BRANCH  15  18
ATOM     18  C   UNL     1       1.356   6.223   1.402  1.00  0.00     0.075 C 
ATOM     19  C   UNL     1       2.105   5.112   1.398  1.00  0.00     0.053 C 
BRANCH  19  20
ATOM     20  C   UNL     1       1.753   4.045   0.541  1.00  0.00     0.127 A 
ATOM     21  C   UNL     1       0.906   2.154  -0.209  1.00  0.00     0.135 A 
ATOM     22  C   UNL     1       1.661   2.661  -1.240  1.00  0.00     0.051 A 
ATOM     23  O   UNL     1       0.918   3.002   0.857  1.00  0.00    -0.457 OA
ATOM     24  C   UNL     1       2.216   3.859  -0.755  1.00  0.00     0.051 A 
BRANCH  21  25
ATOM     25  C   UNL     1       0.183   0.909  -0.042  1.00  0.00     0.021 A 
ATOM     26  C   UNL     1       2.369  -0.427   0.028  1.00  0.00     0.045 C 
ATOM     27  C   UNL     1       0.863  -0.326   0.030  1.00  0.00    -0.033 A 
ATOM     28  C   UNL     1       0.119  -1.518   0.066  1.00  0.00     0.089 A 
ATOM     29  C   UNL     1      -1.282  -1.473   0.064  1.00  0.00     0.269 A 
ATOM     30  C   UNL     1      -1.220   0.938  -0.015  1.00  0.00     0.019 A 
ATOM     31  C   UNL     1      -1.956  -0.248   0.037  1.00  0.00     0.086 A 
BRANCH  29  32
ATOM     32  N   UNL     1      -2.049  -2.724   0.073  1.00  0.00     0.062 N 
ATOM     33  O   UNL     1      -1.421  -3.793   0.072  1.00  0.00    -0.258 OA
ATOM     34  O   UNL     1      -3.287  -2.643   0.067  1.00  0.00    -0.258 OA
ENDBRANCH  29  32
ENDBRANCH  21  25
ENDBRANCH  19  20
ENDBRANCH  15  18
ENDBRANCH   9  14
BRANCH  13  35
ATOM     35  O   UNL     1       3.373   7.532  -4.671  1.00  0.00    -0.507 OA
ATOM     36  H   UNL     1       2.575   7.489  -5.160  1.00  0.00     0.293 HD
ENDBRANCH  13  35
ENDBRANCH   6   8
ENDBRANCH   5   6
ENDBRANCH   4   5
ENDBRANCH   3   4
ENDBRANCH   2   3
ENDBRANCH   1   2
BRANCH   1  37
ATOM     37  C   UNL     1       9.479  11.975  -1.830  1.00  0.00     0.188 C 
BRANCH  37  38
ATOM     38  O   UNL     1       8.303  12.010  -2.633  1.00  0.00    -0.376 OA
BRANCH  38  39
ATOM     39  C   UNL     1       7.879  13.308  -3.035  1.00  0.00     0.202 C 
BRANCH  39  40
ATOM     40  C   UNL     1       6.965  13.987  -2.000  1.00  0.00     0.261 C 
BRANCH  40  41
ATOM     41  O   UNL     1       5.792  13.175  -1.767  1.00  0.00    -0.460 OA
BRANCH  41  42
ATOM     42  C   UNL     1       5.480  12.972  -0.458  1.00  0.00     0.338 C 
ATOM     43  O   UNL     1       5.053  13.855   0.292  1.00  0.00    -0.246 OA
BRANCH  42  44
ATOM     44  C   UNL     1       5.712  11.554  -0.061  1.00  0.00     0.060 A 
ATOM     45  C   UNL     1       5.616  11.082   1.261  1.00  0.00     0.016 A 
ATOM     46  C   UNL     1       6.203  10.690  -1.013  1.00  0.00     0.016 A 
ATOM     47  C   UNL     1       6.116   9.794   1.626  1.00  0.00     0.010 A 
ATOM     48  C   UNL     1       6.795   9.512  -0.599  1.00  0.00     0.010 A 
ATOM     49  C   UNL     1       6.777   9.008   0.688  1.00  0.00    -0.014 A 
BRANCH  49  50
ATOM     50  C   UNL     1       7.633   7.794   0.804  1.00  0.00     0.031 A 
ATOM     51  C   UNL     1       7.349   6.486   0.130  1.00  0.00     0.074 A 
ATOM     52  C   UNL     1       8.919   8.015   1.136  1.00  0.00     0.049 A 
ATOM     53  N   UNL     1       8.081   5.943  -0.797  1.00  0.00    -0.248 NA
ATOM     54  C   UNL     1       6.165   5.694   0.473  1.00  0.00     0.031 C 
ATOM     55  C   UNL     1      10.047   7.099   1.073  1.00  0.00     0.029 A 
ATOM     56  N   UNL     1       9.363   9.049   1.946  1.00  0.00    -0.354 N 
ATOM     57  C   UNL     1       7.535   4.715  -1.137  1.00  0.00     0.074 A 
ATOM     58  C   UNL     1       6.276   4.667  -0.378  1.00  0.00     0.031 C 
ATOM     59  C   UNL     1      10.852   7.377   2.112  1.00  0.00     0.029 A 
ATOM     60  C   UNL     1      10.210   8.427   2.889  1.00  0.00     0.049 A 
ATOM     61  H   UNL     1       9.137  10.004   1.879  1.00  0.00     0.167 HD
ATOM     62  C   UNL     1       8.305   3.584  -1.158  1.00  0.00     0.034 A 
ATOM     63  C   UNL     1       9.711   8.342   4.160  1.00  0.00     0.034 A 
ATOM     64  C   UNL     1       9.179   3.450  -0.014  1.00  0.00     0.049 A 
ATOM     65  C   UNL     1       9.254   6.918   4.488  1.00  0.00     0.074 A 
ATOM     66  C   UNL     1      10.530   3.512   0.260  1.00  0.00     0.029 A 
ATOM     67  N   UNL     1       8.558   3.333   1.208  1.00  0.00    -0.354 N 
ATOM     68  N   UNL     1       9.484   5.875   3.727  1.00  0.00    -0.248 NA
ATOM     69  C   UNL     1       8.453   6.554   5.656  1.00  0.00     0.031 C 
ATOM     70  C   UNL     1      10.678   3.577   1.690  1.00  0.00     0.029 A 
ATOM     71  C   UNL     1       9.420   3.496   2.263  1.00  0.00     0.049 A 
ATOM     72  H   UNL     1       7.596   3.152   1.314  1.00  0.00     0.167 HD
ATOM     73  C   UNL     1       8.845   4.772   4.225  1.00  0.00     0.074 A 
ATOM     74  C   UNL     1       8.219   5.246   5.446  1.00  0.00     0.031 C 
ATOM     75  C   UNL     1       8.830   3.559   3.592  1.00  0.00     0.034 A 
BRANCH  62  76
ATOM     76  C   UNL     1       8.204   2.654  -2.340  1.00  0.00     0.023 A 
ATOM     77  C   UNL     1       9.125   1.603  -2.531  1.00  0.00     0.031 A 
ATOM     78  C   UNL     1       7.217   2.804  -3.342  1.00  0.00     0.131 A 
ATOM     79  C   UNL     1       9.067   0.791  -3.687  1.00  0.00     0.055 A 
ATOM     80  C   UNL     1       7.174   2.012  -4.495  1.00  0.00     0.041 A 
ATOM     81  F   UNL     1       6.235   3.709  -3.220  1.00  0.00    -0.206 F 
ATOM     82  C   UNL     1       8.106   1.002  -4.676  1.00  0.00     0.022 A 
BRANCH  79  83
ATOM     83  S   UNL     1      10.270  -0.555  -3.905  1.00  0.00     0.124 S 
ATOM     84  O   UNL     1      11.544   0.154  -3.865  1.00  0.00    -0.237 OA
ATOM     85  O   UNL     1       9.974  -1.419  -2.768  1.00  0.00    -0.237 OA
ATOM     86  O   UNL     1       9.921  -1.118  -5.210  1.00  0.00    -0.744 OA
ENDBRANCH  79  83
ENDBRANCH  62  76
BRANCH  63  87
ATOM     87  C   UNL     1       9.095   9.675   4.548  1.00  0.00     0.023 A 
ATOM     88  C   UNL     1       9.857  10.826   4.191  1.00  0.00     0.031 A 
ATOM     89  C   UNL     1       7.738   9.888   4.817  1.00  0.00     0.131 A 
ATOM     90  C   UNL     1       9.226  12.030   3.844  1.00  0.00     0.055 A 
ATOM     91  C   UNL     1       7.140  11.150   4.630  1.00  0.00     0.041 A 
ATOM     92  F   UNL     1       6.922   8.868   5.114  1.00  0.00    -0.206 F 
ATOM     93  C   UNL     1       7.866  12.206   4.074  1.00  0.00     0.022 A 
BRANCH  90  94
ATOM     94  S   UNL     1      10.107  13.193   2.744  1.00  0.00     0.124 S 
ATOM     95  O   UNL     1      10.681  14.138   3.695  1.00  0.00    -0.237 OA
ATOM     96  O   UNL     1      11.056  12.331   2.042  1.00  0.00    -0.237 OA
ATOM     97  O   UNL     1       9.046  13.719   1.886  1.00  0.00    -0.744 OA
ENDBRANCH  90  94
ENDBRANCH  63  87
BRANCH  75  98
ATOM     98  C   UNL     1       8.179   2.333   4.191  1.00  0.00     0.023 A 
ATOM     99  C   UNL     1       8.334   2.041   5.553  1.00  0.00     0.031 A 
ATOM    100  C   UNL     1       7.470   1.377   3.426  1.00  0.00     0.131 A 
ATOM    101  C   UNL     1       7.749   0.894   6.112  1.00  0.00     0.055 A 
ATOM    102  C   UNL     1       6.982   0.184   3.965  1.00  0.00     0.041 A 
ATOM    103  F   UNL     1       7.170   1.583   2.135  1.00  0.00    -0.206 F 
ATOM    104  C   UNL     1       7.109  -0.060   5.323  1.00  0.00     0.022 A 
BRANCH 101 105
ATOM    105  S   UNL     1       7.747   0.732   7.913  1.00  0.00     0.124 S 
ATOM    106  O   UNL     1       9.159   0.881   8.247  1.00  0.00    -0.237 OA
ATOM    107  O   UNL     1       6.882   1.843   8.301  1.00  0.00    -0.237 OA
ATOM    108  O   UNL     1       7.189  -0.599   8.139  1.00  0.00    -0.744 OA
ENDBRANCH 101 105
ENDBRANCH  75  98
ENDBRANCH  49  50
ENDBRANCH  42  44
ENDBRANCH  41  42
ENDBRANCH  40  41
ENDBRANCH  39  40
ENDBRANCH  38  39
ENDBRANCH  37  38
ENDBRANCH   1  37
TORSDOF 26
