REMARK SMILES O=C(OCCOCCOCCOC(=O)c1cc(-c2cccc(C(F)(F)F)c2)nc2c(F)cccc12)c1ccc(-c2c3nc(c(-c4cc(S(=O)(=O)[O-])ccc4F)c4ccc([nH]4)c(-c4cc(S(=O)(=O)[O-])ccc4F)c4nc(c(-c5cc(S(=O)(=O)[O-])ccc5F)c5ccc2[nH]5)C=C4)C=C3)cc1
REMARK SMILES IDX 7 1 6 2 5 3 4 4 3 5 2 6 1 7 36 8 37 9 98 10 38 11 97 12
REMARK SMILES IDX 39 13 40 14 41 15 91 16 42 17 96 18 90 19 92 20 43 21 95 22
REMARK SMILES IDX 89 23 88 24 44 26 76 27 56 28 75 29 57 30 60 31 74 32 93 33
REMARK SMILES IDX 58 34 59 35 73 37 94 38 61 39 45 40 46 41 54 42 47 43 53 44
REMARK SMILES IDX 55 45 52 46 48 47 49 48 50 49 51 50 77 51 78 52 86 53 79 54
REMARK SMILES IDX 85 55 87 56 84 57 80 58 81 59 82 60 83 61 62 62 63 63 71 64
REMARK SMILES IDX 64 65 70 66 72 67 69 68 65 69 66 70 67 71 68 72 8 73 9 74
REMARK SMILES IDX 10 75 11 76 12 77 13 78 14 79 15 80 16 81 35 82 17 83 29 84
REMARK SMILES IDX 34 85 28 86 30 87 33 88 31 89 32 90 18 91 19 92 27 93 20 94
REMARK SMILES IDX 22 95 21 96 23 97 24 98 25 99 26 100
REMARK H PARENT 92 25 60 36
REMARK Flexibility Score: inf
ROOT
ATOM      1  C   UNL     1       2.448  -1.996  -0.974  1.00  0.00     0.188 C 
ENDROOT
BRANCH   1   2
ATOM      2  O   UNL     1       3.694  -1.289  -0.959  1.00  0.00    -0.376 OA
BRANCH   2   3
ATOM      3  C   UNL     1       4.567  -1.672   0.107  1.00  0.00     0.202 C 
BRANCH   3   4
ATOM      4  C   UNL     1       4.396  -0.838   1.383  1.00  0.00     0.261 C 
BRANCH   4   5
ATOM      5  O   UNL     1       3.013  -0.524   1.620  1.00  0.00    -0.460 OA
BRANCH   5   6
ATOM      6  C   UNL     1       2.367   0.621   1.286  1.00  0.00     0.338 C 
ATOM      7  O   UNL     1       1.160   0.713   1.509  1.00  0.00    -0.246 OA
BRANCH   6   8
ATOM      8  C   UNL     1       3.060   1.811   0.713  1.00  0.00     0.060 A 
ATOM      9  C   UNL     1       4.102   1.756  -0.214  1.00  0.00     0.016 A 
ATOM     10  C   UNL     1       2.568   3.073   1.084  1.00  0.00     0.016 A 
ATOM     11  C   UNL     1       4.739   2.917  -0.647  1.00  0.00     0.010 A 
ATOM     12  C   UNL     1       3.150   4.244   0.585  1.00  0.00     0.010 A 
ATOM     13  C   UNL     1       4.277   4.170  -0.242  1.00  0.00    -0.014 A 
BRANCH  13  14
ATOM     14  C   UNL     1       5.069   5.379  -0.575  1.00  0.00     0.031 A 
ATOM     15  C   UNL     1       5.779   6.103   0.534  1.00  0.00     0.074 A 
ATOM     16  C   UNL     1       5.230   5.766  -1.854  1.00  0.00     0.049 A 
ATOM     17  N   UNL     1       6.461   7.217   0.499  1.00  0.00    -0.248 NA
ATOM     18  C   UNL     1       5.702   5.484   1.866  1.00  0.00     0.031 C 
ATOM     19  C   UNL     1       4.653   5.095  -3.019  1.00  0.00     0.029 A 
ATOM     20  N   UNL     1       5.942   6.809  -2.389  1.00  0.00    -0.354 N 
ATOM     21  C   UNL     1       6.875   7.446   1.807  1.00  0.00     0.074 A 
ATOM     22  C   UNL     1       6.333   6.373   2.614  1.00  0.00     0.031 C 
ATOM     23  C   UNL     1       5.051   5.734  -4.130  1.00  0.00     0.029 A 
ATOM     24  C   UNL     1       5.847   6.894  -3.757  1.00  0.00     0.049 A 
ATOM     25  H   UNL     1       6.470   7.437  -1.845  1.00  0.00     0.167 HD
ATOM     26  C   UNL     1       7.643   8.454   2.288  1.00  0.00     0.034 A 
ATOM     27  C   UNL     1       6.313   7.825  -4.611  1.00  0.00     0.034 A 
ATOM     28  C   UNL     1       8.165   9.515   1.465  1.00  0.00     0.049 A 
ATOM     29  C   UNL     1       7.087   8.984  -4.049  1.00  0.00     0.074 A 
ATOM     30  C   UNL     1       8.902  10.624   1.839  1.00  0.00     0.029 A 
ATOM     31  N   UNL     1       8.000   9.595   0.086  1.00  0.00    -0.354 N 
ATOM     32  N   UNL     1       7.407   9.233  -2.800  1.00  0.00    -0.248 NA
ATOM     33  C   UNL     1       7.557   9.989  -5.009  1.00  0.00     0.031 C 
ATOM     34  C   UNL     1       9.143  11.396   0.694  1.00  0.00     0.029 A 
ATOM     35  C   UNL     1       8.607  10.740  -0.403  1.00  0.00     0.049 A 
ATOM     36  H   UNL     1       7.521   8.933  -0.463  1.00  0.00     0.167 HD
ATOM     37  C   UNL     1       8.120  10.425  -2.824  1.00  0.00     0.074 A 
ATOM     38  C   UNL     1       8.204  10.830  -4.215  1.00  0.00     0.031 C 
ATOM     39  C   UNL     1       8.656  11.126  -1.793  1.00  0.00     0.034 A 
BRANCH  26  40
ATOM     40  C   UNL     1       7.877   8.467   3.779  1.00  0.00     0.023 A 
ATOM     41  C   UNL     1       8.586   7.436   4.423  1.00  0.00     0.031 A 
ATOM     42  C   UNL     1       7.281   9.457   4.579  1.00  0.00     0.131 A 
ATOM     43  C   UNL     1       8.591   7.362   5.825  1.00  0.00     0.055 A 
ATOM     44  C   UNL     1       7.365   9.425   5.973  1.00  0.00     0.041 A 
ATOM     45  F   UNL     1       6.569  10.449   4.022  1.00  0.00    -0.206 F 
ATOM     46  C   UNL     1       8.005   8.361   6.604  1.00  0.00     0.022 A 
BRANCH  43  47
ATOM     47  S   UNL     1       9.212   5.847   6.608  1.00  0.00     0.124 S 
ATOM     48  O   UNL     1       8.324   4.835   6.038  1.00  0.00    -0.237 OA
ATOM     49  O   UNL     1      10.598   5.804   6.160  1.00  0.00    -0.237 OA
ATOM     50  O   UNL     1       9.023   6.096   8.036  1.00  0.00    -0.744 OA
ENDBRANCH  43  47
ENDBRANCH  26  40
BRANCH  27  51
ATOM     51  C   UNL     1       5.984   7.759  -6.063  1.00  0.00     0.023 A 
ATOM     52  C   UNL     1       6.971   7.522  -7.032  1.00  0.00     0.031 A 
ATOM     53  C   UNL     1       4.667   7.986  -6.499  1.00  0.00     0.131 A 
ATOM     54  C   UNL     1       6.629   7.548  -8.395  1.00  0.00     0.055 A 
ATOM     55  C   UNL     1       4.326   7.976  -7.852  1.00  0.00     0.041 A 
ATOM     56  F   UNL     1       3.689   8.213  -5.608  1.00  0.00    -0.206 F 
ATOM     57  C   UNL     1       5.312   7.766  -8.810  1.00  0.00     0.022 A 
BRANCH  54  58
ATOM     58  S   UNL     1       7.940   7.324  -9.628  1.00  0.00     0.124 S 
ATOM     59  O   UNL     1       8.804   8.467  -9.360  1.00  0.00    -0.237 OA
ATOM     60  O   UNL     1       8.473   6.014  -9.266  1.00  0.00    -0.237 OA
ATOM     61  O   UNL     1       7.221   7.365 -10.900  1.00  0.00    -0.744 OA
ENDBRANCH  54  58
ENDBRANCH  27  51
BRANCH  39  62
ATOM     62  C   UNL     1       9.403  12.380  -2.157  1.00  0.00     0.023 A 
ATOM     63  C   UNL     1       8.733  13.521  -2.630  1.00  0.00     0.031 A 
ATOM     64  C   UNL     1      10.804  12.418  -2.060  1.00  0.00     0.131 A 
ATOM     65  C   UNL     1       9.471  14.639  -3.040  1.00  0.00     0.055 A 
ATOM     66  C   UNL     1      11.530  13.553  -2.421  1.00  0.00     0.041 A 
ATOM     67  F   UNL     1      11.487  11.350  -1.618  1.00  0.00    -0.206 F 
ATOM     68  C   UNL     1      10.864  14.667  -2.925  1.00  0.00     0.022 A 
BRANCH  65  69
ATOM     69  S   UNL     1       8.593  16.029  -3.805  1.00  0.00     0.124 S 
ATOM     70  O   UNL     1       7.997  15.400  -4.979  1.00  0.00    -0.237 OA
ATOM     71  O   UNL     1       7.663  16.428  -2.753  1.00  0.00    -0.237 OA
ATOM     72  O   UNL     1       9.656  16.991  -4.089  1.00  0.00    -0.744 OA
ENDBRANCH  65  69
ENDBRANCH  39  62
ENDBRANCH  13  14
ENDBRANCH   6   8
ENDBRANCH   5   6
ENDBRANCH   4   5
ENDBRANCH   3   4
ENDBRANCH   2   3
ENDBRANCH   1   2
BRANCH   1  73
ATOM     73  C   UNL     1       1.912  -2.095  -2.404  1.00  0.00     0.188 C 
BRANCH  73  74
ATOM     74  O   UNL     1       2.600  -3.031  -3.238  1.00  0.00    -0.376 OA
BRANCH  74  75
ATOM     75  C   UNL     1       3.979  -2.775  -3.493  1.00  0.00     0.202 C 
BRANCH  75  76
ATOM     76  C   UNL     1       4.295  -1.694  -4.533  1.00  0.00     0.261 C 
BRANCH  76  77
ATOM     77  O   UNL     1       3.813  -0.375  -4.217  1.00  0.00    -0.460 OA
BRANCH  77  78
ATOM     78  C   UNL     1       2.757   0.016  -4.966  1.00  0.00     0.338 C 
ATOM     79  O   UNL     1       2.093  -0.672  -5.730  1.00  0.00    -0.246 OA
BRANCH  78  80
ATOM     80  C   UNL     1       2.488   1.452  -4.817  1.00  0.00     0.071 A 
ATOM     81  C   UNL     1       1.510   1.840  -3.902  1.00  0.00     0.045 A 
ATOM     82  C   UNL     1       3.001   2.347  -5.777  1.00  0.00     0.018 A 
ATOM     83  C   UNL     1       1.006   3.124  -4.005  1.00  0.00     0.072 A 
ATOM     84  C   UNL     1       2.384   3.607  -5.843  1.00  0.00     0.107 A 
ATOM     85  C   UNL     1       4.065   2.037  -6.664  1.00  0.00     0.011 A 
ATOM     86  N   UNL     1       1.405   3.969  -4.983  1.00  0.00    -0.245 NA
ATOM     87  C   UNL     1       2.806   4.480  -6.849  1.00  0.00     0.149 A 
ATOM     88  C   UNL     1       4.500   2.956  -7.615  1.00  0.00     0.004 A 
ATOM     89  F   UNL     1       2.198   5.669  -6.991  1.00  0.00    -0.205 F 
ATOM     90  C   UNL     1       3.851   4.175  -7.721  1.00  0.00     0.041 A 
BRANCH  83  91
ATOM     91  C   UNL     1      -0.035   3.647  -3.109  1.00  0.00     0.001 A 
ATOM     92  C   UNL     1       0.103   3.584  -1.714  1.00  0.00     0.010 A 
ATOM     93  C   UNL     1      -1.197   4.248  -3.627  1.00  0.00     0.023 A 
ATOM     94  C   UNL     1      -0.875   4.104  -0.863  1.00  0.00     0.001 A 
ATOM     95  C   UNL     1      -2.202   4.757  -2.785  1.00  0.00     0.056 A 
ATOM     96  C   UNL     1      -2.024   4.683  -1.396  1.00  0.00     0.013 A 
BRANCH  95  97
ATOM     97  C   UNL     1      -3.465   5.354  -3.350  1.00  0.00     0.416 C 
ATOM     98  F   UNL     1      -4.568   4.618  -3.023  1.00  0.00    -0.166 F 
ATOM     99  F   UNL     1      -3.715   6.610  -2.887  1.00  0.00    -0.166 F 
ATOM    100  F   UNL     1      -3.480   5.444  -4.709  1.00  0.00    -0.166 F 
ENDBRANCH  95  97
ENDBRANCH  83  91
ENDBRANCH  78  80
ENDBRANCH  77  78
ENDBRANCH  76  77
ENDBRANCH  75  76
ENDBRANCH  74  75
ENDBRANCH  73  74
ENDBRANCH   1  73
TORSDOF 22
