REMARK SMILES Cc1cc2c(c(C)c1Cl)C=C(C(=O)OCCOCCOCCOC(=O)c1ccc(-c3c4nc(c(-c5cc(S(=O)(=O)[O-])ccc5F)c5ccc([nH]5)c(-c5cc(S(=O)(=O)[O-])ccc5F)c5nc(c(-c6cc(S(=O)(=O)[O-])ccc6F)c6ccc3[nH]6)C=C5)C=C4)cc1)[C@@H](C(F)(F)F)O2
REMARK SMILES IDX 19 1 18 2 17 3 16 4 15 5 14 6 12 7 13 8 11 9 1 10 2 11 3 12
REMARK SMILES IDX 8 13 4 14 6 15 9 16 5 17 94 18 7 19 10 20 89 21 90 22 91 23
REMARK SMILES IDX 92 24 93 25 20 26 21 27 22 28 23 29 24 30 25 31 26 32 27 33
REMARK SMILES IDX 88 34 28 35 87 36 29 37 30 38 31 39 81 40 32 41 86 42 80 43
REMARK SMILES IDX 82 44 33 45 85 46 79 47 78 48 34 50 66 51 46 52 65 53 47 54
REMARK SMILES IDX 50 55 64 56 83 57 48 58 49 59 63 61 84 62 51 63 35 64 36 65
REMARK SMILES IDX 44 66 37 67 43 68 45 69 42 70 38 71 39 72 40 73 41 74 67 75
REMARK SMILES IDX 68 76 76 77 69 78 75 79 77 80 74 81 70 82 71 83 72 84 73 85
REMARK SMILES IDX 52 86 53 87 61 88 54 89 60 90 62 91 59 92 55 93 56 94 57 95
REMARK SMILES IDX 58 96
REMARK H PARENT 82 49 50 60
REMARK Flexibility Score: inf
ROOT
ATOM      1  C   UNL     1      -3.314   4.371  -6.114  1.00  0.00     0.188 C 
ENDROOT
BRANCH   1   2
ATOM      2  C   UNL     1      -2.428   5.572  -6.509  1.00  0.00     0.188 C 
BRANCH   2   3
ATOM      3  O   UNL     1      -2.522   6.091  -7.815  1.00  0.00    -0.376 OA
BRANCH   3   4
ATOM      4  C   UNL     1      -2.014   5.408  -8.945  1.00  0.00     0.202 C 
BRANCH   4   5
ATOM      5  C   UNL     1      -1.057   4.206  -8.914  1.00  0.00     0.261 C 
BRANCH   5   6
ATOM      6  O   UNL     1      -1.023   3.435  -7.716  1.00  0.00    -0.460 OA
BRANCH   6   7
ATOM      7  C   UNL     1       0.129   3.525  -7.009  1.00  0.00     0.338 C 
ATOM      8  O   UNL     1       1.109   4.195  -7.292  1.00  0.00    -0.246 OA
BRANCH   7   9
ATOM      9  C   UNL     1      -0.005   2.750  -5.762  1.00  0.00     0.087 C 
ATOM     10  C   UNL     1       0.736  -0.029   0.027  1.00  0.00     0.046 C 
ATOM     11  C   UNL     1       0.548   0.927  -1.120  1.00  0.00    -0.028 A 
ATOM     12  C   UNL     1       0.018   0.444  -2.321  1.00  0.00     0.052 A 
ATOM     13  C   UNL     1       0.925   2.283  -1.037  1.00  0.00     0.047 A 
ATOM     14  C   UNL     1      -0.071   1.264  -3.442  1.00  0.00     0.128 A 
ATOM     15  C   UNL     1       0.811   3.141  -2.157  1.00  0.00    -0.021 A 
ATOM     16  Cl  UNL     1       1.564   2.868   0.468  1.00  0.00    -0.084 Cl
ATOM     17  C   UNL     1       0.357   2.596  -3.385  1.00  0.00     0.022 A 
ATOM     18  O   UNL     1      -0.587   0.659  -4.553  1.00  0.00    -0.475 OA
ATOM     19  C   UNL     1       1.175   4.607  -2.073  1.00  0.00     0.047 C 
ATOM     20  C   UNL     1       0.384   3.356  -4.634  1.00  0.00     0.027 C 
ATOM     21  C   UNL     1      -0.549   1.354  -5.823  1.00  0.00     0.316 C 
BRANCH  21  22
ATOM     22  C   UNL     1       0.195   0.466  -6.832  1.00  0.00     0.430 C 
ATOM     23  F   UNL     1      -0.313  -0.792  -6.845  1.00  0.00    -0.167 F 
ATOM     24  F   UNL     1       0.082   0.933  -8.098  1.00  0.00    -0.167 F 
ATOM     25  F   UNL     1       1.514   0.366  -6.554  1.00  0.00    -0.167 F 
ENDBRANCH  21  22
ENDBRANCH   7   9
ENDBRANCH   6   7
ENDBRANCH   5   6
ENDBRANCH   4   5
ENDBRANCH   3   4
ENDBRANCH   2   3
ENDBRANCH   1   2
BRANCH   1  26
ATOM     26  O   UNL     1      -4.260   3.853  -7.036  1.00  0.00    -0.376 OA
BRANCH  26  27
ATOM     27  C   UNL     1      -5.203   4.749  -7.611  1.00  0.00     0.202 C 
BRANCH  27  28
ATOM     28  C   UNL     1      -6.068   5.622  -6.693  1.00  0.00     0.261 C 
BRANCH  28  29
ATOM     29  O   UNL     1      -5.299   6.496  -5.849  1.00  0.00    -0.460 OA
BRANCH  29  30
ATOM     30  C   UNL     1      -5.521   6.358  -4.517  1.00  0.00     0.338 C 
ATOM     31  O   UNL     1      -6.338   5.633  -3.978  1.00  0.00    -0.246 OA
BRANCH  30  32
ATOM     32  C   UNL     1      -4.466   7.077  -3.775  1.00  0.00     0.060 A 
ATOM     33  C   UNL     1      -3.590   6.324  -2.982  1.00  0.00     0.016 A 
ATOM     34  C   UNL     1      -4.357   8.467  -3.832  1.00  0.00     0.016 A 
ATOM     35  C   UNL     1      -2.603   6.962  -2.235  1.00  0.00     0.010 A 
ATOM     36  C   UNL     1      -3.385   9.110  -3.055  1.00  0.00     0.010 A 
ATOM     37  C   UNL     1      -2.519   8.361  -2.239  1.00  0.00    -0.014 A 
BRANCH  37  38
ATOM     38  C   UNL     1      -1.657   9.026  -1.232  1.00  0.00     0.031 A 
ATOM     39  C   UNL     1      -2.251   9.343   0.113  1.00  0.00     0.074 A 
ATOM     40  C   UNL     1      -0.357   9.272  -1.474  1.00  0.00     0.049 A 
ATOM     41  N   UNL     1      -1.688   9.884   1.161  1.00  0.00    -0.248 NA
ATOM     42  C   UNL     1      -3.668   8.990   0.302  1.00  0.00     0.031 C 
ATOM     43  C   UNL     1       0.349   8.950  -2.714  1.00  0.00     0.029 A 
ATOM     44  N   UNL     1       0.606   9.842  -0.678  1.00  0.00    -0.354 N 
ATOM     45  C   UNL     1      -2.671   9.912   2.143  1.00  0.00     0.074 A 
ATOM     46  C   UNL     1      -3.877   9.373   1.552  1.00  0.00     0.031 C 
ATOM     47  C   UNL     1       1.636   9.322  -2.591  1.00  0.00     0.029 A 
ATOM     48  C   UNL     1       1.840   9.935  -1.278  1.00  0.00     0.049 A 
ATOM     49  H   UNL     1       0.429  10.154   0.239  1.00  0.00     0.167 HD
ATOM     50  C   UNL     1      -2.575  10.333   3.425  1.00  0.00     0.034 A 
ATOM     51  C   UNL     1       2.993  10.468  -0.823  1.00  0.00     0.034 A 
ATOM     52  C   UNL     1      -1.384  10.895   4.001  1.00  0.00     0.049 A 
ATOM     53  C   UNL     1       3.034  11.070   0.561  1.00  0.00     0.074 A 
ATOM     54  C   UNL     1      -1.188  11.363   5.288  1.00  0.00     0.029 A 
ATOM     55  N   UNL     1      -0.189  11.081   3.322  1.00  0.00    -0.354 N 
ATOM     56  N   UNL     1       2.090  11.106   1.473  1.00  0.00    -0.248 NA
ATOM     57  C   UNL     1       4.291  11.714   0.974  1.00  0.00     0.031 C 
ATOM     58  C   UNL     1       0.104  11.891   5.369  1.00  0.00     0.029 A 
ATOM     59  C   UNL     1       0.735  11.694   4.151  1.00  0.00     0.049 A 
ATOM     60  H   UNL     1      -0.022  10.815   2.389  1.00  0.00     0.167 HD
ATOM     61  C   UNL     1       2.645  11.760   2.571  1.00  0.00     0.074 A 
ATOM     62  C   UNL     1       4.006  12.099   2.211  1.00  0.00     0.031 C 
ATOM     63  C   UNL     1       2.081  12.046   3.770  1.00  0.00     0.034 A 
BRANCH  50  64
ATOM     64  C   UNL     1      -3.811  10.235   4.277  1.00  0.00     0.023 A 
ATOM     65  C   UNL     1      -4.312   8.991   4.693  1.00  0.00     0.031 A 
ATOM     66  C   UNL     1      -4.496  11.396   4.671  1.00  0.00     0.131 A 
ATOM     67  C   UNL     1      -5.494   8.934   5.445  1.00  0.00     0.055 A 
ATOM     68  C   UNL     1      -5.638  11.336   5.471  1.00  0.00     0.041 A 
ATOM     69  F   UNL     1      -4.068  12.607   4.279  1.00  0.00    -0.206 F 
ATOM     70  C   UNL     1      -6.147  10.099   5.856  1.00  0.00     0.022 A 
BRANCH  67  71
ATOM     71  S   UNL     1      -6.215   7.311   5.810  1.00  0.00     0.124 S 
ATOM     72  O   UNL     1      -6.555   6.833   4.472  1.00  0.00    -0.237 OA
ATOM     73  O   UNL     1      -5.118   6.618   6.476  1.00  0.00    -0.237 OA
ATOM     74  O   UNL     1      -7.359   7.628   6.662  1.00  0.00    -0.744 OA
ENDBRANCH  67  71
ENDBRANCH  50  64
BRANCH  51  75
ATOM     75  C   UNL     1       4.200  10.503  -1.695  1.00  0.00     0.023 A 
ATOM     76  C   UNL     1       5.344   9.751  -1.383  1.00  0.00     0.031 A 
ATOM     77  C   UNL     1       4.239  11.325  -2.836  1.00  0.00     0.131 A 
ATOM     78  C   UNL     1       6.488   9.855  -2.190  1.00  0.00     0.055 A 
ATOM     79  C   UNL     1       5.365  11.396  -3.656  1.00  0.00     0.041 A 
ATOM     80  F   UNL     1       3.171  12.066  -3.173  1.00  0.00    -0.206 F 
ATOM     81  C   UNL     1       6.502  10.663  -3.331  1.00  0.00     0.022 A 
BRANCH  78  82
ATOM     82  S   UNL     1       7.982   8.944  -1.710  1.00  0.00     0.124 S 
ATOM     83  O   UNL     1       8.334   9.595  -0.453  1.00  0.00    -0.237 OA
ATOM     84  O   UNL     1       7.486   7.576  -1.609  1.00  0.00    -0.237 OA
ATOM     85  O   UNL     1       8.901   9.190  -2.820  1.00  0.00    -0.744 OA
ENDBRANCH  78  82
ENDBRANCH  51  75
BRANCH  63  86
ATOM     86  C   UNL     1       2.925  12.757   4.794  1.00  0.00     0.023 A 
ATOM     87  C   UNL     1       3.218  14.125   4.675  1.00  0.00     0.031 A 
ATOM     88  C   UNL     1       3.366  12.077   5.943  1.00  0.00     0.131 A 
ATOM     89  C   UNL     1       3.945  14.772   5.686  1.00  0.00     0.055 A 
ATOM     90  C   UNL     1       4.054  12.733   6.964  1.00  0.00     0.041 A 
ATOM     91  F   UNL     1       3.103  10.770   6.105  1.00  0.00    -0.206 F 
ATOM     92  C   UNL     1       4.348  14.088   6.838  1.00  0.00     0.022 A 
BRANCH  89  93
ATOM     93  S   UNL     1       4.360  16.525   5.482  1.00  0.00     0.124 S 
ATOM     94  O   UNL     1       5.298  16.485   4.364  1.00  0.00    -0.237 OA
ATOM     95  O   UNL     1       3.061  17.129   5.202  1.00  0.00    -0.237 OA
ATOM     96  O   UNL     1       4.945  16.892   6.770  1.00  0.00    -0.744 OA
ENDBRANCH  89  93
ENDBRANCH  63  86
ENDBRANCH  37  38
ENDBRANCH  30  32
ENDBRANCH  29  30
ENDBRANCH  28  29
ENDBRANCH  27  28
ENDBRANCH  26  27
ENDBRANCH   1  26
TORSDOF 21
