REMARK SMILES CC1(C)C[C@@](Cc2ccccc2)(C(=O)OCCOCCOCCOC(=O)c2ccc(-c3c4nc(c(-c5cc(S(=O)(=O)[O-])ccc5F)c5ccc([nH]5)c(-c5cc(S(=O)(=O)[O-])ccc5F)c5nc(c(-c6cc(S(=O)(=O)[O-])ccc6F)c6ccc3[nH]6)C=C5)C=C4)cc2)CCO1
REMARK SMILES IDX 20 1 19 2 18 3 17 4 16 5 15 6 13 7 14 8 5 9 1 10 2 11 3 12
REMARK SMILES IDX 4 13 92 14 91 15 90 16 6 17 7 18 8 19 12 20 9 21 11 22 10 23
REMARK SMILES IDX 21 24 22 25 23 26 24 27 25 28 26 29 27 30 28 31 89 32 29 33
REMARK SMILES IDX 88 34 30 35 31 36 32 37 82 38 33 39 87 40 81 41 83 42 34 43
REMARK SMILES IDX 86 44 80 45 79 46 35 48 67 49 47 50 66 51 48 52 51 53 65 54
REMARK SMILES IDX 84 55 49 56 50 57 64 59 85 60 52 61 36 62 37 63 45 64 38 65
REMARK SMILES IDX 44 66 46 67 43 68 39 69 40 70 41 71 42 72 68 73 69 74 77 75
REMARK SMILES IDX 70 76 76 77 78 78 75 79 71 80 72 81 73 82 74 83 53 84 54 85
REMARK SMILES IDX 62 86 55 87 61 88 63 89 60 90 56 91 57 92 58 93 59 94
REMARK H PARENT 83 47 51 58
REMARK Flexibility Score: inf
ROOT
ATOM      1  C   UNL     1       2.271   3.090  -3.326  1.00  0.00     0.188 C 
ENDROOT
BRANCH   1   2
ATOM      2  C   UNL     1       3.483   2.799  -2.428  1.00  0.00     0.188 C 
BRANCH   2   3
ATOM      3  O   UNL     1       4.395   1.907  -3.068  1.00  0.00    -0.376 OA
BRANCH   3   4
ATOM      4  C   UNL     1       4.438   0.615  -2.468  1.00  0.00     0.202 C 
BRANCH   4   5
ATOM      5  C   UNL     1       3.355  -0.328  -2.998  1.00  0.00     0.261 C 
BRANCH   5   6
ATOM      6  O   UNL     1       1.972  -0.004  -2.749  1.00  0.00    -0.463 OA
BRANCH   6   7
ATOM      7  C   UNL     1       1.544   0.088  -1.459  1.00  0.00     0.312 C 
ATOM      8  O   UNL     1       2.301   0.328  -0.532  1.00  0.00    -0.252 OA
BRANCH   7   9
ATOM      9  C   UNL     1       0.013  -0.168  -1.348  1.00  0.00     0.077 C 
ATOM     10  C   UNL     1       1.523  -1.680   1.396  1.00  0.00     0.042 C 
ATOM     11  C   UNL     1       0.473  -2.070   0.327  1.00  0.00     0.064 C 
ATOM     12  C   UNL     1      -0.355  -3.219   0.912  1.00  0.00     0.042 C 
ATOM     13  C   UNL     1      -0.392  -0.844  -0.003  1.00  0.00     0.054 C 
ATOM     14  O   UNL     1       1.141  -2.532  -0.862  1.00  0.00    -0.376 OA
ATOM     15  C   UNL     1       0.328  -2.587  -2.043  1.00  0.00     0.162 C 
ATOM     16  C   UNL     1      -0.346  -1.246  -2.393  1.00  0.00     0.047 C 
BRANCH   9  17
ATOM     17  C   UNL     1      -0.791   1.156  -1.581  1.00  0.00     0.054 C 
BRANCH  17  18
ATOM     18  C   UNL     1      -0.715   2.063  -0.365  1.00  0.00    -0.047 A 
ATOM     19  C   UNL     1      -1.723   2.045   0.608  1.00  0.00     0.004 A 
ATOM     20  C   UNL     1       0.497   2.687  -0.064  1.00  0.00     0.004 A 
ATOM     21  C   UNL     1      -1.423   2.424   1.913  1.00  0.00     0.000 A 
ATOM     22  C   UNL     1       0.814   3.028   1.240  1.00  0.00     0.000 A 
ATOM     23  C   UNL     1      -0.129   2.820   2.234  1.00  0.00     0.000 A 
ENDBRANCH  17  18
ENDBRANCH   9  17
ENDBRANCH   7   9
ENDBRANCH   6   7
ENDBRANCH   5   6
ENDBRANCH   4   5
ENDBRANCH   3   4
ENDBRANCH   2   3
ENDBRANCH   1   2
BRANCH   1  24
ATOM     24  O   UNL     1       2.545   3.618  -4.622  1.00  0.00    -0.376 OA
BRANCH  24  25
ATOM     25  C   UNL     1       3.642   4.513  -4.720  1.00  0.00     0.202 C 
BRANCH  25  26
ATOM     26  C   UNL     1       3.434   5.913  -4.125  1.00  0.00     0.261 C 
BRANCH  26  27
ATOM     27  O   UNL     1       2.980   5.949  -2.754  1.00  0.00    -0.460 OA
BRANCH  27  28
ATOM     28  C   UNL     1       1.664   6.260  -2.599  1.00  0.00     0.338 C 
ATOM     29  O   UNL     1       0.863   6.415  -3.512  1.00  0.00    -0.246 OA
BRANCH  28  30
ATOM     30  C   UNL     1       1.250   6.328  -1.169  1.00  0.00     0.060 A 
ATOM     31  C   UNL     1      -0.089   6.042  -0.873  1.00  0.00     0.016 A 
ATOM     32  C   UNL     1       2.095   6.763  -0.140  1.00  0.00     0.016 A 
ATOM     33  C   UNL     1      -0.592   6.238   0.419  1.00  0.00     0.010 A 
ATOM     34  C   UNL     1       1.580   6.986   1.156  1.00  0.00     0.010 A 
ATOM     35  C   UNL     1       0.223   6.761   1.438  1.00  0.00    -0.014 A 
BRANCH  35  36
ATOM     36  C   UNL     1      -0.446   7.261   2.682  1.00  0.00     0.031 A 
ATOM     37  C   UNL     1      -1.192   8.564   2.606  1.00  0.00     0.074 A 
ATOM     38  C   UNL     1      -0.467   6.575   3.842  1.00  0.00     0.049 A 
ATOM     39  N   UNL     1      -1.978   9.126   3.486  1.00  0.00    -0.248 NA
ATOM     40  C   UNL     1      -0.982   9.355   1.385  1.00  0.00     0.031 C 
ATOM     41  C   UNL     1       0.307   5.378   4.104  1.00  0.00     0.029 A 
ATOM     42  N   UNL     1      -1.192   6.754   5.000  1.00  0.00    -0.354 N 
ATOM     43  C   UNL     1      -2.344  10.347   2.937  1.00  0.00     0.074 A 
ATOM     44  C   UNL     1      -1.695  10.439   1.645  1.00  0.00     0.031 C 
ATOM     45  C   UNL     1      -0.085   4.840   5.272  1.00  0.00     0.029 A 
ATOM     46  C   UNL     1      -1.074   5.711   5.899  1.00  0.00     0.049 A 
ATOM     47  H   UNL     1      -1.743   7.552   5.172  1.00  0.00     0.167 HD
ATOM     48  C   UNL     1      -3.124  11.318   3.472  1.00  0.00     0.034 A 
ATOM     49  C   UNL     1      -1.681   5.486   7.087  1.00  0.00     0.034 A 
ATOM     50  C   UNL     1      -3.714  11.252   4.786  1.00  0.00     0.049 A 
ATOM     51  C   UNL     1      -2.595   6.561   7.637  1.00  0.00     0.074 A 
ATOM     52  C   UNL     1      -4.492  12.199   5.429  1.00  0.00     0.029 A 
ATOM     53  N   UNL     1      -3.573  10.191   5.671  1.00  0.00    -0.354 N 
ATOM     54  N   UNL     1      -2.957   7.698   7.088  1.00  0.00    -0.248 NA
ATOM     55  C   UNL     1      -3.148   6.342   8.981  1.00  0.00     0.031 C 
ATOM     56  C   UNL     1      -4.765  11.741   6.723  1.00  0.00     0.029 A 
ATOM     57  C   UNL     1      -4.230  10.471   6.862  1.00  0.00     0.049 A 
ATOM     58  H   UNL     1      -3.079   9.360   5.482  1.00  0.00     0.167 HD
ATOM     59  C   UNL     1      -3.763   8.335   8.030  1.00  0.00     0.074 A 
ATOM     60  C   UNL     1      -3.888   7.427   9.150  1.00  0.00     0.031 C 
ATOM     61  C   UNL     1      -4.325   9.570   7.987  1.00  0.00     0.034 A 
BRANCH  48  62
ATOM     62  C   UNL     1      -3.288  12.573   2.655  1.00  0.00     0.023 A 
ATOM     63  C   UNL     1      -3.962  12.568   1.421  1.00  0.00     0.031 A 
ATOM     64  C   UNL     1      -2.700  13.776   3.084  1.00  0.00     0.131 A 
ATOM     65  C   UNL     1      -3.965  13.724   0.626  1.00  0.00     0.055 A 
ATOM     66  C   UNL     1      -2.776  14.943   2.324  1.00  0.00     0.041 A 
ATOM     67  F   UNL     1      -2.018  13.828   4.239  1.00  0.00    -0.206 F 
ATOM     68  C   UNL     1      -3.399  14.917   1.080  1.00  0.00     0.022 A 
BRANCH  65  69
ATOM     69  S   UNL     1      -4.593  13.606  -1.072  1.00  0.00     0.124 S 
ATOM     70  O   UNL     1      -3.677  12.631  -1.657  1.00  0.00    -0.237 OA
ATOM     71  O   UNL     1      -5.965  13.154  -0.871  1.00  0.00    -0.237 OA
ATOM     72  O   UNL     1      -4.454  14.968  -1.583  1.00  0.00    -0.744 OA
ENDBRANCH  65  69
ENDBRANCH  48  62
BRANCH  49  73
ATOM     73  C   UNL     1      -1.414   4.249   7.896  1.00  0.00     0.023 A 
ATOM     74  C   UNL     1      -2.459   3.397   8.308  1.00  0.00     0.031 A 
ATOM     75  C   UNL     1      -0.121   3.951   8.361  1.00  0.00     0.131 A 
ATOM     76  C   UNL     1      -2.200   2.333   9.192  1.00  0.00     0.055 A 
ATOM     77  C   UNL     1       0.144   2.848   9.177  1.00  0.00     0.041 A 
ATOM     78  F   UNL     1       0.918   4.736   8.033  1.00  0.00    -0.206 F 
ATOM     79  C   UNL     1      -0.901   2.041   9.611  1.00  0.00     0.022 A 
BRANCH  76  80
ATOM     80  S   UNL     1      -3.597   1.407   9.896  1.00  0.00     0.124 S 
ATOM     81  O   UNL     1      -4.364   2.468  10.538  1.00  0.00    -0.237 OA
ATOM     82  O   UNL     1      -4.197   0.811   8.707  1.00  0.00    -0.237 OA
ATOM     83  O   UNL     1      -2.956   0.461  10.807  1.00  0.00    -0.744 OA
ENDBRANCH  76  80
ENDBRANCH  49  73
BRANCH  61  84
ATOM     84  C   UNL     1      -5.136   9.994   9.190  1.00  0.00     0.023 A 
ATOM     85  C   UNL     1      -4.545  10.167  10.457  1.00  0.00     0.031 A 
ATOM     86  C   UNL     1      -6.523  10.190   9.078  1.00  0.00     0.131 A 
ATOM     87  C   UNL     1      -5.349  10.452  11.572  1.00  0.00     0.055 A 
ATOM     88  C   UNL     1      -7.308  10.539  10.179  1.00  0.00     0.041 A 
ATOM     89  F   UNL     1      -7.142  10.037   7.897  1.00  0.00    -0.206 F 
ATOM     90  C   UNL     1      -6.725  10.653  11.437  1.00  0.00     0.022 A 
BRANCH  87  91
ATOM     91  S   UNL     1      -4.593  10.431  13.222  1.00  0.00     0.124 S 
ATOM     92  O   UNL     1      -3.993   9.102  13.265  1.00  0.00    -0.237 OA
ATOM     93  O   UNL     1      -3.660  11.551  13.150  1.00  0.00    -0.237 OA
ATOM     94  O   UNL     1      -5.729  10.628  14.121  1.00  0.00    -0.744 OA
ENDBRANCH  87  91
ENDBRANCH  61  84
ENDBRANCH  35  36
ENDBRANCH  28  30
ENDBRANCH  27  28
ENDBRANCH  26  27
ENDBRANCH  25  26
ENDBRANCH  24  25
ENDBRANCH   1  24
TORSDOF 22
