REMARK SMILES COc1ccc2c(CC(=O)OCCOCCOCCOC(=O)c3ccc(-c4c5nc(c(-c6cc(S(=O)(=O)[O-])ccc6F)c6ccc([nH]6)c(-c6cc(S(=O)(=O)[O-])ccc6F)c6nc(c(-c7cc(S(=O)(=O)[O-])ccc7F)c7ccc4[nH]7)C=C6)C=C5)cc3)c(C(=O)c3cc(C)ccn3)[nH]c2c1
REMARK SMILES IDX 15 1 14 2 13 3 12 4 11 5 9 6 10 7 8 8 7 9 3 10 4 11 98 12
REMARK SMILES IDX 5 13 97 14 6 15 96 16 86 17 2 19 1 20 87 21 88 22 89 23
REMARK SMILES IDX 90 24 95 25 91 26 94 27 92 28 93 29 16 30 17 31 18 32 19 33
REMARK SMILES IDX 20 34 21 35 22 36 23 37 24 38 85 39 25 40 84 41 26 42 27 43
REMARK SMILES IDX 28 44 78 45 29 46 83 47 77 48 79 49 30 50 82 51 76 52 75 53
REMARK SMILES IDX 31 55 63 56 43 57 62 58 44 59 47 60 61 61 80 62 45 63 46 64
REMARK SMILES IDX 60 66 81 67 48 68 32 69 33 70 41 71 34 72 40 73 42 74 39 75
REMARK SMILES IDX 35 76 36 77 37 78 38 79 64 80 65 81 73 82 66 83 72 84 74 85
REMARK SMILES IDX 71 86 67 87 68 88 69 89 70 90 49 91 50 92 58 93 51 94 57 95
REMARK SMILES IDX 59 96 56 97 52 98 53 99 54 100 55 101
REMARK H PARENT 96 18 79 54 47 65
REMARK Flexibility Score: inf
ROOT
ATOM      1  C   UNL     1       2.433   9.874  -2.087  1.00  0.00     0.188 C 
ENDROOT
BRANCH   1   2
ATOM      2  O   UNL     1       3.572  10.235  -2.867  1.00  0.00    -0.376 OA
BRANCH   2   3
ATOM      3  C   UNL     1       4.224   9.219  -3.616  1.00  0.00     0.202 C 
BRANCH   3   4
ATOM      4  C   UNL     1       4.767   8.025  -2.819  1.00  0.00     0.261 C 
BRANCH   4   5
ATOM      5  O   UNL     1       3.739   7.358  -2.054  1.00  0.00    -0.463 OA
BRANCH   5   6
ATOM      6  C   UNL     1       4.057   6.980  -0.787  1.00  0.00     0.310 C 
ATOM      7  O   UNL     1       5.212   6.938  -0.372  1.00  0.00    -0.252 OA
BRANCH   6   8
ATOM      8  C   UNL     1       2.850   6.791   0.131  1.00  0.00     0.161 C 
BRANCH   8   9
ATOM      9  C   UNL     1       1.680   5.965  -0.361  1.00  0.00     0.000 A 
ATOM     10  C   UNL     1       1.116   1.867  -1.072  1.00  0.00     0.120 A 
ATOM     11  C   UNL     1       2.437   2.253  -0.859  1.00  0.00     0.047 A 
ATOM     12  C   UNL     1       0.098   2.811  -1.204  1.00  0.00     0.073 A 
ATOM     13  C   UNL     1       2.764   3.604  -0.684  1.00  0.00     0.014 A 
ATOM     14  C   UNL     1       0.439   4.148  -0.977  1.00  0.00     0.050 A 
ATOM     15  C   UNL     1       1.736   4.569  -0.694  1.00  0.00     0.004 A 
ATOM     16  N   UNL     1      -0.361   5.261  -0.932  1.00  0.00    -0.351 N 
ATOM     17  C   UNL     1       0.312   6.291  -0.312  1.00  0.00     0.093 A 
ATOM     18  H   UNL     1      -1.278   5.316  -1.288  1.00  0.00     0.167 HD
BRANCH  10  19
ATOM     19  O   UNL     1       0.755   0.548  -1.186  1.00  0.00    -0.497 OA
ATOM     20  C   UNL     1       1.063  -0.176   0.008  1.00  0.00     0.278 C 
ENDBRANCH  10  19
BRANCH  17  21
ATOM     21  C   UNL     1      -0.362   7.411   0.332  1.00  0.00     0.227 C 
ATOM     22  O   UNL     1       0.195   8.133   1.154  1.00  0.00    -0.285 OA
BRANCH  21  23
ATOM     23  C   UNL     1      -1.800   7.686   0.019  1.00  0.00     0.113 A 
ATOM     24  C   UNL     1      -2.804   7.343   0.922  1.00  0.00     0.036 A 
ATOM     25  N   UNL     1      -2.024   8.351  -1.146  1.00  0.00    -0.253 NA
ATOM     26  C   UNL     1      -4.118   7.736   0.634  1.00  0.00    -0.047 A 
ATOM     27  C   UNL     1      -3.290   8.780  -1.354  1.00  0.00     0.112 A 
ATOM     28  C   UNL     1      -5.277   7.381   1.521  1.00  0.00     0.044 C 
ATOM     29  C   UNL     1      -4.350   8.508  -0.506  1.00  0.00     0.023 A 
ENDBRANCH  21  23
ENDBRANCH  17  21
ENDBRANCH   8   9
ENDBRANCH   6   8
ENDBRANCH   5   6
ENDBRANCH   4   5
ENDBRANCH   3   4
ENDBRANCH   2   3
ENDBRANCH   1   2
BRANCH   1  30
ATOM     30  C   UNL     1       1.418   8.860  -2.664  1.00  0.00     0.188 C 
BRANCH  30  31
ATOM     31  O   UNL     1       1.413   8.794  -4.083  1.00  0.00    -0.376 OA
BRANCH  31  32
ATOM     32  C   UNL     1       0.205   9.241  -4.679  1.00  0.00     0.202 C 
BRANCH  32  33
ATOM     33  C   UNL     1       0.013  10.752  -4.542  1.00  0.00     0.261 C 
BRANCH  33  34
ATOM     34  O   UNL     1      -0.091  11.158  -3.158  1.00  0.00    -0.460 OA
BRANCH  34  35
ATOM     35  C   UNL     1      -1.310  11.455  -2.676  1.00  0.00     0.338 C 
ATOM     36  O   UNL     1      -2.353  11.475  -3.330  1.00  0.00    -0.246 OA
BRANCH  35  37
ATOM     37  C   UNL     1      -1.254  11.810  -1.234  1.00  0.00     0.060 A 
ATOM     38  C   UNL     1      -0.584  11.029  -0.288  1.00  0.00     0.016 A 
ATOM     39  C   UNL     1      -2.009  12.894  -0.788  1.00  0.00     0.016 A 
ATOM     40  C   UNL     1      -0.734  11.270   1.085  1.00  0.00     0.010 A 
ATOM     41  C   UNL     1      -2.095  13.181   0.583  1.00  0.00     0.010 A 
ATOM     42  C   UNL     1      -1.490  12.352   1.546  1.00  0.00    -0.014 A 
BRANCH  42  43
ATOM     43  C   UNL     1      -1.710  12.595   3.007  1.00  0.00     0.031 A 
ATOM     44  C   UNL     1      -3.114  12.643   3.561  1.00  0.00     0.074 A 
ATOM     45  C   UNL     1      -0.677  12.785   3.854  1.00  0.00     0.049 A 
ATOM     46  N   UNL     1      -3.541  13.074   4.722  1.00  0.00    -0.248 NA
ATOM     47  C   UNL     1      -4.181  12.150   2.677  1.00  0.00     0.031 C 
ATOM     48  C   UNL     1       0.740  12.689   3.505  1.00  0.00     0.029 A 
ATOM     49  N   UNL     1      -0.663  13.114   5.192  1.00  0.00    -0.354 N 
ATOM     50  C   UNL     1      -4.928  12.956   4.691  1.00  0.00     0.074 A 
ATOM     51  C   UNL     1      -5.267  12.427   3.384  1.00  0.00     0.031 C 
ATOM     52  C   UNL     1       1.482  12.937   4.595  1.00  0.00     0.029 A 
ATOM     53  C   UNL     1       0.603  13.306   5.700  1.00  0.00     0.049 A 
ATOM     54  H   UNL     1      -1.480  13.203   5.734  1.00  0.00     0.167 HD
ATOM     55  C   UNL     1      -5.833  13.261   5.657  1.00  0.00     0.034 A 
ATOM     56  C   UNL     1       1.018  13.776   6.895  1.00  0.00     0.034 A 
ATOM     57  C   UNL     1      -5.484  13.760   6.969  1.00  0.00     0.049 A 
ATOM     58  C   UNL     1      -0.004  14.191   7.924  1.00  0.00     0.074 A 
ATOM     59  C   UNL     1      -6.329  14.101   8.014  1.00  0.00     0.029 A 
ATOM     60  N   UNL     1      -4.191  13.985   7.424  1.00  0.00    -0.354 N 
ATOM     61  N   UNL     1      -1.315  14.149   7.856  1.00  0.00    -0.248 NA
ATOM     62  C   UNL     1       0.514  14.721   9.192  1.00  0.00     0.031 C 
ATOM     63  C   UNL     1      -5.554  14.596   9.069  1.00  0.00     0.029 A 
ATOM     64  C   UNL     1      -4.218  14.484   8.721  1.00  0.00     0.049 A 
ATOM     65  H   UNL     1      -3.373  13.816   6.903  1.00  0.00     0.167 HD
ATOM     66  C   UNL     1      -1.773  14.623   9.084  1.00  0.00     0.074 A 
ATOM     67  C   UNL     1      -0.601  14.919   9.879  1.00  0.00     0.031 C 
ATOM     68  C   UNL     1      -3.050  14.795   9.513  1.00  0.00     0.034 A 
BRANCH  55  69
ATOM     69  C   UNL     1      -7.298  13.126   5.306  1.00  0.00     0.023 A 
ATOM     70  C   UNL     1      -7.881  11.886   4.991  1.00  0.00     0.031 A 
ATOM     71  C   UNL     1      -8.121  14.267   5.263  1.00  0.00     0.131 A 
ATOM     72  C   UNL     1      -9.221  11.827   4.575  1.00  0.00     0.055 A 
ATOM     73  C   UNL     1      -9.476  14.189   4.934  1.00  0.00     0.041 A 
ATOM     74  F   UNL     1      -7.619  15.483   5.531  1.00  0.00    -0.206 F 
ATOM     75  C   UNL     1     -10.030  12.966   4.571  1.00  0.00     0.022 A 
BRANCH  72  76
ATOM     76  S   UNL     1      -9.845  10.268   3.889  1.00  0.00     0.124 S 
ATOM     77  O   UNL     1      -8.894  10.014   2.808  1.00  0.00    -0.237 OA
ATOM     78  O   UNL     1      -9.765   9.365   5.030  1.00  0.00    -0.237 OA
ATOM     79  O   UNL     1     -11.198  10.603   3.450  1.00  0.00    -0.744 OA
ENDBRANCH  72  76
ENDBRANCH  55  69
BRANCH  56  80
ATOM     80  C   UNL     1       2.476  13.958   7.170  1.00  0.00     0.023 A 
ATOM     81  C   UNL     1       3.111  13.264   8.213  1.00  0.00     0.031 A 
ATOM     82  C   UNL     1       3.242  14.877   6.429  1.00  0.00     0.131 A 
ATOM     83  C   UNL     1       4.456  13.533   8.515  1.00  0.00     0.055 A 
ATOM     84  C   UNL     1       4.596  15.091   6.690  1.00  0.00     0.041 A 
ATOM     85  F   UNL     1       2.683  15.579   5.430  1.00  0.00    -0.206 F 
ATOM     86  C   UNL     1       5.207  14.427   7.748  1.00  0.00     0.022 A 
BRANCH  83  87
ATOM     87  S   UNL     1       5.185  12.773   9.992  1.00  0.00     0.124 S 
ATOM     88  O   UNL     1       4.305  13.267  11.045  1.00  0.00    -0.237 OA
ATOM     89  O   UNL     1       5.080  11.350   9.685  1.00  0.00    -0.237 OA
ATOM     90  O   UNL     1       6.545  13.305  10.013  1.00  0.00    -0.744 OA
ENDBRANCH  83  87
ENDBRANCH  56  80
BRANCH  68  91
ATOM     91  C   UNL     1      -3.237  15.277  10.935  1.00  0.00     0.023 A 
ATOM     92  C   UNL     1      -2.794  16.544  11.358  1.00  0.00     0.031 A 
ATOM     93  C   UNL     1      -3.823  14.433  11.897  1.00  0.00     0.131 A 
ATOM     94  C   UNL     1      -2.870  16.898  12.715  1.00  0.00     0.055 A 
ATOM     95  C   UNL     1      -3.960  14.819  13.232  1.00  0.00     0.041 A 
ATOM     96  F   UNL     1      -4.263  13.210  11.558  1.00  0.00    -0.206 F 
ATOM     97  C   UNL     1      -3.465  16.049  13.651  1.00  0.00     0.022 A 
BRANCH  94  98
ATOM     98  S   UNL     1      -2.062  18.427  13.264  1.00  0.00     0.124 S 
ATOM     99  O   UNL     1      -0.693  18.232  12.798  1.00  0.00    -0.237 OA
ATOM    100  O   UNL     1      -2.833  19.453  12.569  1.00  0.00    -0.237 OA
ATOM    101  O   UNL     1      -2.232  18.403  14.716  1.00  0.00    -0.744 OA
ENDBRANCH  94  98
ENDBRANCH  68  91
ENDBRANCH  42  43
ENDBRANCH  35  37
ENDBRANCH  34  35
ENDBRANCH  33  34
ENDBRANCH  32  33
ENDBRANCH  31  32
ENDBRANCH  30  31
ENDBRANCH   1  30
TORSDOF 24
