REMARK SMILES C[C@@H](C(=O)OCCOCCOCCOC(=O)c1ccc(-c2c3nc(c(-c4cc(S(=O)(=O)[O-])ccc4F)c4ccc([nH]4)c(-c4cc(S(=O)(=O)[O-])ccc4F)c4nc(c(-c5cc(S(=O)(=O)[O-])ccc5F)c5ccc2[nH]5)C=C4)C=C3)cc1)[C@H](C)[S@](C)=O
REMARK SMILES IDX 10 1 9 2 8 3 7 4 6 5 5 6 3 7 4 8 2 9 1 10 80 11 81 12 82 13
REMARK SMILES IDX 84 14 83 15 11 16 12 17 13 18 14 19 15 20 16 21 17 22 18 23
REMARK SMILES IDX 79 24 19 25 78 26 20 27 21 28 22 29 72 30 23 31 77 32 71 33
REMARK SMILES IDX 73 34 24 35 76 36 70 37 69 38 25 40 57 41 37 42 56 43 38 44
REMARK SMILES IDX 41 45 55 46 74 47 39 48 40 49 54 51 75 52 42 53 26 54 27 55
REMARK SMILES IDX 35 56 28 57 34 58 36 59 33 60 29 61 30 62 31 63 32 64 58 65
REMARK SMILES IDX 59 66 67 67 60 68 66 69 68 70 65 71 61 72 62 73 63 74 64 75
REMARK SMILES IDX 43 76 44 77 52 78 45 79 51 80 53 81 50 82 46 83 47 84 48 85
REMARK SMILES IDX 49 86
REMARK H PARENT 73 39 41 50
REMARK Flexibility Score: inf
ROOT
ATOM      1  C   UNL     1      -3.909  -1.886  -6.386  1.00  0.00     0.188 C 
ENDROOT
BRANCH   1   2
ATOM      2  C   UNL     1      -2.382  -1.712  -6.294  1.00  0.00     0.188 C 
BRANCH   2   3
ATOM      3  O   UNL     1      -1.557  -2.838  -6.590  1.00  0.00    -0.376 OA
BRANCH   3   4
ATOM      4  C   UNL     1      -1.875  -4.091  -5.993  1.00  0.00     0.202 C 
BRANCH   4   5
ATOM      5  C   UNL     1      -2.023  -4.134  -4.468  1.00  0.00     0.261 C 
BRANCH   5   6
ATOM      6  O   UNL     1      -3.043  -3.250  -3.964  1.00  0.00    -0.463 OA
BRANCH   6   7
ATOM      7  C   UNL     1      -2.868  -2.834  -2.685  1.00  0.00     0.309 C 
ATOM      8  O   UNL     1      -1.971  -3.231  -1.948  1.00  0.00    -0.252 OA
BRANCH   7   9
ATOM      9  C   UNL     1      -3.873  -1.775  -2.234  1.00  0.00     0.111 C 
ATOM     10  C   UNL     1      -5.298  -2.058  -2.724  1.00  0.00     0.021 C 
BRANCH   9  11
ATOM     11  C   UNL     1      -3.406  -0.292  -2.345  1.00  0.00     0.090 C 
ATOM     12  C   UNL     1      -4.233   0.603  -3.276  1.00  0.00     0.023 C 
BRANCH  11  13
ATOM     13  S   UNL     1      -1.619  -0.132  -2.792  1.00  0.00     0.022 S 
ATOM     14  O   UNL     1      -1.428   1.151  -3.542  1.00  0.00    -0.260 OA
ATOM     15  C   UNL     1      -0.988   0.097  -1.116  1.00  0.00     0.123 C 
ENDBRANCH  11  13
ENDBRANCH   9  11
ENDBRANCH   7   9
ENDBRANCH   6   7
ENDBRANCH   5   6
ENDBRANCH   4   5
ENDBRANCH   3   4
ENDBRANCH   2   3
ENDBRANCH   1   2
BRANCH   1  16
ATOM     16  O   UNL     1      -4.310  -3.105  -6.967  1.00  0.00    -0.376 OA
BRANCH  16  17
ATOM     17  C   UNL     1      -4.710  -3.132  -8.322  1.00  0.00     0.202 C 
BRANCH  17  18
ATOM     18  C   UNL     1      -4.056  -2.268  -9.416  1.00  0.00     0.261 C 
BRANCH  18  19
ATOM     19  O   UNL     1      -3.491  -1.008  -9.034  1.00  0.00    -0.460 OA
BRANCH  19  20
ATOM     20  C   UNL     1      -4.317   0.059  -9.010  1.00  0.00     0.338 C 
ATOM     21  O   UNL     1      -5.523   0.055  -9.232  1.00  0.00    -0.246 OA
BRANCH  20  22
ATOM     22  C   UNL     1      -3.557   1.219  -8.503  1.00  0.00     0.060 A 
ATOM     23  C   UNL     1      -3.854   1.726  -7.232  1.00  0.00     0.016 A 
ATOM     24  C   UNL     1      -2.563   1.813  -9.284  1.00  0.00     0.016 A 
ATOM     25  C   UNL     1      -3.171   2.841  -6.743  1.00  0.00     0.010 A 
ATOM     26  C   UNL     1      -1.897   2.947  -8.802  1.00  0.00     0.010 A 
ATOM     27  C   UNL     1      -2.215   3.483  -7.540  1.00  0.00    -0.014 A 
BRANCH  27  28
ATOM     28  C   UNL     1      -1.684   4.812  -7.138  1.00  0.00     0.031 A 
ATOM     29  C   UNL     1      -2.276   6.041  -7.774  1.00  0.00     0.074 A 
ATOM     30  C   UNL     1      -0.722   4.937  -6.206  1.00  0.00     0.049 A 
ATOM     31  N   UNL     1      -1.911   7.293  -7.675  1.00  0.00    -0.248 NA
ATOM     32  C   UNL     1      -3.445   5.820  -8.639  1.00  0.00     0.031 C 
ATOM     33  C   UNL     1      -0.132   3.836  -5.450  1.00  0.00     0.029 A 
ATOM     34  N   UNL     1      -0.068   6.053  -5.741  1.00  0.00    -0.354 N 
ATOM     35  C   UNL     1      -2.796   8.009  -8.475  1.00  0.00     0.074 A 
ATOM     36  C   UNL     1      -3.695   7.045  -9.073  1.00  0.00     0.031 C 
ATOM     37  C   UNL     1       0.808   4.329  -4.625  1.00  0.00     0.029 A 
ATOM     38  C   UNL     1       0.924   5.771  -4.830  1.00  0.00     0.049 A 
ATOM     39  H   UNL     1      -0.288   6.967  -6.032  1.00  0.00     0.167 HD
ATOM     40  C   UNL     1      -2.853   9.348  -8.688  1.00  0.00     0.034 A 
ATOM     41  C   UNL     1       1.842   6.579  -4.258  1.00  0.00     0.034 A 
ATOM     42  C   UNL     1      -1.939  10.294  -8.096  1.00  0.00     0.049 A 
ATOM     43  C   UNL     1       1.837   8.051  -4.601  1.00  0.00     0.074 A 
ATOM     44  C   UNL     1      -1.889  11.667  -8.263  1.00  0.00     0.029 A 
ATOM     45  N   UNL     1      -0.905   9.964  -7.228  1.00  0.00    -0.354 N 
ATOM     46  N   UNL     1       1.025   8.716  -5.392  1.00  0.00    -0.248 NA
ATOM     47  C   UNL     1       2.873   8.882  -3.973  1.00  0.00     0.031 C 
ATOM     48  C   UNL     1      -0.785  12.156  -7.555  1.00  0.00     0.029 A 
ATOM     49  C   UNL     1      -0.193  11.102  -6.877  1.00  0.00     0.049 A 
ATOM     50  H   UNL     1      -0.706   9.054  -6.908  1.00  0.00     0.167 HD
ATOM     51  C   UNL     1       1.438  10.046  -5.332  1.00  0.00     0.074 A 
ATOM     52  C   UNL     1       2.560  10.090  -4.418  1.00  0.00     0.031 C 
ATOM     53  C   UNL     1       0.932  11.132  -5.971  1.00  0.00     0.034 A 
BRANCH  40  54
ATOM     54  C   UNL     1      -3.899   9.843  -9.658  1.00  0.00     0.023 A 
ATOM     55  C   UNL     1      -5.275   9.702  -9.405  1.00  0.00     0.031 A 
ATOM     56  C   UNL     1      -3.511  10.416 -10.883  1.00  0.00     0.131 A 
ATOM     57  C   UNL     1      -6.208  10.053 -10.393  1.00  0.00     0.055 A 
ATOM     58  C   UNL     1      -4.447  10.840 -11.827  1.00  0.00     0.041 A 
ATOM     59  F   UNL     1      -2.212  10.554 -11.192  1.00  0.00    -0.206 F 
ATOM     60  C   UNL     1      -5.805  10.644 -11.592  1.00  0.00     0.022 A 
BRANCH  57  61
ATOM     61  S   UNL     1      -7.944   9.580 -10.155  1.00  0.00     0.124 S 
ATOM     62  O   UNL     1      -7.838   8.131 -10.004  1.00  0.00    -0.237 OA
ATOM     63  O   UNL     1      -8.312  10.323  -8.956  1.00  0.00    -0.237 OA
ATOM     64  O   UNL     1      -8.592  10.024 -11.388  1.00  0.00    -0.744 OA
ENDBRANCH  57  61
ENDBRANCH  40  54
BRANCH  41  65
ATOM     65  C   UNL     1       2.892   6.015  -3.359  1.00  0.00     0.023 A 
ATOM     66  C   UNL     1       2.994   6.406  -2.014  1.00  0.00     0.031 A 
ATOM     67  C   UNL     1       3.857   5.120  -3.858  1.00  0.00     0.131 A 
ATOM     68  C   UNL     1       4.060   5.938  -1.227  1.00  0.00     0.055 A 
ATOM     69  C   UNL     1       4.881   4.614  -3.057  1.00  0.00     0.041 A 
ATOM     70  F   UNL     1       3.817   4.723  -5.140  1.00  0.00    -0.206 F 
ATOM     71  C   UNL     1       4.995   5.033  -1.736  1.00  0.00     0.022 A 
BRANCH  68  72
ATOM     72  S   UNL     1       4.263   6.599   0.451  1.00  0.00     0.124 S 
ATOM     73  O   UNL     1       4.401   8.028   0.193  1.00  0.00    -0.237 OA
ATOM     74  O   UNL     1       3.023   6.180   1.096  1.00  0.00    -0.237 OA
ATOM     75  O   UNL     1       5.470   5.933   0.936  1.00  0.00    -0.744 OA
ENDBRANCH  68  72
ENDBRANCH  41  65
BRANCH  53  76
ATOM     76  C   UNL     1       1.561  12.471  -5.661  1.00  0.00     0.023 A 
ATOM     77  C   UNL     1       2.880  12.780  -6.038  1.00  0.00     0.031 A 
ATOM     78  C   UNL     1       0.824  13.453  -4.974  1.00  0.00     0.131 A 
ATOM     79  C   UNL     1       3.439  14.017  -5.680  1.00  0.00     0.055 A 
ATOM     80  C   UNL     1       1.365  14.704  -4.674  1.00  0.00     0.041 A 
ATOM     81  F   UNL     1      -0.439  13.213  -4.588  1.00  0.00    -0.206 F 
ATOM     82  C   UNL     1       2.683  14.988  -5.016  1.00  0.00     0.022 A 
BRANCH  79  83
ATOM     83  S   UNL     1       5.196  14.315  -6.018  1.00  0.00     0.124 S 
ATOM     84  O   UNL     1       5.835  13.228  -5.283  1.00  0.00    -0.237 OA
ATOM     85  O   UNL     1       5.255  14.222  -7.473  1.00  0.00    -0.237 OA
ATOM     86  O   UNL     1       5.429  15.652  -5.474  1.00  0.00    -0.744 OA
ENDBRANCH  79  83
ENDBRANCH  53  76
ENDBRANCH  27  28
ENDBRANCH  20  22
ENDBRANCH  19  20
ENDBRANCH  18  19
ENDBRANCH  17  18
ENDBRANCH  16  17
ENDBRANCH   1  16
TORSDOF 22
