REMARK SMILES CC1=Nc2c(c(C)nn2-c2ccc(F)cc2)[C@H](c2ccc(C(=O)OCCOCCOCCOC(=O)c3ccc(-c4c5nc(c(-c6cc(S(=O)(=O)[O-])ccc6F)c6ccc([nH]6)c(-c6cc(S(=O)(=O)[O-])ccc6F)c6nc(c(-c7cc(S(=O)(=O)[O-])ccc7F)c7ccc4[nH]7)C=C6)C=C5)cc3)cc2)S1
REMARK SMILES IDX 29 1 28 2 27 3 26 4 25 5 24 6 22 7 23 8 21 9 18 10 19 11
REMARK SMILES IDX 100 12 20 13 99 14 17 15 1 16 2 17 3 18 101 19 4 20 5 21
REMARK SMILES IDX 9 22 6 23 8 24 7 25 10 26 11 27 16 28 12 29 15 30 13 31
REMARK SMILES IDX 14 32 30 33 31 34 32 35 33 36 34 37 35 38 36 39 37 40 98 41
REMARK SMILES IDX 38 42 97 43 39 44 40 45 41 46 91 47 42 48 96 49 90 50 92 51
REMARK SMILES IDX 43 52 95 53 89 54 88 55 44 57 76 58 56 59 75 60 57 61 60 62
REMARK SMILES IDX 74 63 93 64 58 65 59 66 73 68 94 69 61 70 45 71 46 72 54 73
REMARK SMILES IDX 47 74 53 75 55 76 52 77 48 78 49 79 50 80 51 81 77 82 78 83
REMARK SMILES IDX 86 84 79 85 85 86 87 87 84 88 80 89 81 90 82 91 83 92 62 93
REMARK SMILES IDX 63 94 71 95 64 96 70 97 72 98 69 99 65 100 66 101 67 102
REMARK SMILES IDX 68 103
REMARK H PARENT 92 56 60 67
REMARK Flexibility Score: inf
ROOT
ATOM      1  C   UNL     1       5.530  -2.454   6.583  1.00  0.00     0.188 C 
ENDROOT
BRANCH   1   2
ATOM      2  C   UNL     1       5.081  -3.447   7.681  1.00  0.00     0.188 C 
BRANCH   2   3
ATOM      3  O   UNL     1       5.981  -4.418   8.207  1.00  0.00    -0.376 OA
BRANCH   3   4
ATOM      4  C   UNL     1       6.883  -5.083   7.333  1.00  0.00     0.202 C 
BRANCH   4   5
ATOM      5  C   UNL     1       6.338  -5.795   6.079  1.00  0.00     0.261 C 
BRANCH   5   6
ATOM      6  O   UNL     1       5.387  -5.035   5.309  1.00  0.00    -0.460 OA
BRANCH   6   7
ATOM      7  C   UNL     1       4.145  -5.561   5.211  1.00  0.00     0.338 C 
ATOM      8  O   UNL     1       3.799  -6.676   5.567  1.00  0.00    -0.246 OA
BRANCH   7   9
ATOM      9  C   UNL     1       3.165  -4.541   4.751  1.00  0.00     0.060 A 
ATOM     10  C   UNL     1       1.120  -2.763   3.902  1.00  0.00    -0.030 A 
ATOM     11  C   UNL     1       0.896  -3.702   4.926  1.00  0.00     0.006 A 
ATOM     12  C   UNL     1       2.424  -2.680   3.372  1.00  0.00     0.006 A 
ATOM     13  C   UNL     1       1.902  -4.575   5.346  1.00  0.00     0.016 A 
ATOM     14  C   UNL     1       3.436  -3.573   3.779  1.00  0.00     0.016 A 
BRANCH  10  15
ATOM     15  C   UNL     1      -0.077  -1.988   3.361  1.00  0.00     0.119 C 
ATOM     16  C   UNL     1       0.938   0.008  -0.138  1.00  0.00     0.075 C 
ATOM     17  C   UNL     1       0.393  -0.245   1.244  1.00  0.00     0.074 C 
ATOM     18  N   UNL     1       0.364   0.752   2.068  1.00  0.00    -0.227 NA
ATOM     19  S   UNL     1      -0.126  -1.894   1.542  1.00  0.00    -0.098 SA
ATOM     20  C   UNL     1      -0.031   0.527   3.342  1.00  0.00     0.161 A 
ATOM     21  C   UNL     1      -0.174  -0.666   4.018  1.00  0.00     0.038 A 
ATOM     22  N   UNL     1      -0.322   1.537   4.251  1.00  0.00    -0.215 N 
ATOM     23  C   UNL     1      -0.537  -0.287   5.338  1.00  0.00     0.067 A 
ATOM     24  N   UNL     1      -0.518   1.042   5.498  1.00  0.00    -0.171 NA
ATOM     25  C   UNL     1      -0.926  -1.144   6.486  1.00  0.00     0.069 C 
BRANCH  22  26
ATOM     26  C   UNL     1      -0.496   2.921   3.987  1.00  0.00     0.067 A 
ATOM     27  C   UNL     1      -1.090   3.341   2.787  1.00  0.00     0.031 A 
ATOM     28  C   UNL     1      -0.082   3.864   4.937  1.00  0.00     0.031 A 
ATOM     29  C   UNL     1      -1.252   4.704   2.532  1.00  0.00     0.041 A 
ATOM     30  C   UNL     1      -0.201   5.227   4.652  1.00  0.00     0.041 A 
ATOM     31  C   UNL     1      -0.787   5.633   3.457  1.00  0.00     0.123 A 
ATOM     32  F   UNL     1      -0.910   6.940   3.188  1.00  0.00    -0.207 F 
ENDBRANCH  22  26
ENDBRANCH  10  15
ENDBRANCH   7   9
ENDBRANCH   6   7
ENDBRANCH   5   6
ENDBRANCH   4   5
ENDBRANCH   3   4
ENDBRANCH   2   3
ENDBRANCH   1   2
BRANCH   1  33
ATOM     33  O   UNL     1       6.767  -2.768   5.961  1.00  0.00    -0.376 OA
BRANCH  33  34
ATOM     34  C   UNL     1       7.815  -1.814   6.074  1.00  0.00     0.202 C 
BRANCH  34  35
ATOM     35  C   UNL     1       8.390  -1.562   7.468  1.00  0.00     0.261 C 
BRANCH  35  36
ATOM     36  O   UNL     1       7.431  -1.494   8.512  1.00  0.00    -0.460 OA
BRANCH  36  37
ATOM     37  C   UNL     1       6.722  -0.346   8.565  1.00  0.00     0.338 C 
ATOM     38  O   UNL     1       6.631   0.489   7.685  1.00  0.00    -0.246 OA
BRANCH  37  39
ATOM     39  C   UNL     1       6.129  -0.235   9.905  1.00  0.00     0.060 A 
ATOM     40  C   UNL     1       5.310   0.868  10.139  1.00  0.00     0.016 A 
ATOM     41  C   UNL     1       6.608  -1.042  10.952  1.00  0.00     0.016 A 
ATOM     42  C   UNL     1       5.162   1.303  11.437  1.00  0.00     0.010 A 
ATOM     43  C   UNL     1       6.470  -0.599  12.248  1.00  0.00     0.010 A 
ATOM     44  C   UNL     1       5.831   0.619  12.458  1.00  0.00    -0.014 A 
BRANCH  44  45
ATOM     45  C   UNL     1       5.892   1.268  13.749  1.00  0.00     0.031 A 
ATOM     46  C   UNL     1       4.658   1.204  14.547  1.00  0.00     0.074 A 
ATOM     47  C   UNL     1       7.015   1.852  14.204  1.00  0.00     0.049 A 
ATOM     48  N   UNL     1       3.905   2.185  14.914  1.00  0.00    -0.248 NA
ATOM     49  C   UNL     1       4.146  -0.127  14.898  1.00  0.00     0.031 C 
ATOM     50  C   UNL     1       8.367   1.762  13.646  1.00  0.00     0.029 A 
ATOM     51  N   UNL     1       7.190   2.573  15.344  1.00  0.00    -0.354 N 
ATOM     52  C   UNL     1       2.930   1.620  15.722  1.00  0.00     0.074 A 
ATOM     53  C   UNL     1       3.034   0.192  15.559  1.00  0.00     0.031 C 
ATOM     54  C   UNL     1       9.249   2.220  14.561  1.00  0.00     0.029 A 
ATOM     55  C   UNL     1       8.518   2.737  15.707  1.00  0.00     0.049 A 
ATOM     56  H   UNL     1       6.442   2.945  15.865  1.00  0.00     0.167 HD
ATOM     57  C   UNL     1       2.249   2.356  16.638  1.00  0.00     0.034 A 
ATOM     58  C   UNL     1       8.972   3.183  16.904  1.00  0.00     0.034 A 
ATOM     59  C   UNL     1       2.305   3.767  16.356  1.00  0.00     0.049 A 
ATOM     60  C   UNL     1       7.882   3.992  17.507  1.00  0.00     0.074 A 
ATOM     61  C   UNL     1       1.945   4.547  15.272  1.00  0.00     0.029 A 
ATOM     62  N   UNL     1       3.123   4.559  17.125  1.00  0.00    -0.354 N 
ATOM     63  N   UNL     1       7.442   5.115  17.005  1.00  0.00    -0.248 NA
ATOM     64  C   UNL     1       6.989   3.355  18.464  1.00  0.00     0.031 C 
ATOM     65  C   UNL     1       2.933   5.572  15.204  1.00  0.00     0.029 A 
ATOM     66  C   UNL     1       3.817   5.378  16.267  1.00  0.00     0.049 A 
ATOM     67  H   UNL     1       3.199   4.542  18.107  1.00  0.00     0.167 HD
ATOM     68  C   UNL     1       6.079   5.116  17.258  1.00  0.00     0.074 A 
ATOM     69  C   UNL     1       5.880   4.070  18.255  1.00  0.00     0.031 C 
ATOM     70  C   UNL     1       5.203   5.772  16.443  1.00  0.00     0.034 A 
BRANCH  57  71
ATOM     71  C   UNL     1       1.787   1.793  17.951  1.00  0.00     0.023 A 
ATOM     72  C   UNL     1       0.874   2.532  18.719  1.00  0.00     0.031 A 
ATOM     73  C   UNL     1       2.396   0.687  18.592  1.00  0.00     0.131 A 
ATOM     74  C   UNL     1       0.617   2.179  20.055  1.00  0.00     0.055 A 
ATOM     75  C   UNL     1       2.079   0.294  19.892  1.00  0.00     0.041 A 
ATOM     76  F   UNL     1       3.394  -0.006  18.026  1.00  0.00    -0.206 F 
ATOM     77  C   UNL     1       1.197   1.053  20.640  1.00  0.00     0.022 A 
BRANCH  74  78
ATOM     78  S   UNL     1      -0.371   3.306  21.070  1.00  0.00     0.124 S 
ATOM     79  O   UNL     1       0.370   4.556  20.934  1.00  0.00    -0.237 OA
ATOM     80  O   UNL     1      -1.669   3.251  20.408  1.00  0.00    -0.237 OA
ATOM     81  O   UNL     1      -0.324   2.696  22.398  1.00  0.00    -0.744 OA
ENDBRANCH  74  78
ENDBRANCH  57  71
BRANCH  58  82
ATOM     82  C   UNL     1      10.156   2.688  17.657  1.00  0.00     0.023 A 
ATOM     83  C   UNL     1      10.624   3.357  18.805  1.00  0.00     0.031 A 
ATOM     84  C   UNL     1      10.709   1.410  17.405  1.00  0.00     0.131 A 
ATOM     85  C   UNL     1      11.590   2.753  19.640  1.00  0.00     0.055 A 
ATOM     86  C   UNL     1      11.683   0.829  18.219  1.00  0.00     0.041 A 
ATOM     87  F   UNL     1      10.258   0.633  16.409  1.00  0.00    -0.206 F 
ATOM     88  C   UNL     1      12.120   1.494  19.350  1.00  0.00     0.022 A 
BRANCH  85  89
ATOM     89  S   UNL     1      12.061   3.538  21.212  1.00  0.00     0.124 S 
ATOM     90  O   UNL     1      13.076   4.493  20.782  1.00  0.00    -0.237 OA
ATOM     91  O   UNL     1      10.799   4.100  21.681  1.00  0.00    -0.237 OA
ATOM     92  O   UNL     1      12.562   2.416  22.007  1.00  0.00    -0.744 OA
ENDBRANCH  85  89
ENDBRANCH  58  82
BRANCH  70  93
ATOM     93  C   UNL     1       5.743   6.801  15.474  1.00  0.00     0.023 A 
ATOM     94  C   UNL     1       6.634   6.513  14.418  1.00  0.00     0.031 A 
ATOM     95  C   UNL     1       5.209   8.100  15.546  1.00  0.00     0.131 A 
ATOM     96  C   UNL     1       6.966   7.517  13.486  1.00  0.00     0.055 A 
ATOM     97  C   UNL     1       5.526   9.085  14.612  1.00  0.00     0.041 A 
ATOM     98  F   UNL     1       4.328   8.420  16.509  1.00  0.00    -0.206 F 
ATOM     99  C   UNL     1       6.409   8.797  13.578  1.00  0.00     0.022 A 
BRANCH  96 100
ATOM    100  S   UNL     1       8.104   7.155  12.110  1.00  0.00     0.124 S 
ATOM    101  O   UNL     1       9.332   6.758  12.790  1.00  0.00    -0.237 OA
ATOM    102  O   UNL     1       7.403   6.103  11.380  1.00  0.00    -0.237 OA
ATOM    103  O   UNL     1       8.193   8.430  11.394  1.00  0.00    -0.744 OA
ENDBRANCH  96 100
ENDBRANCH  70  93
ENDBRANCH  44  45
ENDBRANCH  37  39
ENDBRANCH  36  37
ENDBRANCH  35  36
ENDBRANCH  34  35
ENDBRANCH  33  34
ENDBRANCH   1  33
TORSDOF 22
