REMARK SMILES COC(=O)c1cc(F)cc(-c2ccc(C(=O)OCCOCCOCCOC(=O)c3ccc(-c4c5nc(c(-c6cc(S(=O)(=O)[O-])ccc6F)c6ccc([nH]6)c(-c6cc(S(=O)(=O)[O-])ccc6F)c6nc(c(-c7cc(S(=O)(=O)[O-])ccc7F)c7ccc4[nH]7)C=C6)C=C5)cc3)cc2C)c1
REMARK SMILES IDX 21 1 20 2 19 3 18 4 17 5 15 6 16 7 14 8 11 9 12 10 93 11
REMARK SMILES IDX 13 12 92 13 94 14 10 15 5 16 6 17 95 18 7 19 8 20 9 21 3 22
REMARK SMILES IDX 4 23 2 24 1 25 22 26 23 27 24 28 25 29 26 30 27 31 28 32
REMARK SMILES IDX 29 33 30 34 91 35 31 36 90 37 32 38 33 39 34 40 84 41 35 42
REMARK SMILES IDX 89 43 83 44 85 45 36 46 88 47 82 48 81 49 37 51 69 52 49 53
REMARK SMILES IDX 68 54 50 55 53 56 67 57 86 58 51 59 52 60 66 62 87 63 54 64
REMARK SMILES IDX 38 65 39 66 47 67 40 68 46 69 48 70 45 71 41 72 42 73 43 74
REMARK SMILES IDX 44 75 70 76 71 77 79 78 72 79 78 80 80 81 77 82 73 83 74 84
REMARK SMILES IDX 75 85 76 86 55 87 56 88 64 89 57 90 63 91 65 92 62 93 58 94
REMARK SMILES IDX 59 95 60 96 61 97
REMARK H PARENT 85 50 53 61
REMARK Flexibility Score: inf
ROOT
ATOM      1  C   UNL     1       4.226   9.281  10.320  1.00  0.00     0.188 C 
ENDROOT
BRANCH   1   2
ATOM      2  O   UNL     1       5.630   9.230  10.498  1.00  0.00    -0.376 OA
BRANCH   2   3
ATOM      3  C   UNL     1       6.411   8.742   9.414  1.00  0.00     0.202 C 
BRANCH   3   4
ATOM      4  C   UNL     1       6.089   7.387   8.754  1.00  0.00     0.261 C 
BRANCH   4   5
ATOM      5  O   UNL     1       4.756   7.150   8.258  1.00  0.00    -0.460 OA
BRANCH   5   6
ATOM      6  C   UNL     1       4.013   6.211   8.928  1.00  0.00     0.338 C 
ATOM      7  O   UNL     1       4.174   5.867  10.086  1.00  0.00    -0.246 OA
BRANCH   6   8
ATOM      8  C   UNL     1       2.992   5.618   8.023  1.00  0.00     0.060 A 
ATOM      9  C   UNL     1       1.214   4.422   6.112  1.00  0.00    -0.015 A 
ATOM     10  C   UNL     1       2.577   4.599   5.862  1.00  0.00     0.010 A 
ATOM     11  C   UNL     1       0.770   4.764   7.413  1.00  0.00    -0.042 A 
ATOM     12  C   UNL     1       3.434   5.168   6.800  1.00  0.00     0.016 A 
ATOM     13  C   UNL     1       1.665   5.367   8.357  1.00  0.00     0.019 A 
ATOM     14  C   UNL     1      -0.620   4.457   7.899  1.00  0.00     0.045 C 
BRANCH   9  15
ATOM     15  C   UNL     1       0.393   3.927   4.972  1.00  0.00    -0.014 A 
ATOM     16  C   UNL     1       0.207   2.482   2.973  1.00  0.00     0.063 A 
ATOM     17  C   UNL     1      -0.958   3.142   2.589  1.00  0.00     0.055 A 
ATOM     18  C   UNL     1       0.860   2.867   4.160  1.00  0.00     0.024 A 
ATOM     19  C   UNL     1      -1.440   4.171   3.390  1.00  0.00     0.124 A 
ATOM     20  F   UNL     1      -2.569   4.801   3.034  1.00  0.00    -0.207 F 
ATOM     21  C   UNL     1      -0.779   4.574   4.554  1.00  0.00     0.048 A 
BRANCH  16  22
ATOM     22  C   UNL     1       0.782   1.360   2.188  1.00  0.00     0.337 C 
ATOM     23  O   UNL     1       1.584   0.562   2.664  1.00  0.00    -0.246 OA
BRANCH  22  24
ATOM     24  O   UNL     1       0.292   1.336   0.927  1.00  0.00    -0.465 OA
ATOM     25  C   UNL     1       0.844   0.292   0.119  1.00  0.00     0.282 C 
ENDBRANCH  22  24
ENDBRANCH  16  22
ENDBRANCH   9  15
ENDBRANCH   6   8
ENDBRANCH   5   6
ENDBRANCH   4   5
ENDBRANCH   3   4
ENDBRANCH   2   3
ENDBRANCH   1   2
BRANCH   1  26
ATOM     26  C   UNL     1       3.656  10.137   9.185  1.00  0.00     0.188 C 
BRANCH  26  27
ATOM     27  O   UNL     1       4.546  10.421   8.114  1.00  0.00    -0.376 OA
BRANCH  27  28
ATOM     28  C   UNL     1       4.974  11.780   8.004  1.00  0.00     0.202 C 
BRANCH  28  29
ATOM     29  C   UNL     1       3.845  12.770   7.668  1.00  0.00     0.261 C 
BRANCH  29  30
ATOM     30  O   UNL     1       3.240  12.419   6.415  1.00  0.00    -0.460 OA
BRANCH  30  31
ATOM     31  C   UNL     1       2.325  11.422   6.521  1.00  0.00     0.338 C 
ATOM     32  O   UNL     1       1.363  11.430   7.274  1.00  0.00    -0.246 OA
BRANCH  31  33
ATOM     33  C   UNL     1       2.786  10.241   5.738  1.00  0.00     0.060 A 
ATOM     34  C   UNL     1       2.037   9.070   5.797  1.00  0.00     0.016 A 
ATOM     35  C   UNL     1       4.025  10.238   5.071  1.00  0.00     0.016 A 
ATOM     36  C   UNL     1       2.539   7.916   5.196  1.00  0.00     0.010 A 
ATOM     37  C   UNL     1       4.541   9.070   4.504  1.00  0.00     0.010 A 
ATOM     38  C   UNL     1       3.801   7.890   4.556  1.00  0.00    -0.014 A 
BRANCH  38  39
ATOM     39  C   UNL     1       4.151   6.754   3.664  1.00  0.00     0.031 A 
ATOM     40  C   UNL     1       5.151   5.666   3.980  1.00  0.00     0.074 A 
ATOM     41  C   UNL     1       3.414   6.674   2.542  1.00  0.00     0.049 A 
ATOM     42  N   UNL     1       5.176   4.450   3.492  1.00  0.00    -0.248 NA
ATOM     43  C   UNL     1       6.137   5.880   5.051  1.00  0.00     0.031 C 
ATOM     44  C   UNL     1       2.399   7.652   2.125  1.00  0.00     0.029 A 
ATOM     45  N   UNL     1       3.421   5.750   1.539  1.00  0.00    -0.354 N 
ATOM     46  C   UNL     1       5.993   3.703   4.338  1.00  0.00     0.074 A 
ATOM     47  C   UNL     1       6.541   4.631   5.303  1.00  0.00     0.031 C 
ATOM     48  C   UNL     1       1.930   7.306   0.922  1.00  0.00     0.029 A 
ATOM     49  C   UNL     1       2.653   6.129   0.469  1.00  0.00     0.049 A 
ATOM     50  H   UNL     1       3.922   4.904   1.579  1.00  0.00     0.167 HD
ATOM     51  C   UNL     1       6.209   2.362   4.302  1.00  0.00     0.034 A 
ATOM     52  C   UNL     1       2.621   5.636  -0.778  1.00  0.00     0.034 A 
ATOM     53  C   UNL     1       6.000   1.602   3.088  1.00  0.00     0.049 A 
ATOM     54  C   UNL     1       3.372   4.373  -1.044  1.00  0.00     0.074 A 
ATOM     55  C   UNL     1       6.466   0.336   2.777  1.00  0.00     0.029 A 
ATOM     56  N   UNL     1       5.408   2.099   1.934  1.00  0.00    -0.354 N 
ATOM     57  N   UNL     1       4.023   3.620  -0.187  1.00  0.00    -0.248 NA
ATOM     58  C   UNL     1       3.373   3.879  -2.419  1.00  0.00     0.031 C 
ATOM     59  C   UNL     1       6.308   0.147   1.398  1.00  0.00     0.029 A 
ATOM     60  C   UNL     1       5.625   1.234   0.875  1.00  0.00     0.049 A 
ATOM     61  H   UNL     1       4.907   2.945   1.877  1.00  0.00     0.167 HD
ATOM     62  C   UNL     1       4.492   2.539  -0.917  1.00  0.00     0.074 A 
ATOM     63  C   UNL     1       4.045   2.744  -2.284  1.00  0.00     0.031 C 
ATOM     64  C   UNL     1       5.208   1.468  -0.488  1.00  0.00     0.034 A 
BRANCH  51  65
ATOM     65  C   UNL     1       6.891   1.653   5.453  1.00  0.00     0.023 A 
ATOM     66  C   UNL     1       6.164   1.003   6.476  1.00  0.00     0.031 A 
ATOM     67  C   UNL     1       8.282   1.457   5.414  1.00  0.00     0.131 A 
ATOM     68  C   UNL     1       6.838   0.184   7.409  1.00  0.00     0.055 A 
ATOM     69  C   UNL     1       8.940   0.626   6.324  1.00  0.00     0.041 A 
ATOM     70  F   UNL     1       9.018   2.040   4.455  1.00  0.00    -0.206 F 
ATOM     71  C   UNL     1       8.219  -0.018   7.324  1.00  0.00     0.022 A 
BRANCH  68  72
ATOM     72  S   UNL     1       5.914  -0.652   8.742  1.00  0.00     0.124 S 
ATOM     73  O   UNL     1       5.434   0.478   9.530  1.00  0.00    -0.237 OA
ATOM     74  O   UNL     1       4.901  -1.403   8.011  1.00  0.00    -0.237 OA
ATOM     75  O   UNL     1       6.930  -1.472   9.403  1.00  0.00    -0.744 OA
ENDBRANCH  68  72
ENDBRANCH  51  65
BRANCH  52  76
ATOM     76  C   UNL     1       1.961   6.440  -1.835  1.00  0.00     0.023 A 
ATOM     77  C   UNL     1       0.824   5.990  -2.509  1.00  0.00     0.031 A 
ATOM     78  C   UNL     1       2.450   7.732  -2.132  1.00  0.00     0.131 A 
ATOM     79  C   UNL     1       0.206   6.829  -3.449  1.00  0.00     0.055 A 
ATOM     80  C   UNL     1       1.805   8.577  -3.031  1.00  0.00     0.041 A 
ATOM     81  F   UNL     1       3.539   8.208  -1.507  1.00  0.00    -0.206 F 
ATOM     82  C   UNL     1       0.676   8.123  -3.700  1.00  0.00     0.022 A 
BRANCH  79  83
ATOM     83  S   UNL     1      -1.212   6.189  -4.375  1.00  0.00     0.124 S 
ATOM     84  O   UNL     1      -0.643   5.005  -5.010  1.00  0.00    -0.237 OA
ATOM     85  O   UNL     1      -2.181   5.944  -3.311  1.00  0.00    -0.237 OA
ATOM     86  O   UNL     1      -1.548   7.285  -5.282  1.00  0.00    -0.744 OA
ENDBRANCH  79  83
ENDBRANCH  52  76
BRANCH  64  87
ATOM     87  C   UNL     1       5.533   0.424  -1.519  1.00  0.00     0.023 A 
ATOM     88  C   UNL     1       6.394   0.698  -2.594  1.00  0.00     0.031 A 
ATOM     89  C   UNL     1       4.954  -0.854  -1.436  1.00  0.00     0.131 A 
ATOM     90  C   UNL     1       6.597  -0.271  -3.583  1.00  0.00     0.055 A 
ATOM     91  C   UNL     1       5.220  -1.840  -2.384  1.00  0.00     0.041 A 
ATOM     92  F   UNL     1       4.115  -1.161  -0.434  1.00  0.00    -0.206 F 
ATOM     93  C   UNL     1       6.033  -1.546  -3.475  1.00  0.00     0.022 A 
BRANCH  90  94
ATOM     94  S   UNL     1       7.519   0.196  -5.072  1.00  0.00     0.124 S 
ATOM     95  O   UNL     1       6.696   1.277  -5.606  1.00  0.00    -0.237 OA
ATOM     96  O   UNL     1       8.814   0.590  -4.529  1.00  0.00    -0.237 OA
ATOM     97  O   UNL     1       7.526  -1.030  -5.868  1.00  0.00    -0.744 OA
ENDBRANCH  90  94
ENDBRANCH  64  87
ENDBRANCH  38  39
ENDBRANCH  31  33
ENDBRANCH  30  31
ENDBRANCH  29  30
ENDBRANCH  28  29
ENDBRANCH  27  28
ENDBRANCH  26  27
ENDBRANCH   1  26
TORSDOF 23
