REMARK SMILES C[N@H+]1CCO[C@H](c2noc(-c3ccccc3C(=O)OCCOCCOCCOC(=O)c3ccc(-c4c5nc(c(-c6cc(S(=O)(=O)[O-])ccc6F)c6ccc([nH]6)c(-c6cc(S(=O)(=O)[O-])ccc6F)c6nc(c(-c7cc(S(=O)(=O)[O-])ccc7F)c7ccc4[nH]7)C=C6)C=C5)cc3)n2)C1
REMARK SMILES IDX 24 1 23 2 22 3 21 4 20 5 19 6 17 7 18 8 16 9 11 10 12 11
REMARK SMILES IDX 13 12 15 13 14 14 10 15 7 16 8 17 94 18 9 19 6 20 1 21 2 22
REMARK SMILES IDX 3 23 95 24 4 26 5 27 25 28 26 29 27 30 28 31 29 32 30 33
REMARK SMILES IDX 31 34 32 35 93 36 33 37 92 38 34 39 35 40 36 41 86 42 37 43
REMARK SMILES IDX 91 44 85 45 87 46 38 47 90 48 84 49 83 50 39 52 71 53 51 54
REMARK SMILES IDX 70 55 52 56 55 57 69 58 88 59 53 60 54 61 68 63 89 64 56 65
REMARK SMILES IDX 40 66 41 67 49 68 42 69 48 70 50 71 47 72 43 73 44 74 45 75
REMARK SMILES IDX 46 76 72 77 73 78 81 79 74 80 80 81 82 82 79 83 75 84 76 85
REMARK SMILES IDX 77 86 78 87 57 88 58 89 66 90 59 91 65 92 67 93 64 94 60 95
REMARK SMILES IDX 61 96 62 97 63 98
REMARK H PARENT 2 25 87 51 55 62
REMARK Flexibility Score: inf
ROOT
ATOM      1  C   UNL     1      -5.240  -1.752   3.491  1.00  0.00     0.188 C 
ENDROOT
BRANCH   1   2
ATOM      2  C   UNL     1      -4.791  -1.439   4.936  1.00  0.00     0.188 C 
BRANCH   2   3
ATOM      3  O   UNL     1      -3.837  -0.413   5.170  1.00  0.00    -0.376 OA
BRANCH   3   4
ATOM      4  C   UNL     1      -2.526  -0.577   4.632  1.00  0.00     0.202 C 
BRANCH   4   5
ATOM      5  C   UNL     1      -1.846  -1.924   4.854  1.00  0.00     0.261 C 
BRANCH   5   6
ATOM      6  O   UNL     1      -2.553  -2.921   4.108  1.00  0.00    -0.460 OA
BRANCH   6   7
ATOM      7  C   UNL     1      -2.274  -4.200   4.428  1.00  0.00     0.339 C 
ATOM      8  O   UNL     1      -1.431  -4.590   5.218  1.00  0.00    -0.246 OA
BRANCH   7   9
ATOM      9  C   UNL     1      -3.323  -5.064   3.847  1.00  0.00     0.072 A 
ATOM     10  C   UNL     1      -3.526  -5.238   2.464  1.00  0.00     0.054 A 
ATOM     11  C   UNL     1      -4.563  -6.105   2.062  1.00  0.00     0.015 A 
ATOM     12  C   UNL     1      -5.393  -6.732   2.998  1.00  0.00     0.001 A 
ATOM     13  C   UNL     1      -4.166  -5.690   4.784  1.00  0.00     0.016 A 
ATOM     14  C   UNL     1      -5.206  -6.511   4.358  1.00  0.00     0.001 A 
BRANCH  10  15
ATOM     15  C   UNL     1      -2.764  -4.494   1.462  1.00  0.00     0.258 A 
ATOM     16  C   UNL     1      -1.747  -3.014   0.382  1.00  0.00     0.206 A 
ATOM     17  N   UNL     1      -2.481  -3.617  -0.564  1.00  0.00    -0.059 NA
ATOM     18  N   UNL     1      -1.801  -3.616   1.613  1.00  0.00    -0.189 NA
ATOM     19  O   UNL     1      -3.177  -4.595   0.157  1.00  0.00    -0.334 OA
BRANCH  16  20
ATOM     20  C   UNL     1      -1.077  -1.688   0.171  1.00  0.00     0.245 C 
ATOM     21  C   UNL     1       1.560   0.063  -0.189  1.00  0.00     0.332 C 
ATOM     22  N   UNL     1       0.847  -0.219   1.052  1.00  0.00    -0.333 N 
ATOM     23  C   UNL     1      -0.201   0.783   1.330  1.00  0.00     0.290 C 
ATOM     24  C   UNL     1       0.213  -1.564   1.034  1.00  0.00     0.303 C 
ATOM     25  H   UNL     1       1.552  -0.183   1.788  1.00  0.00     0.348 HD
ATOM     26  C   UNL     1      -1.415   0.666   0.401  1.00  0.00     0.222 C 
ATOM     27  O   UNL     1      -2.007  -0.626   0.487  1.00  0.00    -0.358 OA
ENDBRANCH  16  20
ENDBRANCH  10  15
ENDBRANCH   7   9
ENDBRANCH   6   7
ENDBRANCH   5   6
ENDBRANCH   4   5
ENDBRANCH   3   4
ENDBRANCH   2   3
ENDBRANCH   1   2
BRANCH   1  28
ATOM     28  O   UNL     1      -4.797  -0.988   2.387  1.00  0.00    -0.376 OA
BRANCH  28  29
ATOM     29  C   UNL     1      -4.917   0.424   2.391  1.00  0.00     0.202 C 
BRANCH  29  30
ATOM     30  C   UNL     1      -6.244   1.104   2.741  1.00  0.00     0.261 C 
BRANCH  30  31
ATOM     31  O   UNL     1      -6.870   0.615   3.930  1.00  0.00    -0.460 OA
BRANCH  31  32
ATOM     32  C   UNL     1      -8.055  -0.017   3.737  1.00  0.00     0.338 C 
ATOM     33  O   UNL     1      -8.644  -0.184   2.684  1.00  0.00    -0.246 OA
BRANCH  32  34
ATOM     34  C   UNL     1      -8.455  -0.650   5.005  1.00  0.00     0.060 A 
ATOM     35  C   UNL     1      -8.615  -2.042   5.035  1.00  0.00     0.016 A 
ATOM     36  C   UNL     1      -8.662   0.118   6.152  1.00  0.00     0.016 A 
ATOM     37  C   UNL     1      -8.980  -2.674   6.222  1.00  0.00     0.010 A 
ATOM     38  C   UNL     1      -9.057  -0.514   7.332  1.00  0.00     0.010 A 
ATOM     39  C   UNL     1      -9.228  -1.909   7.368  1.00  0.00    -0.014 A 
BRANCH  39  40
ATOM     40  C   UNL     1      -9.806  -2.540   8.576  1.00  0.00     0.031 A 
ATOM     41  C   UNL     1     -11.299  -2.551   8.731  1.00  0.00     0.074 A 
ATOM     42  C   UNL     1      -9.012  -3.076   9.520  1.00  0.00     0.049 A 
ATOM     43  N   UNL     1     -12.024  -2.934   9.748  1.00  0.00    -0.248 NA
ATOM     44  C   UNL     1     -12.078  -2.062   7.581  1.00  0.00     0.031 C 
ATOM     45  C   UNL     1      -7.555  -3.173   9.443  1.00  0.00     0.029 A 
ATOM     46  N   UNL     1      -9.322  -3.623  10.740  1.00  0.00    -0.354 N 
ATOM     47  C   UNL     1     -13.345  -2.743   9.361  1.00  0.00     0.074 A 
ATOM     48  C   UNL     1     -13.319  -2.181   8.027  1.00  0.00     0.031 C 
ATOM     49  C   UNL     1      -7.095  -3.723  10.582  1.00  0.00     0.029 A 
ATOM     50  C   UNL     1      -8.218  -3.972  11.483  1.00  0.00     0.049 A 
ATOM     51  H   UNL     1     -10.246  -3.753  11.053  1.00  0.00     0.167 HD
ATOM     52  C   UNL     1     -14.475  -3.016  10.056  1.00  0.00     0.034 A 
ATOM     53  C   UNL     1      -8.130  -4.400  12.760  1.00  0.00     0.034 A 
ATOM     54  C   UNL     1     -14.484  -3.540  11.397  1.00  0.00     0.049 A 
ATOM     55  C   UNL     1      -9.402  -4.559  13.564  1.00  0.00     0.074 A 
ATOM     56  C   UNL     1     -15.570  -3.842  12.199  1.00  0.00     0.029 A 
ATOM     57  N   UNL     1     -13.347  -3.823  12.143  1.00  0.00    -0.354 N 
ATOM     58  N   UNL     1     -10.648  -4.375  13.189  1.00  0.00    -0.248 NA
ATOM     59  C   UNL     1      -9.255  -4.976  14.966  1.00  0.00     0.031 C 
ATOM     60  C   UNL     1     -15.091  -4.247  13.450  1.00  0.00     0.029 A 
ATOM     61  C   UNL     1     -13.706  -4.262  13.407  1.00  0.00     0.049 A 
ATOM     62  H   UNL     1     -12.422  -3.726  11.820  1.00  0.00     0.167 HD
ATOM     63  C   UNL     1     -11.429  -4.682  14.301  1.00  0.00     0.074 A 
ATOM     64  C   UNL     1     -10.517  -5.077  15.353  1.00  0.00     0.031 C 
ATOM     65  C   UNL     1     -12.778  -4.644  14.443  1.00  0.00     0.034 A 
BRANCH  52  66
ATOM     66  C   UNL     1     -15.788  -2.704   9.387  1.00  0.00     0.023 A 
ATOM     67  C   UNL     1     -16.227  -3.423   8.262  1.00  0.00     0.031 A 
ATOM     68  C   UNL     1     -16.603  -1.667   9.871  1.00  0.00     0.131 A 
ATOM     69  C   UNL     1     -17.424  -3.063   7.627  1.00  0.00     0.055 A 
ATOM     70  C   UNL     1     -17.825  -1.355   9.274  1.00  0.00     0.041 A 
ATOM     71  F   UNL     1     -16.219  -0.933  10.927  1.00  0.00    -0.206 F 
ATOM     72  C   UNL     1     -18.238  -2.049   8.139  1.00  0.00     0.022 A 
BRANCH  69  73
ATOM     73  S   UNL     1     -17.854  -3.870   6.062  1.00  0.00     0.124 S 
ATOM     74  O   UNL     1     -16.737  -3.473   5.208  1.00  0.00    -0.237 OA
ATOM     75  O   UNL     1     -17.903  -5.279   6.435  1.00  0.00    -0.237 OA
ATOM     76  O   UNL     1     -19.141  -3.274   5.711  1.00  0.00    -0.744 OA
ENDBRANCH  69  73
ENDBRANCH  52  66
BRANCH  53  77
ATOM     77  C   UNL     1      -6.805  -4.641  13.401  1.00  0.00     0.023 A 
ATOM     78  C   UNL     1      -6.465  -5.907  13.903  1.00  0.00     0.031 A 
ATOM     79  C   UNL     1      -5.900  -3.585  13.613  1.00  0.00     0.131 A 
ATOM     80  C   UNL     1      -5.285  -6.073  14.646  1.00  0.00     0.055 A 
ATOM     81  C   UNL     1      -4.698  -3.768  14.299  1.00  0.00     0.041 A 
ATOM     82  F   UNL     1      -6.177  -2.351  13.163  1.00  0.00    -0.206 F 
ATOM     83  C   UNL     1      -4.393  -5.015  14.836  1.00  0.00     0.022 A 
BRANCH  80  84
ATOM     84  S   UNL     1      -4.994  -7.665  15.466  1.00  0.00     0.124 S 
ATOM     85  O   UNL     1      -6.206  -7.813  16.263  1.00  0.00    -0.237 OA
ATOM     86  O   UNL     1      -4.858  -8.569  14.330  1.00  0.00    -0.237 OA
ATOM     87  O   UNL     1      -3.769  -7.435  16.229  1.00  0.00    -0.744 OA
ENDBRANCH  80  84
ENDBRANCH  53  77
BRANCH  65  88
ATOM     88  C   UNL     1     -13.341  -5.081  15.772  1.00  0.00     0.023 A 
ATOM     89  C   UNL     1     -13.165  -4.313  16.935  1.00  0.00     0.031 A 
ATOM     90  C   UNL     1     -14.067  -6.281  15.871  1.00  0.00     0.131 A 
ATOM     91  C   UNL     1     -13.671  -4.774  18.159  1.00  0.00     0.055 A 
ATOM     92  C   UNL     1     -14.614  -6.709  17.081  1.00  0.00     0.041 A 
ATOM     93  F   UNL     1     -14.265  -7.051  14.790  1.00  0.00    -0.206 F 
ATOM     94  C   UNL     1     -14.409  -5.959  18.236  1.00  0.00     0.022 A 
BRANCH  91  95
ATOM     95  S   UNL     1     -13.303  -3.835  19.666  1.00  0.00     0.124 S 
ATOM     96  O   UNL     1     -11.847  -3.909  19.721  1.00  0.00    -0.237 OA
ATOM     97  O   UNL     1     -13.863  -2.522  19.363  1.00  0.00    -0.237 OA
ATOM     98  O   UNL     1     -14.002  -4.578  20.713  1.00  0.00    -0.744 OA
ENDBRANCH  91  95
ENDBRANCH  65  88
ENDBRANCH  39  40
ENDBRANCH  32  34
ENDBRANCH  31  32
ENDBRANCH  30  31
ENDBRANCH  29  30
ENDBRANCH  28  29
ENDBRANCH   1  28
TORSDOF 22
