REMARK SMILES C#CCN(CC(=O)OCCOCCOCCOC(=O)c1ccc(-c2c3nc(c(-c4cc(S(=O)(=O)[O-])ccc4F)c4ccc([nH]4)c(-c4cc(S(=O)(=O)[O-])ccc4F)c4nc(c(-c5cc(S(=O)(=O)[O-])ccc5F)c5ccc2[nH]5)C=C4)C=C3)cc1)C(=O)C(C)(C)[NH2+]CC
REMARK SMILES IDX 12 1 11 2 10 3 9 4 8 5 6 6 7 7 5 8 4 9 3 10 2 11 1 12 83 13
REMARK SMILES IDX 84 14 85 15 86 16 87 17 88 18 89 21 90 22 13 23 14 24 15 25
REMARK SMILES IDX 16 26 17 27 18 28 19 29 20 30 21 31 82 32 22 33 81 34 23 35
REMARK SMILES IDX 24 36 25 37 75 38 26 39 80 40 74 41 76 42 27 43 79 44 73 45
REMARK SMILES IDX 72 46 28 48 60 49 40 50 59 51 41 52 44 53 58 54 77 55 42 56
REMARK SMILES IDX 43 57 57 59 78 60 45 61 29 62 30 63 38 64 31 65 37 66 39 67
REMARK SMILES IDX 36 68 32 69 33 70 34 71 35 72 61 73 62 74 70 75 63 76 69 77
REMARK SMILES IDX 71 78 68 79 64 80 65 81 66 82 67 83 46 84 47 85 55 86 48 87
REMARK SMILES IDX 54 88 56 89 53 90 49 91 50 92 51 93 52 94
REMARK H PARENT 88 19 88 20 76 47 44 58
REMARK Flexibility Score: inf
ROOT
ATOM      1  C   UNL     1      -5.926  -2.619  -2.506  1.00  0.00     0.188 C 
ENDROOT
BRANCH   1   2
ATOM      2  O   UNL     1      -7.231  -2.169  -2.154  1.00  0.00    -0.376 OA
BRANCH   2   3
ATOM      3  C   UNL     1      -7.290  -1.015  -1.317  1.00  0.00     0.202 C 
BRANCH   3   4
ATOM      4  C   UNL     1      -6.663  -1.202   0.071  1.00  0.00     0.261 C 
BRANCH   4   5
ATOM      5  O   UNL     1      -5.212  -1.209   0.029  1.00  0.00    -0.462 OA
BRANCH   5   6
ATOM      6  C   UNL     1      -4.617  -1.820   1.090  1.00  0.00     0.325 C 
ATOM      7  O   UNL     1      -5.244  -2.297   2.033  1.00  0.00    -0.250 OA
BRANCH   6   8
ATOM      8  C   UNL     1      -3.074  -1.872   1.044  1.00  0.00     0.243 C 
BRANCH   8   9
ATOM      9  N   UNL     1      -2.337  -1.287  -0.090  1.00  0.00    -0.315 N 
BRANCH   9  10
ATOM     10  C   UNL     1      -1.865   0.067   0.062  1.00  0.00     0.210 C 
BRANCH  10  11
ATOM     11  C   UNL     1      -0.345   0.067   0.062  1.00  0.00    -0.085 C 
ATOM     12  C   UNL     1       0.959   0.067   0.062  1.00  0.00     0.006 C 
ENDBRANCH  10  11
ENDBRANCH   9  10
BRANCH   9  13
ATOM     13  C   UNL     1      -1.980  -1.866  -1.296  1.00  0.00     0.284 C 
ATOM     14  O   UNL     1      -1.895  -1.154  -2.309  1.00  0.00    -0.268 OA
BRANCH  13  15
ATOM     15  C   UNL     1      -1.610  -3.377  -1.389  1.00  0.00     0.170 C 
ATOM     16  C   UNL     1      -0.580  -3.803  -0.339  1.00  0.00     0.090 C 
ATOM     17  C   UNL     1      -2.881  -4.207  -1.232  1.00  0.00     0.090 C 
BRANCH  15  18
ATOM     18  N   UNL     1      -1.120  -3.650  -2.784  1.00  0.00    -0.334 N 
ATOM     19  H   UNL     1      -1.760  -3.191  -3.432  1.00  0.00     0.347 HD
ATOM     20  H   UNL     1      -1.091  -4.666  -2.865  1.00  0.00     0.347 HD
BRANCH  18  21
ATOM     21  C   UNL     1       0.242  -3.195  -3.103  1.00  0.00     0.257 C 
ATOM     22  C   UNL     1       1.249  -4.334  -3.053  1.00  0.00     0.071 C 
ENDBRANCH  18  21
ENDBRANCH  15  18
ENDBRANCH  13  15
ENDBRANCH   9  13
ENDBRANCH   8   9
ENDBRANCH   6   8
ENDBRANCH   5   6
ENDBRANCH   4   5
ENDBRANCH   3   4
ENDBRANCH   2   3
ENDBRANCH   1   2
BRANCH   1  23
ATOM     23  C   UNL     1      -4.968  -1.548  -3.054  1.00  0.00     0.188 C 
BRANCH  23  24
ATOM     24  O   UNL     1      -5.548  -0.644  -3.990  1.00  0.00    -0.376 OA
BRANCH  24  25
ATOM     25  C   UNL     1      -6.101  -1.241  -5.159  1.00  0.00     0.202 C 
BRANCH  25  26
ATOM     26  C   UNL     1      -5.064  -1.913  -6.063  1.00  0.00     0.261 C 
BRANCH  26  27
ATOM     27  O   UNL     1      -4.703  -3.224  -5.580  1.00  0.00    -0.460 OA
BRANCH  27  28
ATOM     28  C   UNL     1      -3.921  -3.928  -6.442  1.00  0.00     0.338 C 
ATOM     29  O   UNL     1      -3.627  -3.561  -7.581  1.00  0.00    -0.246 OA
BRANCH  28  30
ATOM     30  C   UNL     1      -3.396  -5.186  -5.845  1.00  0.00     0.060 A 
ATOM     31  C   UNL     1      -3.443  -5.415  -4.479  1.00  0.00     0.016 A 
ATOM     32  C   UNL     1      -2.728  -6.119  -6.639  1.00  0.00     0.016 A 
ATOM     33  C   UNL     1      -2.692  -6.454  -3.904  1.00  0.00     0.010 A 
ATOM     34  C   UNL     1      -2.089  -7.234  -6.059  1.00  0.00     0.010 A 
ATOM     35  C   UNL     1      -1.993  -7.394  -4.663  1.00  0.00    -0.014 A 
BRANCH  35  36
ATOM     36  C   UNL     1      -1.108  -8.457  -4.040  1.00  0.00     0.031 A 
ATOM     37  C   UNL     1       0.234  -8.766  -4.681  1.00  0.00     0.074 A 
ATOM     38  C   UNL     1      -1.398  -9.145  -2.908  1.00  0.00     0.049 A 
ATOM     39  N   UNL     1       0.949  -9.863  -4.644  1.00  0.00    -0.248 NA
ATOM     40  C   UNL     1       0.831  -7.696  -5.494  1.00  0.00     0.031 C 
ATOM     41  C   UNL     1      -2.542  -8.929  -2.022  1.00  0.00     0.029 A 
ATOM     42  N   UNL     1      -0.728 -10.194  -2.300  1.00  0.00    -0.354 N 
ATOM     43  C   UNL     1       2.009  -9.659  -5.527  1.00  0.00     0.074 A 
ATOM     44  C   UNL     1       1.854  -8.321  -6.059  1.00  0.00     0.031 C 
ATOM     45  C   UNL     1      -2.461  -9.756  -0.969  1.00  0.00     0.029 A 
ATOM     46  C   UNL     1      -1.370 -10.696  -1.186  1.00  0.00     0.049 A 
ATOM     47  H   UNL     1       0.129 -10.548  -2.631  1.00  0.00     0.167 HD
ATOM     48  C   UNL     1       3.001 -10.519  -5.876  1.00  0.00     0.034 A 
ATOM     49  C   UNL     1      -1.192 -11.831  -0.473  1.00  0.00     0.034 A 
ATOM     50  C   UNL     1       3.209 -11.806  -5.252  1.00  0.00     0.049 A 
ATOM     51  C   UNL     1      -0.143 -12.820  -0.914  1.00  0.00     0.074 A 
ATOM     52  C   UNL     1       4.166 -12.765  -5.543  1.00  0.00     0.029 A 
ATOM     53  N   UNL     1       2.473 -12.298  -4.183  1.00  0.00    -0.354 N 
ATOM     54  N   UNL     1       0.721 -12.727  -1.897  1.00  0.00    -0.248 NA
ATOM     55  C   UNL     1      -0.074 -14.089  -0.174  1.00  0.00     0.031 C 
ATOM     56  C   UNL     1       3.974 -13.856  -4.687  1.00  0.00     0.029 A 
ATOM     57  C   UNL     1       2.945 -13.549  -3.814  1.00  0.00     0.049 A 
ATOM     58  H   UNL     1       1.725 -11.827  -3.750  1.00  0.00     0.167 HD
ATOM     59  C   UNL     1       1.440 -13.920  -1.885  1.00  0.00     0.074 A 
ATOM     60  C   UNL     1       0.928 -14.706  -0.782  1.00  0.00     0.031 C 
ATOM     61  C   UNL     1       2.429 -14.332  -2.717  1.00  0.00     0.034 A 
BRANCH  48  62
ATOM     62  C   UNL     1       3.876 -10.140  -7.050  1.00  0.00     0.023 A 
ATOM     63  C   UNL     1       4.754  -9.044  -7.028  1.00  0.00     0.031 A 
ATOM     64  C   UNL     1       3.797 -10.894  -8.238  1.00  0.00     0.131 A 
ATOM     65  C   UNL     1       5.460  -8.692  -8.191  1.00  0.00     0.055 A 
ATOM     66  C   UNL     1       4.564 -10.588  -9.363  1.00  0.00     0.041 A 
ATOM     67  F   UNL     1       2.961 -11.941  -8.328  1.00  0.00    -0.206 F 
ATOM     68  C   UNL     1       5.390  -9.470  -9.349  1.00  0.00     0.022 A 
BRANCH  65  69
ATOM     69  S   UNL     1       6.361  -7.117  -8.217  1.00  0.00     0.124 S 
ATOM     70  O   UNL     1       5.293  -6.161  -7.931  1.00  0.00    -0.237 OA
ATOM     71  O   UNL     1       7.351  -7.302  -7.163  1.00  0.00    -0.237 OA
ATOM     72  O   UNL     1       6.899  -7.051  -9.574  1.00  0.00    -0.744 OA
ENDBRANCH  65  69
ENDBRANCH  48  62
BRANCH  49  73
ATOM     73  C   UNL     1      -2.125 -12.184   0.647  1.00  0.00     0.023 A 
ATOM     74  C   UNL     1      -1.657 -12.391   1.955  1.00  0.00     0.031 A 
ATOM     75  C   UNL     1      -3.498 -12.389   0.405  1.00  0.00     0.131 A 
ATOM     76  C   UNL     1      -2.545 -12.817   2.958  1.00  0.00     0.055 A 
ATOM     77  C   UNL     1      -4.388 -12.741   1.421  1.00  0.00     0.041 A 
ATOM     78  F   UNL     1      -4.003 -12.233  -0.829  1.00  0.00    -0.206 F 
ATOM     79  C   UNL     1      -3.910 -12.970   2.705  1.00  0.00     0.022 A 
BRANCH  76  80
ATOM     80  S   UNL     1      -1.877 -13.267   4.585  1.00  0.00     0.124 S 
ATOM     81  O   UNL     1      -0.939 -14.328   4.237  1.00  0.00    -0.237 OA
ATOM     82  O   UNL     1      -1.288 -12.009   5.030  1.00  0.00    -0.237 OA
ATOM     83  O   UNL     1      -3.058 -13.698   5.331  1.00  0.00    -0.744 OA
ENDBRANCH  76  80
ENDBRANCH  49  73
BRANCH  61  84
ATOM     84  C   UNL     1       3.059 -15.672  -2.426  1.00  0.00     0.023 A 
ATOM     85  C   UNL     1       2.350 -16.875  -2.589  1.00  0.00     0.031 A 
ATOM     86  C   UNL     1       4.381 -15.741  -1.953  1.00  0.00     0.131 A 
ATOM     87  C   UNL     1       2.950 -18.093  -2.230  1.00  0.00     0.055 A 
ATOM     88  C   UNL     1       4.991 -16.959  -1.651  1.00  0.00     0.041 A 
ATOM     89  F   UNL     1       5.102 -14.622  -1.775  1.00  0.00    -0.206 F 
ATOM     90  C   UNL     1       4.271 -18.143  -1.776  1.00  0.00     0.022 A 
BRANCH  87  91
ATOM     91  S   UNL     1       1.950 -19.607  -2.278  1.00  0.00     0.124 S 
ATOM     92  O   UNL     1       0.865 -19.284  -1.357  1.00  0.00    -0.237 OA
ATOM     93  O   UNL     1       1.585 -19.696  -3.688  1.00  0.00    -0.237 OA
ATOM     94  O   UNL     1       2.872 -20.642  -1.811  1.00  0.00    -0.744 OA
ENDBRANCH  87  91
ENDBRANCH  61  84
ENDBRANCH  35  36
ENDBRANCH  28  30
ENDBRANCH  27  28
ENDBRANCH  26  27
ENDBRANCH  25  26
ENDBRANCH  24  25
ENDBRANCH  23  24
ENDBRANCH   1  23
TORSDOF 27
