REMARK SMILES CCc1cc(OCCC(=O)OCCOCCOCCOC(=O)c2ccc(-c3c4nc(c(-c5cc(S(=O)(=O)[O-])ccc5F)c5ccc([nH]5)c(-c5cc(S(=O)(=O)[O-])ccc5F)c5nc(c(-c6cc(S(=O)(=O)[O-])ccc6F)c6ccc3[nH]6)C=C5)C=C4)cc2)nc(-c2cnccn2)n1
REMARK SMILES IDX 15 1 14 2 13 3 12 4 11 5 9 6 10 7 8 8 7 9 6 10 5 11 3 12
REMARK SMILES IDX 4 13 94 14 87 15 86 16 2 17 1 18 88 19 89 20 93 21 90 22
REMARK SMILES IDX 92 23 91 24 16 25 17 26 18 27 19 28 20 29 21 30 22 31 23 32
REMARK SMILES IDX 24 33 85 34 25 35 84 36 26 37 27 38 28 39 78 40 29 41 83 42
REMARK SMILES IDX 77 43 79 44 30 45 82 46 76 47 75 48 31 50 63 51 43 52 62 53
REMARK SMILES IDX 44 54 47 55 61 56 80 57 45 58 46 59 60 61 81 62 48 63 32 64
REMARK SMILES IDX 33 65 41 66 34 67 40 68 42 69 39 70 35 71 36 72 37 73 38 74
REMARK SMILES IDX 64 75 65 76 73 77 66 78 72 79 74 80 71 81 67 82 68 83 69 84
REMARK SMILES IDX 70 85 49 86 50 87 58 88 51 89 57 90 59 91 56 92 52 93 53 94
REMARK SMILES IDX 54 95 55 96
REMARK H PARENT 79 49 47 60
REMARK Flexibility Score: inf
ROOT
ATOM      1  C   UNL     1      -1.532   3.012   2.954  1.00  0.00     0.188 C 
ENDROOT
BRANCH   1   2
ATOM      2  O   UNL     1      -2.223   1.818   2.616  1.00  0.00    -0.376 OA
BRANCH   2   3
ATOM      3  C   UNL     1      -1.904   1.264   1.348  1.00  0.00     0.202 C 
BRANCH   3   4
ATOM      4  C   UNL     1      -2.686   1.870   0.169  1.00  0.00     0.261 C 
BRANCH   4   5
ATOM      5  O   UNL     1      -2.263   3.220  -0.137  1.00  0.00    -0.463 OA
BRANCH   5   6
ATOM      6  C   UNL     1      -3.044   4.241   0.283  1.00  0.00     0.309 C 
ATOM      7  O   UNL     1      -4.163   4.106   0.759  1.00  0.00    -0.252 OA
BRANCH   6   8
ATOM      8  C   UNL     1      -2.390   5.599   0.101  1.00  0.00     0.164 C 
BRANCH   8   9
ATOM      9  C   UNL     1      -0.876   5.711   0.326  1.00  0.00     0.243 C 
BRANCH   9  10
ATOM     10  O   UNL     1      -0.129   5.628  -0.893  1.00  0.00    -0.477 OA
BRANCH  10  11
ATOM     11  C   UNL     1       0.789   4.622  -1.040  1.00  0.00     0.217 A 
ATOM     12  C   UNL     1       1.471   2.354  -0.945  1.00  0.00     0.048 A 
ATOM     13  C   UNL     1       0.634   3.363  -0.514  1.00  0.00     0.092 A 
ATOM     14  N   UNL     1       2.489   2.615  -1.767  1.00  0.00    -0.231 NA
ATOM     15  C   UNL     1       2.607   3.887  -2.200  1.00  0.00     0.183 A 
ATOM     16  N   UNL     1       1.796   4.915  -1.875  1.00  0.00    -0.192 NA
BRANCH  12  17
ATOM     17  C   UNL     1       1.214   0.928  -0.524  1.00  0.00     0.053 C 
ATOM     18  C   UNL     1       1.961  -0.135  -1.314  1.00  0.00     0.011 C 
ENDBRANCH  12  17
BRANCH  15  19
ATOM     19  C   UNL     1       3.695   4.127  -3.137  1.00  0.00     0.126 A 
ATOM     20  C   UNL     1       4.808   4.883  -2.788  1.00  0.00     0.143 A 
ATOM     21  N   UNL     1       3.625   3.488  -4.343  1.00  0.00    -0.250 NA
ATOM     22  N   UNL     1       5.886   5.026  -3.602  1.00  0.00    -0.261 NA
ATOM     23  C   UNL     1       4.692   3.632  -5.151  1.00  0.00     0.132 A 
ATOM     24  C   UNL     1       5.799   4.378  -4.787  1.00  0.00     0.131 A 
ENDBRANCH  15  19
ENDBRANCH  10  11
ENDBRANCH   9  10
ENDBRANCH   8   9
ENDBRANCH   6   8
ENDBRANCH   5   6
ENDBRANCH   4   5
ENDBRANCH   3   4
ENDBRANCH   2   3
ENDBRANCH   1   2
BRANCH   1  25
ATOM     25  C   UNL     1      -0.072   2.838   3.374  1.00  0.00     0.188 C 
BRANCH  25  26
ATOM     26  O   UNL     1       0.873   2.500   2.360  1.00  0.00    -0.376 OA
BRANCH  26  27
ATOM     27  C   UNL     1       2.226   2.881   2.692  1.00  0.00     0.202 C 
BRANCH  27  28
ATOM     28  C   UNL     1       2.897   2.139   3.868  1.00  0.00     0.261 C 
BRANCH  28  29
ATOM     29  O   UNL     1       2.120   2.083   5.074  1.00  0.00    -0.460 OA
BRANCH  29  30
ATOM     30  C   UNL     1       1.856   3.261   5.696  1.00  0.00     0.338 C 
ATOM     31  O   UNL     1       2.380   4.330   5.453  1.00  0.00    -0.246 OA
BRANCH  30  32
ATOM     32  C   UNL     1       0.579   3.080   6.448  1.00  0.00     0.060 A 
ATOM     33  C   UNL     1      -0.362   4.121   6.404  1.00  0.00     0.016 A 
ATOM     34  C   UNL     1       0.233   1.851   7.023  1.00  0.00     0.016 A 
ATOM     35  C   UNL     1      -1.637   3.941   6.942  1.00  0.00     0.010 A 
ATOM     36  C   UNL     1      -1.034   1.678   7.585  1.00  0.00     0.010 A 
ATOM     37  C   UNL     1      -1.961   2.734   7.576  1.00  0.00    -0.014 A 
BRANCH  37  38
ATOM     38  C   UNL     1      -3.112   2.697   8.509  1.00  0.00     0.031 A 
ATOM     39  C   UNL     1      -2.828   3.080   9.937  1.00  0.00     0.074 A 
ATOM     40  C   UNL     1      -4.353   2.357   8.119  1.00  0.00     0.049 A 
ATOM     41  N   UNL     1      -3.619   3.092  10.975  1.00  0.00    -0.248 NA
ATOM     42  C   UNL     1      -1.447   3.503  10.225  1.00  0.00     0.031 C 
ATOM     43  C   UNL     1      -4.753   2.022   6.754  1.00  0.00     0.029 A 
ATOM     44  N   UNL     1      -5.509   2.233   8.850  1.00  0.00    -0.354 N 
ATOM     45  C   UNL     1      -2.832   3.524  12.037  1.00  0.00     0.074 A 
ATOM     46  C   UNL     1      -1.495   3.723  11.527  1.00  0.00     0.031 C 
ATOM     47  C   UNL     1      -6.064   1.715   6.750  1.00  0.00     0.029 A 
ATOM     48  C   UNL     1      -6.585   1.794   8.114  1.00  0.00     0.049 A 
ATOM     49  H   UNL     1      -5.562   2.440   9.811  1.00  0.00     0.167 HD
ATOM     50  C   UNL     1      -3.193   3.740  13.324  1.00  0.00     0.034 A 
ATOM     51  C   UNL     1      -7.834   1.468   8.511  1.00  0.00     0.034 A 
ATOM     52  C   UNL     1      -4.521   3.494  13.821  1.00  0.00     0.049 A 
ATOM     53  C   UNL     1      -8.190   1.611   9.976  1.00  0.00     0.074 A 
ATOM     54  C   UNL     1      -5.007   3.666  15.103  1.00  0.00     0.029 A 
ATOM     55  N   UNL     1      -5.572   2.999  13.057  1.00  0.00    -0.354 N 
ATOM     56  N   UNL     1      -7.444   2.030  10.974  1.00  0.00    -0.248 NA
ATOM     57  C   UNL     1      -9.558   1.242  10.365  1.00  0.00     0.031 C 
ATOM     58  C   UNL     1      -6.324   3.195  15.134  1.00  0.00     0.029 A 
ATOM     59  C   UNL     1      -6.693   2.820  13.851  1.00  0.00     0.049 A 
ATOM     60  H   UNL     1      -5.526   2.804  12.094  1.00  0.00     0.167 HD
ATOM     61  C   UNL     1      -8.264   2.006  12.101  1.00  0.00     0.074 A 
ATOM     62  C   UNL     1      -9.562   1.542  11.656  1.00  0.00     0.031 C 
ATOM     63  C   UNL     1      -7.976   2.344  13.386  1.00  0.00     0.034 A 
BRANCH  50  64
ATOM     64  C   UNL     1      -2.108   4.186  14.274  1.00  0.00     0.023 A 
ATOM     65  C   UNL     1      -1.422   5.402  14.100  1.00  0.00     0.031 A 
ATOM     66  C   UNL     1      -1.700   3.346  15.325  1.00  0.00     0.131 A 
ATOM     67  C   UNL     1      -0.313   5.702  14.905  1.00  0.00     0.055 A 
ATOM     68  C   UNL     1      -0.653   3.694  16.181  1.00  0.00     0.041 A 
ATOM     69  F   UNL     1      -2.292   2.158  15.520  1.00  0.00    -0.206 F 
ATOM     70  C   UNL     1       0.059   4.869  15.963  1.00  0.00     0.022 A 
BRANCH  67  71
ATOM     71  S   UNL     1       0.743   7.103  14.440  1.00  0.00     0.124 S 
ATOM     72  O   UNL     1       1.138   6.735  13.081  1.00  0.00    -0.237 OA
ATOM     73  O   UNL     1      -0.167   8.236  14.555  1.00  0.00    -0.237 OA
ATOM     74  O   UNL     1       1.821   7.062  15.426  1.00  0.00    -0.744 OA
ENDBRANCH  67  71
ENDBRANCH  50  64
BRANCH  51  75
ATOM     75  C   UNL     1      -8.827   0.929   7.534  1.00  0.00     0.023 A 
ATOM     76  C   UNL     1     -10.027   1.604   7.257  1.00  0.00     0.031 A 
ATOM     77  C   UNL     1      -8.611  -0.310   6.902  1.00  0.00     0.131 A 
ATOM     78  C   UNL     1     -10.980   1.022   6.403  1.00  0.00     0.055 A 
ATOM     79  C   UNL     1      -9.537  -0.859   6.011  1.00  0.00     0.041 A 
ATOM     80  F   UNL     1      -7.489  -1.007   7.138  1.00  0.00    -0.206 F 
ATOM     81  C   UNL     1     -10.735  -0.197   5.766  1.00  0.00     0.022 A 
BRANCH  78  82
ATOM     82  S   UNL     1     -12.587   1.840   6.199  1.00  0.00     0.124 S 
ATOM     83  O   UNL     1     -13.083   1.866   7.570  1.00  0.00    -0.237 OA
ATOM     84  O   UNL     1     -12.203   3.128   5.632  1.00  0.00    -0.237 OA
ATOM     85  O   UNL     1     -13.309   0.952   5.290  1.00  0.00    -0.744 OA
ENDBRANCH  78  82
ENDBRANCH  51  75
BRANCH  63  86
ATOM     86  C   UNL     1      -9.102   2.271  14.390  1.00  0.00     0.023 A 
ATOM     87  C   UNL     1      -9.696   1.051  14.757  1.00  0.00     0.031 A 
ATOM     88  C   UNL     1      -9.582   3.448  14.996  1.00  0.00     0.131 A 
ATOM     89  C   UNL     1     -10.770   1.041  15.659  1.00  0.00     0.055 A 
ATOM     90  C   UNL     1     -10.604   3.424  15.945  1.00  0.00     0.041 A 
ATOM     91  F   UNL     1      -9.053   4.642  14.683  1.00  0.00    -0.206 F 
ATOM     92  C   UNL     1     -11.214   2.217  16.271  1.00  0.00     0.022 A 
BRANCH  89  93
ATOM     93  S   UNL     1     -11.649  -0.518  15.950  1.00  0.00     0.124 S 
ATOM     94  O   UNL     1     -12.080  -0.879  14.602  1.00  0.00    -0.237 OA
ATOM     95  O   UNL     1     -10.610  -1.360  16.533  1.00  0.00    -0.237 OA
ATOM     96  O   UNL     1     -12.726  -0.141  16.864  1.00  0.00    -0.744 OA
ENDBRANCH  89  93
ENDBRANCH  63  86
ENDBRANCH  37  38
ENDBRANCH  30  32
ENDBRANCH  29  30
ENDBRANCH  28  29
ENDBRANCH  27  28
ENDBRANCH  26  27
ENDBRANCH  25  26
ENDBRANCH   1  25
TORSDOF 25
