REMARK SMILES C[C@@H](C(=O)OCCOCCOCCOC(=O)c1ccc(-c2c3nc(c(-c4cc(S(=O)(=O)[O-])ccc4F)c4ccc([nH]4)c(-c4cc(S(=O)(=O)[O-])ccc4F)c4nc(c(-c5cc(S(=O)(=O)[O-])ccc5F)c5ccc2[nH]5)C=C4)C=C3)cc1)c1ccc(C[C@H]2CCCC2=O)c(-c2ccccc2)c1
REMARK SMILES IDX 9 1 8 2 7 3 6 4 5 5 3 6 4 7 2 8 1 9 80 10 81 11 98 12 82 13
REMARK SMILES IDX 91 14 83 15 92 16 93 17 97 18 94 19 96 20 95 21 84 22 85 23
REMARK SMILES IDX 86 24 89 25 87 26 88 27 90 28 10 29 11 30 12 31 13 32 14 33
REMARK SMILES IDX 15 34 16 35 17 36 18 37 79 38 19 39 78 40 20 41 21 42 22 43
REMARK SMILES IDX 72 44 23 45 77 46 71 47 73 48 24 49 76 50 70 51 69 52 25 54
REMARK SMILES IDX 57 55 37 56 56 57 38 58 41 59 55 60 74 61 39 62 40 63 54 65
REMARK SMILES IDX 75 66 42 67 26 68 27 69 35 70 28 71 34 72 36 73 33 74 29 75
REMARK SMILES IDX 30 76 31 77 32 78 58 79 59 80 67 81 60 82 66 83 68 84 65 85
REMARK SMILES IDX 61 86 62 87 63 88 64 89 43 90 44 91 52 92 45 93 51 94 53 95
REMARK SMILES IDX 50 96 46 97 47 98 48 99 49 100
REMARK H PARENT 73 53 41 64
REMARK Flexibility Score: inf
ROOT
ATOM      1  C   UNL     1       0.607   3.656   1.852  1.00  0.00     0.188 C 
ENDROOT
BRANCH   1   2
ATOM      2  O   UNL     1       1.521   4.347   2.678  1.00  0.00    -0.376 OA
BRANCH   2   3
ATOM      3  C   UNL     1       2.639   3.634   3.188  1.00  0.00     0.202 C 
BRANCH   3   4
ATOM      4  C   UNL     1       2.513   2.166   3.636  1.00  0.00     0.261 C 
BRANCH   4   5
ATOM      5  O   UNL     1       2.083   1.237   2.615  1.00  0.00    -0.463 OA
BRANCH   5   6
ATOM      6  C   UNL     1       1.126   0.335   2.983  1.00  0.00     0.313 C 
ATOM      7  O   UNL     1       0.671   0.270   4.122  1.00  0.00    -0.252 OA
BRANCH   6   8
ATOM      8  C   UNL     1       0.664  -0.623   1.860  1.00  0.00     0.126 C 
ATOM      9  C   UNL     1       1.401  -0.587   0.519  1.00  0.00     0.025 C 
BRANCH   8  10
ATOM     10  C   UNL     1      -0.844  -0.559   1.651  1.00  0.00    -0.033 A 
ATOM     11  C   UNL     1      -1.478   0.635   1.321  1.00  0.00     0.005 A 
ATOM     12  C   UNL     1      -1.652  -1.692   1.808  1.00  0.00     0.013 A 
ATOM     13  C   UNL     1      -2.859   0.733   1.301  1.00  0.00     0.004 A 
ATOM     14  C   UNL     1      -3.067  -1.616   1.800  1.00  0.00    -0.015 A 
ATOM     15  C   UNL     1      -3.666  -0.350   1.651  1.00  0.00    -0.039 A 
BRANCH  14  16
ATOM     16  C   UNL     1      -3.848  -2.855   1.951  1.00  0.00    -0.018 A 
ATOM     17  C   UNL     1      -4.810  -3.225   0.995  1.00  0.00     0.009 A 
ATOM     18  C   UNL     1      -3.648  -3.702   3.050  1.00  0.00     0.009 A 
ATOM     19  C   UNL     1      -5.586  -4.373   1.163  1.00  0.00     0.001 A 
ATOM     20  C   UNL     1      -4.413  -4.858   3.214  1.00  0.00     0.001 A 
ATOM     21  C   UNL     1      -5.390  -5.186   2.276  1.00  0.00     0.000 A 
ENDBRANCH  14  16
BRANCH  15  22
ATOM     22  C   UNL     1      -5.117  -0.024   1.942  1.00  0.00     0.047 C 
BRANCH  22  23
ATOM     23  C   UNL     1      -5.389   0.591   3.325  1.00  0.00     0.060 C 
ATOM     24  C   UNL     1      -5.355  -0.398   4.506  1.00  0.00     0.012 C 
ATOM     25  C   UNL     1      -4.464   1.691   3.839  1.00  0.00     0.136 C 
ATOM     26  C   UNL     1      -4.301   0.116   5.487  1.00  0.00     0.009 C 
ATOM     27  C   UNL     1      -4.302   1.618   5.322  1.00  0.00     0.076 C 
ATOM     28  O   UNL     1      -3.936   2.583   3.189  1.00  0.00    -0.299 OA
ENDBRANCH  22  23
ENDBRANCH  15  22
ENDBRANCH   8  10
ENDBRANCH   6   8
ENDBRANCH   5   6
ENDBRANCH   4   5
ENDBRANCH   3   4
ENDBRANCH   2   3
ENDBRANCH   1   2
BRANCH   1  29
ATOM     29  C   UNL     1       1.135   3.003   0.565  1.00  0.00     0.188 C 
BRANCH  29  30
ATOM     30  O   UNL     1       2.461   3.190   0.139  1.00  0.00    -0.376 OA
BRANCH  30  31
ATOM     31  C   UNL     1       2.927   4.476  -0.202  1.00  0.00     0.202 C 
BRANCH  31  32
ATOM     32  C   UNL     1       2.039   5.608  -0.748  1.00  0.00     0.261 C 
BRANCH  32  33
ATOM     33  O   UNL     1       0.620   5.506  -0.596  1.00  0.00    -0.460 OA
BRANCH  33  34
ATOM     34  C   UNL     1      -0.048   4.995  -1.660  1.00  0.00     0.338 C 
ATOM     35  O   UNL     1       0.452   4.564  -2.692  1.00  0.00    -0.246 OA
BRANCH  34  36
ATOM     36  C   UNL     1      -1.483   4.873  -1.320  1.00  0.00     0.060 A 
ATOM     37  C   UNL     1      -2.095   3.616  -1.396  1.00  0.00     0.016 A 
ATOM     38  C   UNL     1      -2.234   5.997  -0.965  1.00  0.00     0.016 A 
ATOM     39  C   UNL     1      -3.463   3.487  -1.133  1.00  0.00     0.010 A 
ATOM     40  C   UNL     1      -3.609   5.867  -0.722  1.00  0.00     0.010 A 
ATOM     41  C   UNL     1      -4.238   4.615  -0.819  1.00  0.00    -0.014 A 
BRANCH  41  42
ATOM     42  C   UNL     1      -5.722   4.495  -0.749  1.00  0.00     0.031 A 
ATOM     43  C   UNL     1      -6.517   4.649  -2.007  1.00  0.00     0.074 A 
ATOM     44  C   UNL     1      -6.370   4.280   0.411  1.00  0.00     0.049 A 
ATOM     45  N   UNL     1      -7.812   4.613  -2.172  1.00  0.00    -0.248 NA
ATOM     46  C   UNL     1      -5.752   4.948  -3.225  1.00  0.00     0.031 C 
ATOM     47  C   UNL     1      -5.718   4.242   1.704  1.00  0.00     0.029 A 
ATOM     48  N   UNL     1      -7.694   4.040   0.701  1.00  0.00    -0.354 N 
ATOM     49  C   UNL     1      -8.029   4.952  -3.499  1.00  0.00     0.074 A 
ATOM     50  C   UNL     1      -6.725   5.170  -4.094  1.00  0.00     0.031 C 
ATOM     51  C   UNL     1      -6.616   3.895   2.639  1.00  0.00     0.029 A 
ATOM     52  C   UNL     1      -7.925   3.724   2.026  1.00  0.00     0.049 A 
ATOM     53  H   UNL     1      -8.411   4.089   0.027  1.00  0.00     0.167 HD
ATOM     54  C   UNL     1      -9.211   5.107  -4.143  1.00  0.00     0.034 A 
ATOM     55  C   UNL     1      -9.053   3.339   2.665  1.00  0.00     0.034 A 
ATOM     56  C   UNL     1     -10.499   4.919  -3.518  1.00  0.00     0.049 A 
ATOM     57  C   UNL     1     -10.351   3.406   1.891  1.00  0.00     0.074 A 
ATOM     58  C   UNL     1     -11.756   5.070  -4.077  1.00  0.00     0.029 A 
ATOM     59  N   UNL     1     -10.700   4.550  -2.192  1.00  0.00    -0.354 N 
ATOM     60  N   UNL     1     -10.541   3.727   0.632  1.00  0.00    -0.248 NA
ATOM     61  C   UNL     1     -11.588   3.122   2.631  1.00  0.00     0.031 C 
ATOM     62  C   UNL     1     -12.712   4.859  -3.078  1.00  0.00     0.029 A 
ATOM     63  C   UNL     1     -12.059   4.484  -1.915  1.00  0.00     0.049 A 
ATOM     64  H   UNL     1      -9.983   4.363  -1.544  1.00  0.00     0.167 HD
ATOM     65  C   UNL     1     -11.919   3.719   0.442  1.00  0.00     0.074 A 
ATOM     66  C   UNL     1     -12.508   3.286   1.692  1.00  0.00     0.031 C 
ATOM     67  C   UNL     1     -12.635   4.075  -0.655  1.00  0.00     0.034 A 
BRANCH  54  68
ATOM     68  C   UNL     1      -9.146   5.591  -5.569  1.00  0.00     0.023 A 
ATOM     69  C   UNL     1      -8.524   4.835  -6.576  1.00  0.00     0.031 A 
ATOM     70  C   UNL     1      -9.651   6.858  -5.910  1.00  0.00     0.131 A 
ATOM     71  C   UNL     1      -8.341   5.390  -7.851  1.00  0.00     0.055 A 
ATOM     72  C   UNL     1      -9.550   7.365  -7.207  1.00  0.00     0.041 A 
ATOM     73  F   UNL     1     -10.228   7.638  -4.983  1.00  0.00    -0.206 F 
ATOM     74  C   UNL     1      -8.876   6.637  -8.182  1.00  0.00     0.022 A 
BRANCH  71  75
ATOM     75  S   UNL     1      -7.246   4.532  -9.013  1.00  0.00     0.124 S 
ATOM     76  O   UNL     1      -5.982   4.531  -8.279  1.00  0.00    -0.237 OA
ATOM     77  O   UNL     1      -7.897   3.236  -9.163  1.00  0.00    -0.237 OA
ATOM     78  O   UNL     1      -7.269   5.384 -10.200  1.00  0.00    -0.744 OA
ENDBRANCH  71  75
ENDBRANCH  54  68
BRANCH  55  79
ATOM     79  C   UNL     1      -9.050   2.897   4.101  1.00  0.00     0.023 A 
ATOM     80  C   UNL     1      -9.571   1.640   4.472  1.00  0.00     0.031 A 
ATOM     81  C   UNL     1      -8.592   3.729   5.138  1.00  0.00     0.131 A 
ATOM     82  C   UNL     1      -9.659   1.278   5.829  1.00  0.00     0.055 A 
ATOM     83  C   UNL     1      -8.594   3.326   6.476  1.00  0.00     0.041 A 
ATOM     84  F   UNL     1      -8.131   4.960   4.870  1.00  0.00    -0.206 F 
ATOM     85  C   UNL     1      -9.143   2.100   6.831  1.00  0.00     0.022 A 
BRANCH  82  86
ATOM     86  S   UNL     1     -10.583  -0.218   6.285  1.00  0.00     0.124 S 
ATOM     87  O   UNL     1     -11.887   0.046   5.687  1.00  0.00    -0.237 OA
ATOM     88  O   UNL     1      -9.787  -1.267   5.657  1.00  0.00    -0.237 OA
ATOM     89  O   UNL     1     -10.553  -0.206   7.746  1.00  0.00    -0.744 OA
ENDBRANCH  82  86
ENDBRANCH  55  79
BRANCH  67  90
ATOM     90  C   UNL     1     -14.140   3.999  -0.544  1.00  0.00     0.023 A 
ATOM     91  C   UNL     1     -14.861   4.830   0.333  1.00  0.00     0.031 A 
ATOM     92  C   UNL     1     -14.861   3.076  -1.321  1.00  0.00     0.131 A 
ATOM     93  C   UNL     1     -16.251   4.680   0.455  1.00  0.00     0.055 A 
ATOM     94  C   UNL     1     -16.251   2.978  -1.244  1.00  0.00     0.041 A 
ATOM     95  F   UNL     1     -14.225   2.253  -2.170  1.00  0.00    -0.206 F 
ATOM     96  C   UNL     1     -16.953   3.773  -0.343  1.00  0.00     0.022 A 
BRANCH  93  97
ATOM     97  S   UNL     1     -17.122   5.613   1.746  1.00  0.00     0.124 S 
ATOM     98  O   UNL     1     -16.437   5.169   2.955  1.00  0.00    -0.237 OA
ATOM     99  O   UNL     1     -16.883   6.996   1.348  1.00  0.00    -0.237 OA
ATOM    100  O   UNL     1     -18.507   5.163   1.618  1.00  0.00    -0.744 OA
ENDBRANCH  93  97
ENDBRANCH  67  90
ENDBRANCH  41  42
ENDBRANCH  34  36
ENDBRANCH  33  34
ENDBRANCH  32  33
ENDBRANCH  31  32
ENDBRANCH  30  31
ENDBRANCH  29  30
ENDBRANCH   1  29
TORSDOF 24
