REMARK SMILES CCOc1cccc(-c2ccc([C@@H](C)C(=O)OCCOCCOCCOC(=O)c3ccc(-c4c5nc(c(-c6cc(S(=O)(=O)[O-])ccc6F)c6ccc([nH]6)c(-c6cc(S(=O)(=O)[O-])ccc6F)c6nc(c(-c7cc(S(=O)(=O)[O-])ccc7F)c7ccc4[nH]7)C=C6)C=C5)cc3)cc2F)c1
REMARK SMILES IDX 21 1 20 2 19 3 18 4 17 5 15 6 16 7 13 8 14 9 12 10 9 11
REMARK SMILES IDX 10 12 93 13 11 14 92 15 94 16 8 17 4 18 5 19 95 20 6 21 7 22
REMARK SMILES IDX 3 23 2 24 1 25 22 26 23 27 24 28 25 29 26 30 27 31 28 32
REMARK SMILES IDX 29 33 30 34 91 35 31 36 90 37 32 38 33 39 34 40 84 41 35 42
REMARK SMILES IDX 89 43 83 44 85 45 36 46 88 47 82 48 81 49 37 51 69 52 49 53
REMARK SMILES IDX 68 54 50 55 53 56 67 57 86 58 51 59 52 60 66 62 87 63 54 64
REMARK SMILES IDX 38 65 39 66 47 67 40 68 46 69 48 70 45 71 41 72 42 73 43 74
REMARK SMILES IDX 44 75 70 76 71 77 79 78 72 79 78 80 80 81 77 82 73 83 74 84
REMARK SMILES IDX 75 85 76 86 55 87 56 88 64 89 57 90 63 91 65 92 62 93 58 94
REMARK SMILES IDX 59 95 60 96 61 97
REMARK H PARENT 85 50 53 61
REMARK Flexibility Score: inf
ROOT
ATOM      1  C   UNL     1       6.356   0.493   4.941  1.00  0.00     0.188 C 
ENDROOT
BRANCH   1   2
ATOM      2  O   UNL     1       7.060   1.548   5.588  1.00  0.00    -0.376 OA
BRANCH   2   3
ATOM      3  C   UNL     1       8.097   2.221   4.887  1.00  0.00     0.202 C 
BRANCH   3   4
ATOM      4  C   UNL     1       9.238   1.388   4.276  1.00  0.00     0.261 C 
BRANCH   4   5
ATOM      5  O   UNL     1       8.834   0.319   3.388  1.00  0.00    -0.463 OA
BRANCH   5   6
ATOM      6  C   UNL     1       9.229  -0.933   3.731  1.00  0.00     0.313 C 
ATOM      7  O   UNL     1       9.957  -1.163   4.696  1.00  0.00    -0.252 OA
BRANCH   6   8
ATOM      8  C   UNL     1       8.697  -2.082   2.866  1.00  0.00     0.126 C 
ATOM      9  C   UNL     1       9.887  -2.901   2.368  1.00  0.00     0.025 C 
BRANCH   8  10
ATOM     10  C   UNL     1       7.717  -1.843   1.716  1.00  0.00    -0.031 A 
ATOM     11  C   UNL     1       5.790  -1.501  -0.393  1.00  0.00     0.018 A 
ATOM     12  C   UNL     1       6.978  -0.747  -0.341  1.00  0.00     0.012 A 
ATOM     13  C   UNL     1       5.598  -2.433   0.633  1.00  0.00     0.131 A 
ATOM     14  C   UNL     1       7.929  -0.918   0.688  1.00  0.00     0.005 A 
ATOM     15  C   UNL     1       6.536  -2.611   1.658  1.00  0.00     0.044 A 
ATOM     16  F   UNL     1       4.497  -3.200   0.656  1.00  0.00    -0.206 F 
BRANCH  11  17
ATOM     17  C   UNL     1       4.812  -1.330  -1.493  1.00  0.00    -0.012 A 
ATOM     18  C   UNL     1       2.524  -1.004  -2.297  1.00  0.00     0.119 A 
ATOM     19  C   UNL     1       2.957  -1.077  -3.617  1.00  0.00     0.046 A 
ATOM     20  C   UNL     1       3.438  -1.147  -1.246  1.00  0.00     0.055 A 
ATOM     21  C   UNL     1       4.308  -1.267  -3.889  1.00  0.00     0.004 A 
ATOM     22  C   UNL     1       5.225  -1.390  -2.838  1.00  0.00     0.009 A 
BRANCH  18  23
ATOM     23  O   UNL     1       1.173  -0.968  -2.084  1.00  0.00    -0.494 OA
BRANCH  23  24
ATOM     24  C   UNL     1       0.690   0.267  -1.544  1.00  0.00     0.226 C 
ATOM     25  C   UNL     1       0.690   0.249  -0.029  1.00  0.00     0.049 C 
ENDBRANCH  23  24
ENDBRANCH  18  23
ENDBRANCH  11  17
ENDBRANCH   8  10
ENDBRANCH   6   8
ENDBRANCH   5   6
ENDBRANCH   4   5
ENDBRANCH   3   4
ENDBRANCH   2   3
ENDBRANCH   1   2
BRANCH   1  26
ATOM     26  C   UNL     1       6.028   0.614   3.445  1.00  0.00     0.188 C 
BRANCH  26  27
ATOM     27  O   UNL     1       6.365   1.854   2.858  1.00  0.00    -0.376 OA
BRANCH  27  28
ATOM     28  C   UNL     1       5.306   2.585   2.272  1.00  0.00     0.202 C 
BRANCH  28  29
ATOM     29  C   UNL     1       4.209   3.070   3.236  1.00  0.00     0.261 C 
BRANCH  29  30
ATOM     30  O   UNL     1       3.665   2.081   4.131  1.00  0.00    -0.460 OA
BRANCH  30  31
ATOM     31  C   UNL     1       2.887   1.135   3.559  1.00  0.00     0.338 C 
ATOM     32  O   UNL     1       2.607   1.070   2.370  1.00  0.00    -0.246 OA
BRANCH  31  33
ATOM     33  C   UNL     1       2.613   0.059   4.533  1.00  0.00     0.060 A 
ATOM     34  C   UNL     1       2.981  -1.258   4.217  1.00  0.00     0.016 A 
ATOM     35  C   UNL     1       1.954   0.338   5.731  1.00  0.00     0.016 A 
ATOM     36  C   UNL     1       2.643  -2.306   5.074  1.00  0.00     0.010 A 
ATOM     37  C   UNL     1       1.597  -0.716   6.578  1.00  0.00     0.010 A 
ATOM     38  C   UNL     1       1.898  -2.047   6.231  1.00  0.00    -0.014 A 
BRANCH  38  39
ATOM     39  C   UNL     1       1.210  -3.167   6.926  1.00  0.00     0.031 A 
ATOM     40  C   UNL     1      -0.244  -3.405   6.606  1.00  0.00     0.074 A 
ATOM     41  C   UNL     1       1.851  -3.975   7.790  1.00  0.00     0.049 A 
ATOM     42  N   UNL     1      -1.085  -4.264   7.121  1.00  0.00    -0.248 NA
ATOM     43  C   UNL     1      -0.827  -2.545   5.564  1.00  0.00     0.031 C 
ATOM     44  C   UNL     1       3.268  -3.888   8.137  1.00  0.00     0.029 A 
ATOM     45  N   UNL     1       1.386  -5.030   8.537  1.00  0.00    -0.354 N 
ATOM     46  C   UNL     1      -2.296  -4.041   6.474  1.00  0.00     0.074 A 
ATOM     47  C   UNL     1      -2.091  -2.936   5.563  1.00  0.00     0.031 C 
ATOM     48  C   UNL     1       3.555  -4.847   9.036  1.00  0.00     0.029 A 
ATOM     49  C   UNL     1       2.336  -5.587   9.361  1.00  0.00     0.049 A 
ATOM     50  H   UNL     1       0.459  -5.357   8.487  1.00  0.00     0.167 HD
ATOM     51  C   UNL     1      -3.471  -4.704   6.616  1.00  0.00     0.034 A 
ATOM     52  C   UNL     1       2.225  -6.563  10.287  1.00  0.00     0.034 A 
ATOM     53  C   UNL     1      -3.664  -5.799   7.535  1.00  0.00     0.049 A 
ATOM     54  C   UNL     1       0.881  -7.227  10.498  1.00  0.00     0.074 A 
ATOM     55  C   UNL     1      -4.810  -6.540   7.763  1.00  0.00     0.029 A 
ATOM     56  N   UNL     1      -2.689  -6.308   8.384  1.00  0.00    -0.354 N 
ATOM     57  N   UNL     1      -0.262  -7.001   9.889  1.00  0.00    -0.248 NA
ATOM     58  C   UNL     1       0.817  -8.288  11.512  1.00  0.00     0.031 C 
ATOM     59  C   UNL     1      -4.553  -7.438   8.803  1.00  0.00     0.029 A 
ATOM     60  C   UNL     1      -3.217  -7.331   9.156  1.00  0.00     0.049 A 
ATOM     61  H   UNL     1      -1.759  -5.988   8.431  1.00  0.00     0.167 HD
ATOM     62  C   UNL     1      -1.163  -7.928  10.413  1.00  0.00     0.074 A 
ATOM     63  C   UNL     1      -0.429  -8.716  11.380  1.00  0.00     0.031 C 
ATOM     64  C   UNL     1      -2.474  -8.117  10.114  1.00  0.00     0.034 A 
BRANCH  51  65
ATOM     65  C   UNL     1      -4.645  -4.219   5.799  1.00  0.00     0.023 A 
ATOM     66  C   UNL     1      -4.639  -4.255   4.393  1.00  0.00     0.031 A 
ATOM     67  C   UNL     1      -5.777  -3.682   6.437  1.00  0.00     0.131 A 
ATOM     68  C   UNL     1      -5.707  -3.696   3.674  1.00  0.00     0.055 A 
ATOM     69  C   UNL     1      -6.876  -3.210   5.717  1.00  0.00     0.041 A 
ATOM     70  F   UNL     1      -5.831  -3.594   7.776  1.00  0.00    -0.206 F 
ATOM     71  C   UNL     1      -6.838  -3.201   4.326  1.00  0.00     0.022 A 
BRANCH  68  72
ATOM     72  S   UNL     1      -5.529  -3.484   1.881  1.00  0.00     0.124 S 
ATOM     73  O   UNL     1      -4.340  -2.639   1.802  1.00  0.00    -0.237 OA
ATOM     74  O   UNL     1      -5.372  -4.856   1.415  1.00  0.00    -0.237 OA
ATOM     75  O   UNL     1      -6.776  -2.829   1.489  1.00  0.00    -0.744 OA
ENDBRANCH  68  72
ENDBRANCH  51  65
BRANCH  52  76
ATOM     76  C   UNL     1       3.399  -6.962  11.120  1.00  0.00     0.023 A 
ATOM     77  C   UNL     1       3.904  -8.273  11.088  1.00  0.00     0.031 A 
ATOM     78  C   UNL     1       3.983  -6.057  12.025  1.00  0.00     0.131 A 
ATOM     79  C   UNL     1       4.917  -8.657  11.982  1.00  0.00     0.055 A 
ATOM     80  C   UNL     1       5.034  -6.427  12.867  1.00  0.00     0.041 A 
ATOM     81  F   UNL     1       3.536  -4.794  12.107  1.00  0.00    -0.206 F 
ATOM     82  C   UNL     1       5.496  -7.739  12.860  1.00  0.00     0.022 A 
BRANCH  79  83
ATOM     83  S   UNL     1       5.388 -10.408  12.061  1.00  0.00     0.124 S 
ATOM     84  O   UNL     1       4.115 -11.042  12.385  1.00  0.00    -0.237 OA
ATOM     85  O   UNL     1       5.899 -10.645  10.715  1.00  0.00    -0.237 OA
ATOM     86  O   UNL     1       6.392 -10.442  13.122  1.00  0.00    -0.744 OA
ENDBRANCH  79  83
ENDBRANCH  52  76
BRANCH  64  87
ATOM     87  C   UNL     1      -3.180  -9.278  10.780  1.00  0.00     0.023 A 
ATOM     88  C   UNL     1      -3.381  -9.340  12.170  1.00  0.00     0.031 A 
ATOM     89  C   UNL     1      -3.649 -10.352  10.000  1.00  0.00     0.131 A 
ATOM     90  C   UNL     1      -3.969 -10.480  12.742  1.00  0.00     0.055 A 
ATOM     91  C   UNL     1      -4.300 -11.448  10.567  1.00  0.00     0.041 A 
ATOM     92  F   UNL     1      -3.485 -10.353   8.667  1.00  0.00    -0.206 F 
ATOM     93  C   UNL     1      -4.448 -11.525  11.948  1.00  0.00     0.022 A 
BRANCH  90  94
ATOM     94  S   UNL     1      -3.992 -10.635  14.550  1.00  0.00     0.124 S 
ATOM     95  O   UNL     1      -2.579 -10.495  14.885  1.00  0.00    -0.237 OA
ATOM     96  O   UNL     1      -4.854  -9.526  14.947  1.00  0.00    -0.237 OA
ATOM     97  O   UNL     1      -4.553 -11.966  14.773  1.00  0.00    -0.744 OA
ENDBRANCH  90  94
ENDBRANCH  64  87
ENDBRANCH  38  39
ENDBRANCH  31  33
ENDBRANCH  30  31
ENDBRANCH  29  30
ENDBRANCH  28  29
ENDBRANCH  27  28
ENDBRANCH  26  27
ENDBRANCH   1  26
TORSDOF 24
