REMARK SMILES O=C(OCCOCCOCCOC(=O)c1cc(Br)ccc1NC(=O)c1ccc(Br)s1)c1ccc(-c2c3nc(c(-c4cc(S(=O)(=O)[O-])ccc4F)c4ccc([nH]4)c(-c4cc(S(=O)(=O)[O-])ccc4F)c4nc(c(-c5cc(S(=O)(=O)[O-])ccc5F)c5ccc2[nH]5)C=C4)C=C3)cc1
REMARK SMILES IDX 7 1 6 2 5 3 4 4 3 5 2 6 1 7 31 8 32 9 93 10 33 11 92 12
REMARK SMILES IDX 34 13 35 14 36 15 86 16 37 17 91 18 85 19 87 20 38 21 90 22
REMARK SMILES IDX 84 23 83 24 39 26 71 27 51 28 70 29 52 30 55 31 69 32 88 33
REMARK SMILES IDX 53 34 54 35 68 37 89 38 56 39 40 40 41 41 49 42 42 43 48 44
REMARK SMILES IDX 50 45 47 46 43 47 44 48 45 49 46 50 72 51 73 52 81 53 74 54
REMARK SMILES IDX 80 55 82 56 79 57 75 58 76 59 77 60 78 61 57 62 58 63 66 64
REMARK SMILES IDX 59 65 65 66 67 67 64 68 60 69 61 70 62 71 63 72 8 73 9 74
REMARK SMILES IDX 10 75 11 76 12 77 13 78 14 79 15 80 16 81 21 82 17 83 20 84
REMARK SMILES IDX 18 85 19 86 22 87 23 88 24 90 25 91 26 92 30 93 27 94 28 95
REMARK SMILES IDX 29 96
REMARK H PARENT 87 25 55 36 22 89
REMARK Flexibility Score: inf
ROOT
ATOM      1  C   UNL     1       2.703  -1.126  -1.150  1.00  0.00     0.188 C 
ENDROOT
BRANCH   1   2
ATOM      2  O   UNL     1       4.107  -0.916  -1.035  1.00  0.00    -0.376 OA
BRANCH   2   3
ATOM      3  C   UNL     1       4.729  -1.661   0.008  1.00  0.00     0.202 C 
BRANCH   3   4
ATOM      4  C   UNL     1       4.666  -0.986   1.389  1.00  0.00     0.261 C 
BRANCH   4   5
ATOM      5  O   UNL     1       3.346  -0.537   1.749  1.00  0.00    -0.460 OA
BRANCH   5   6
ATOM      6  C   UNL     1       2.754   0.670   1.571  1.00  0.00     0.338 C 
ATOM      7  O   UNL     1       1.656   0.842   2.102  1.00  0.00    -0.246 OA
BRANCH   6   8
ATOM      8  C   UNL     1       3.308   1.798   0.742  1.00  0.00     0.060 A 
ATOM      9  C   UNL     1       4.507   1.786   0.027  1.00  0.00     0.016 A 
ATOM     10  C   UNL     1       2.541   2.980   0.686  1.00  0.00     0.016 A 
ATOM     11  C   UNL     1       4.970   2.909  -0.653  1.00  0.00     0.010 A 
ATOM     12  C   UNL     1       2.992   4.116   0.000  1.00  0.00     0.010 A 
ATOM     13  C   UNL     1       4.239   4.092  -0.632  1.00  0.00    -0.014 A 
BRANCH  13  14
ATOM     14  C   UNL     1       4.930   5.329  -1.046  1.00  0.00     0.031 A 
ATOM     15  C   UNL     1       5.561   6.162   0.032  1.00  0.00     0.074 A 
ATOM     16  C   UNL     1       5.134   5.608  -2.344  1.00  0.00     0.049 A 
ATOM     17  N   UNL     1       6.251   7.266  -0.067  1.00  0.00    -0.248 NA
ATOM     18  C   UNL     1       5.422   5.656   1.408  1.00  0.00     0.031 C 
ATOM     19  C   UNL     1       4.711   4.765  -3.461  1.00  0.00     0.029 A 
ATOM     20  N   UNL     1       5.766   6.664  -2.943  1.00  0.00    -0.354 N 
ATOM     21  C   UNL     1       6.643   7.578   1.230  1.00  0.00     0.074 A 
ATOM     22  C   UNL     1       6.077   6.572   2.100  1.00  0.00     0.031 C 
ATOM     23  C   UNL     1       5.067   5.357  -4.613  1.00  0.00     0.029 A 
ATOM     24  C   UNL     1       5.707   6.631  -4.316  1.00  0.00     0.049 A 
ATOM     25  H   UNL     1       6.219   7.378  -2.440  1.00  0.00     0.167 HD
ATOM     26  C   UNL     1       7.416   8.607   1.651  1.00  0.00     0.034 A 
ATOM     27  C   UNL     1       6.099   7.545  -5.224  1.00  0.00     0.034 A 
ATOM     28  C   UNL     1       7.925   9.619   0.761  1.00  0.00     0.049 A 
ATOM     29  C   UNL     1       6.797   8.782  -4.722  1.00  0.00     0.074 A 
ATOM     30  C   UNL     1       8.648  10.757   1.065  1.00  0.00     0.029 A 
ATOM     31  N   UNL     1       7.743   9.617  -0.618  1.00  0.00    -0.354 N 
ATOM     32  N   UNL     1       7.110   9.106  -3.488  1.00  0.00    -0.248 NA
ATOM     33  C   UNL     1       7.208   9.764  -5.730  1.00  0.00     0.031 C 
ATOM     34  C   UNL     1       8.840  11.478  -0.120  1.00  0.00     0.029 A 
ATOM     35  C   UNL     1       8.309  10.752  -1.175  1.00  0.00     0.049 A 
ATOM     36  H   UNL     1       7.280   8.912  -1.125  1.00  0.00     0.167 HD
ATOM     37  C   UNL     1       7.787  10.316  -3.574  1.00  0.00     0.074 A 
ATOM     38  C   UNL     1       7.839  10.659  -4.983  1.00  0.00     0.031 C 
ATOM     39  C   UNL     1       8.329  11.072  -2.584  1.00  0.00     0.034 A 
BRANCH  26  40
ATOM     40  C   UNL     1       7.649   8.711   3.138  1.00  0.00     0.023 A 
ATOM     41  C   UNL     1       8.348   7.719   3.850  1.00  0.00     0.031 A 
ATOM     42  C   UNL     1       7.063   9.758   3.870  1.00  0.00     0.131 A 
ATOM     43  C   UNL     1       8.362   7.745   5.254  1.00  0.00     0.055 A 
ATOM     44  C   UNL     1       7.154   9.823   5.262  1.00  0.00     0.041 A 
ATOM     45  F   UNL     1       6.357  10.715   3.248  1.00  0.00    -0.206 F 
ATOM     46  C   UNL     1       7.789   8.803   5.963  1.00  0.00     0.022 A 
BRANCH  43  47
ATOM     47  S   UNL     1       8.980   6.288   6.143  1.00  0.00     0.124 S 
ATOM     48  O   UNL     1       8.099   5.237   5.638  1.00  0.00    -0.237 OA
ATOM     49  O   UNL     1      10.370   6.218   5.709  1.00  0.00    -0.237 OA
ATOM     50  O   UNL     1       8.782   6.634   7.549  1.00  0.00    -0.744 OA
ENDBRANCH  43  47
ENDBRANCH  26  40
BRANCH  27  51
ATOM     51  C   UNL     1       5.779   7.373  -6.669  1.00  0.00     0.023 A 
ATOM     52  C   UNL     1       6.782   7.217  -7.637  1.00  0.00     0.031 A 
ATOM     53  C   UNL     1       4.442   7.431  -7.107  1.00  0.00     0.131 A 
ATOM     54  C   UNL     1       6.437   7.161  -8.998  1.00  0.00     0.055 A 
ATOM     55  C   UNL     1       4.103   7.347  -8.459  1.00  0.00     0.041 A 
ATOM     56  F   UNL     1       3.442   7.563  -6.221  1.00  0.00    -0.206 F 
ATOM     57  C   UNL     1       5.105   7.216  -9.414  1.00  0.00     0.022 A 
BRANCH  54  58
ATOM     58  S   UNL     1       7.764   7.082 -10.234  1.00  0.00     0.124 S 
ATOM     59  O   UNL     1       8.481   8.326  -9.979  1.00  0.00    -0.237 OA
ATOM     60  O   UNL     1       8.456   5.853  -9.857  1.00  0.00    -0.237 OA
ATOM     61  O   UNL     1       7.044   7.024 -11.504  1.00  0.00    -0.744 OA
ENDBRANCH  54  58
ENDBRANCH  27  51
BRANCH  39  62
ATOM     62  C   UNL     1       9.060  12.317  -3.011  1.00  0.00     0.023 A 
ATOM     63  C   UNL     1       8.383  13.414  -3.569  1.00  0.00     0.031 A 
ATOM     64  C   UNL     1      10.455  12.398  -2.863  1.00  0.00     0.131 A 
ATOM     65  C   UNL     1       9.112  14.527  -4.012  1.00  0.00     0.055 A 
ATOM     66  C   UNL     1      11.167  13.534  -3.247  1.00  0.00     0.041 A 
ATOM     67  F   UNL     1      11.148  11.374  -2.339  1.00  0.00    -0.206 F 
ATOM     68  C   UNL     1      10.497  14.602  -3.837  1.00  0.00     0.022 A 
BRANCH  65  69
ATOM     69  S   UNL     1       8.235  15.838  -4.905  1.00  0.00     0.124 S 
ATOM     70  O   UNL     1       7.688  15.112  -6.047  1.00  0.00    -0.237 OA
ATOM     71  O   UNL     1       7.263  16.294  -3.916  1.00  0.00    -0.237 OA
ATOM     72  O   UNL     1       9.289  16.798  -5.226  1.00  0.00    -0.744 OA
ENDBRANCH  65  69
ENDBRANCH  39  62
ENDBRANCH  13  14
ENDBRANCH   6   8
ENDBRANCH   5   6
ENDBRANCH   4   5
ENDBRANCH   3   4
ENDBRANCH   2   3
ENDBRANCH   1   2
BRANCH   1  73
ATOM     73  C   UNL     1       2.295  -2.326  -2.005  1.00  0.00     0.188 C 
BRANCH  73  74
ATOM     74  O   UNL     1       3.403  -3.082  -2.476  1.00  0.00    -0.376 OA
BRANCH  74  75
ATOM     75  C   UNL     1       3.674  -2.896  -3.864  1.00  0.00     0.202 C 
BRANCH  75  76
ATOM     76  C   UNL     1       4.308  -1.545  -4.217  1.00  0.00     0.261 C 
BRANCH  76  77
ATOM     77  O   UNL     1       3.478  -0.374  -4.050  1.00  0.00    -0.460 OA
BRANCH  77  78
ATOM     78  C   UNL     1       2.409  -0.236  -4.860  1.00  0.00     0.340 C 
ATOM     79  O   UNL     1       1.866  -1.102  -5.530  1.00  0.00    -0.246 OA
BRANCH  78  80
ATOM     80  C   UNL     1       2.126   1.203  -4.988  1.00  0.00     0.084 A 
ATOM     81  C   UNL     1       2.656   1.785  -6.148  1.00  0.00     0.033 A 
ATOM     82  C   UNL     1       1.396   1.968  -4.055  1.00  0.00     0.056 A 
ATOM     83  C   UNL     1       2.504   3.144  -6.366  1.00  0.00     0.018 A 
ATOM     84  C   UNL     1       1.403   3.356  -4.229  1.00  0.00     0.028 A 
ATOM     85  Br  UNL     1       3.106   3.890  -7.987  1.00  0.00    -0.051 Br
ATOM     86  C   UNL     1       1.918   3.941  -5.392  1.00  0.00     0.018 A 
BRANCH  82  87
ATOM     87  N   UNL     1       0.681   1.328  -3.020  1.00  0.00    -0.320 N 
ATOM     88  C   UNL     1      -0.241   1.752  -2.079  1.00  0.00     0.265 C 
ATOM     89  H   UNL     1       0.884   0.367  -2.952  1.00  0.00     0.170 HD
ATOM     90  O   UNL     1      -0.553   0.920  -1.222  1.00  0.00    -0.268 OA
BRANCH  88  91
ATOM     91  C   UNL     1      -0.862   3.059  -2.155  1.00  0.00     0.093 A 
ATOM     92  C   UNL     1      -1.543   3.656  -3.203  1.00  0.00     0.027 A 
ATOM     93  S   UNL     1      -0.857   4.068  -0.766  1.00  0.00    -0.123 S 
ATOM     94  C   UNL     1      -1.929   4.999  -2.903  1.00  0.00     0.028 A 
ATOM     95  C   UNL     1      -1.591   5.334  -1.617  1.00  0.00     0.071 A 
ATOM     96  Br  UNL     1      -1.913   7.021  -0.869  1.00  0.00    -0.039 Br
ENDBRANCH  88  91
ENDBRANCH  82  87
ENDBRANCH  78  80
ENDBRANCH  77  78
ENDBRANCH  76  77
ENDBRANCH  75  76
ENDBRANCH  74  75
ENDBRANCH  73  74
ENDBRANCH   1  73
TORSDOF 22
