REMARK SMILES COCCC(=O)NC[C@@H]1CC[C@@H](C(=O)OCCOCCOCCOC(=O)c2ccc(-c3c4nc(c(-c5cc(S(=O)(=O)[O-])ccc5F)c5ccc([nH]5)c(-c5cc(S(=O)(=O)[O-])ccc5F)c5nc(c(-c6cc(S(=O)(=O)[O-])ccc6F)c6ccc3[nH]6)C=C5)C=C4)cc2)O1
REMARK SMILES IDX 19 1 18 2 17 3 16 4 15 5 13 6 14 7 12 8 9 9 10 10 90 11
REMARK SMILES IDX 11 12 8 13 7 14 5 15 6 16 4 18 3 19 2 20 1 21 20 22 21 23
REMARK SMILES IDX 22 24 23 25 24 26 25 27 26 28 27 29 28 30 89 31 29 32 88 33
REMARK SMILES IDX 30 34 31 35 32 36 82 37 33 38 87 39 81 40 83 41 34 42 86 43
REMARK SMILES IDX 80 44 79 45 35 47 67 48 47 49 66 50 48 51 51 52 65 53 84 54
REMARK SMILES IDX 49 55 50 56 64 58 85 59 52 60 36 61 37 62 45 63 38 64 44 65
REMARK SMILES IDX 46 66 43 67 39 68 40 69 41 70 42 71 68 72 69 73 77 74 70 75
REMARK SMILES IDX 76 76 78 77 75 78 71 79 72 80 73 81 74 82 53 83 54 84 62 85
REMARK SMILES IDX 55 86 61 87 63 88 60 89 56 90 57 91 58 92 59 93
REMARK H PARENT 7 17 83 46 51 57
REMARK Flexibility Score: inf
ROOT
ATOM      1  C   UNL     1       4.687   4.695   1.416  1.00  0.00     0.188 C 
ENDROOT
BRANCH   1   2
ATOM      2  O   UNL     1       5.899   4.167   1.927  1.00  0.00    -0.376 OA
BRANCH   2   3
ATOM      3  C   UNL     1       6.590   3.168   1.195  1.00  0.00     0.202 C 
BRANCH   3   4
ATOM      4  C   UNL     1       5.865   1.847   0.948  1.00  0.00     0.261 C 
BRANCH   4   5
ATOM      5  O   UNL     1       4.790   2.005   0.010  1.00  0.00    -0.461 OA
BRANCH   5   6
ATOM      6  C   UNL     1       3.540   1.728   0.477  1.00  0.00     0.335 C 
ATOM      7  O   UNL     1       3.290   1.343   1.611  1.00  0.00    -0.249 OA
BRANCH   6   8
ATOM      8  C   UNL     1       2.485   2.025  -0.589  1.00  0.00     0.228 C 
ATOM      9  C   UNL     1       0.408   1.017  -0.299  1.00  0.00     0.138 C 
ATOM     10  C   UNL     1       0.147   2.501  -0.479  1.00  0.00     0.037 C 
ATOM     11  O   UNL     1       1.729   0.838  -0.848  1.00  0.00    -0.361 OA
ATOM     12  C   UNL     1       1.494   3.092  -0.127  1.00  0.00     0.047 C 
BRANCH   9  13
ATOM     13  C   UNL     1      -0.611   0.097  -0.993  1.00  0.00     0.147 C 
BRANCH  13  14
ATOM     14  N   UNL     1       0.014  -0.745  -2.007  1.00  0.00    -0.353 N 
ATOM     15  C   UNL     1       0.434  -2.035  -1.911  1.00  0.00     0.222 C 
ATOM     16  O   UNL     1       1.216  -2.471  -2.760  1.00  0.00    -0.275 OA
ATOM     17  H   UNL     1       0.152  -0.319  -2.884  1.00  0.00     0.163 HD
BRANCH  15  18
ATOM     18  C   UNL     1      -0.073  -2.925  -0.801  1.00  0.00     0.128 C 
BRANCH  18  19
ATOM     19  C   UNL     1       0.970  -3.046   0.295  1.00  0.00     0.169 C 
BRANCH  19  20
ATOM     20  O   UNL     1       0.812  -1.958   1.202  1.00  0.00    -0.384 OA
ATOM     21  C   UNL     1       2.061  -1.471   1.673  1.00  0.00     0.194 C 
ENDBRANCH  19  20
ENDBRANCH  18  19
ENDBRANCH  15  18
ENDBRANCH  13  14
ENDBRANCH   9  13
ENDBRANCH   6   8
ENDBRANCH   5   6
ENDBRANCH   4   5
ENDBRANCH   3   4
ENDBRANCH   2   3
ENDBRANCH   1   2
BRANCH   1  22
ATOM     22  C   UNL     1       4.569   5.075  -0.075  1.00  0.00     0.188 C 
BRANCH  22  23
ATOM     23  O   UNL     1       5.688   5.469  -0.845  1.00  0.00    -0.376 OA
BRANCH  23  24
ATOM     24  C   UNL     1       6.633   6.386  -0.331  1.00  0.00     0.202 C 
BRANCH  24  25
ATOM     25  C   UNL     1       6.187   7.749   0.212  1.00  0.00     0.261 C 
BRANCH  25  26
ATOM     26  O   UNL     1       5.091   7.715   1.132  1.00  0.00    -0.460 OA
BRANCH  26  27
ATOM     27  C   UNL     1       3.912   8.174   0.637  1.00  0.00     0.338 C 
ATOM     28  O   UNL     1       3.699   8.577  -0.491  1.00  0.00    -0.246 OA
BRANCH  27  29
ATOM     29  C   UNL     1       2.845   7.949   1.635  1.00  0.00     0.060 A 
ATOM     30  C   UNL     1       1.695   7.255   1.236  1.00  0.00     0.016 A 
ATOM     31  C   UNL     1       2.953   8.457   2.930  1.00  0.00     0.016 A 
ATOM     32  C   UNL     1       0.631   7.096   2.125  1.00  0.00     0.010 A 
ATOM     33  C   UNL     1       1.878   8.315   3.813  1.00  0.00     0.010 A 
ATOM     34  C   UNL     1       0.702   7.661   3.405  1.00  0.00    -0.014 A 
BRANCH  34  35
ATOM     35  C   UNL     1      -0.518   7.748   4.246  1.00  0.00     0.031 A 
ATOM     36  C   UNL     1      -1.335   9.011   4.190  1.00  0.00     0.074 A 
ATOM     37  C   UNL     1      -0.900   6.732   5.039  1.00  0.00     0.049 A 
ATOM     38  N   UNL     1      -2.393   9.351   4.879  1.00  0.00    -0.248 NA
ATOM     39  C   UNL     1      -0.889  10.027   3.224  1.00  0.00     0.031 C 
ATOM     40  C   UNL     1      -0.226   5.439   5.141  1.00  0.00     0.029 A 
ATOM     41  N   UNL     1      -1.949   6.636   5.919  1.00  0.00    -0.354 N 
ATOM     42  C   UNL     1      -2.744  10.620   4.430  1.00  0.00     0.074 A 
ATOM     43  C   UNL     1      -1.759  11.001   3.438  1.00  0.00     0.031 C 
ATOM     44  C   UNL     1      -0.873   4.683   6.047  1.00  0.00     0.029 A 
ATOM     45  C   UNL     1      -1.980   5.451   6.615  1.00  0.00     0.049 A 
ATOM     46  H   UNL     1      -2.617   7.350   6.040  1.00  0.00     0.167 HD
ATOM     47  C   UNL     1      -3.794  11.394   4.802  1.00  0.00     0.034 A 
ATOM     48  C   UNL     1      -2.790   5.049   7.616  1.00  0.00     0.034 A 
ATOM     49  C   UNL     1      -4.749  11.019   5.815  1.00  0.00     0.049 A 
ATOM     50  C   UNL     1      -3.879   5.978   8.103  1.00  0.00     0.074 A 
ATOM     51  C   UNL     1      -5.844  11.730   6.274  1.00  0.00     0.029 A 
ATOM     52  N   UNL     1      -4.713   9.836   6.542  1.00  0.00    -0.354 N 
ATOM     53  N   UNL     1      -4.203   7.175   7.671  1.00  0.00    -0.248 NA
ATOM     54  C   UNL     1      -4.713   5.496   9.214  1.00  0.00     0.031 C 
ATOM     55  C   UNL     1      -6.427  11.009   7.324  1.00  0.00     0.029 A 
ATOM     56  C   UNL     1      -5.745   9.812   7.468  1.00  0.00     0.049 A 
ATOM     57  H   UNL     1      -4.051   9.118   6.417  1.00  0.00     0.167 HD
ATOM     58  C   UNL     1      -5.301   7.571   8.434  1.00  0.00     0.074 A 
ATOM     59  C   UNL     1      -5.586   6.483   9.346  1.00  0.00     0.031 C 
ATOM     60  C   UNL     1      -6.015   8.725   8.380  1.00  0.00     0.034 A 
BRANCH  47  61
ATOM     61  C   UNL     1      -3.914  12.745   4.142  1.00  0.00     0.023 A 
ATOM     62  C   UNL     1      -4.138  12.872   2.759  1.00  0.00     0.031 A 
ATOM     63  C   UNL     1      -3.744  13.921   4.892  1.00  0.00     0.131 A 
ATOM     64  C   UNL     1      -4.105  14.139   2.158  1.00  0.00     0.055 A 
ATOM     65  C   UNL     1      -3.794  15.185   4.300  1.00  0.00     0.041 A 
ATOM     66  F   UNL     1      -3.502  13.862   6.211  1.00  0.00    -0.206 F 
ATOM     67  C   UNL     1      -3.958  15.299   2.923  1.00  0.00     0.022 A 
BRANCH  64  68
ATOM     68  S   UNL     1      -4.091  14.237   0.347  1.00  0.00     0.124 S 
ATOM     69  O   UNL     1      -2.915  13.436   0.017  1.00  0.00    -0.237 OA
ATOM     70  O   UNL     1      -5.380  13.656  -0.010  1.00  0.00    -0.237 OA
ATOM     71  O   UNL     1      -3.955  15.668   0.082  1.00  0.00    -0.744 OA
ENDBRANCH  64  68
ENDBRANCH  47  61
BRANCH  48  72
ATOM     72  C   UNL     1      -2.589   3.723   8.269  1.00  0.00     0.023 A 
ATOM     73  C   UNL     1      -3.579   2.729   8.207  1.00  0.00     0.031 A 
ATOM     74  C   UNL     1      -1.435   3.459   9.027  1.00  0.00     0.131 A 
ATOM     75  C   UNL     1      -3.418   1.537   8.931  1.00  0.00     0.055 A 
ATOM     76  C   UNL     1      -1.256   2.251   9.702  1.00  0.00     0.041 A 
ATOM     77  F   UNL     1      -0.461   4.379   9.124  1.00  0.00    -0.206 F 
ATOM     78  C   UNL     1      -2.258   1.286   9.667  1.00  0.00     0.022 A 
BRANCH  75  79
ATOM     79  S   UNL     1      -4.791   0.352   8.968  1.00  0.00     0.124 S 
ATOM     80  O   UNL     1      -5.859   1.155   9.552  1.00  0.00    -0.237 OA
ATOM     81  O   UNL     1      -4.939   0.016   7.556  1.00  0.00    -0.237 OA
ATOM     82  O   UNL     1      -4.286  -0.727   9.814  1.00  0.00    -0.744 OA
ENDBRANCH  75  79
ENDBRANCH  48  72
BRANCH  60  83
ATOM     83  C   UNL     1      -7.209   8.842   9.297  1.00  0.00     0.023 A 
ATOM     84  C   UNL     1      -7.071   8.925  10.694  1.00  0.00     0.031 A 
ATOM     85  C   UNL     1      -8.509   8.864   8.760  1.00  0.00     0.131 A 
ATOM     86  C   UNL     1      -8.214   8.974  11.508  1.00  0.00     0.055 A 
ATOM     87  C   UNL     1      -9.640   8.970   9.571  1.00  0.00     0.041 A 
ATOM     88  F   UNL     1      -8.701   8.786   7.433  1.00  0.00    -0.206 F 
ATOM     89  C   UNL     1      -9.496   9.013  10.954  1.00  0.00     0.022 A 
BRANCH  86  90
ATOM     90  S   UNL     1      -8.008   8.901  13.309  1.00  0.00     0.124 S 
ATOM     91  O   UNL     1      -7.301   7.636  13.484  1.00  0.00    -0.237 OA
ATOM     92  O   UNL     1      -7.234  10.107  13.584  1.00  0.00    -0.237 OA
ATOM     93  O   UNL     1      -9.380   8.918  13.813  1.00  0.00    -0.744 OA
ENDBRANCH  86  90
ENDBRANCH  60  83
ENDBRANCH  34  35
ENDBRANCH  27  29
ENDBRANCH  26  27
ENDBRANCH  25  26
ENDBRANCH  24  25
ENDBRANCH  23  24
ENDBRANCH  22  23
ENDBRANCH   1  22
TORSDOF 25
