REMARK SMILES COc1cccc(-c2c([C@H]3c4ccccc4C(=O)N3CC(=O)OCCOCCOCCOC(=O)c3ccc(-c4c5nc(c(-c6cc(S(=O)(=O)[O-])ccc6F)c6ccc([nH]6)c(-c6cc(S(=O)(=O)[O-])ccc6F)c6nc(c(-c7cc(S(=O)(=O)[O-])ccc7F)c7ccc4[nH]7)C=C6)C=C5)cc3)c3ccccc3n2C)c1
REMARK SMILES IDX 27 1 26 2 25 3 24 4 23 5 21 6 22 7 20 8 19 9 10 10 11 11
REMARK SMILES IDX 12 12 16 13 17 14 13 15 15 16 18 17 14 18 9 19 8 20 104 21
REMARK SMILES IDX 98 22 103 23 105 24 99 25 102 26 100 27 101 28 7 29 3 30
REMARK SMILES IDX 4 31 106 32 5 33 6 34 2 35 1 36 28 37 29 38 30 39 31 40
REMARK SMILES IDX 32 41 33 42 34 43 35 44 36 45 97 46 37 47 96 48 38 49 39 50
REMARK SMILES IDX 40 51 90 52 41 53 95 54 89 55 91 56 42 57 94 58 88 59 87 60
REMARK SMILES IDX 43 62 75 63 55 64 74 65 56 66 59 67 73 68 92 69 57 70 58 71
REMARK SMILES IDX 72 73 93 74 60 75 44 76 45 77 53 78 46 79 52 80 54 81 51 82
REMARK SMILES IDX 47 83 48 84 49 85 50 86 76 87 77 88 85 89 78 90 84 91 86 92
REMARK SMILES IDX 83 93 79 94 80 95 81 96 82 97 61 98 62 99 70 100 63 101
REMARK SMILES IDX 69 102 71 103 68 104 64 105 65 106 66 107 67 108
REMARK H PARENT 91 61 59 72
REMARK Flexibility Score: inf
ROOT
ATOM      1  C   UNL     1       7.805  -1.343  -1.245  1.00  0.00     0.188 C 
ENDROOT
BRANCH   1   2
ATOM      2  O   UNL     1       8.767  -2.195  -0.648  1.00  0.00    -0.376 OA
BRANCH   2   3
ATOM      3  C   UNL     1       8.678  -2.502   0.738  1.00  0.00     0.202 C 
BRANCH   3   4
ATOM      4  C   UNL     1       8.483  -1.388   1.772  1.00  0.00     0.261 C 
BRANCH   4   5
ATOM      5  O   UNL     1       7.331  -0.581   1.509  1.00  0.00    -0.462 OA
BRANCH   5   6
ATOM      6  C   UNL     1       7.561   0.741   1.376  1.00  0.00     0.325 C 
ATOM      7  O   UNL     1       8.641   1.292   1.576  1.00  0.00    -0.250 OA
BRANCH   6   8
ATOM      8  C   UNL     1       6.409   1.494   0.735  1.00  0.00     0.243 C 
BRANCH   8   9
ATOM      9  N   UNL     1       5.025   0.999   0.650  1.00  0.00    -0.316 N 
ATOM     10  C   UNL     1       4.192   1.716  -0.306  1.00  0.00     0.150 C 
ATOM     11  C   UNL     1       3.621   2.760   0.621  1.00  0.00    -0.008 A 
ATOM     12  C   UNL     1       3.884   4.126   0.548  1.00  0.00     0.007 A 
ATOM     13  C   UNL     1       3.457   2.179   1.885  1.00  0.00     0.045 A 
ATOM     14  C   UNL     1       4.362   1.001   1.893  1.00  0.00     0.255 C 
ATOM     15  C   UNL     1       3.908   4.867   1.740  1.00  0.00     0.000 A 
ATOM     16  C   UNL     1       3.308   2.916   3.050  1.00  0.00     0.014 A 
ATOM     17  O   UNL     1       4.671   0.385   2.897  1.00  0.00    -0.269 OA
ATOM     18  C   UNL     1       3.577   4.278   2.972  1.00  0.00     0.001 A 
BRANCH  10  19
ATOM     19  C   UNL     1       3.032   0.929  -0.926  1.00  0.00     0.013 A 
ATOM     20  C   UNL     1       2.319   1.333  -2.078  1.00  0.00     0.055 A 
ATOM     21  N   UNL     1       1.232   0.485  -2.197  1.00  0.00    -0.343 N 
ATOM     22  C   UNL     1       2.501  -0.378  -0.583  1.00  0.00     0.006 A 
ATOM     23  C   UNL     1       1.440  -0.654  -1.452  1.00  0.00     0.049 A 
ATOM     24  C   UNL     1       0.003   0.743  -2.922  1.00  0.00     0.150 C 
ATOM     25  C   UNL     1       2.820  -1.381   0.361  1.00  0.00     0.011 A 
ATOM     26  C   UNL     1       0.757  -1.888  -1.456  1.00  0.00     0.027 A 
ATOM     27  C   UNL     1       2.118  -2.594   0.396  1.00  0.00     0.001 A 
ATOM     28  C   UNL     1       1.116  -2.855  -0.522  1.00  0.00     0.002 A 
BRANCH  20  29
ATOM     29  C   UNL     1       2.644   2.446  -2.991  1.00  0.00     0.002 A 
ATOM     30  C   UNL     1       4.422   3.728  -4.060  1.00  0.00     0.119 A 
ATOM     31  C   UNL     1       3.506   4.737  -4.347  1.00  0.00     0.046 A 
ATOM     32  C   UNL     1       3.969   2.557  -3.457  1.00  0.00     0.056 A 
ATOM     33  C   UNL     1       2.159   4.584  -4.021  1.00  0.00     0.005 A 
ATOM     34  C   UNL     1       1.735   3.455  -3.318  1.00  0.00     0.010 A 
BRANCH  30  35
ATOM     35  O   UNL     1       5.723   4.047  -4.326  1.00  0.00    -0.497 OA
ATOM     36  C   UNL     1       6.686   3.003  -4.308  1.00  0.00     0.278 C 
ENDBRANCH  30  35
ENDBRANCH  20  29
ENDBRANCH  10  19
ENDBRANCH   8   9
ENDBRANCH   6   8
ENDBRANCH   5   6
ENDBRANCH   4   5
ENDBRANCH   3   4
ENDBRANCH   2   3
ENDBRANCH   1   2
BRANCH   1  37
ATOM     37  C   UNL     1       6.296  -1.589  -1.057  1.00  0.00     0.188 C 
BRANCH  37  38
ATOM     38  O   UNL     1       5.870  -2.372   0.026  1.00  0.00    -0.376 OA
BRANCH  38  39
ATOM     39  C   UNL     1       5.574  -3.748  -0.117  1.00  0.00     0.202 C 
BRANCH  39  40
ATOM     40  C   UNL     1       5.481  -4.525  -1.440  1.00  0.00     0.261 C 
BRANCH  40  41
ATOM     41  O   UNL     1       6.150  -3.980  -2.576  1.00  0.00    -0.460 OA
BRANCH  41  42
ATOM     42  C   UNL     1       5.327  -3.494  -3.540  1.00  0.00     0.338 C 
ATOM     43  O   UNL     1       4.102  -3.480  -3.539  1.00  0.00    -0.246 OA
BRANCH  42  44
ATOM     44  C   UNL     1       6.144  -2.798  -4.543  1.00  0.00     0.060 A 
ATOM     45  C   UNL     1       6.031  -1.408  -4.675  1.00  0.00     0.016 A 
ATOM     46  C   UNL     1       6.993  -3.530  -5.371  1.00  0.00     0.016 A 
ATOM     47  C   UNL     1       6.777  -0.745  -5.647  1.00  0.00     0.010 A 
ATOM     48  C   UNL     1       7.723  -2.863  -6.355  1.00  0.00     0.010 A 
ATOM     49  C   UNL     1       7.609  -1.470  -6.507  1.00  0.00    -0.014 A 
BRANCH  49  50
ATOM     50  C   UNL     1       8.234  -0.815  -7.681  1.00  0.00     0.031 A 
ATOM     51  C   UNL     1       7.585  -1.000  -9.023  1.00  0.00     0.074 A 
ATOM     52  C   UNL     1       9.365  -0.096  -7.565  1.00  0.00     0.049 A 
ATOM     53  N   UNL     1       8.037  -0.705 -10.212  1.00  0.00    -0.248 NA
ATOM     54  C   UNL     1       6.247  -1.612  -9.016  1.00  0.00     0.031 C 
ATOM     55  C   UNL     1      10.041   0.220  -6.308  1.00  0.00     0.029 A 
ATOM     56  N   UNL     1      10.160   0.476  -8.528  1.00  0.00    -0.354 N 
ATOM     57  C   UNL     1       7.052  -1.120 -11.101  1.00  0.00     0.074 A 
ATOM     58  C   UNL     1       5.987  -1.701 -10.311  1.00  0.00     0.031 C 
ATOM     59  C   UNL     1      11.165   0.906  -6.580  1.00  0.00     0.029 A 
ATOM     60  C   UNL     1      11.322   1.019  -8.030  1.00  0.00     0.049 A 
ATOM     61  H   UNL     1       9.921   0.495  -9.483  1.00  0.00     0.167 HD
ATOM     62  C   UNL     1       7.045  -1.029 -12.453  1.00  0.00     0.034 A 
ATOM     63  C   UNL     1      12.408   1.499  -8.673  1.00  0.00     0.034 A 
ATOM     64  C   UNL     1       8.123  -0.455 -13.220  1.00  0.00     0.049 A 
ATOM     65  C   UNL     1      12.428   1.487 -10.187  1.00  0.00     0.074 A 
ATOM     66  C   UNL     1       8.216  -0.305 -14.592  1.00  0.00     0.029 A 
ATOM     67  N   UNL     1       9.300   0.051 -12.684  1.00  0.00    -0.354 N 
ATOM     68  N   UNL     1      11.503   1.075 -11.024  1.00  0.00    -0.248 NA
ATOM     69  C   UNL     1      13.638   2.003 -10.842  1.00  0.00     0.031 C 
ATOM     70  C   UNL     1       9.481   0.210 -14.891  1.00  0.00     0.029 A 
ATOM     71  C   UNL     1      10.141   0.476 -13.701  1.00  0.00     0.049 A 
ATOM     72  H   UNL     1       9.508   0.100 -11.723  1.00  0.00     0.167 HD
ATOM     73  C   UNL     1      12.007   1.320 -12.300  1.00  0.00     0.074 A 
ATOM     74  C   UNL     1      13.311   1.921 -12.123  1.00  0.00     0.031 C 
ATOM     75  C   UNL     1      11.440   1.078 -13.510  1.00  0.00     0.034 A 
BRANCH  62  76
ATOM     76  C   UNL     1       5.870  -1.627 -13.186  1.00  0.00     0.023 A 
ATOM     77  C   UNL     1       4.566  -1.126 -13.038  1.00  0.00     0.031 A 
ATOM     78  C   UNL     1       6.059  -2.733 -14.034  1.00  0.00     0.131 A 
ATOM     79  C   UNL     1       3.494  -1.768 -13.678  1.00  0.00     0.055 A 
ATOM     80  C   UNL     1       5.001  -3.316 -14.732  1.00  0.00     0.041 A 
ATOM     81  F   UNL     1       7.278  -3.274 -14.190  1.00  0.00    -0.206 F 
ATOM     82  C   UNL     1       3.707  -2.841 -14.546  1.00  0.00     0.022 A 
BRANCH  79  83
ATOM     83  S   UNL     1       1.804  -1.268 -13.250  1.00  0.00     0.124 S 
ATOM     84  O   UNL     1       1.781  -1.507 -11.808  1.00  0.00    -0.237 OA
ATOM     85  O   UNL     1       1.772   0.129 -13.666  1.00  0.00    -0.237 OA
ATOM     86  O   UNL     1       0.969  -2.174 -14.036  1.00  0.00    -0.744 OA
ENDBRANCH  79  83
ENDBRANCH  62  76
BRANCH  63  87
ATOM     87  C   UNL     1      13.604   1.965  -7.908  1.00  0.00     0.023 A 
ATOM     88  C   UNL     1      14.069   3.284  -8.021  1.00  0.00     0.031 A 
ATOM     89  C   UNL     1      14.348   1.073  -7.114  1.00  0.00     0.131 A 
ATOM     90  C   UNL     1      15.272   3.660  -7.400  1.00  0.00     0.055 A 
ATOM     91  C   UNL     1      15.507   1.469  -6.443  1.00  0.00     0.041 A 
ATOM     92  F   UNL     1      13.959  -0.205  -6.978  1.00  0.00    -0.206 F 
ATOM     93  C   UNL     1      15.984   2.766  -6.598  1.00  0.00     0.022 A 
BRANCH  90  94
ATOM     94  S   UNL     1      15.954   5.304  -7.751  1.00  0.00     0.124 S 
ATOM     95  O   UNL     1      16.084   5.264  -9.203  1.00  0.00    -0.237 OA
ATOM     96  O   UNL     1      14.914   6.181  -7.223  1.00  0.00    -0.237 OA
ATOM     97  O   UNL     1      17.213   5.315  -7.011  1.00  0.00    -0.744 OA
ENDBRANCH  90  94
ENDBRANCH  63  87
BRANCH  75  98
ATOM     98  C   UNL     1      12.194   1.530 -14.740  1.00  0.00     0.023 A 
ATOM     99  C   UNL     1      13.412   0.948 -15.129  1.00  0.00     0.031 A 
ATOM    100  C   UNL     1      11.664   2.554 -15.547  1.00  0.00     0.131 A 
ATOM    101  C   UNL     1      14.082   1.423 -16.267  1.00  0.00     0.055 A 
ATOM    102  C   UNL     1      12.302   2.978 -16.714  1.00  0.00     0.041 A 
ATOM    103  F   UNL     1      10.506   3.151 -15.223  1.00  0.00    -0.206 F 
ATOM    104  C   UNL     1      13.524   2.419 -17.074  1.00  0.00     0.022 A 
BRANCH 101 105
ATOM    105  S   UNL     1      15.737   0.781 -16.641  1.00  0.00     0.124 S 
ATOM    106  O   UNL     1      16.476   1.128 -15.431  1.00  0.00    -0.237 OA
ATOM    107  O   UNL     1      15.482  -0.641 -16.847  1.00  0.00    -0.237 OA
ATOM    108  O   UNL     1      16.129   1.519 -17.840  1.00  0.00    -0.744 OA
ENDBRANCH 101 105
ENDBRANCH  75  98
ENDBRANCH  49  50
ENDBRANCH  42  44
ENDBRANCH  41  42
ENDBRANCH  40  41
ENDBRANCH  39  40
ENDBRANCH  38  39
ENDBRANCH  37  38
ENDBRANCH   1  37
TORSDOF 24
