REMARK SMILES O=C(OCCOCCOCCOC(=O)[C@@]1(CCc2ccccc2)CCC[N@@H+](Cc2cccnc2)C1)c1ccc(-c2c3nc(c(-c4cc(S(=O)(=O)[O-])ccc4F)c4ccc([nH]4)c(-c4cc(S(=O)(=O)[O-])ccc4F)c4nc(c(-c5cc(S(=O)(=O)[O-])ccc5F)c5ccc2[nH]5)C=C4)C=C3)cc1
REMARK SMILES IDX 7 1 6 2 5 3 4 4 3 5 2 6 1 7 36 8 37 9 98 10 38 11 97 12
REMARK SMILES IDX 39 13 40 14 41 15 91 16 42 17 96 18 90 19 92 20 43 21 95 22
REMARK SMILES IDX 89 23 88 24 44 26 76 27 56 28 75 29 57 30 60 31 74 32 93 33
REMARK SMILES IDX 58 34 59 35 73 37 94 38 61 39 45 40 46 41 54 42 47 43 53 44
REMARK SMILES IDX 55 45 52 46 48 47 49 48 50 49 51 50 77 51 78 52 86 53 79 54
REMARK SMILES IDX 85 55 87 56 84 57 80 58 81 59 82 60 83 61 62 62 63 63 71 64
REMARK SMILES IDX 64 65 70 66 72 67 69 68 65 69 66 70 67 71 68 72 8 73 9 74
REMARK SMILES IDX 10 75 11 76 12 77 13 78 14 79 15 80 24 81 35 82 25 83 27 84
REMARK SMILES IDX 26 85 16 87 17 88 18 89 19 90 23 91 20 92 22 93 21 94 28 95
REMARK SMILES IDX 29 96 30 97 34 98 31 99 33 100 32 101
REMARK H PARENT 92 25 60 36 27 86
REMARK Flexibility Score: inf
ROOT
ATOM      1  C   UNL     1      -1.492   4.235   2.022  1.00  0.00     0.188 C 
ENDROOT
BRANCH   1   2
ATOM      2  O   UNL     1      -1.126   5.529   1.548  1.00  0.00    -0.376 OA
BRANCH   2   3
ATOM      3  C   UNL     1      -2.118   6.105   0.691  1.00  0.00     0.202 C 
BRANCH   3   4
ATOM      4  C   UNL     1      -2.148   5.542  -0.740  1.00  0.00     0.261 C 
BRANCH   4   5
ATOM      5  O   UNL     1      -1.994   4.114  -0.756  1.00  0.00    -0.460 OA
BRANCH   5   6
ATOM      6  C   UNL     1      -0.997   3.436  -1.385  1.00  0.00     0.338 C 
ATOM      7  O   UNL     1      -1.266   2.362  -1.904  1.00  0.00    -0.246 OA
BRANCH   6   8
ATOM      8  C   UNL     1       0.435   3.908  -1.367  1.00  0.00     0.060 A 
ATOM      9  C   UNL     1       0.898   5.116  -0.842  1.00  0.00     0.016 A 
ATOM     10  C   UNL     1       1.390   3.046  -1.932  1.00  0.00     0.016 A 
ATOM     11  C   UNL     1       2.228   5.517  -0.988  1.00  0.00     0.010 A 
ATOM     12  C   UNL     1       2.743   3.407  -2.012  1.00  0.00     0.010 A 
ATOM     13  C   UNL     1       3.158   4.679  -1.597  1.00  0.00    -0.014 A 
BRANCH  13  14
ATOM     14  C   UNL     1       4.483   5.227  -1.985  1.00  0.00     0.031 A 
ATOM     15  C   UNL     1       4.739   5.458  -3.448  1.00  0.00     0.074 A 
ATOM     16  C   UNL     1       5.388   5.614  -1.064  1.00  0.00     0.049 A 
ATOM     17  N   UNL     1       5.795   5.949  -4.040  1.00  0.00    -0.248 NA
ATOM     18  C   UNL     1       3.644   5.106  -4.367  1.00  0.00     0.031 C 
ATOM     19  C   UNL     1       5.191   5.552   0.381  1.00  0.00     0.029 A 
ATOM     20  N   UNL     1       6.644   6.149  -1.194  1.00  0.00    -0.354 N 
ATOM     21  C   UNL     1       5.478   5.987  -5.393  1.00  0.00     0.074 A 
ATOM     22  C   UNL     1       4.176   5.379  -5.544  1.00  0.00     0.031 C 
ATOM     23  C   UNL     1       6.297   5.982   1.009  1.00  0.00     0.029 A 
ATOM     24  C   UNL     1       7.284   6.365   0.007  1.00  0.00     0.049 A 
ATOM     25  H   UNL     1       7.051   6.359  -2.066  1.00  0.00     0.167 HD
ATOM     26  C   UNL     1       6.184   6.527  -6.414  1.00  0.00     0.034 A 
ATOM     27  C   UNL     1       8.522   6.829   0.267  1.00  0.00     0.034 A 
ATOM     28  C   UNL     1       7.488   7.109  -6.246  1.00  0.00     0.049 A 
ATOM     29  C   UNL     1       9.358   7.286  -0.902  1.00  0.00     0.074 A 
ATOM     30  C   UNL     1       8.341   7.620  -7.205  1.00  0.00     0.029 A 
ATOM     31  N   UNL     1       8.132   7.250  -5.021  1.00  0.00    -0.354 N 
ATOM     32  N   UNL     1       9.047   7.301  -2.179  1.00  0.00    -0.248 NA
ATOM     33  C   UNL     1      10.690   7.819  -0.598  1.00  0.00     0.031 C 
ATOM     34  C   UNL     1       9.521   8.021  -6.567  1.00  0.00     0.029 A 
ATOM     35  C   UNL     1       9.379   7.822  -5.202  1.00  0.00     0.049 A 
ATOM     36  H   UNL     1       7.755   6.982  -4.152  1.00  0.00     0.167 HD
ATOM     37  C   UNL     1      10.129   7.890  -2.825  1.00  0.00     0.074 A 
ATOM     38  C   UNL     1      11.092   8.222  -1.794  1.00  0.00     0.031 C 
ATOM     39  C   UNL     1      10.312   8.142  -4.147  1.00  0.00     0.034 A 
BRANCH  26  40
ATOM     40  C   UNL     1       5.547   6.453  -7.780  1.00  0.00     0.023 A 
ATOM     41  C   UNL     1       4.333   7.113  -8.054  1.00  0.00     0.031 A 
ATOM     42  C   UNL     1       6.082   5.617  -8.773  1.00  0.00     0.131 A 
ATOM     43  C   UNL     1       3.643   6.842  -9.244  1.00  0.00     0.055 A 
ATOM     44  C   UNL     1       5.433   5.421  -9.994  1.00  0.00     0.041 A 
ATOM     45  F   UNL     1       7.220   4.939  -8.556  1.00  0.00    -0.206 F 
ATOM     46  C   UNL     1       4.196   6.018 -10.227  1.00  0.00     0.022 A 
BRANCH  43  47
ATOM     47  S   UNL     1       1.935   7.432  -9.408  1.00  0.00     0.124 S 
ATOM     48  O   UNL     1       1.278   6.745  -8.297  1.00  0.00    -0.237 OA
ATOM     49  O   UNL     1       2.082   8.876  -9.267  1.00  0.00    -0.237 OA
ATOM     50  O   UNL     1       1.539   6.972 -10.737  1.00  0.00    -0.744 OA
ENDBRANCH  43  47
ENDBRANCH  26  40
BRANCH  27  51
ATOM     51  C   UNL     1       9.049   6.882   1.665  1.00  0.00     0.023 A 
ATOM     52  C   UNL     1       9.422   8.095   2.266  1.00  0.00     0.031 A 
ATOM     53  C   UNL     1       9.253   5.699   2.399  1.00  0.00     0.131 A 
ATOM     54  C   UNL     1      10.032   8.094   3.533  1.00  0.00     0.055 A 
ATOM     55  C   UNL     1       9.814   5.707   3.679  1.00  0.00     0.041 A 
ATOM     56  F   UNL     1       8.910   4.509   1.880  1.00  0.00    -0.206 F 
ATOM     57  C   UNL     1      10.223   6.909   4.246  1.00  0.00     0.022 A 
BRANCH  54  58
ATOM     58  S   UNL     1      10.669   9.660   4.195  1.00  0.00     0.124 S 
ATOM     59  O   UNL     1      11.525  10.118   3.106  1.00  0.00    -0.237 OA
ATOM     60  O   UNL     1       9.440  10.417   4.408  1.00  0.00    -0.237 OA
ATOM     61  O   UNL     1      11.370   9.254   5.412  1.00  0.00    -0.744 OA
ENDBRANCH  54  58
ENDBRANCH  27  51
BRANCH  39  62
ATOM     62  C   UNL     1      11.582   8.853  -4.528  1.00  0.00     0.023 A 
ATOM     63  C   UNL     1      12.837   8.235  -4.400  1.00  0.00     0.031 A 
ATOM     64  C   UNL     1      11.533  10.169  -5.020  1.00  0.00     0.131 A 
ATOM     65  C   UNL     1      14.000   8.954  -4.704  1.00  0.00     0.055 A 
ATOM     66  C   UNL     1      12.690  10.858  -5.380  1.00  0.00     0.041 A 
ATOM     67  F   UNL     1      10.358  10.803  -5.161  1.00  0.00    -0.206 F 
ATOM     68  C   UNL     1      13.934  10.256  -5.210  1.00  0.00     0.022 A 
BRANCH  65  69
ATOM     69  S   UNL     1      15.606   8.195  -4.346  1.00  0.00     0.124 S 
ATOM     70  O   UNL     1      15.519   7.969  -2.906  1.00  0.00    -0.237 OA
ATOM     71  O   UNL     1      15.578   6.998  -5.181  1.00  0.00    -0.237 OA
ATOM     72  O   UNL     1      16.567   9.216  -4.758  1.00  0.00    -0.744 OA
ENDBRANCH  65  69
ENDBRANCH  39  62
ENDBRANCH  13  14
ENDBRANCH   6   8
ENDBRANCH   5   6
ENDBRANCH   4   5
ENDBRANCH   3   4
ENDBRANCH   2   3
ENDBRANCH   1   2
BRANCH   1  73
ATOM     73  C   UNL     1      -1.206   3.966   3.506  1.00  0.00     0.188 C 
BRANCH  73  74
ATOM     74  O   UNL     1      -1.469   5.003   4.440  1.00  0.00    -0.376 OA
BRANCH  74  75
ATOM     75  C   UNL     1      -0.679   6.184   4.316  1.00  0.00     0.202 C 
BRANCH  75  76
ATOM     76  C   UNL     1       0.846   6.093   4.530  1.00  0.00     0.261 C 
BRANCH  76  77
ATOM     77  O   UNL     1       1.532   5.027   3.839  1.00  0.00    -0.463 OA
BRANCH  77  78
ATOM     78  C   UNL     1       2.178   4.123   4.631  1.00  0.00     0.317 C 
ATOM     79  O   UNL     1       2.144   4.163   5.859  1.00  0.00    -0.251 OA
BRANCH  78  80
ATOM     80  C   UNL     1       2.939   3.006   3.868  1.00  0.00     0.117 C 
ATOM     81  C   UNL     1       4.420   3.105   4.343  1.00  0.00     0.030 C 
ATOM     82  C   UNL     1       2.372   1.683   4.415  1.00  0.00     0.281 C 
ATOM     83  C   UNL     1       5.234   1.835   4.085  1.00  0.00     0.063 C 
ATOM     84  N   UNL     1       3.156   0.538   3.965  1.00  0.00    -0.330 N 
ATOM     85  C   UNL     1       4.503   0.554   4.520  1.00  0.00     0.262 C 
ATOM     86  H   UNL     1       3.273   0.671   2.961  1.00  0.00     0.348 HD
BRANCH  80  87
ATOM     87  C   UNL     1       2.832   3.139   2.307  1.00  0.00     0.029 C 
BRANCH  87  88
ATOM     88  C   UNL     1       2.983   1.922   1.355  1.00  0.00     0.037 C 
BRANCH  88  89
ATOM     89  C   UNL     1       1.759   1.110   0.968  1.00  0.00    -0.048 A 
ATOM     90  C   UNL     1       0.512   1.257   1.577  1.00  0.00     0.004 A 
ATOM     91  C   UNL     1       1.864   0.155  -0.055  1.00  0.00     0.004 A 
ATOM     92  C   UNL     1      -0.593   0.489   1.205  1.00  0.00     0.000 A 
ATOM     93  C   UNL     1       0.756  -0.605  -0.451  1.00  0.00     0.000 A 
ATOM     94  C   UNL     1      -0.472  -0.441   0.183  1.00  0.00     0.000 A 
ENDBRANCH  88  89
ENDBRANCH  87  88
ENDBRANCH  80  87
BRANCH  84  95
ATOM     95  C   UNL     1       2.477  -0.755   3.934  1.00  0.00     0.300 C 
BRANCH  95  96
ATOM     96  C   UNL     1       1.684  -1.148   5.148  1.00  0.00     0.025 A 
ATOM     97  C   UNL     1       0.405  -0.630   5.391  1.00  0.00     0.013 A 
ATOM     98  C   UNL     1       2.175  -2.074   6.058  1.00  0.00     0.120 A 
ATOM     99  C   UNL     1      -0.292  -1.000   6.533  1.00  0.00     0.021 A 
ATOM    100  N   UNL     1       1.508  -2.480   7.163  1.00  0.00    -0.264 NA
ATOM    101  C   UNL     1       0.297  -1.921   7.380  1.00  0.00     0.111 A 
ENDBRANCH  95  96
ENDBRANCH  84  95
ENDBRANCH  78  80
ENDBRANCH  77  78
ENDBRANCH  76  77
ENDBRANCH  75  76
ENDBRANCH  74  75
ENDBRANCH  73  74
ENDBRANCH   1  73
TORSDOF 25
