REMARK SMILES O=C(OCCOCCOCCOC(=O)c1ccc([C@@H]2CC(O)=Nc3c2ncn3-c2cccc(Cl)c2)cc1)c1ccc(-c2c3nc(c(-c4cc(S(=O)(=O)[O-])ccc4F)c4ccc([nH]4)c(-c4cc(S(=O)(=O)[O-])ccc4F)c4nc(c(-c5cc(S(=O)(=O)[O-])ccc5F)c5ccc2[nH]5)C=C4)C=C3)cc1
REMARK SMILES IDX 7 1 6 2 5 3 4 4 3 5 2 6 1 7 38 8 39 9 100 10 40 11 99 12
REMARK SMILES IDX 41 13 42 14 43 15 93 16 44 17 98 18 92 19 94 20 45 21 97 22
REMARK SMILES IDX 91 23 90 24 46 26 78 27 58 28 77 29 59 30 62 31 76 32 95 33
REMARK SMILES IDX 60 34 61 35 75 37 96 38 63 39 47 40 48 41 56 42 49 43 55 44
REMARK SMILES IDX 57 45 54 46 50 47 51 48 52 49 53 50 79 51 80 52 88 53 81 54
REMARK SMILES IDX 87 55 89 56 86 57 82 58 83 59 84 60 85 61 64 62 65 63 73 64
REMARK SMILES IDX 66 65 72 66 74 67 71 68 67 69 68 70 69 71 70 72 8 73 9 74
REMARK SMILES IDX 10 75 11 76 12 77 13 78 14 79 15 80 16 81 37 82 17 83 36 84
REMARK SMILES IDX 18 85 19 86 20 87 25 88 21 89 24 90 26 91 23 92 28 93 27 94
REMARK SMILES IDX 22 95 29 97 30 98 35 99 31 100 33 101 32 102 34 103
REMARK H PARENT 94 25 62 36 22 96
REMARK Flexibility Score: inf
ROOT
ATOM      1  C   UNL     1       3.621   0.543  -1.605  1.00  0.00     0.188 C 
ENDROOT
BRANCH   1   2
ATOM      2  O   UNL     1       4.918  -0.019  -1.488  1.00  0.00    -0.376 OA
BRANCH   2   3
ATOM      3  C   UNL     1       5.403  -0.269  -0.183  1.00  0.00     0.202 C 
BRANCH   3   4
ATOM      4  C   UNL     1       4.701  -1.383   0.607  1.00  0.00     0.261 C 
BRANCH   4   5
ATOM      5  O   UNL     1       3.281  -1.487   0.402  1.00  0.00    -0.460 OA
BRANCH   5   6
ATOM      6  C   UNL     1       2.215  -0.927   1.002  1.00  0.00     0.338 C 
ATOM      7  O   UNL     1       1.098  -1.358   0.711  1.00  0.00    -0.246 OA
BRANCH   6   8
ATOM      8  C   UNL     1       2.284   0.244   1.916  1.00  0.00     0.060 A 
ATOM      9  C   UNL     1       3.445   0.810   2.443  1.00  0.00     0.016 A 
ATOM     10  C   UNL     1       1.040   0.799   2.281  1.00  0.00     0.016 A 
ATOM     11  C   UNL     1       3.368   1.815   3.397  1.00  0.00     0.010 A 
ATOM     12  C   UNL     1       0.957   1.809   3.226  1.00  0.00     0.010 A 
ATOM     13  C   UNL     1       2.124   2.268   3.826  1.00  0.00    -0.014 A 
BRANCH  13  14
ATOM     14  C   UNL     1       2.091   3.266   4.886  1.00  0.00     0.031 A 
ATOM     15  C   UNL     1       2.644   4.595   4.529  1.00  0.00     0.074 A 
ATOM     16  C   UNL     1       1.494   3.033   6.071  1.00  0.00     0.049 A 
ATOM     17  N   UNL     1       3.623   5.228   5.087  1.00  0.00    -0.248 NA
ATOM     18  C   UNL     1       2.118   5.252   3.324  1.00  0.00     0.031 C 
ATOM     19  C   UNL     1       0.703   1.857   6.439  1.00  0.00     0.029 A 
ATOM     20  N   UNL     1       1.357   3.855   7.151  1.00  0.00    -0.354 N 
ATOM     21  C   UNL     1       3.673   6.472   4.464  1.00  0.00     0.074 A 
ATOM     22  C   UNL     1       2.864   6.355   3.281  1.00  0.00     0.031 C 
ATOM     23  C   UNL     1      -0.021   2.141   7.542  1.00  0.00     0.029 A 
ATOM     24  C   UNL     1       0.339   3.468   8.016  1.00  0.00     0.049 A 
ATOM     25  H   UNL     1       1.924   4.645   7.304  1.00  0.00     0.167 HD
ATOM     26  C   UNL     1       4.165   7.564   5.112  1.00  0.00     0.034 A 
ATOM     27  C   UNL     1      -0.240   4.210   8.995  1.00  0.00     0.034 A 
ATOM     28  C   UNL     1       5.043   7.175   6.199  1.00  0.00     0.049 A 
ATOM     29  C   UNL     1       0.715   5.282   9.365  1.00  0.00     0.074 A 
ATOM     30  C   UNL     1       6.166   6.370   6.288  1.00  0.00     0.029 A 
ATOM     31  N   UNL     1       4.623   7.349   7.501  1.00  0.00    -0.354 N 
ATOM     32  N   UNL     1       1.859   5.058   9.951  1.00  0.00    -0.248 NA
ATOM     33  C   UNL     1       0.611   6.570   8.694  1.00  0.00     0.031 C 
ATOM     34  C   UNL     1       6.047   5.702   7.541  1.00  0.00     0.029 A 
ATOM     35  C   UNL     1       4.904   6.188   8.177  1.00  0.00     0.049 A 
ATOM     36  H   UNL     1       4.201   8.155   7.875  1.00  0.00     0.167 HD
ATOM     37  C   UNL     1       2.744   5.948   9.364  1.00  0.00     0.074 A 
ATOM     38  C   UNL     1       1.897   6.930   8.691  1.00  0.00     0.031 C 
ATOM     39  C   UNL     1       4.071   5.646   9.233  1.00  0.00     0.034 A 
BRANCH  26  40
ATOM     40  C   UNL     1       3.528   8.943   5.034  1.00  0.00     0.023 A 
ATOM     41  C   UNL     1       4.064   9.930   5.880  1.00  0.00     0.031 A 
ATOM     42  C   UNL     1       2.268   9.248   4.469  1.00  0.00     0.131 A 
ATOM     43  C   UNL     1       3.289  11.026   6.291  1.00  0.00     0.055 A 
ATOM     44  C   UNL     1       1.533  10.386   4.819  1.00  0.00     0.041 A 
ATOM     45  F   UNL     1       1.635   8.443   3.610  1.00  0.00    -0.206 F 
ATOM     46  C   UNL     1       2.019  11.257   5.776  1.00  0.00     0.022 A 
BRANCH  43  47
ATOM     47  S   UNL     1       3.891  11.995   7.696  1.00  0.00     0.124 S 
ATOM     48  O   UNL     1       4.112  10.945   8.685  1.00  0.00    -0.237 OA
ATOM     49  O   UNL     1       5.087  12.616   7.135  1.00  0.00    -0.237 OA
ATOM     50  O   UNL     1       2.785  12.906   7.977  1.00  0.00    -0.744 OA
ENDBRANCH  43  47
ENDBRANCH  26  40
BRANCH  27  51
ATOM     51  C   UNL     1      -1.668   4.179   9.412  1.00  0.00     0.023 A 
ATOM     52  C   UNL     1      -2.114   4.711  10.639  1.00  0.00     0.031 A 
ATOM     53  C   UNL     1      -2.671   3.800   8.488  1.00  0.00     0.131 A 
ATOM     54  C   UNL     1      -3.499   4.829  10.902  1.00  0.00     0.055 A 
ATOM     55  C   UNL     1      -4.036   3.897   8.762  1.00  0.00     0.041 A 
ATOM     56  F   UNL     1      -2.361   3.400   7.245  1.00  0.00    -0.206 F 
ATOM     57  C   UNL     1      -4.457   4.420   9.971  1.00  0.00     0.022 A 
BRANCH  54  58
ATOM     58  S   UNL     1      -4.081   5.632  12.430  1.00  0.00     0.124 S 
ATOM     59  O   UNL     1      -3.773   4.631  13.444  1.00  0.00    -0.237 OA
ATOM     60  O   UNL     1      -3.289   6.857  12.463  1.00  0.00    -0.237 OA
ATOM     61  O   UNL     1      -5.509   5.838  12.182  1.00  0.00    -0.744 OA
ENDBRANCH  54  58
ENDBRANCH  27  51
BRANCH  39  62
ATOM     62  C   UNL     1       4.650   4.515  10.056  1.00  0.00     0.023 A 
ATOM     63  C   UNL     1       4.149   3.194  10.077  1.00  0.00     0.031 A 
ATOM     64  C   UNL     1       5.835   4.771  10.771  1.00  0.00     0.131 A 
ATOM     65  C   UNL     1       4.819   2.197  10.811  1.00  0.00     0.055 A 
ATOM     66  C   UNL     1       6.506   3.777  11.481  1.00  0.00     0.041 A 
ATOM     67  F   UNL     1       6.384   5.998  10.765  1.00  0.00    -0.206 F 
ATOM     68  C   UNL     1       5.995   2.486  11.511  1.00  0.00     0.022 A 
BRANCH  65  69
ATOM     69  S   UNL     1       4.162   0.500  10.886  1.00  0.00     0.124 S 
ATOM     70  O   UNL     1       2.731   0.691  11.086  1.00  0.00    -0.237 OA
ATOM     71  O   UNL     1       4.561  -0.046   9.591  1.00  0.00    -0.237 OA
ATOM     72  O   UNL     1       4.864  -0.083  12.031  1.00  0.00    -0.744 OA
ENDBRANCH  65  69
ENDBRANCH  39  62
ENDBRANCH  13  14
ENDBRANCH   6   8
ENDBRANCH   5   6
ENDBRANCH   4   5
ENDBRANCH   3   4
ENDBRANCH   2   3
ENDBRANCH   1   2
BRANCH   1  73
ATOM     73  C   UNL     1       2.621  -0.369  -2.353  1.00  0.00     0.188 C 
BRANCH  73  74
ATOM     74  O   UNL     1       3.065  -1.468  -3.145  1.00  0.00    -0.376 OA
BRANCH  74  75
ATOM     75  C   UNL     1       4.327  -1.414  -3.782  1.00  0.00     0.202 C 
BRANCH  75  76
ATOM     76  C   UNL     1       4.543  -0.340  -4.854  1.00  0.00     0.261 C 
BRANCH  76  77
ATOM     77  O   UNL     1       4.128   0.988  -4.492  1.00  0.00    -0.460 OA
BRANCH  77  78
ATOM     78  C   UNL     1       3.037   1.458  -5.133  1.00  0.00     0.338 C 
ATOM     79  O   UNL     1       2.383   0.894  -6.009  1.00  0.00    -0.246 OA
BRANCH  78  80
ATOM     80  C   UNL     1       2.649   2.773  -4.599  1.00  0.00     0.060 A 
ATOM     81  C   UNL     1       1.482   2.877  -3.837  1.00  0.00     0.016 A 
ATOM     82  C   UNL     1       3.359   3.921  -4.954  1.00  0.00     0.016 A 
ATOM     83  C   UNL     1       1.009   4.129  -3.450  1.00  0.00     0.005 A 
ATOM     84  C   UNL     1       2.864   5.180  -4.587  1.00  0.00     0.005 A 
ATOM     85  C   UNL     1       1.662   5.301  -3.864  1.00  0.00    -0.038 A 
BRANCH  85  86
ATOM     86  C   UNL     1       0.968   6.628  -3.630  1.00  0.00     0.081 C 
ATOM     87  C   UNL     1       0.701   7.402  -4.937  1.00  0.00     0.111 C 
ATOM     88  C   UNL     1       1.742   7.473  -2.691  1.00  0.00     0.093 A 
ATOM     89  C   UNL     1       0.511   8.889  -4.695  1.00  0.00     0.188 C 
ATOM     90  C   UNL     1       1.597   8.845  -2.751  1.00  0.00     0.164 A 
ATOM     91  N   UNL     1       2.554   7.093  -1.665  1.00  0.00    -0.238 NA
ATOM     92  N   UNL     1       0.933   9.578  -3.683  1.00  0.00    -0.198 NA
ATOM     93  N   UNL     1       2.321   9.336  -1.679  1.00  0.00    -0.283 N 
ATOM     94  C   UNL     1       2.910   8.229  -1.094  1.00  0.00     0.206 A 
BRANCH  89  95
ATOM     95  O   UNL     1      -0.100   9.536  -5.707  1.00  0.00    -0.496 OA
ATOM     96  H   UNL     1      -0.412   9.056  -6.449  1.00  0.00     0.294 HD
ENDBRANCH  89  95
BRANCH  93  97
ATOM     97  C   UNL     1       2.428  10.683  -1.251  1.00  0.00     0.050 A 
ATOM     98  C   UNL     1       3.610  11.142  -0.656  1.00  0.00     0.027 A 
ATOM     99  C   UNL     1       1.342  11.555  -1.414  1.00  0.00     0.047 A 
ATOM    100  C   UNL     1       3.713  12.479  -0.262  1.00  0.00     0.004 A 
ATOM    101  C   UNL     1       1.444  12.875  -0.980  1.00  0.00     0.043 A 
ATOM    102  C   UNL     1       2.629  13.344  -0.418  1.00  0.00     0.020 A 
ATOM    103  Cl  UNL     1       0.092  13.931  -1.130  1.00  0.00    -0.084 Cl
ENDBRANCH  93  97
ENDBRANCH  85  86
ENDBRANCH  78  80
ENDBRANCH  77  78
ENDBRANCH  76  77
ENDBRANCH  75  76
ENDBRANCH  74  75
ENDBRANCH  73  74
ENDBRANCH   1  73
TORSDOF 23
