REMARK SMILES C[C@](NC(=O)[C@](C)([NH3+])C(F)(F)F)(C(=O)OCCOCCOCCOC(=O)c1ccc(-c2c3nc(c(-c4cc(S(=O)(=O)[O-])ccc4F)c4ccc([nH]4)c(-c4cc(S(=O)(=O)[O-])ccc4F)c4nc(c(-c5cc(S(=O)(=O)[O-])ccc5F)c5ccc2[nH]5)C=C4)C=C3)cc1)c1ccccc1
REMARK SMILES IDX 19 1 18 2 17 3 16 4 15 5 13 6 14 7 2 8 1 9 90 10 91 11 95 12
REMARK SMILES IDX 92 13 94 14 93 15 3 16 4 17 5 19 6 20 7 21 8 22 9 26 10 27
REMARK SMILES IDX 11 28 12 29 20 30 21 31 22 32 23 33 24 34 25 35 26 36 27 37
REMARK SMILES IDX 28 38 89 39 29 40 88 41 30 42 31 43 32 44 82 45 33 46 87 47
REMARK SMILES IDX 81 48 83 49 34 50 86 51 80 52 79 53 35 55 67 56 47 57 66 58
REMARK SMILES IDX 48 59 51 60 65 61 84 62 49 63 50 64 64 66 85 67 52 68 36 69
REMARK SMILES IDX 37 70 45 71 38 72 44 73 46 74 43 75 39 76 40 77 41 78 42 79
REMARK SMILES IDX 68 80 69 81 77 82 70 83 76 84 78 85 75 86 71 87 72 88 73 89
REMARK SMILES IDX 74 90 53 91 54 92 62 93 55 94 61 95 63 96 60 97 56 98 57 99
REMARK SMILES IDX 58 100 59 101
REMARK H PARENT 3 18 8 23 8 24 8 25 83 54 51 65
REMARK Flexibility Score: inf
ROOT
ATOM      1  C   UNL     1      -4.572   5.803  -0.128  1.00  0.00     0.188 C 
ENDROOT
BRANCH   1   2
ATOM      2  O   UNL     1      -4.005   6.402   1.031  1.00  0.00    -0.376 OA
BRANCH   2   3
ATOM      3  C   UNL     1      -2.591   6.236   1.187  1.00  0.00     0.202 C 
BRANCH   3   4
ATOM      4  C   UNL     1      -2.167   4.777   1.395  1.00  0.00     0.261 C 
BRANCH   4   5
ATOM      5  O   UNL     1      -2.252   4.109   0.119  1.00  0.00    -0.461 OA
BRANCH   5   6
ATOM      6  C   UNL     1      -2.804   2.876   0.085  1.00  0.00     0.336 C 
ATOM      7  O   UNL     1      -2.971   2.189   1.087  1.00  0.00    -0.249 OA
BRANCH   6   8
ATOM      8  C   UNL     1      -3.217   2.453  -1.389  1.00  0.00     0.161 C 
ATOM      9  C   UNL     1      -2.404   1.194  -1.734  1.00  0.00     0.053 C 
BRANCH   8  10
ATOM     10  C   UNL     1      -4.760   2.074  -1.297  1.00  0.00    -0.012 A 
ATOM     11  C   UNL     1      -5.794   2.832  -1.899  1.00  0.00     0.007 A 
ATOM     12  C   UNL     1      -5.173   0.971  -0.519  1.00  0.00     0.007 A 
ATOM     13  C   UNL     1      -7.145   2.486  -1.750  1.00  0.00     0.000 A 
ATOM     14  C   UNL     1      -6.526   0.652  -0.341  1.00  0.00     0.000 A 
ATOM     15  C   UNL     1      -7.513   1.406  -0.960  1.00  0.00     0.000 A 
ENDBRANCH   8  10
BRANCH   8  16
ATOM     16  N   UNL     1      -3.051   3.417  -2.551  1.00  0.00    -0.331 N 
ATOM     17  C   UNL     1      -2.187   4.112  -3.305  1.00  0.00     0.291 C 
ATOM     18  H   UNL     1      -3.953   3.614  -2.892  1.00  0.00     0.165 HD
ATOM     19  O   UNL     1      -2.719   4.422  -4.394  1.00  0.00    -0.267 OA
BRANCH  17  20
ATOM     20  C   UNL     1      -0.681   4.452  -3.162  1.00  0.00     0.267 C 
ATOM     21  C   UNL     1      -0.487   5.871  -3.771  1.00  0.00     0.100 C 
BRANCH  20  22
ATOM     22  N   UNL     1       0.073   3.506  -4.072  1.00  0.00    -0.337 N 
ATOM     23  H   UNL     1       1.073   3.697  -4.008  1.00  0.00     0.345 HD
ATOM     24  H   UNL     1      -0.237   3.640  -5.035  1.00  0.00     0.345 HD
ATOM     25  H   UNL     1      -0.108   2.543  -3.788  1.00  0.00     0.345 HD
ENDBRANCH  20  22
BRANCH  20  26
ATOM     26  C   UNL     1      -0.127   4.517  -1.744  1.00  0.00     0.453 C 
ATOM     27  F   UNL     1       1.207   4.789  -1.747  1.00  0.00    -0.164 F 
ATOM     28  F   UNL     1      -0.691   5.505  -1.022  1.00  0.00    -0.164 F 
ATOM     29  F   UNL     1      -0.260   3.340  -1.096  1.00  0.00    -0.164 F 
ENDBRANCH  20  26
ENDBRANCH  17  20
ENDBRANCH   8  16
ENDBRANCH   6   8
ENDBRANCH   5   6
ENDBRANCH   4   5
ENDBRANCH   3   4
ENDBRANCH   2   3
ENDBRANCH   1   2
BRANCH   1  30
ATOM     30  C   UNL     1      -4.579   6.668  -1.373  1.00  0.00     0.188 C 
BRANCH  30  31
ATOM     31  O   UNL     1      -3.359   7.304  -1.735  1.00  0.00    -0.376 OA
BRANCH  31  32
ATOM     32  C   UNL     1      -3.317   8.688  -1.358  1.00  0.00     0.202 C 
BRANCH  32  33
ATOM     33  C   UNL     1      -4.196   9.635  -2.207  1.00  0.00     0.261 C 
BRANCH  33  34
ATOM     34  O   UNL     1      -5.609   9.397  -2.015  1.00  0.00    -0.460 OA
BRANCH  34  35
ATOM     35  C   UNL     1      -6.234   8.736  -3.032  1.00  0.00     0.338 C 
ATOM     36  O   UNL     1      -5.790   8.555  -4.147  1.00  0.00    -0.246 OA
BRANCH  35  37
ATOM     37  C   UNL     1      -7.432   8.012  -2.509  1.00  0.00     0.060 A 
ATOM     38  C   UNL     1      -7.665   6.718  -3.002  1.00  0.00     0.016 A 
ATOM     39  C   UNL     1      -8.279   8.539  -1.529  1.00  0.00     0.016 A 
ATOM     40  C   UNL     1      -8.762   5.975  -2.559  1.00  0.00     0.010 A 
ATOM     41  C   UNL     1      -9.389   7.795  -1.094  1.00  0.00     0.010 A 
ATOM     42  C   UNL     1      -9.653   6.520  -1.627  1.00  0.00    -0.014 A 
BRANCH  42  43
ATOM     43  C   UNL     1     -10.977   5.868  -1.426  1.00  0.00     0.031 A 
ATOM     44  C   UNL     1     -12.116   6.327  -2.299  1.00  0.00     0.074 A 
ATOM     45  C   UNL     1     -11.166   4.862  -0.550  1.00  0.00     0.049 A 
ATOM     46  N   UNL     1     -13.371   5.961  -2.299  1.00  0.00    -0.248 NA
ATOM     47  C   UNL     1     -11.782   7.337  -3.316  1.00  0.00     0.031 C 
ATOM     48  C   UNL     1     -10.133   4.266   0.294  1.00  0.00     0.029 A 
ATOM     49  N   UNL     1     -12.306   4.162  -0.228  1.00  0.00    -0.354 N 
ATOM     50  C   UNL     1     -13.975   6.689  -3.320  1.00  0.00     0.074 A 
ATOM     51  C   UNL     1     -12.956   7.546  -3.886  1.00  0.00     0.031 C 
ATOM     52  C   UNL     1     -10.690   3.300   1.049  1.00  0.00     0.029 A 
ATOM     53  C   UNL     1     -12.127   3.235   0.775  1.00  0.00     0.049 A 
ATOM     54  H   UNL     1     -13.171   4.309  -0.674  1.00  0.00     0.167 HD
ATOM     55  C   UNL     1     -15.259   6.644  -3.753  1.00  0.00     0.034 A 
ATOM     56  C   UNL     1     -13.024   2.453   1.416  1.00  0.00     0.034 A 
ATOM     57  C   UNL     1     -16.278   5.820  -3.156  1.00  0.00     0.049 A 
ATOM     58  C   UNL     1     -14.484   2.525   1.011  1.00  0.00     0.074 A 
ATOM     59  C   UNL     1     -17.620   5.733  -3.485  1.00  0.00     0.029 A 
ATOM     60  N   UNL     1     -16.073   4.947  -2.096  1.00  0.00    -0.354 N 
ATOM     61  N   UNL     1     -15.047   3.235   0.059  1.00  0.00    -0.248 NA
ATOM     62  C   UNL     1     -15.427   1.687   1.765  1.00  0.00     0.031 C 
ATOM     63  C   UNL     1     -18.238   4.868  -2.577  1.00  0.00     0.029 A 
ATOM     64  C   UNL     1     -17.268   4.341  -1.739  1.00  0.00     0.049 A 
ATOM     65  H   UNL     1     -15.205   4.782  -1.661  1.00  0.00     0.167 HD
ATOM     66  C   UNL     1     -16.401   2.894   0.078  1.00  0.00     0.074 A 
ATOM     67  C   UNL     1     -16.563   1.905   1.122  1.00  0.00     0.031 C 
ATOM     68  C   UNL     1     -17.418   3.353  -0.697  1.00  0.00     0.034 A 
BRANCH  55  69
ATOM     69  C   UNL     1     -15.630   7.568  -4.888  1.00  0.00     0.023 A 
ATOM     70  C   UNL     1     -15.055   7.434  -6.164  1.00  0.00     0.031 A 
ATOM     71  C   UNL     1     -16.527   8.629  -4.678  1.00  0.00     0.131 A 
ATOM     72  C   UNL     1     -15.322   8.390  -7.155  1.00  0.00     0.055 A 
ATOM     73  C   UNL     1     -16.856   9.527  -5.695  1.00  0.00     0.041 A 
ATOM     74  F   UNL     1     -17.084   8.825  -3.472  1.00  0.00    -0.206 F 
ATOM     75  C   UNL     1     -16.239   9.420  -6.938  1.00  0.00     0.022 A 
BRANCH  72  76
ATOM     76  S   UNL     1     -14.331   8.361  -8.674  1.00  0.00     0.124 S 
ATOM     77  O   UNL     1     -12.978   8.517  -8.145  1.00  0.00    -0.237 OA
ATOM     78  O   UNL     1     -14.651   7.054  -9.236  1.00  0.00    -0.237 OA
ATOM     79  O   UNL     1     -14.831   9.507  -9.431  1.00  0.00    -0.744 OA
ENDBRANCH  72  76
ENDBRANCH  55  69
BRANCH  56  80
ATOM     80  C   UNL     1     -12.610   1.574   2.555  1.00  0.00     0.023 A 
ATOM     81  C   UNL     1     -12.825   0.185   2.524  1.00  0.00     0.031 A 
ATOM     82  C   UNL     1     -12.096   2.127   3.742  1.00  0.00     0.131 A 
ATOM     83  C   UNL     1     -12.591  -0.589   3.673  1.00  0.00     0.055 A 
ATOM     84  C   UNL     1     -11.801   1.343   4.859  1.00  0.00     0.041 A 
ATOM     85  F   UNL     1     -11.884   3.449   3.840  1.00  0.00    -0.206 F 
ATOM     86  C   UNL     1     -12.066  -0.022   4.835  1.00  0.00     0.022 A 
BRANCH  83  87
ATOM     87  S   UNL     1     -13.106  -2.330   3.671  1.00  0.00     0.124 S 
ATOM     88  O   UNL     1     -14.527  -2.217   3.365  1.00  0.00    -0.237 OA
ATOM     89  O   UNL     1     -12.265  -2.892   2.619  1.00  0.00    -0.237 OA
ATOM     90  O   UNL     1     -12.791  -2.780   5.025  1.00  0.00    -0.744 OA
ENDBRANCH  83  87
ENDBRANCH  56  80
BRANCH  68  91
ATOM     91  C   UNL     1     -18.785   2.741  -0.488  1.00  0.00     0.023 A 
ATOM     92  C   UNL     1     -19.500   2.898   0.713  1.00  0.00     0.031 A 
ATOM     93  C   UNL     1     -19.380   1.981  -1.512  1.00  0.00     0.131 A 
ATOM     94  C   UNL     1     -20.735   2.254   0.882  1.00  0.00     0.055 A 
ATOM     95  C   UNL     1     -20.641   1.401  -1.364  1.00  0.00     0.041 A 
ATOM     96  F   UNL     1     -18.745   1.793  -2.681  1.00  0.00    -0.206 F 
ATOM     97  C   UNL     1     -21.319   1.523  -0.156  1.00  0.00     0.022 A 
BRANCH  94  98
ATOM     98  S   UNL     1     -21.523   2.293   2.515  1.00  0.00     0.124 S 
ATOM     99  O   UNL     1     -20.486   1.718   3.366  1.00  0.00    -0.237 OA
ATOM    100  O   UNL     1     -21.784   3.717   2.702  1.00  0.00    -0.237 OA
ATOM    101  O   UNL     1     -22.714   1.463   2.342  1.00  0.00    -0.744 OA
ENDBRANCH  94  98
ENDBRANCH  68  91
ENDBRANCH  42  43
ENDBRANCH  35  37
ENDBRANCH  34  35
ENDBRANCH  33  34
ENDBRANCH  32  33
ENDBRANCH  31  32
ENDBRANCH  30  31
ENDBRANCH   1  30
TORSDOF 25
