REMARK SMILES CCn1c([C@@H]2CCC[N@@H+](Cc3ccc(C(=O)OCCOCCOCCOC(=O)c4ccc(-c5c6nc(c(-c7cc(S(=O)(=O)[O-])ccc7F)c7ccc([nH]7)c(-c7cc(S(=O)(=O)[O-])ccc7F)c7nc(c(-c8cc(S(=O)(=O)[O-])ccc8F)c8ccc5[nH]8)C=C7)C=C6)cc4)cc3)C2)nn(C)c1=O
REMARK SMILES IDX 21 1 20 2 19 3 18 4 17 5 15 6 16 7 14 8 11 9 12 10 93 11
REMARK SMILES IDX 13 12 92 13 10 14 9 15 5 16 6 17 94 18 7 19 8 20 4 22 3 23
REMARK SMILES IDX 98 24 95 25 96 26 99 27 97 28 2 29 1 30 22 31 23 32 24 33
REMARK SMILES IDX 25 34 26 35 27 36 28 37 29 38 30 39 91 40 31 41 90 42 32 43
REMARK SMILES IDX 33 44 34 45 84 46 35 47 89 48 83 49 85 50 36 51 88 52 82 53
REMARK SMILES IDX 81 54 37 56 69 57 49 58 68 59 50 60 53 61 67 62 86 63 51 64
REMARK SMILES IDX 52 65 66 67 87 68 54 69 38 70 39 71 47 72 40 73 46 74 48 75
REMARK SMILES IDX 45 76 41 77 42 78 43 79 44 80 70 81 71 82 79 83 72 84 78 85
REMARK SMILES IDX 80 86 77 87 73 88 74 89 75 90 76 91 55 92 56 93 64 94 57 95
REMARK SMILES IDX 63 96 65 97 62 98 58 99 59 100 60 101 61 102
REMARK H PARENT 9 21 85 55 53 66
REMARK Flexibility Score: inf
ROOT
ATOM      1  C   UNL     1      -8.151   5.955   5.104  1.00  0.00     0.188 C 
ENDROOT
BRANCH   1   2
ATOM      2  O   UNL     1      -8.622   6.785   6.160  1.00  0.00    -0.376 OA
BRANCH   2   3
ATOM      3  C   UNL     1      -8.050   8.071   6.365  1.00  0.00     0.202 C 
BRANCH   3   4
ATOM      4  C   UNL     1      -6.521   8.251   6.458  1.00  0.00     0.261 C 
BRANCH   4   5
ATOM      5  O   UNL     1      -5.761   7.561   5.457  1.00  0.00    -0.460 OA
BRANCH   5   6
ATOM      6  C   UNL     1      -4.998   6.532   5.887  1.00  0.00     0.338 C 
ATOM      7  O   UNL     1      -4.761   6.231   7.045  1.00  0.00    -0.246 OA
BRANCH   6   8
ATOM      8  C   UNL     1      -4.602   5.680   4.739  1.00  0.00     0.060 A 
ATOM      9  C   UNL     1      -3.777   3.962   2.684  1.00  0.00     0.006 A 
ATOM     10  C   UNL     1      -4.137   3.445   3.937  1.00  0.00     0.010 A 
ATOM     11  C   UNL     1      -3.962   5.331   2.433  1.00  0.00     0.010 A 
ATOM     12  C   UNL     1      -4.543   4.299   4.957  1.00  0.00     0.016 A 
ATOM     13  C   UNL     1      -4.344   6.194   3.463  1.00  0.00     0.016 A 
BRANCH   9  14
ATOM     14  C   UNL     1      -3.043   3.068   1.702  1.00  0.00     0.299 C 
BRANCH  14  15
ATOM     15  N   UNL     1      -1.572   3.279   1.647  1.00  0.00    -0.331 N 
ATOM     16  C   UNL     1       0.280   4.613   0.613  1.00  0.00     0.113 C 
ATOM     17  C   UNL     1       1.024   4.635   1.947  1.00  0.00     0.023 C 
ATOM     18  C   UNL     1      -1.221   4.392   0.764  1.00  0.00     0.274 C 
ATOM     19  C   UNL     1       0.564   3.587   2.950  1.00  0.00     0.062 C 
ATOM     20  C   UNL     1      -0.956   3.402   2.978  1.00  0.00     0.262 C 
ATOM     21  H   UNL     1      -1.174   2.433   1.241  1.00  0.00     0.348 HD
BRANCH  16  22
ATOM     22  C   UNL     1       0.926   3.817  -0.515  1.00  0.00     0.142 A 
ATOM     23  N   UNL     1       0.981   2.476  -0.662  1.00  0.00    -0.279 N 
ATOM     24  C   UNL     1       1.597   2.259  -1.885  1.00  0.00     0.345 A 
ATOM     25  N   UNL     1       1.483   4.486  -1.492  1.00  0.00    -0.155 NA
ATOM     26  N   UNL     1       1.913   3.531  -2.358  1.00  0.00    -0.216 N 
ATOM     27  O   UNL     1       1.799   1.216  -2.456  1.00  0.00    -0.246 OA
ATOM     28  C   UNL     1       2.458   3.845  -3.647  1.00  0.00     0.179 C 
BRANCH  23  29
ATOM     29  C   UNL     1       0.349   1.421   0.115  1.00  0.00     0.125 C 
ATOM     30  C   UNL     1       0.915   0.017  -0.035  1.00  0.00     0.028 C 
ENDBRANCH  23  29
ENDBRANCH  16  22
ENDBRANCH  14  15
ENDBRANCH   9  14
ENDBRANCH   6   8
ENDBRANCH   5   6
ENDBRANCH   4   5
ENDBRANCH   3   4
ENDBRANCH   2   3
ENDBRANCH   1   2
BRANCH   1  31
ATOM     31  C   UNL     1      -7.858   6.536   3.700  1.00  0.00     0.188 C 
BRANCH  31  32
ATOM     32  O   UNL     1      -7.706   7.941   3.660  1.00  0.00    -0.376 OA
BRANCH  32  33
ATOM     33  C   UNL     1      -8.671   8.758   3.014  1.00  0.00     0.202 C 
BRANCH  33  34
ATOM     34  C   UNL     1     -10.176   8.569   3.213  1.00  0.00     0.261 C 
BRANCH  34  35
ATOM     35  O   UNL     1     -10.566   7.312   3.721  1.00  0.00    -0.460 OA
BRANCH  35  36
ATOM     36  C   UNL     1     -10.725   6.364   2.776  1.00  0.00     0.338 C 
ATOM     37  O   UNL     1     -10.383   6.436   1.608  1.00  0.00    -0.246 OA
BRANCH  36  38
ATOM     38  C   UNL     1     -11.407   5.219   3.384  1.00  0.00     0.060 A 
ATOM     39  C   UNL     1     -11.585   4.110   2.559  1.00  0.00     0.016 A 
ATOM     40  C   UNL     1     -12.143   5.415   4.563  1.00  0.00     0.016 A 
ATOM     41  C   UNL     1     -12.725   3.371   2.738  1.00  0.00     0.010 A 
ATOM     42  C   UNL     1     -13.290   4.686   4.731  1.00  0.00     0.010 A 
ATOM     43  C   UNL     1     -13.617   3.766   3.741  1.00  0.00    -0.014 A 
BRANCH  43  44
ATOM     44  C   UNL     1     -14.946   3.210   3.688  1.00  0.00     0.031 A 
ATOM     45  C   UNL     1     -15.008   1.829   4.184  1.00  0.00     0.074 A 
ATOM     46  C   UNL     1     -15.998   3.933   3.266  1.00  0.00     0.049 A 
ATOM     47  N   UNL     1     -15.194   0.749   3.505  1.00  0.00    -0.248 NA
ATOM     48  C   UNL     1     -14.611   1.610   5.582  1.00  0.00     0.031 C 
ATOM     49  C   UNL     1     -16.061   5.380   3.029  1.00  0.00     0.029 A 
ATOM     50  N   UNL     1     -17.279   3.530   3.064  1.00  0.00    -0.354 N 
ATOM     51  C   UNL     1     -15.193  -0.268   4.448  1.00  0.00     0.074 A 
ATOM     52  C   UNL     1     -14.593   0.280   5.633  1.00  0.00     0.031 C 
ATOM     53  C   UNL     1     -17.356   5.758   2.947  1.00  0.00     0.029 A 
ATOM     54  C   UNL     1     -18.195   4.571   2.984  1.00  0.00     0.049 A 
ATOM     55  H   UNL     1     -17.536   2.584   2.983  1.00  0.00     0.167 HD
ATOM     56  C   UNL     1     -15.962  -1.374   4.275  1.00  0.00     0.034 A 
ATOM     57  C   UNL     1     -19.546   4.458   3.048  1.00  0.00     0.034 A 
ATOM     58  C   UNL     1     -16.320  -1.547   2.885  1.00  0.00     0.049 A 
ATOM     59  C   UNL     1     -19.881   3.056   2.692  1.00  0.00     0.074 A 
ATOM     60  C   UNL     1     -15.605  -1.718   1.714  1.00  0.00     0.029 A 
ATOM     61  N   UNL     1     -17.588  -1.179   2.496  1.00  0.00    -0.354 N 
ATOM     62  N   UNL     1     -19.657   2.536   1.516  1.00  0.00    -0.248 NA
ATOM     63  C   UNL     1     -20.050   2.088   3.766  1.00  0.00     0.031 C 
ATOM     64  C   UNL     1     -16.340  -1.010   0.718  1.00  0.00     0.029 A 
ATOM     65  C   UNL     1     -17.493  -0.490   1.311  1.00  0.00     0.049 A 
ATOM     66  H   UNL     1     -18.421  -1.375   2.984  1.00  0.00     0.167 HD
ATOM     67  C   UNL     1     -19.237   1.237   1.765  1.00  0.00     0.074 A 
ATOM     68  C   UNL     1     -19.615   0.984   3.152  1.00  0.00     0.031 C 
ATOM     69  C   UNL     1     -18.379   0.595   0.917  1.00  0.00     0.034 A 
BRANCH  56  70
ATOM     70  C   UNL     1     -16.707  -2.048   5.407  1.00  0.00     0.023 A 
ATOM     71  C   UNL     1     -17.468  -3.184   5.083  1.00  0.00     0.031 A 
ATOM     72  C   UNL     1     -16.944  -1.500   6.693  1.00  0.00     0.131 A 
ATOM     73  C   UNL     1     -18.460  -3.660   5.956  1.00  0.00     0.055 A 
ATOM     74  C   UNL     1     -17.883  -2.020   7.585  1.00  0.00     0.041 A 
ATOM     75  F   UNL     1     -16.361  -0.380   7.133  1.00  0.00    -0.206 F 
ATOM     76  C   UNL     1     -18.673  -3.087   7.207  1.00  0.00     0.022 A 
BRANCH  73  77
ATOM     77  S   UNL     1     -19.595  -4.930   5.348  1.00  0.00     0.124 S 
ATOM     78  O   UNL     1     -20.049  -4.343   4.092  1.00  0.00    -0.237 OA
ATOM     79  O   UNL     1     -18.714  -6.088   5.239  1.00  0.00    -0.237 OA
ATOM     80  O   UNL     1     -20.606  -5.010   6.400  1.00  0.00    -0.744 OA
ENDBRANCH  73  77
ENDBRANCH  56  70
BRANCH  57  81
ATOM     81  C   UNL     1     -20.448   5.358   3.818  1.00  0.00     0.023 A 
ATOM     82  C   UNL     1     -21.827   5.468   3.551  1.00  0.00     0.031 A 
ATOM     83  C   UNL     1     -19.980   5.967   5.006  1.00  0.00     0.131 A 
ATOM     84  C   UNL     1     -22.669   6.167   4.449  1.00  0.00     0.055 A 
ATOM     85  C   UNL     1     -20.813   6.662   5.883  1.00  0.00     0.041 A 
ATOM     86  F   UNL     1     -18.702   5.835   5.399  1.00  0.00    -0.206 F 
ATOM     87  C   UNL     1     -22.167   6.759   5.611  1.00  0.00     0.022 A 
BRANCH  84  88
ATOM     88  S   UNL     1     -24.464   6.247   4.151  1.00  0.00     0.124 S 
ATOM     89  O   UNL     1     -24.540   7.011   2.912  1.00  0.00    -0.237 OA
ATOM     90  O   UNL     1     -24.828   4.837   4.068  1.00  0.00    -0.237 OA
ATOM     91  O   UNL     1     -24.976   6.943   5.333  1.00  0.00    -0.744 OA
ENDBRANCH  84  88
ENDBRANCH  57  81
BRANCH  69  92
ATOM     92  C   UNL     1     -18.183   1.172  -0.473  1.00  0.00     0.023 A 
ATOM     93  C   UNL     1     -17.681   2.463  -0.757  1.00  0.00     0.031 A 
ATOM     94  C   UNL     1     -18.424   0.313  -1.562  1.00  0.00     0.131 A 
ATOM     95  C   UNL     1     -17.447   2.850  -2.094  1.00  0.00     0.055 A 
ATOM     96  C   UNL     1     -18.174   0.693  -2.880  1.00  0.00     0.041 A 
ATOM     97  F   UNL     1     -18.878  -0.935  -1.356  1.00  0.00    -0.206 F 
ATOM     98  C   UNL     1     -17.689   1.966  -3.151  1.00  0.00     0.022 A 
BRANCH  95  99
ATOM     99  S   UNL     1     -16.834   4.521  -2.489  1.00  0.00     0.124 S 
ATOM    100  O   UNL     1     -17.700   5.397  -1.710  1.00  0.00    -0.237 OA
ATOM    101  O   UNL     1     -15.439   4.452  -2.063  1.00  0.00    -0.237 OA
ATOM    102  O   UNL     1     -17.019   4.617  -3.939  1.00  0.00    -0.744 OA
ENDBRANCH  95  99
ENDBRANCH  69  92
ENDBRANCH  43  44
ENDBRANCH  36  38
ENDBRANCH  35  36
ENDBRANCH  34  35
ENDBRANCH  33  34
ENDBRANCH  32  33
ENDBRANCH  31  32
ENDBRANCH   1  31
TORSDOF 24
