REMARK SMILES O=C(OCCOCCOCCOC(=O)[C@]1(CCc2cccnc2)CCC[NH2+]C1)c1ccc(-c2c3nc(c(-c4cc(S(=O)(=O)[O-])ccc4F)c4ccc([nH]4)c(-c4cc(S(=O)(=O)[O-])ccc4F)c4nc(c(-c5cc(S(=O)(=O)[O-])ccc5F)c5ccc2[nH]5)C=C4)C=C3)cc1
REMARK SMILES IDX 7 1 6 2 5 3 4 4 3 5 2 6 1 7 29 8 30 9 91 10 31 11 90 12
REMARK SMILES IDX 32 13 33 14 34 15 84 16 35 17 89 18 83 19 85 20 36 21 88 22
REMARK SMILES IDX 82 23 81 24 37 26 69 27 49 28 68 29 50 30 53 31 67 32 86 33
REMARK SMILES IDX 51 34 52 35 66 37 87 38 54 39 38 40 39 41 47 42 40 43 46 44
REMARK SMILES IDX 48 45 45 46 41 47 42 48 43 49 44 50 70 51 71 52 79 53 72 54
REMARK SMILES IDX 78 55 80 56 77 57 73 58 74 59 75 60 76 61 55 62 56 63 64 64
REMARK SMILES IDX 57 65 63 66 65 67 62 68 58 69 59 70 60 71 61 72 8 73 9 74
REMARK SMILES IDX 10 75 11 76 12 77 13 78 14 79 15 80 24 81 28 82 25 83 27 84
REMARK SMILES IDX 26 85 16 88 17 89 18 90 19 91 23 92 20 93 22 94 21 95
REMARK H PARENT 85 25 53 36 27 86 27 87
REMARK Flexibility Score: inf
ROOT
ATOM      1  C   UNL     1       3.545   0.470  -1.558  1.00  0.00     0.188 C 
ENDROOT
BRANCH   1   2
ATOM      2  O   UNL     1       4.850   0.069  -1.166  1.00  0.00    -0.376 OA
BRANCH   2   3
ATOM      3  C   UNL     1       5.096  -1.327  -1.107  1.00  0.00     0.202 C 
BRANCH   3   4
ATOM      4  C   UNL     1       4.649  -1.989   0.201  1.00  0.00     0.261 C 
BRANCH   4   5
ATOM      5  O   UNL     1       3.264  -1.741   0.499  1.00  0.00    -0.460 OA
BRANCH   5   6
ATOM      6  C   UNL     1       2.747  -0.950   1.474  1.00  0.00     0.338 C 
ATOM      7  O   UNL     1       1.621  -1.219   1.893  1.00  0.00    -0.246 OA
BRANCH   6   8
ATOM      8  C   UNL     1       3.388   0.325   1.960  1.00  0.00     0.060 A 
ATOM      9  C   UNL     1       4.688   0.749   1.689  1.00  0.00     0.016 A 
ATOM     10  C   UNL     1       2.591   1.169   2.765  1.00  0.00     0.016 A 
ATOM     11  C   UNL     1       5.203   1.924   2.231  1.00  0.00     0.010 A 
ATOM     12  C   UNL     1       3.103   2.348   3.330  1.00  0.00     0.010 A 
ATOM     13  C   UNL     1       4.435   2.696   3.100  1.00  0.00    -0.014 A 
BRANCH  13  14
ATOM     14  C   UNL     1       5.176   3.653   3.951  1.00  0.00     0.031 A 
ATOM     15  C   UNL     1       5.745   3.117   5.232  1.00  0.00     0.074 A 
ATOM     16  C   UNL     1       5.512   4.869   3.489  1.00  0.00     0.049 A 
ATOM     17  N   UNL     1       6.611   3.655   6.046  1.00  0.00    -0.248 NA
ATOM     18  C   UNL     1       5.300   1.770   5.626  1.00  0.00     0.031 C 
ATOM     19  C   UNL     1       5.074   5.419   2.210  1.00  0.00     0.029 A 
ATOM     20  N   UNL     1       6.332   5.837   4.005  1.00  0.00    -0.354 N 
ATOM     21  C   UNL     1       6.832   2.704   7.035  1.00  0.00     0.074 A 
ATOM     22  C   UNL     1       5.987   1.571   6.736  1.00  0.00     0.031 C 
ATOM     23  C   UNL     1       5.660   6.613   2.019  1.00  0.00     0.029 A 
ATOM     24  C   UNL     1       6.494   6.924   3.176  1.00  0.00     0.049 A 
ATOM     25  H   UNL     1       6.765   5.762   4.886  1.00  0.00     0.167 HD
ATOM     26  C   UNL     1       7.667   2.774   8.100  1.00  0.00     0.034 A 
ATOM     27  C   UNL     1       7.238   8.038   3.341  1.00  0.00     0.034 A 
ATOM     28  C   UNL     1       8.441   3.947   8.409  1.00  0.00     0.049 A 
ATOM     29  C   UNL     1       8.075   8.140   4.595  1.00  0.00     0.074 A 
ATOM     30  C   UNL     1       9.225   4.205   9.518  1.00  0.00     0.029 A 
ATOM     31  N   UNL     1       8.505   5.079   7.601  1.00  0.00    -0.354 N 
ATOM     32  N   UNL     1       8.242   7.251   5.550  1.00  0.00    -0.248 NA
ATOM     33  C   UNL     1       8.822   9.386   4.793  1.00  0.00     0.031 C 
ATOM     34  C   UNL     1       9.712   5.514   9.409  1.00  0.00     0.029 A 
ATOM     35  C   UNL     1       9.294   6.048   8.198  1.00  0.00     0.049 A 
ATOM     36  H   UNL     1       8.056   5.176   6.731  1.00  0.00     0.167 HD
ATOM     37  C   UNL     1       9.130   7.826   6.454  1.00  0.00     0.074 A 
ATOM     38  C   UNL     1       9.482   9.124   5.912  1.00  0.00     0.031 C 
ATOM     39  C   UNL     1       9.610   7.337   7.628  1.00  0.00     0.034 A 
BRANCH  26  40
ATOM     40  C   UNL     1       7.659   1.588   9.032  1.00  0.00     0.023 A 
ATOM     41  C   UNL     1       8.105   0.319   8.617  1.00  0.00     0.031 A 
ATOM     42  C   UNL     1       7.067   1.697  10.301  1.00  0.00     0.131 A 
ATOM     43  C   UNL     1       7.867  -0.804   9.426  1.00  0.00     0.055 A 
ATOM     44  C   UNL     1       6.905   0.589  11.135  1.00  0.00     0.041 A 
ATOM     45  F   UNL     1       6.589   2.874  10.733  1.00  0.00    -0.206 F 
ATOM     46  C   UNL     1       7.288  -0.674  10.691  1.00  0.00     0.022 A 
BRANCH  43  47
ATOM     47  S   UNL     1       8.154  -2.456   8.729  1.00  0.00     0.124 S 
ATOM     48  O   UNL     1       7.261  -2.447   7.572  1.00  0.00    -0.237 OA
ATOM     49  O   UNL     1       9.582  -2.431   8.434  1.00  0.00    -0.237 OA
ATOM     50  O   UNL     1       7.755  -3.358   9.807  1.00  0.00    -0.744 OA
ENDBRANCH  43  47
ENDBRANCH  26  40
BRANCH  27  51
ATOM     51  C   UNL     1       7.208   9.142   2.333  1.00  0.00     0.023 A 
ATOM     52  C   UNL     1       8.371   9.573   1.672  1.00  0.00     0.031 A 
ATOM     53  C   UNL     1       6.009   9.825   2.051  1.00  0.00     0.131 A 
ATOM     54  C   UNL     1       8.317  10.674   0.798  1.00  0.00     0.055 A 
ATOM     55  C   UNL     1       5.950  10.883   1.143  1.00  0.00     0.041 A 
ATOM     56  F   UNL     1       4.864   9.465   2.654  1.00  0.00    -0.206 F 
ATOM     57  C   UNL     1       7.112  11.322   0.519  1.00  0.00     0.022 A 
BRANCH  54  58
ATOM     58  S   UNL     1       9.865  11.312   0.093  1.00  0.00     0.124 S 
ATOM     59  O   UNL     1      10.652  11.577   1.292  1.00  0.00    -0.237 OA
ATOM     60  O   UNL     1      10.304  10.191  -0.730  1.00  0.00    -0.237 OA
ATOM     61  O   UNL     1       9.438  12.497  -0.647  1.00  0.00    -0.744 OA
ENDBRANCH  54  58
ENDBRANCH  27  51
BRANCH  39  62
ATOM     62  C   UNL     1      10.586   8.212   8.372  1.00  0.00     0.023 A 
ATOM     63  C   UNL     1      10.188   9.430   8.948  1.00  0.00     0.031 A 
ATOM     64  C   UNL     1      11.932   7.826   8.491  1.00  0.00     0.131 A 
ATOM     65  C   UNL     1      11.142  10.253   9.561  1.00  0.00     0.055 A 
ATOM     66  C   UNL     1      12.865   8.621   9.156  1.00  0.00     0.041 A 
ATOM     67  F   UNL     1      12.361   6.670   7.959  1.00  0.00    -0.206 F 
ATOM     68  C   UNL     1      12.475   9.850   9.683  1.00  0.00     0.022 A 
BRANCH  65  69
ATOM     69  S   UNL     1      10.637  11.906  10.108  1.00  0.00     0.124 S 
ATOM     70  O   UNL     1      10.129  12.493   8.872  1.00  0.00    -0.237 OA
ATOM     71  O   UNL     1       9.637  11.605  11.128  1.00  0.00    -0.237 OA
ATOM     72  O   UNL     1      11.877  12.495  10.611  1.00  0.00    -0.744 OA
ENDBRANCH  65  69
ENDBRANCH  39  62
ENDBRANCH  13  14
ENDBRANCH   6   8
ENDBRANCH   5   6
ENDBRANCH   4   5
ENDBRANCH   3   4
ENDBRANCH   2   3
ENDBRANCH   1   2
BRANCH   1  73
ATOM     73  C   UNL     1       3.118   0.152  -2.994  1.00  0.00     0.188 C 
BRANCH  73  74
ATOM     74  O   UNL     1       4.118  -0.007  -3.994  1.00  0.00    -0.376 OA
BRANCH  74  75
ATOM     75  C   UNL     1       5.176   0.945  -4.026  1.00  0.00     0.202 C 
BRANCH  75  76
ATOM     76  C   UNL     1       4.775   2.402  -4.259  1.00  0.00     0.261 C 
BRANCH  76  77
ATOM     77  O   UNL     1       3.998   2.933  -3.174  1.00  0.00    -0.463 OA
BRANCH  77  78
ATOM     78  C   UNL     1       3.095   3.898  -3.506  1.00  0.00     0.317 C 
ATOM     79  O   UNL     1       2.816   4.197  -4.655  1.00  0.00    -0.251 OA
BRANCH  78  80
ATOM     80  C   UNL     1       2.468   4.580  -2.271  1.00  0.00     0.117 C 
ATOM     81  C   UNL     1       1.982   5.992  -2.687  1.00  0.00     0.030 C 
ATOM     82  C   UNL     1       3.541   4.766  -1.166  1.00  0.00     0.279 C 
ATOM     83  C   UNL     1       3.147   6.932  -3.019  1.00  0.00     0.063 C 
ATOM     84  N   UNL     1       4.648   5.628  -1.577  1.00  0.00    -0.345 N 
ATOM     85  C   UNL     1       4.183   6.974  -1.902  1.00  0.00     0.260 C 
ATOM     86  H   UNL     1       5.325   5.686  -0.817  1.00  0.00     0.346 HD
ATOM     87  H   UNL     1       5.074   5.226  -2.412  1.00  0.00     0.346 HD
BRANCH  80  88
ATOM     88  C   UNL     1       1.301   3.746  -1.652  1.00  0.00     0.029 C 
BRANCH  88  89
ATOM     89  C   UNL     1      -0.022   3.616  -2.429  1.00  0.00     0.038 C 
BRANCH  89  90
ATOM     90  C   UNL     1      -0.078   2.427  -3.345  1.00  0.00    -0.030 A 
ATOM     91  C   UNL     1       0.275   2.527  -4.690  1.00  0.00     0.007 A 
ATOM     92  C   UNL     1      -0.443   1.167  -2.875  1.00  0.00     0.114 A 
ATOM     93  C   UNL     1       0.327   1.384  -5.482  1.00  0.00     0.020 A 
ATOM     94  N   UNL     1      -0.428   0.042  -3.627  1.00  0.00    -0.264 NA
ATOM     95  C   UNL     1      -0.025   0.175  -4.909  1.00  0.00     0.111 A 
ENDBRANCH  89  90
ENDBRANCH  88  89
ENDBRANCH  80  88
ENDBRANCH  78  80
ENDBRANCH  77  78
ENDBRANCH  76  77
ENDBRANCH  75  76
ENDBRANCH  74  75
ENDBRANCH  73  74
ENDBRANCH   1  73
TORSDOF 23
