REMARK SMILES CC[C@@](C)(Nc1c([N+](=O)[O-])c(C(C)C)nn1C)C(=O)OCCOCCOCCOC(=O)c1ccc(-c2c3nc(c(-c4cc(S(=O)(=O)[O-])ccc4F)c4ccc([nH]4)c(-c4cc(S(=O)(=O)[O-])ccc4F)c4nc(c(-c5cc(S(=O)(=O)[O-])ccc5F)c5ccc2[nH]5)C=C4)C=C3)cc1
REMARK SMILES IDX 24 1 23 2 22 3 21 4 20 5 18 6 19 7 3 8 4 9 2 10 1 11 5 12
REMARK SMILES IDX 6 14 7 15 16 16 11 17 15 18 17 19 8 20 9 21 10 22 12 23
REMARK SMILES IDX 13 24 14 25 25 26 26 27 27 28 28 29 29 30 30 31 31 32 32 33
REMARK SMILES IDX 33 34 94 35 34 36 93 37 35 38 36 39 37 40 87 41 38 42 92 43
REMARK SMILES IDX 86 44 88 45 39 46 91 47 85 48 84 49 40 51 72 52 52 53 71 54
REMARK SMILES IDX 53 55 56 56 70 57 89 58 54 59 55 60 69 62 90 63 57 64 41 65
REMARK SMILES IDX 42 66 50 67 43 68 49 69 51 70 48 71 44 72 45 73 46 74 47 75
REMARK SMILES IDX 73 76 74 77 82 78 75 79 81 80 83 81 80 82 76 83 77 84 78 85
REMARK SMILES IDX 79 86 58 87 59 88 67 89 60 90 66 91 68 92 65 93 61 94 62 95
REMARK SMILES IDX 63 96 64 97
REMARK H PARENT 5 13 88 50 56 61
REMARK Flexibility Score: inf
ROOT
ATOM      1  C   UNL     1       4.653   1.119  -2.069  1.00  0.00     0.188 C 
ENDROOT
BRANCH   1   2
ATOM      2  O   UNL     1       5.781   0.262  -2.171  1.00  0.00    -0.376 OA
BRANCH   2   3
ATOM      3  C   UNL     1       5.632  -0.988  -2.838  1.00  0.00     0.202 C 
BRANCH   3   4
ATOM      4  C   UNL     1       4.503  -1.873  -2.332  1.00  0.00     0.261 C 
BRANCH   4   5
ATOM      5  O   UNL     1       3.243  -1.441  -2.893  1.00  0.00    -0.462 OA
BRANCH   5   6
ATOM      6  C   UNL     1       2.174  -1.591  -2.083  1.00  0.00     0.331 C 
ATOM      7  O   UNL     1       2.281  -2.119  -0.974  1.00  0.00    -0.249 OA
BRANCH   6   8
ATOM      8  C   UNL     1       0.817  -1.051  -2.602  1.00  0.00     0.134 C 
ATOM      9  C   UNL     1      -0.162  -2.225  -2.316  1.00  0.00     0.047 C 
BRANCH   8  10
ATOM     10  C   UNL     1       0.386   0.198  -1.762  1.00  0.00     0.037 C 
ATOM     11  C   UNL     1       0.527   0.112  -0.242  1.00  0.00     0.007 C 
ENDBRANCH   8  10
BRANCH   8  12
ATOM     12  N   UNL     1       0.541  -0.724  -4.052  1.00  0.00    -0.349 N 
ATOM     13  H   UNL     1      -0.395  -0.881  -4.313  1.00  0.00     0.163 HD
BRANCH  12  14
ATOM     14  C   UNL     1       1.319  -0.251  -5.088  1.00  0.00     0.205 A 
ATOM     15  C   UNL     1       1.147   0.871  -5.917  1.00  0.00     0.334 A 
ATOM     16  N   UNL     1       2.265  -0.997  -5.761  1.00  0.00    -0.246 N 
ATOM     17  C   UNL     1       2.078   0.741  -6.997  1.00  0.00     0.145 A 
ATOM     18  N   UNL     1       2.748  -0.417  -6.885  1.00  0.00    -0.169 NA
ATOM     19  C   UNL     1       2.620  -2.379  -5.549  1.00  0.00     0.176 C 
BRANCH  15  20
ATOM     20  N   UNL     1       0.145   1.888  -5.731  1.00  0.00     0.068 N 
ATOM     21  O   UNL     1      -0.072   2.669  -6.664  1.00  0.00    -0.258 OA
ATOM     22  O   UNL     1      -0.482   1.875  -4.660  1.00  0.00    -0.258 OA
ENDBRANCH  15  20
BRANCH  17  23
ATOM     23  C   UNL     1       2.317   1.611  -8.226  1.00  0.00     0.041 C 
ATOM     24  C   UNL     1       3.703   2.258  -8.274  1.00  0.00     0.014 C 
ATOM     25  C   UNL     1       2.135   0.829  -9.532  1.00  0.00     0.014 C 
ENDBRANCH  17  23
ENDBRANCH  12  14
ENDBRANCH   8  12
ENDBRANCH   6   8
ENDBRANCH   5   6
ENDBRANCH   4   5
ENDBRANCH   3   4
ENDBRANCH   2   3
ENDBRANCH   1   2
BRANCH   1  26
ATOM     26  C   UNL     1       3.803   1.387  -3.310  1.00  0.00     0.188 C 
BRANCH  26  27
ATOM     27  O   UNL     1       4.327   1.170  -4.606  1.00  0.00    -0.376 OA
BRANCH  27  28
ATOM     28  C   UNL     1       5.598   1.695  -4.936  1.00  0.00     0.202 C 
BRANCH  28  29
ATOM     29  C   UNL     1       5.692   3.194  -5.213  1.00  0.00     0.261 C 
BRANCH  29  30
ATOM     30  O   UNL     1       4.964   4.010  -4.297  1.00  0.00    -0.460 OA
BRANCH  30  31
ATOM     31  C   UNL     1       3.684   4.263  -4.657  1.00  0.00     0.338 C 
ATOM     32  O   UNL     1       3.081   3.854  -5.642  1.00  0.00    -0.246 OA
BRANCH  31  33
ATOM     33  C   UNL     1       2.998   4.955  -3.570  1.00  0.00     0.060 A 
ATOM     34  C   UNL     1       1.694   4.541  -3.266  1.00  0.00     0.016 A 
ATOM     35  C   UNL     1       3.622   5.984  -2.867  1.00  0.00     0.016 A 
ATOM     36  C   UNL     1       0.989   5.182  -2.268  1.00  0.00     0.010 A 
ATOM     37  C   UNL     1       2.914   6.627  -1.862  1.00  0.00     0.010 A 
ATOM     38  C   UNL     1       1.592   6.242  -1.583  1.00  0.00    -0.014 A 
BRANCH  38  39
ATOM     39  C   UNL     1       0.779   7.038  -0.656  1.00  0.00     0.031 A 
ATOM     40  C   UNL     1       0.266   8.365  -1.123  1.00  0.00     0.074 A 
ATOM     41  C   UNL     1       0.497   6.542   0.559  1.00  0.00     0.049 A 
ATOM     42  N   UNL     1      -0.404   9.269  -0.464  1.00  0.00    -0.248 NA
ATOM     43  C   UNL     1       0.558   8.723  -2.521  1.00  0.00     0.031 C 
ATOM     44  C   UNL     1       0.930   5.233   1.055  1.00  0.00     0.029 A 
ATOM     45  N   UNL     1      -0.215   7.077   1.594  1.00  0.00    -0.354 N 
ATOM     46  C   UNL     1      -0.616  10.305  -1.365  1.00  0.00     0.074 A 
ATOM     47  C   UNL     1       0.042   9.939  -2.600  1.00  0.00     0.031 C 
ATOM     48  C   UNL     1       0.481   5.075   2.311  1.00  0.00     0.029 A 
ATOM     49  C   UNL     1      -0.226   6.285   2.715  1.00  0.00     0.049 A 
ATOM     50  H   UNL     1      -0.675   7.946   1.541  1.00  0.00     0.167 HD
ATOM     51  C   UNL     1      -1.313  11.450  -1.171  1.00  0.00     0.034 A 
ATOM     52  C   UNL     1      -0.726   6.537   3.938  1.00  0.00     0.034 A 
ATOM     53  C   UNL     1      -1.937  11.780   0.087  1.00  0.00     0.049 A 
ATOM     54  C   UNL     1      -1.433   7.852   4.150  1.00  0.00     0.074 A 
ATOM     55  C   UNL     1      -2.650  12.914   0.428  1.00  0.00     0.029 A 
ATOM     56  N   UNL     1      -1.914  10.969   1.218  1.00  0.00    -0.354 N 
ATOM     57  N   UNL     1      -1.621   8.838   3.299  1.00  0.00    -0.248 NA
ATOM     58  C   UNL     1      -2.011   8.081   5.477  1.00  0.00     0.031 C 
ATOM     59  C   UNL     1      -3.000  12.818   1.780  1.00  0.00     0.029 A 
ATOM     60  C   UNL     1      -2.581  11.587   2.263  1.00  0.00     0.049 A 
ATOM     61  H   UNL     1      -1.487  10.084   1.268  1.00  0.00     0.167 HD
ATOM     62  C   UNL     1      -2.361   9.796   3.985  1.00  0.00     0.074 A 
ATOM     63  C   UNL     1      -2.613   9.247   5.304  1.00  0.00     0.031 C 
ATOM     64  C   UNL     1      -2.792  11.018   3.575  1.00  0.00     0.034 A 
BRANCH  51  65
ATOM     65  C   UNL     1      -1.383  12.423  -2.321  1.00  0.00     0.023 A 
ATOM     66  C   UNL     1      -2.006  12.089  -3.538  1.00  0.00     0.031 A 
ATOM     67  C   UNL     1      -0.781  13.689  -2.219  1.00  0.00     0.131 A 
ATOM     68  C   UNL     1      -1.959  12.982  -4.619  1.00  0.00     0.055 A 
ATOM     69  C   UNL     1      -0.807  14.605  -3.273  1.00  0.00     0.041 A 
ATOM     70  F   UNL     1      -0.141  14.053  -1.096  1.00  0.00    -0.206 F 
ATOM     71  C   UNL     1      -1.387  14.249  -4.486  1.00  0.00     0.022 A 
BRANCH  68  72
ATOM     72  S   UNL     1      -2.534  12.413  -6.243  1.00  0.00     0.124 S 
ATOM     73  O   UNL     1      -1.638  11.287  -6.495  1.00  0.00    -0.237 OA
ATOM     74  O   UNL     1      -3.929  12.076  -5.984  1.00  0.00    -0.237 OA
ATOM     75  O   UNL     1      -2.323  13.573  -7.107  1.00  0.00    -0.744 OA
ENDBRANCH  68  72
ENDBRANCH  51  65
BRANCH  52  76
ATOM     76  C   UNL     1      -0.543   5.561   5.048  1.00  0.00     0.023 A 
ATOM     77  C   UNL     1      -1.642   4.965   5.684  1.00  0.00     0.031 A 
ATOM     78  C   UNL     1       0.744   5.244   5.524  1.00  0.00     0.131 A 
ATOM     79  C   UNL     1      -1.439   4.130   6.793  1.00  0.00     0.055 A 
ATOM     80  C   UNL     1       0.943   4.364   6.588  1.00  0.00     0.041 A 
ATOM     81  F   UNL     1       1.833   5.782   4.951  1.00  0.00    -0.206 F 
ATOM     82  C   UNL     1      -0.154   3.814   7.241  1.00  0.00     0.022 A 
BRANCH  79  83
ATOM     83  S   UNL     1      -2.889   3.545   7.712  1.00  0.00     0.124 S 
ATOM     84  O   UNL     1      -3.555   4.798   8.047  1.00  0.00    -0.237 OA
ATOM     85  O   UNL     1      -3.557   2.709   6.720  1.00  0.00    -0.237 OA
ATOM     86  O   UNL     1      -2.308   2.824   8.842  1.00  0.00    -0.744 OA
ENDBRANCH  79  83
ENDBRANCH  52  76
BRANCH  64  87
ATOM     87  C   UNL     1      -3.602  11.811   4.572  1.00  0.00     0.023 A 
ATOM     88  C   UNL     1      -3.047  12.246   5.787  1.00  0.00     0.031 A 
ATOM     89  C   UNL     1      -4.959  12.086   4.327  1.00  0.00     0.131 A 
ATOM     90  C   UNL     1      -3.866  12.848   6.752  1.00  0.00     0.055 A 
ATOM     91  C   UNL     1      -5.749  12.763   5.257  1.00  0.00     0.041 A 
ATOM     92  F   UNL     1      -5.542  11.693   3.184  1.00  0.00    -0.206 F 
ATOM     93  C   UNL     1      -5.209  13.128   6.487  1.00  0.00     0.022 A 
BRANCH  90  94
ATOM     94  S   UNL     1      -3.188  13.121   8.411  1.00  0.00     0.124 S 
ATOM     95  O   UNL     1      -2.753  11.779   8.784  1.00  0.00    -0.237 OA
ATOM     96  O   UNL     1      -2.124  14.088   8.158  1.00  0.00    -0.237 OA
ATOM     97  O   UNL     1      -4.328  13.636   9.166  1.00  0.00    -0.744 OA
ENDBRANCH  90  94
ENDBRANCH  64  87
ENDBRANCH  38  39
ENDBRANCH  31  33
ENDBRANCH  30  31
ENDBRANCH  29  30
ENDBRANCH  28  29
ENDBRANCH  27  28
ENDBRANCH  26  27
ENDBRANCH   1  26
TORSDOF 25
