REMARK SMILES CNC(=O)c1cc(S(=O)(=O)N2CCC(C(=O)OCCOCCOCCOC(=O)c3ccc(-c4c5nc(c(-c6cc(S(=O)(=O)[O-])ccc6F)c6ccc([nH]6)c(-c6cc(S(=O)(=O)[O-])ccc6F)c6nc(c(-c7cc(S(=O)(=O)[O-])ccc7F)c7ccc4[nH]7)C=C6)C=C5)cc3)CC2)ccc1OC
REMARK SMILES IDX 21 1 20 2 19 3 18 4 17 5 15 6 16 7 14 8 11 9 12 10 93 11
REMARK SMILES IDX 13 12 92 13 8 14 9 15 10 16 7 17 5 18 6 19 96 20 95 21 94 22
REMARK SMILES IDX 3 23 1 24 2 25 4 27 97 28 98 29 22 30 23 31 24 32 25 33
REMARK SMILES IDX 26 34 27 35 28 36 29 37 30 38 91 39 31 40 90 41 32 42 33 43
REMARK SMILES IDX 34 44 84 45 35 46 89 47 83 48 85 49 36 50 88 51 82 52 81 53
REMARK SMILES IDX 37 55 69 56 49 57 68 58 50 59 53 60 67 61 86 62 51 63 52 64
REMARK SMILES IDX 66 66 87 67 54 68 38 69 39 70 47 71 40 72 46 73 48 74 45 75
REMARK SMILES IDX 41 76 42 77 43 78 44 79 70 80 71 81 79 82 72 83 78 84 80 85
REMARK SMILES IDX 77 86 73 87 74 88 75 89 76 90 55 91 56 92 64 93 57 94 63 95
REMARK SMILES IDX 65 96 62 97 58 98 59 99 60 100 61 101
REMARK H PARENT 2 26 85 54 53 65
REMARK Flexibility Score: inf
ROOT
ATOM      1  C   UNL     1      -3.236  10.154  -3.139  1.00  0.00     0.188 C 
ENDROOT
BRANCH   1   2
ATOM      2  O   UNL     1      -4.328  11.050  -3.315  1.00  0.00    -0.376 OA
BRANCH   2   3
ATOM      3  C   UNL     1      -4.588  11.968  -2.255  1.00  0.00     0.202 C 
BRANCH   3   4
ATOM      4  C   UNL     1      -5.076  11.363  -0.932  1.00  0.00     0.261 C 
BRANCH   4   5
ATOM      5  O   UNL     1      -4.170  10.405  -0.349  1.00  0.00    -0.463 OA
BRANCH   5   6
ATOM      6  C   UNL     1      -4.675   9.153  -0.197  1.00  0.00     0.309 C 
ATOM      7  O   UNL     1      -5.824   8.828  -0.478  1.00  0.00    -0.252 OA
BRANCH   6   8
ATOM      8  C   UNL     1      -3.675   8.133   0.315  1.00  0.00     0.102 C 
ATOM      9  N   UNL     1      -2.051   6.590   2.144  1.00  0.00    -0.198 NA
ATOM     10  C   UNL     1      -1.388   7.462   1.141  1.00  0.00     0.103 C 
ATOM     11  C   UNL     1      -3.472   6.239   1.933  1.00  0.00     0.103 C 
ATOM     12  C   UNL     1      -2.281   8.627   0.694  1.00  0.00     0.032 C 
ATOM     13  C   UNL     1      -4.287   7.452   1.537  1.00  0.00     0.032 C 
BRANCH   9  14
ATOM     14  S   UNL     1      -1.095   5.375   2.881  1.00  0.00     0.243 S 
ATOM     15  O   UNL     1      -1.830   4.916   4.041  1.00  0.00    -0.207 OA
ATOM     16  O   UNL     1       0.256   5.883   3.005  1.00  0.00    -0.207 OA
BRANCH  14  17
ATOM     17  C   UNL     1      -1.012   3.977   1.769  1.00  0.00     0.083 A 
ATOM     18  C   UNL     1      -0.466   1.619   1.497  1.00  0.00     0.083 A 
ATOM     19  C   UNL     1      -0.548   2.766   2.304  1.00  0.00     0.039 A 
ATOM     20  C   UNL     1      -0.921   1.664   0.175  1.00  0.00     0.131 A 
ATOM     21  C   UNL     1      -1.354   2.880  -0.360  1.00  0.00     0.048 A 
ATOM     22  C   UNL     1      -1.398   4.033   0.430  1.00  0.00     0.025 A 
BRANCH  18  23
ATOM     23  C   UNL     1       0.109   0.409   2.120  1.00  0.00     0.254 C 
ATOM     24  C   UNL     1       1.947   0.165   0.381  1.00  0.00     0.143 C 
ATOM     25  N   UNL     1       1.194  -0.214   1.558  1.00  0.00    -0.355 N 
ATOM     26  H   UNL     1       1.502  -1.028   2.017  1.00  0.00     0.163 HD
ATOM     27  O   UNL     1      -0.374  -0.012   3.168  1.00  0.00    -0.269 OA
ENDBRANCH  18  23
BRANCH  20  28
ATOM     28  O   UNL     1      -0.926   0.612  -0.698  1.00  0.00    -0.496 OA
ATOM     29  C   UNL     1      -1.704  -0.499  -0.249  1.00  0.00     0.278 C 
ENDBRANCH  20  28
ENDBRANCH  14  17
ENDBRANCH   9  14
ENDBRANCH   6   8
ENDBRANCH   5   6
ENDBRANCH   4   5
ENDBRANCH   3   4
ENDBRANCH   2   3
ENDBRANCH   1   2
BRANCH   1  30
ATOM     30  C   UNL     1      -1.854  10.793  -2.995  1.00  0.00     0.188 C 
BRANCH  30  31
ATOM     31  O   UNL     1      -1.753  11.781  -1.974  1.00  0.00    -0.376 OA
BRANCH  31  32
ATOM     32  C   UNL     1      -0.432  12.287  -1.740  1.00  0.00     0.202 C 
BRANCH  32  33
ATOM     33  C   UNL     1       0.290  12.875  -2.970  1.00  0.00     0.261 C 
BRANCH  33  34
ATOM     34  O   UNL     1       0.582  11.912  -4.004  1.00  0.00    -0.460 OA
BRANCH  34  35
ATOM     35  C   UNL     1       1.307  10.826  -3.642  1.00  0.00     0.338 C 
ATOM     36  O   UNL     1       1.940  10.697  -2.608  1.00  0.00    -0.246 OA
BRANCH  35  37
ATOM     37  C   UNL     1       0.970   9.713  -4.567  1.00  0.00     0.060 A 
ATOM     38  C   UNL     1       0.816   8.429  -4.025  1.00  0.00     0.016 A 
ATOM     39  C   UNL     1       0.728   9.928  -5.928  1.00  0.00     0.016 A 
ATOM     40  C   UNL     1       0.454   7.356  -4.843  1.00  0.00     0.010 A 
ATOM     41  C   UNL     1       0.379   8.851  -6.750  1.00  0.00     0.010 A 
ATOM     42  C   UNL     1       0.267   7.554  -6.218  1.00  0.00    -0.014 A 
BRANCH  42  43
ATOM     43  C   UNL     1       0.171   6.385  -7.129  1.00  0.00     0.031 A 
ATOM     44  C   UNL     1       1.437   5.886  -7.772  1.00  0.00     0.074 A 
ATOM     45  C   UNL     1      -0.997   5.764  -7.376  1.00  0.00     0.049 A 
ATOM     46  N   UNL     1       1.609   4.918  -8.635  1.00  0.00    -0.248 NA
ATOM     47  C   UNL     1       2.676   6.580  -7.387  1.00  0.00     0.031 C 
ATOM     48  C   UNL     1      -2.287   6.116  -6.788  1.00  0.00     0.029 A 
ATOM     49  N   UNL     1      -1.282   4.704  -8.203  1.00  0.00    -0.354 N 
ATOM     50  C   UNL     1       2.974   4.883  -8.893  1.00  0.00     0.074 A 
ATOM     51  C   UNL     1       3.576   5.952  -8.125  1.00  0.00     0.031 C 
ATOM     52  C   UNL     1      -3.230   5.294  -7.284  1.00  0.00     0.029 A 
ATOM     53  C   UNL     1      -2.619   4.382  -8.251  1.00  0.00     0.049 A 
ATOM     54  H   UNL     1      -0.594   4.220  -8.714  1.00  0.00     0.167 HD
ATOM     55  C   UNL     1       3.668   4.033  -9.689  1.00  0.00     0.034 A 
ATOM     56  C   UNL     1      -3.274   3.477  -9.009  1.00  0.00     0.034 A 
ATOM     57  C   UNL     1       3.063   2.989 -10.476  1.00  0.00     0.049 A 
ATOM     58  C   UNL     1      -2.494   2.614  -9.977  1.00  0.00     0.074 A 
ATOM     59  C   UNL     1       3.679   2.073 -11.311  1.00  0.00     0.029 A 
ATOM     60  N   UNL     1       1.701   2.731 -10.543  1.00  0.00    -0.354 N 
ATOM     61  N   UNL     1      -1.201   2.582 -10.203  1.00  0.00    -0.248 NA
ATOM     62  C   UNL     1      -3.267   1.665 -10.792  1.00  0.00     0.031 C 
ATOM     63  C   UNL     1       2.686   1.310 -11.935  1.00  0.00     0.029 A 
ATOM     64  C   UNL     1       1.454   1.697 -11.432  1.00  0.00     0.049 A 
ATOM     65  H   UNL     1       1.010   3.213 -10.033  1.00  0.00     0.167 HD
ATOM     66  C   UNL     1      -1.006   1.589 -11.162  1.00  0.00     0.074 A 
ATOM     67  C   UNL     1      -2.311   1.040 -11.463  1.00  0.00     0.031 C 
ATOM     68  C   UNL     1       0.148   1.163 -11.736  1.00  0.00     0.034 A 
BRANCH  55  69
ATOM     69  C   UNL     1       5.157   4.248  -9.782  1.00  0.00     0.023 A 
ATOM     70  C   UNL     1       5.997   4.067  -8.670  1.00  0.00     0.031 A 
ATOM     71  C   UNL     1       5.737   4.686 -10.985  1.00  0.00     0.131 A 
ATOM     72  C   UNL     1       7.358   4.393  -8.763  1.00  0.00     0.055 A 
ATOM     73  C   UNL     1       7.106   4.933 -11.093  1.00  0.00     0.041 A 
ATOM     74  F   UNL     1       4.977   4.901 -12.071  1.00  0.00    -0.206 F 
ATOM     75  C   UNL     1       7.923   4.802  -9.973  1.00  0.00     0.022 A 
BRANCH  72  76
ATOM     76  S   UNL     1       8.347   4.416  -7.243  1.00  0.00     0.124 S 
ATOM     77  O   UNL     1       7.619   5.391  -6.433  1.00  0.00    -0.237 OA
ATOM     78  O   UNL     1       8.271   3.030  -6.796  1.00  0.00    -0.237 OA
ATOM     79  O   UNL     1       9.664   4.855  -7.698  1.00  0.00    -0.744 OA
ENDBRANCH  72  76
ENDBRANCH  55  69
BRANCH  56  80
ATOM     80  C   UNL     1      -4.760   3.361  -8.941  1.00  0.00     0.023 A 
ATOM     81  C   UNL     1      -5.379   2.178  -8.507  1.00  0.00     0.031 A 
ATOM     82  C   UNL     1      -5.583   4.409  -9.392  1.00  0.00     0.131 A 
ATOM     83  C   UNL     1      -6.776   2.052  -8.581  1.00  0.00     0.055 A 
ATOM     84  C   UNL     1      -6.974   4.298  -9.415  1.00  0.00     0.041 A 
ATOM     85  F   UNL     1      -5.041   5.559  -9.824  1.00  0.00    -0.206 F 
ATOM     86  C   UNL     1      -7.578   3.108  -9.020  1.00  0.00     0.022 A 
BRANCH  83  87
ATOM     87  S   UNL     1      -7.527   0.451  -8.174  1.00  0.00     0.124 S 
ATOM     88  O   UNL     1      -6.893  -0.429  -9.149  1.00  0.00    -0.237 OA
ATOM     89  O   UNL     1      -7.119   0.270  -6.785  1.00  0.00    -0.237 OA
ATOM     90  O   UNL     1      -8.955   0.684  -8.377  1.00  0.00    -0.744 OA
ENDBRANCH  83  87
ENDBRANCH  56  80
BRANCH  68  91
ATOM     91  C   UNL     1       0.055   0.016 -12.714  1.00  0.00     0.023 A 
ATOM     92  C   UNL     1      -0.577   0.152 -13.963  1.00  0.00     0.031 A 
ATOM     93  C   UNL     1       0.611  -1.235 -12.389  1.00  0.00     0.131 A 
ATOM     94  C   UNL     1      -0.680  -0.956 -14.819  1.00  0.00     0.055 A 
ATOM     95  C   UNL     1       0.555  -2.318 -13.268  1.00  0.00     0.041 A 
ATOM     96  F   UNL     1       1.227  -1.423 -11.210  1.00  0.00    -0.206 F 
ATOM     97  C   UNL     1      -0.104  -2.185 -14.486  1.00  0.00     0.022 A 
BRANCH  94  98
ATOM     98  S   UNL     1      -1.646  -0.794 -16.347  1.00  0.00     0.124 S 
ATOM     99  O   UNL     1      -2.960  -0.416 -15.836  1.00  0.00    -0.237 OA
ATOM    100  O   UNL     1      -0.919   0.245 -17.068  1.00  0.00    -0.237 OA
ATOM    101  O   UNL     1      -1.573  -2.127 -16.943  1.00  0.00    -0.744 OA
ENDBRANCH  94  98
ENDBRANCH  68  91
ENDBRANCH  42  43
ENDBRANCH  35  37
ENDBRANCH  34  35
ENDBRANCH  33  34
ENDBRANCH  32  33
ENDBRANCH  31  32
ENDBRANCH  30  31
ENDBRANCH   1  30
TORSDOF 24
