REMARK SMILES Cc1cc(C(=O)N[C@H]2C=C[C@H](C(=O)OCCOCCOCCOC(=O)c3ccc(-c4c5nc(c(-c6cc(S(=O)(=O)[O-])ccc6F)c6ccc([nH]6)c(-c6cc(S(=O)(=O)[O-])ccc6F)c6nc(c(-c7cc(S(=O)(=O)[O-])ccc7F)c7ccc4[nH]7)C=C6)C=C5)cc3)C2)ccc1F
REMARK SMILES IDX 19 1 18 2 17 3 16 4 15 5 14 6 12 7 13 8 11 9 8 10 9 11 89 12
REMARK SMILES IDX 10 13 7 14 5 15 6 16 4 18 1 19 2 20 3 21 92 22 91 23 93 24
REMARK SMILES IDX 90 25 20 26 21 27 22 28 23 29 24 30 25 31 26 32 27 33 88 34
REMARK SMILES IDX 28 35 87 36 29 37 30 38 31 39 81 40 32 41 86 42 80 43 82 44
REMARK SMILES IDX 33 45 85 46 79 47 78 48 34 50 66 51 46 52 65 53 47 54 50 55
REMARK SMILES IDX 64 56 83 57 48 58 49 59 63 61 84 62 51 63 35 64 36 65 44 66
REMARK SMILES IDX 37 67 43 68 45 69 42 70 38 71 39 72 40 73 41 74 67 75 68 76
REMARK SMILES IDX 76 77 69 78 75 79 77 80 74 81 70 82 71 83 72 84 73 85 52 86
REMARK SMILES IDX 53 87 61 88 54 89 60 90 62 91 59 92 55 93 56 94 57 95 58 96
REMARK H PARENT 7 17 82 49 50 60
REMARK Flexibility Score: inf
ROOT
ATOM      1  C   UNL     1       0.951   5.508   3.488  1.00  0.00     0.188 C 
ENDROOT
BRANCH   1   2
ATOM      2  C   UNL     1       1.404   4.237   2.717  1.00  0.00     0.188 C 
BRANCH   2   3
ATOM      3  O   UNL     1       2.722   4.146   2.183  1.00  0.00    -0.376 OA
BRANCH   3   4
ATOM      4  C   UNL     1       3.119   5.099   1.202  1.00  0.00     0.202 C 
BRANCH   4   5
ATOM      5  C   UNL     1       2.166   5.388   0.029  1.00  0.00     0.261 C 
BRANCH   5   6
ATOM      6  O   UNL     1       0.872   5.826   0.476  1.00  0.00    -0.463 OA
BRANCH   6   7
ATOM      7  C   UNL     1      -0.202   5.325  -0.187  1.00  0.00     0.312 C 
ATOM      8  O   UNL     1      -0.142   4.846  -1.313  1.00  0.00    -0.252 OA
BRANCH   7   9
ATOM      9  C   UNL     1      -1.443   5.284   0.723  1.00  0.00     0.124 C 
ATOM     10  C   UNL     1      -2.695   3.509  -0.294  1.00  0.00     0.106 C 
ATOM     11  C   UNL     1      -3.419   4.811  -0.456  1.00  0.00    -0.006 C 
ATOM     12  C   UNL     1      -1.855   3.819   0.947  1.00  0.00     0.048 C 
ATOM     13  C   UNL     1      -2.688   5.810   0.064  1.00  0.00    -0.014 C 
BRANCH  10  14
ATOM     14  N   UNL     1      -3.580   2.390  -0.178  1.00  0.00    -0.346 N 
ATOM     15  C   UNL     1      -3.336   1.040  -0.288  1.00  0.00     0.251 C 
ATOM     16  O   UNL     1      -4.324   0.304  -0.368  1.00  0.00    -0.269 OA
ATOM     17  H   UNL     1      -4.517   2.625   0.011  1.00  0.00     0.164 HD
BRANCH  15  18
ATOM     18  C   UNL     1      -1.972   0.406  -0.273  1.00  0.00     0.040 A 
ATOM     19  C   UNL     1       1.772   1.124  -0.534  1.00  0.00     0.047 C 
ATOM     20  C   UNL     1       0.479   0.376  -0.400  1.00  0.00    -0.015 A 
ATOM     21  C   UNL     1      -0.753   1.040  -0.550  1.00  0.00     0.020 A 
ATOM     22  C   UNL     1       0.478  -0.968  -0.034  1.00  0.00     0.126 A 
ATOM     23  C   UNL     1      -0.714  -1.644   0.184  1.00  0.00     0.040 A 
ATOM     24  F   UNL     1       1.637  -1.625   0.106  1.00  0.00    -0.207 F 
ATOM     25  C   UNL     1      -1.928  -0.958   0.075  1.00  0.00     0.017 A 
ENDBRANCH  15  18
ENDBRANCH  10  14
ENDBRANCH   7   9
ENDBRANCH   6   7
ENDBRANCH   5   6
ENDBRANCH   4   5
ENDBRANCH   3   4
ENDBRANCH   2   3
ENDBRANCH   1   2
BRANCH   1  26
ATOM     26  O   UNL     1       1.337   6.736   2.899  1.00  0.00    -0.376 OA
BRANCH  26  27
ATOM     27  C   UNL     1       2.393   7.516   3.447  1.00  0.00     0.202 C 
BRANCH  27  28
ATOM     28  C   UNL     1       3.426   7.015   4.468  1.00  0.00     0.261 C 
BRANCH  28  29
ATOM     29  O   UNL     1       3.571   5.603   4.543  1.00  0.00    -0.460 OA
BRANCH  29  30
ATOM     30  C   UNL     1       3.107   5.123   5.717  1.00  0.00     0.338 C 
ATOM     31  O   UNL     1       2.732   5.773   6.680  1.00  0.00    -0.246 OA
BRANCH  30  32
ATOM     32  C   UNL     1       3.007   3.654   5.697  1.00  0.00     0.060 A 
ATOM     33  C   UNL     1       1.702   3.198   5.987  1.00  0.00     0.016 A 
ATOM     34  C   UNL     1       4.130   3.086   6.285  1.00  0.00     0.016 A 
ATOM     35  C   UNL     1       1.483   2.505   7.151  1.00  0.00     0.010 A 
ATOM     36  C   UNL     1       3.914   2.421   7.465  1.00  0.00     0.010 A 
ATOM     37  C   UNL     1       2.595   2.272   7.933  1.00  0.00    -0.014 A 
BRANCH  37  38
ATOM     38  C   UNL     1       2.478   2.015   9.344  1.00  0.00     0.031 A 
ATOM     39  C   UNL     1       2.446   0.628   9.792  1.00  0.00     0.074 A 
ATOM     40  C   UNL     1       2.599   3.071  10.176  1.00  0.00     0.049 A 
ATOM     41  N   UNL     1       2.250   0.273  11.009  1.00  0.00    -0.248 NA
ATOM     42  C   UNL     1       2.556  -0.488   8.856  1.00  0.00     0.031 C 
ATOM     43  C   UNL     1       3.049   3.054  11.559  1.00  0.00     0.029 A 
ATOM     44  N   UNL     1       2.127   4.376   9.980  1.00  0.00    -0.354 N 
ATOM     45  C   UNL     1       2.564  -1.062  11.073  1.00  0.00     0.074 A 
ATOM     46  C   UNL     1       2.568  -1.517   9.704  1.00  0.00     0.031 C 
ATOM     47  C   UNL     1       2.616   4.174  12.159  1.00  0.00     0.029 A 
ATOM     48  C   UNL     1       1.688   4.816  11.239  1.00  0.00     0.049 A 
ATOM     49  H   UNL     1       2.108   4.880   9.134  1.00  0.00     0.167 HD
ATOM     50  C   UNL     1       2.979  -1.560  12.270  1.00  0.00     0.034 A 
ATOM     51  C   UNL     1       0.380   5.092  11.524  1.00  0.00     0.034 A 
ATOM     52  C   UNL     1       2.700  -0.608  13.352  1.00  0.00     0.049 A 
ATOM     53  C   UNL     1      -0.194   4.226  12.636  1.00  0.00     0.074 A 
ATOM     54  C   UNL     1       3.464   0.276  14.094  1.00  0.00     0.029 A 
ATOM     55  N   UNL     1       1.378  -0.241  13.570  1.00  0.00    -0.354 N 
ATOM     56  N   UNL     1       0.434   3.222  13.183  1.00  0.00    -0.248 NA
ATOM     57  C   UNL     1      -1.557   4.365  13.150  1.00  0.00     0.031 C 
ATOM     58  C   UNL     1       2.581   1.205  14.726  1.00  0.00     0.029 A 
ATOM     59  C   UNL     1       1.282   0.868  14.391  1.00  0.00     0.049 A 
ATOM     60  H   UNL     1       0.604  -0.714  13.187  1.00  0.00     0.167 HD
ATOM     61  C   UNL     1      -0.401   2.559  14.037  1.00  0.00     0.074 A 
ATOM     62  C   UNL     1      -1.637   3.321  13.994  1.00  0.00     0.031 C 
ATOM     63  C   UNL     1      -0.038   1.413  14.681  1.00  0.00     0.034 A 
BRANCH  50  64
ATOM     64  C   UNL     1       3.857  -2.788  12.398  1.00  0.00     0.023 A 
ATOM     65  C   UNL     1       4.207  -3.630  11.319  1.00  0.00     0.031 A 
ATOM     66  C   UNL     1       4.482  -3.100  13.620  1.00  0.00     0.131 A 
ATOM     67  C   UNL     1       5.140  -4.673  11.445  1.00  0.00     0.055 A 
ATOM     68  C   UNL     1       5.410  -4.144  13.754  1.00  0.00     0.041 A 
ATOM     69  F   UNL     1       4.255  -2.379  14.729  1.00  0.00    -0.206 F 
ATOM     70  C   UNL     1       5.751  -4.933  12.663  1.00  0.00     0.022 A 
BRANCH  67  71
ATOM     71  S   UNL     1       5.614  -5.673  10.002  1.00  0.00     0.124 S 
ATOM     72  O   UNL     1       7.051  -5.424   9.913  1.00  0.00    -0.237 OA
ATOM     73  O   UNL     1       5.239  -7.021  10.418  1.00  0.00    -0.237 OA
ATOM     74  O   UNL     1       4.824  -5.115   8.908  1.00  0.00    -0.744 OA
ENDBRANCH  67  71
ENDBRANCH  50  64
BRANCH  51  75
ATOM     75  C   UNL     1      -0.414   5.607  10.375  1.00  0.00     0.023 A 
ATOM     76  C   UNL     1      -1.201   4.746   9.594  1.00  0.00     0.031 A 
ATOM     77  C   UNL     1      -0.109   6.885   9.860  1.00  0.00     0.131 A 
ATOM     78  C   UNL     1      -1.582   5.143   8.301  1.00  0.00     0.055 A 
ATOM     79  C   UNL     1      -0.492   7.272   8.575  1.00  0.00     0.041 A 
ATOM     80  F   UNL     1       0.640   7.742  10.573  1.00  0.00    -0.206 F 
ATOM     81  C   UNL     1      -1.212   6.388   7.780  1.00  0.00     0.022 A 
BRANCH  78  82
ATOM     82  S   UNL     1      -2.428   3.991   7.183  1.00  0.00     0.124 S 
ATOM     83  O   UNL     1      -3.775   4.553   7.147  1.00  0.00    -0.237 OA
ATOM     84  O   UNL     1      -1.656   4.132   5.947  1.00  0.00    -0.237 OA
ATOM     85  O   UNL     1      -2.285   2.707   7.853  1.00  0.00    -0.744 OA
ENDBRANCH  78  82
ENDBRANCH  51  75
BRANCH  63  86
ATOM     86  C   UNL     1      -0.932   0.679  15.641  1.00  0.00     0.023 A 
ATOM     87  C   UNL     1      -0.936  -0.733  15.658  1.00  0.00     0.031 A 
ATOM     88  C   UNL     1      -1.673   1.324  16.643  1.00  0.00     0.131 A 
ATOM     89  C   UNL     1      -1.653  -1.445  16.624  1.00  0.00     0.055 A 
ATOM     90  C   UNL     1      -2.425   0.612  17.585  1.00  0.00     0.041 A 
ATOM     91  F   UNL     1      -1.651   2.661  16.768  1.00  0.00    -0.206 F 
ATOM     92  C   UNL     1      -2.413  -0.779  17.581  1.00  0.00     0.022 A 
BRANCH  89  93
ATOM     93  S   UNL     1      -1.541  -3.253  16.715  1.00  0.00     0.124 S 
ATOM     94  O   UNL     1      -1.121  -3.461  18.100  1.00  0.00    -0.237 OA
ATOM     95  O   UNL     1      -2.912  -3.652  16.413  1.00  0.00    -0.237 OA
ATOM     96  O   UNL     1      -0.549  -3.595  15.703  1.00  0.00    -0.744 OA
ENDBRANCH  89  93
ENDBRANCH  63  86
ENDBRANCH  37  38
ENDBRANCH  30  32
ENDBRANCH  29  30
ENDBRANCH  28  29
ENDBRANCH  27  28
ENDBRANCH  26  27
ENDBRANCH   1  26
TORSDOF 22
