REMARK SMILES O=C(/C=N/O)Nc1cccc(C(=O)OCCOCCOCCOC(=O)c2ccc(-c3c4nc(c(-c5cc(S(=O)(=O)[O-])ccc5F)c5ccc([nH]5)c(-c5cc(S(=O)(=O)[O-])ccc5F)c5nc(c(-c6cc(S(=O)(=O)[O-])ccc6F)c6ccc3[nH]6)C=C5)C=C4)cc2)c1
REMARK SMILES IDX 18 1 17 2 16 3 15 4 14 5 12 6 13 7 11 8 7 9 8 10 89 11 9 12
REMARK SMILES IDX 10 13 6 14 1 15 2 16 3 18 4 19 5 20 19 22 20 23 21 24 22 25
REMARK SMILES IDX 23 26 24 27 25 28 26 29 27 30 88 31 28 32 87 33 29 34 30 35
REMARK SMILES IDX 31 36 81 37 32 38 86 39 80 40 82 41 33 42 85 43 79 44 78 45
REMARK SMILES IDX 34 47 66 48 46 49 65 50 47 51 50 52 64 53 83 54 48 55 49 56
REMARK SMILES IDX 63 58 84 59 51 60 35 61 36 62 44 63 37 64 43 65 45 66 42 67
REMARK SMILES IDX 38 68 39 69 40 70 41 71 67 72 68 73 76 74 69 75 75 76 77 77
REMARK SMILES IDX 74 78 70 79 71 80 72 81 73 82 52 83 53 84 61 85 54 86 60 87
REMARK SMILES IDX 62 88 59 89 55 90 56 91 57 92 58 93
REMARK H PARENT 6 17 5 21 82 46 50 57
REMARK Flexibility Score: inf
ROOT
ATOM      1  C   UNL     1      -0.447  -3.845   5.234  1.00  0.00     0.188 C 
ENDROOT
BRANCH   1   2
ATOM      2  O   UNL     1      -1.745  -4.427   5.149  1.00  0.00    -0.376 OA
BRANCH   2   3
ATOM      3  C   UNL     1      -2.425  -4.455   3.901  1.00  0.00     0.202 C 
BRANCH   3   4
ATOM      4  C   UNL     1      -2.659  -3.138   3.148  1.00  0.00     0.261 C 
BRANCH   4   5
ATOM      5  O   UNL     1      -1.478  -2.346   2.951  1.00  0.00    -0.460 OA
BRANCH   5   6
ATOM      6  C   UNL     1      -1.463  -1.138   3.581  1.00  0.00     0.338 C 
ATOM      7  O   UNL     1      -2.352  -0.638   4.231  1.00  0.00    -0.246 OA
BRANCH   6   8
ATOM      8  C   UNL     1      -0.090  -0.582   3.505  1.00  0.00     0.062 A 
ATOM      9  C   UNL     1       1.920  -0.065   2.257  1.00  0.00     0.042 A 
ATOM     10  C   UNL     1       2.540   0.322   3.453  1.00  0.00     0.026 A 
ATOM     11  C   UNL     1       0.607  -0.542   2.294  1.00  0.00     0.041 A 
ATOM     12  C   UNL     1       1.838   0.292   4.662  1.00  0.00     0.003 A 
ATOM     13  C   UNL     1       0.515  -0.143   4.687  1.00  0.00     0.016 A 
BRANCH   9  14
ATOM     14  N   UNL     1       2.660   0.054   1.065  1.00  0.00    -0.321 N 
ATOM     15  O   UNL     1       1.020  -0.243  -0.593  1.00  0.00    -0.268 OA
ATOM     16  C   UNL     1       2.167  -0.054  -0.218  1.00  0.00     0.270 C 
ATOM     17  H   UNL     1       3.624   0.232   1.157  1.00  0.00     0.170 HD
BRANCH  16  18
ATOM     18  C   UNL     1       3.204   0.137  -1.294  1.00  0.00     0.225 C 
ATOM     19  N   UNL     1       4.465   0.202  -1.006  1.00  0.00    -0.092 NA
BRANCH  19  20
ATOM     20  O   UNL     1       5.180   0.364  -2.202  1.00  0.00    -0.411 OA
ATOM     21  H   UNL     1       6.114   0.430  -2.184  1.00  0.00     0.330 HD
ENDBRANCH  19  20
ENDBRANCH  16  18
ENDBRANCH   9  14
ENDBRANCH   6   8
ENDBRANCH   5   6
ENDBRANCH   4   5
ENDBRANCH   3   4
ENDBRANCH   2   3
ENDBRANCH   1   2
BRANCH   1  22
ATOM     22  C   UNL     1       0.603  -4.142   4.141  1.00  0.00     0.188 C 
BRANCH  22  23
ATOM     23  O   UNL     1       0.168  -5.088   3.184  1.00  0.00    -0.376 OA
BRANCH  23  24
ATOM     24  C   UNL     1       0.758  -6.375   3.226  1.00  0.00     0.202 C 
BRANCH  24  25
ATOM     25  C   UNL     1       0.661  -7.206   4.518  1.00  0.00     0.261 C 
BRANCH  25  26
ATOM     26  O   UNL     1       0.903  -6.521   5.756  1.00  0.00    -0.460 OA
BRANCH  26  27
ATOM     27  C   UNL     1       2.193  -6.289   6.088  1.00  0.00     0.338 C 
ATOM     28  O   UNL     1       3.174  -6.566   5.422  1.00  0.00    -0.246 OA
BRANCH  27  29
ATOM     29  C   UNL     1       2.212  -5.472   7.324  1.00  0.00     0.060 A 
ATOM     30  C   UNL     1       2.803  -4.203   7.282  1.00  0.00     0.016 A 
ATOM     31  C   UNL     1       1.671  -5.957   8.519  1.00  0.00     0.016 A 
ATOM     32  C   UNL     1       2.896  -3.436   8.446  1.00  0.00     0.010 A 
ATOM     33  C   UNL     1       1.777  -5.191   9.688  1.00  0.00     0.010 A 
ATOM     34  C   UNL     1       2.425  -3.943   9.666  1.00  0.00    -0.014 A 
BRANCH  34  35
ATOM     35  C   UNL     1       2.799  -3.255  10.932  1.00  0.00     0.031 A 
ATOM     36  C   UNL     1       3.984  -3.774  11.706  1.00  0.00     0.074 A 
ATOM     37  C   UNL     1       2.142  -2.162  11.362  1.00  0.00     0.049 A 
ATOM     38  N   UNL     1       4.516  -3.330  12.816  1.00  0.00    -0.248 NA
ATOM     39  C   UNL     1       4.658  -4.956  11.146  1.00  0.00     0.031 C 
ATOM     40  C   UNL     1       1.003  -1.542  10.688  1.00  0.00     0.029 A 
ATOM     41  N   UNL     1       2.345  -1.376  12.470  1.00  0.00    -0.354 N 
ATOM     42  C   UNL     1       5.589  -4.175  13.086  1.00  0.00     0.074 A 
ATOM     43  C   UNL     1       5.599  -5.184  12.048  1.00  0.00     0.031 C 
ATOM     44  C   UNL     1       0.606  -0.471  11.399  1.00  0.00     0.029 A 
ATOM     45  C   UNL     1       1.443  -0.345  12.592  1.00  0.00     0.049 A 
ATOM     46  H   UNL     1       3.069  -1.537  13.118  1.00  0.00     0.167 HD
ATOM     47  C   UNL     1       6.491  -4.110  14.097  1.00  0.00     0.034 A 
ATOM     48  C   UNL     1       1.301   0.583  13.562  1.00  0.00     0.034 A 
ATOM     49  C   UNL     1       6.459  -3.113  15.139  1.00  0.00     0.049 A 
ATOM     50  C   UNL     1       2.272   0.591  14.721  1.00  0.00     0.074 A 
ATOM     51  C   UNL     1       7.322  -2.956  16.210  1.00  0.00     0.029 A 
ATOM     52  N   UNL     1       5.505  -2.108  15.252  1.00  0.00    -0.354 N 
ATOM     53  N   UNL     1       3.292  -0.203  14.955  1.00  0.00    -0.248 NA
ATOM     54  C   UNL     1       2.080   1.636  15.736  1.00  0.00     0.031 C 
ATOM     55  C   UNL     1       6.851  -1.906  17.006  1.00  0.00     0.029 A 
ATOM     56  C   UNL     1       5.744  -1.348  16.388  1.00  0.00     0.049 A 
ATOM     57  H   UNL     1       4.768  -1.958  14.618  1.00  0.00     0.167 HD
ATOM     58  C   UNL     1       3.885   0.274  16.124  1.00  0.00     0.074 A 
ATOM     59  C   UNL     1       3.118   1.432  16.533  1.00  0.00     0.031 C 
ATOM     60  C   UNL     1       4.969  -0.198  16.794  1.00  0.00     0.034 A 
BRANCH  47  61
ATOM     61  C   UNL     1       7.553  -5.184  14.143  1.00  0.00     0.023 A 
ATOM     62  C   UNL     1       8.509  -5.326  13.122  1.00  0.00     0.031 A 
ATOM     63  C   UNL     1       7.585  -6.105  15.206  1.00  0.00     0.131 A 
ATOM     64  C   UNL     1       9.405  -6.405  13.146  1.00  0.00     0.055 A 
ATOM     65  C   UNL     1       8.533  -7.128  15.266  1.00  0.00     0.041 A 
ATOM     66  F   UNL     1       6.683  -6.036  16.197  1.00  0.00    -0.206 F 
ATOM     67  C   UNL     1       9.441  -7.293  14.224  1.00  0.00     0.022 A 
BRANCH  64  68
ATOM     68  S   UNL     1      10.422  -6.722  11.676  1.00  0.00     0.124 S 
ATOM     69  O   UNL     1       9.402  -6.898  10.644  1.00  0.00    -0.237 OA
ATOM     70  O   UNL     1      11.225  -5.510  11.581  1.00  0.00    -0.237 OA
ATOM     71  O   UNL     1      11.160  -7.935  12.025  1.00  0.00    -0.744 OA
ENDBRANCH  64  68
ENDBRANCH  47  61
BRANCH  48  72
ATOM     72  C   UNL     1       0.184   1.574  13.509  1.00  0.00     0.023 A 
ATOM     73  C   UNL     1       0.435   2.953  13.417  1.00  0.00     0.031 A 
ATOM     74  C   UNL     1      -1.153   1.155  13.623  1.00  0.00     0.131 A 
ATOM     75  C   UNL     1      -0.630   3.865  13.495  1.00  0.00     0.055 A 
ATOM     76  C   UNL     1      -2.213   2.063  13.642  1.00  0.00     0.041 A 
ATOM     77  F   UNL     1      -1.450  -0.151  13.718  1.00  0.00    -0.206 F 
ATOM     78  C   UNL     1      -1.954   3.429  13.592  1.00  0.00     0.022 A 
BRANCH  75  79
ATOM     79  S   UNL     1      -0.254   5.639  13.560  1.00  0.00     0.124 S 
ATOM     80  O   UNL     1       0.589   5.720  14.748  1.00  0.00    -0.237 OA
ATOM     81  O   UNL     1       0.418   5.853  12.282  1.00  0.00    -0.237 OA
ATOM     82  O   UNL     1      -1.569   6.263  13.682  1.00  0.00    -0.744 OA
ENDBRANCH  75  79
ENDBRANCH  48  72
BRANCH  60  83
ATOM     83  C   UNL     1       5.423   0.583  18.008  1.00  0.00     0.023 A 
ATOM     84  C   UNL     1       4.622   0.711  19.156  1.00  0.00     0.031 A 
ATOM     85  C   UNL     1       6.669   1.237  18.000  1.00  0.00     0.131 A 
ATOM     86  C   UNL     1       5.039   1.535  20.214  1.00  0.00     0.055 A 
ATOM     87  C   UNL     1       7.111   1.996  19.085  1.00  0.00     0.041 A 
ATOM     88  F   UNL     1       7.479   1.153  16.932  1.00  0.00    -0.206 F 
ATOM     89  C   UNL     1       6.286   2.164  20.192  1.00  0.00     0.022 A 
BRANCH  86  90
ATOM     90  S   UNL     1       3.875   1.878  21.563  1.00  0.00     0.124 S 
ATOM     91  O   UNL     1       2.716   2.393  20.841  1.00  0.00    -0.237 OA
ATOM     92  O   UNL     1       3.713   0.563  22.175  1.00  0.00    -0.237 OA
ATOM     93  O   UNL     1       4.581   2.860  22.384  1.00  0.00    -0.744 OA
ENDBRANCH  86  90
ENDBRANCH  60  83
ENDBRANCH  34  35
ENDBRANCH  27  29
ENDBRANCH  26  27
ENDBRANCH  25  26
ENDBRANCH  24  25
ENDBRANCH  23  24
ENDBRANCH  22  23
ENDBRANCH   1  22
TORSDOF 23
