REMARK SMILES O=C(COCC(=O)OCCOCCOCCOC(=O)c1ccc(-c2c3nc(c(-c4cc(S(=O)(=O)[O-])ccc4F)c4ccc([nH]4)c(-c4cc(S(=O)(=O)[O-])ccc4F)c4nc(c(-c5cc(S(=O)(=O)[O-])ccc5F)c5ccc2[nH]5)C=C4)C=C3)cc1)/[NH+]=C1\S[C@@H]2CS(=O)(=O)C[C@H]2N1c1ccc(Cl)cc1
REMARK SMILES IDX 12 1 11 2 10 3 9 4 8 5 6 6 7 7 5 8 4 9 3 10 2 11 1 12 83 13
REMARK SMILES IDX 84 14 85 16 93 17 86 18 92 19 87 20 91 21 88 22 89 23 90 24
REMARK SMILES IDX 94 25 95 26 100 27 96 28 99 29 97 30 98 31 13 32 14 33 15 34
REMARK SMILES IDX 16 35 17 36 18 37 19 38 20 39 21 40 82 41 22 42 81 43 23 44
REMARK SMILES IDX 24 45 25 46 75 47 26 48 80 49 74 50 76 51 27 52 79 53 73 54
REMARK SMILES IDX 72 55 28 57 60 58 40 59 59 60 41 61 44 62 58 63 77 64 42 65
REMARK SMILES IDX 43 66 57 68 78 69 45 70 29 71 30 72 38 73 31 74 37 75 39 76
REMARK SMILES IDX 36 77 32 78 33 79 34 80 35 81 61 82 62 83 70 84 63 85 69 86
REMARK SMILES IDX 71 87 68 88 64 89 65 90 66 91 67 92 46 93 47 94 55 95 48 96
REMARK SMILES IDX 54 97 56 98 53 99 49 100 50 101 51 102 52 103
REMARK H PARENT 83 15 76 56 44 67
REMARK Flexibility Score: inf
ROOT
ATOM      1  C   UNL     1      -0.234   0.906   3.270  1.00  0.00     0.188 C 
ENDROOT
BRANCH   1   2
ATOM      2  O   UNL     1      -0.557   0.922   4.655  1.00  0.00    -0.376 OA
BRANCH   2   3
ATOM      3  C   UNL     1       0.389   1.541   5.519  1.00  0.00     0.202 C 
BRANCH   3   4
ATOM      4  C   UNL     1       1.703   0.781   5.763  1.00  0.00     0.261 C 
BRANCH   4   5
ATOM      5  O   UNL     1       2.392   0.370   4.566  1.00  0.00    -0.462 OA
BRANCH   5   6
ATOM      6  C   UNL     1       2.585  -0.974   4.420  1.00  0.00     0.332 C 
ATOM      7  O   UNL     1       2.248  -1.822   5.239  1.00  0.00    -0.250 OA
BRANCH   6   8
ATOM      8  C   UNL     1       3.224  -1.346   3.068  1.00  0.00     0.283 C 
BRANCH   8   9
ATOM      9  O   UNL     1       4.088  -0.425   2.421  1.00  0.00    -0.358 OA
BRANCH   9  10
ATOM     10  C   UNL     1       3.403   0.548   1.652  1.00  0.00     0.288 C 
BRANCH  10  11
ATOM     11  C   UNL     1       3.256   0.366   0.129  1.00  0.00     0.333 C 
ATOM     12  O   UNL     1       2.821   1.284  -0.559  1.00  0.00    -0.244 OA
ATOM     13  N   UNL     1       3.679  -0.814  -0.424  1.00  0.00    -0.202 N 
ATOM     14  C   UNL     1       4.882  -0.790  -0.892  1.00  0.00     0.319 C 
ATOM     15  H   UNL     1       3.110  -1.617  -0.463  1.00  0.00     0.316 HD
ATOM     16  S   UNL     1       5.993   0.613  -0.613  1.00  0.00    -0.029 SA
ATOM     17  N   UNL     1       5.582  -1.802  -1.561  1.00  0.00    -0.217 N 
ATOM     18  C   UNL     1       7.354  -0.534  -0.634  1.00  0.00     0.120 C 
ATOM     19  C   UNL     1       6.986  -1.432  -1.825  1.00  0.00     0.212 C 
ATOM     20  C   UNL     1       8.746  -0.028  -0.854  1.00  0.00     0.156 C 
ATOM     21  C   UNL     1       8.074  -2.481  -1.799  1.00  0.00     0.188 C 
ATOM     22  S   UNL     1       9.556  -1.513  -1.441  1.00  0.00     0.155 S 
ATOM     23  O   UNL     1      10.243  -2.127  -0.323  1.00  0.00    -0.229 OA
ATOM     24  O   UNL     1      10.229  -1.198  -2.681  1.00  0.00    -0.229 OA
BRANCH  17  25
ATOM     25  C   UNL     1       4.968  -2.737  -2.418  1.00  0.00     0.128 A 
ATOM     26  C   UNL     1       5.384  -4.079  -2.438  1.00  0.00     0.053 A 
ATOM     27  C   UNL     1       3.921  -2.375  -3.284  1.00  0.00     0.053 A 
ATOM     28  C   UNL     1       4.795  -5.017  -3.296  1.00  0.00     0.025 A 
ATOM     29  C   UNL     1       3.330  -3.310  -4.150  1.00  0.00     0.025 A 
ATOM     30  C   UNL     1       3.772  -4.628  -4.152  1.00  0.00     0.041 A 
ATOM     31  Cl  UNL     1       3.056  -5.785  -5.204  1.00  0.00    -0.084 Cl
ENDBRANCH  17  25
ENDBRANCH  10  11
ENDBRANCH   9  10
ENDBRANCH   8   9
ENDBRANCH   6   8
ENDBRANCH   5   6
ENDBRANCH   4   5
ENDBRANCH   3   4
ENDBRANCH   2   3
ENDBRANCH   1   2
BRANCH   1  32
ATOM     32  C   UNL     1      -0.032   2.263   2.589  1.00  0.00     0.188 C 
BRANCH  32  33
ATOM     33  O   UNL     1       1.030   3.056   3.119  1.00  0.00    -0.376 OA
BRANCH  33  34
ATOM     34  C   UNL     1       1.500   4.099   2.249  1.00  0.00     0.202 C 
BRANCH  34  35
ATOM     35  C   UNL     1       0.428   4.997   1.598  1.00  0.00     0.261 C 
BRANCH  35  36
ATOM     36  O   UNL     1      -0.447   4.288   0.696  1.00  0.00    -0.460 OA
BRANCH  36  37
ATOM     37  C   UNL     1       0.141   3.799  -0.425  1.00  0.00     0.338 C 
ATOM     38  O   UNL     1       1.266   4.050  -0.812  1.00  0.00    -0.246 OA
BRANCH  37  39
ATOM     39  C   UNL     1      -0.738   2.743  -0.977  1.00  0.00     0.060 A 
ATOM     40  C   UNL     1      -0.277   1.423  -0.985  1.00  0.00     0.016 A 
ATOM     41  C   UNL     1      -2.000   3.036  -1.484  1.00  0.00     0.016 A 
ATOM     42  C   UNL     1      -1.023   0.397  -1.553  1.00  0.00     0.010 A 
ATOM     43  C   UNL     1      -2.761   2.005  -2.050  1.00  0.00     0.010 A 
ATOM     44  C   UNL     1      -2.261   0.687  -2.121  1.00  0.00    -0.014 A 
BRANCH  44  45
ATOM     45  C   UNL     1      -2.943  -0.326  -2.964  1.00  0.00     0.031 A 
ATOM     46  C   UNL     1      -2.964  -0.094  -4.449  1.00  0.00     0.074 A 
ATOM     47  C   UNL     1      -3.488  -1.443  -2.447  1.00  0.00     0.049 A 
ATOM     48  N   UNL     1      -3.699  -0.657  -5.368  1.00  0.00    -0.248 NA
ATOM     49  C   UNL     1      -2.031   0.925  -4.960  1.00  0.00     0.031 C 
ATOM     50  C   UNL     1      -3.404  -1.863  -1.048  1.00  0.00     0.029 A 
ATOM     51  N   UNL     1      -4.235  -2.429  -3.046  1.00  0.00    -0.354 N 
ATOM     52  C   UNL     1      -3.370  -0.013  -6.556  1.00  0.00     0.074 A 
ATOM     53  C   UNL     1      -2.356   0.970  -6.242  1.00  0.00     0.031 C 
ATOM     54  C   UNL     1      -4.087  -3.011  -0.895  1.00  0.00     0.029 A 
ATOM     55  C   UNL     1      -4.729  -3.360  -2.160  1.00  0.00     0.049 A 
ATOM     56  H   UNL     1      -4.401  -2.466  -4.016  1.00  0.00     0.167 HD
ATOM     57  C   UNL     1      -3.889  -0.217  -7.789  1.00  0.00     0.034 A 
ATOM     58  C   UNL     1      -5.647  -4.334  -2.340  1.00  0.00     0.034 A 
ATOM     59  C   UNL     1      -4.863  -1.236  -8.081  1.00  0.00     0.049 A 
ATOM     60  C   UNL     1      -6.277  -4.489  -3.708  1.00  0.00     0.074 A 
ATOM     61  C   UNL     1      -5.466  -1.532  -9.290  1.00  0.00     0.029 A 
ATOM     62  N   UNL     1      -5.369  -2.135  -7.151  1.00  0.00    -0.354 N 
ATOM     63  N   UNL     1      -6.035  -3.817  -4.811  1.00  0.00    -0.248 NA
ATOM     64  C   UNL     1      -7.313  -5.521  -3.853  1.00  0.00     0.031 C 
ATOM     65  C   UNL     1      -6.380  -2.570  -9.078  1.00  0.00     0.029 A 
ATOM     66  C   UNL     1      -6.293  -2.970  -7.753  1.00  0.00     0.049 A 
ATOM     67  H   UNL     1      -5.108  -2.172  -6.202  1.00  0.00     0.167 HD
ATOM     68  C   UNL     1      -6.863  -4.372  -5.785  1.00  0.00     0.074 A 
ATOM     69  C   UNL     1      -7.604  -5.437  -5.143  1.00  0.00     0.031 C 
ATOM     70  C   UNL     1      -7.001  -4.038  -7.092  1.00  0.00     0.034 A 
BRANCH  57  71
ATOM     71  C   UNL     1      -3.485   0.735  -8.883  1.00  0.00     0.023 A 
ATOM     72  C   UNL     1      -2.184   0.771  -9.412  1.00  0.00     0.031 A 
ATOM     73  C   UNL     1      -4.433   1.640  -9.395  1.00  0.00     0.131 A 
ATOM     74  C   UNL     1      -1.856   1.725 -10.388  1.00  0.00     0.055 A 
ATOM     75  C   UNL     1      -4.120   2.539 -10.413  1.00  0.00     0.041 A 
ATOM     76  F   UNL     1      -5.683   1.668  -8.904  1.00  0.00    -0.206 F 
ATOM     77  C   UNL     1      -2.821   2.592 -10.910  1.00  0.00     0.022 A 
BRANCH  74  78
ATOM     78  S   UNL     1      -0.124   1.892 -10.897  1.00  0.00     0.124 S 
ATOM     79  O   UNL     1       0.514   2.291  -9.646  1.00  0.00    -0.237 OA
ATOM     80  O   UNL     1       0.196   0.552 -11.377  1.00  0.00    -0.237 OA
ATOM     81  O   UNL     1      -0.167   2.929 -11.927  1.00  0.00    -0.744 OA
ENDBRANCH  74  78
ENDBRANCH  57  71
BRANCH  58  82
ATOM     82  C   UNL     1      -6.119  -5.172  -1.194  1.00  0.00     0.023 A 
ATOM     83  C   UNL     1      -6.013  -6.572  -1.223  1.00  0.00     0.031 A 
ATOM     84  C   UNL     1      -6.780  -4.589  -0.096  1.00  0.00     0.131 A 
ATOM     85  C   UNL     1      -6.612  -7.343  -0.212  1.00  0.00     0.055 A 
ATOM     86  C   UNL     1      -7.313  -5.356   0.942  1.00  0.00     0.041 A 
ATOM     87  F   UNL     1      -6.927  -3.257  -0.019  1.00  0.00    -0.206 F 
ATOM     88  C   UNL     1      -7.248  -6.744   0.877  1.00  0.00     0.022 A 
BRANCH  85  89
ATOM     89  S   UNL     1      -6.671  -9.146  -0.412  1.00  0.00     0.124 S 
ATOM     90  O   UNL     1      -7.302  -9.278  -1.720  1.00  0.00    -0.237 OA
ATOM     91  O   UNL     1      -5.258  -9.503  -0.342  1.00  0.00    -0.237 OA
ATOM     92  O   UNL     1      -7.482  -9.587   0.721  1.00  0.00    -0.744 OA
ENDBRANCH  85  89
ENDBRANCH  58  82
BRANCH  70  93
ATOM     93  C   UNL     1      -7.926  -4.884  -7.929  1.00  0.00     0.023 A 
ATOM     94  C   UNL     1      -9.321  -4.845  -7.767  1.00  0.00     0.031 A 
ATOM     95  C   UNL     1      -7.394  -5.725  -8.922  1.00  0.00     0.131 A 
ATOM     96  C   UNL     1     -10.136  -5.664  -8.562  1.00  0.00     0.055 A 
ATOM     97  C   UNL     1      -8.212  -6.499  -9.744  1.00  0.00     0.041 A 
ATOM     98  F   UNL     1      -6.067  -5.796  -9.118  1.00  0.00    -0.206 F 
ATOM     99  C   UNL     1      -9.592  -6.478  -9.560  1.00  0.00     0.022 A 
BRANCH  96 100
ATOM    100  S   UNL     1     -11.920  -5.697  -8.239  1.00  0.00     0.124 S 
ATOM    101  O   UNL     1     -11.972  -6.180  -6.863  1.00  0.00    -0.237 OA
ATOM    102  O   UNL     1     -12.301  -4.303  -8.439  1.00  0.00    -0.237 OA
ATOM    103  O   UNL     1     -12.434  -6.628  -9.243  1.00  0.00    -0.744 OA
ENDBRANCH  96 100
ENDBRANCH  70  93
ENDBRANCH  44  45
ENDBRANCH  37  39
ENDBRANCH  36  37
ENDBRANCH  35  36
ENDBRANCH  34  35
ENDBRANCH  33  34
ENDBRANCH  32  33
ENDBRANCH   1  32
TORSDOF 24
