REMARK SMILES O=C(OCCOCCOCCOC(=O)[C@H](c1c[nH]c2ccc(Cl)cc12)[NH+]1CCN(c2cccc(Cl)c2)CC1)c1ccc(-c2c3nc(c(-c4cc(S(=O)(=O)[O-])ccc4F)c4ccc([nH]4)c(-c4cc(S(=O)(=O)[O-])ccc4F)c4nc(c(-c5cc(S(=O)(=O)[O-])ccc5F)c5ccc2[nH]5)C=C4)C=C3)cc1
REMARK SMILES IDX 7 1 6 2 5 3 4 4 3 5 2 6 1 7 39 8 40 9 101 10 41 11 100 12
REMARK SMILES IDX 42 13 43 14 44 15 94 16 45 17 99 18 93 19 95 20 46 21 98 22
REMARK SMILES IDX 92 23 91 24 47 26 79 27 59 28 78 29 60 30 63 31 77 32 96 33
REMARK SMILES IDX 61 34 62 35 76 37 97 38 64 39 48 40 49 41 57 42 50 43 56 44
REMARK SMILES IDX 58 45 55 46 51 47 52 48 53 49 54 50 80 51 81 52 89 53 82 54
REMARK SMILES IDX 88 55 90 56 87 57 83 58 84 59 85 60 86 61 65 62 66 63 74 64
REMARK SMILES IDX 67 65 73 66 75 67 72 68 68 69 69 70 70 71 71 72 8 73 9 74
REMARK SMILES IDX 10 75 11 76 12 77 13 78 14 79 15 80 26 81 27 82 38 83 28 85
REMARK SMILES IDX 37 86 29 87 30 88 31 89 36 90 32 91 34 92 33 93 35 94 16 95
REMARK SMILES IDX 17 96 25 97 18 98 19 99 24 100 20 102 22 103 21 104 23 105
REMARK H PARENT 95 25 63 36 26 84 18 101
REMARK Flexibility Score: inf
ROOT
ATOM      1  C   UNL     1       6.327   2.125   4.438  1.00  0.00     0.188 C 
ENDROOT
BRANCH   1   2
ATOM      2  O   UNL     1       6.467   1.611   3.120  1.00  0.00    -0.376 OA
BRANCH   2   3
ATOM      3  C   UNL     1       7.790   1.325   2.722  1.00  0.00     0.202 C 
BRANCH   3   4
ATOM      4  C   UNL     1       8.466   2.506   2.025  1.00  0.00     0.261 C 
BRANCH   4   5
ATOM      5  O   UNL     1       8.328   3.767   2.717  1.00  0.00    -0.460 OA
BRANCH   5   6
ATOM      6  C   UNL     1       7.584   4.878   2.474  1.00  0.00     0.338 C 
ATOM      7  O   UNL     1       7.640   5.790   3.302  1.00  0.00    -0.246 OA
BRANCH   6   8
ATOM      8  C   UNL     1       6.602   5.033   1.351  1.00  0.00     0.060 A 
ATOM      9  C   UNL     1       6.633   4.367   0.136  1.00  0.00     0.016 A 
ATOM     10  C   UNL     1       5.559   5.964   1.527  1.00  0.00     0.016 A 
ATOM     11  C   UNL     1       5.504   4.367  -0.694  1.00  0.00     0.010 A 
ATOM     12  C   UNL     1       4.419   5.967   0.701  1.00  0.00     0.010 A 
ATOM     13  C   UNL     1       4.303   5.012  -0.310  1.00  0.00    -0.014 A 
BRANCH  13  14
ATOM     14  C   UNL     1       2.846   4.721  -1.176  1.00  0.00     0.031 A 
ATOM     15  C   UNL     1       3.277   6.086  -2.356  1.00  0.00     0.074 A 
ATOM     16  C   UNL     1       1.418   3.485  -1.153  1.00  0.00     0.049 A 
ATOM     17  N   UNL     1       2.581   6.484  -3.407  1.00  0.00    -0.248 NA
ATOM     18  C   UNL     1       4.564   6.825  -2.308  1.00  0.00     0.031 C 
ATOM     19  C   UNL     1       0.818   2.230  -0.219  1.00  0.00     0.029 A 
ATOM     20  N   UNL     1       0.214   3.256  -2.092  1.00  0.00    -0.354 N 
ATOM     21  C   UNL     1       3.418   7.130  -4.258  1.00  0.00     0.074 A 
ATOM     22  C   UNL     1       4.587   7.454  -3.483  1.00  0.00     0.031 C 
ATOM     23  C   UNL     1      -0.410   1.804  -0.574  1.00  0.00     0.029 A 
ATOM     24  C   UNL     1      -0.826   2.469  -1.760  1.00  0.00     0.049 A 
ATOM     25  H   UNL     1       0.207   3.704  -2.969  1.00  0.00     0.167 HD
ATOM     26  C   UNL     1       3.240   7.243  -5.593  1.00  0.00     0.034 A 
ATOM     27  C   UNL     1      -1.974   2.425  -2.458  1.00  0.00     0.034 A 
ATOM     28  C   UNL     1       2.064   6.778  -6.321  1.00  0.00     0.049 A 
ATOM     29  C   UNL     1      -2.041   3.136  -3.817  1.00  0.00     0.074 A 
ATOM     30  C   UNL     1       1.812   6.931  -7.671  1.00  0.00     0.029 A 
ATOM     31  N   UNL     1       0.948   6.096  -5.798  1.00  0.00    -0.354 N 
ATOM     32  N   UNL     1      -1.145   3.906  -4.421  1.00  0.00    -0.248 NA
ATOM     33  C   UNL     1      -3.246   2.897  -4.606  1.00  0.00     0.031 C 
ATOM     34  C   UNL     1       0.572   6.352  -7.959  1.00  0.00     0.029 A 
ATOM     35  C   UNL     1       0.057   5.744  -6.816  1.00  0.00     0.049 A 
ATOM     36  H   UNL     1       0.813   5.894  -4.844  1.00  0.00     0.167 HD
ATOM     37  C   UNL     1      -1.669   4.218  -5.682  1.00  0.00     0.074 A 
ATOM     38  C   UNL     1      -2.945   3.510  -5.741  1.00  0.00     0.031 C 
ATOM     39  C   UNL     1      -1.194   4.983  -6.717  1.00  0.00     0.034 A 
BRANCH  26  40
ATOM     40  C   UNL     1       4.384   7.883  -6.325  1.00  0.00     0.023 A 
ATOM     41  C   UNL     1       5.643   7.260  -6.435  1.00  0.00     0.031 A 
ATOM     42  C   UNL     1       4.236   9.184  -6.825  1.00  0.00     0.131 A 
ATOM     43  C   UNL     1       6.727   7.976  -6.964  1.00  0.00     0.055 A 
ATOM     44  C   UNL     1       5.301   9.866  -7.410  1.00  0.00     0.041 A 
ATOM     45  F   UNL     1       3.061   9.823  -6.719  1.00  0.00    -0.206 F 
ATOM     46  C   UNL     1       6.559   9.269  -7.466  1.00  0.00     0.022 A 
BRANCH  43  47
ATOM     47  S   UNL     1       8.395   7.267  -6.836  1.00  0.00     0.124 S 
ATOM     48  O   UNL     1       8.500   6.998  -5.403  1.00  0.00    -0.237 OA
ATOM     49  O   UNL     1       8.309   6.095  -7.698  1.00  0.00    -0.237 OA
ATOM     50  O   UNL     1       9.261   8.339  -7.324  1.00  0.00    -0.744 OA
ENDBRANCH  43  47
ENDBRANCH  26  40
BRANCH  27  51
ATOM     51  C   UNL     1      -3.120   1.718  -1.859  1.00  0.00     0.023 A 
ATOM     52  C   UNL     1      -3.639   0.552  -2.423  1.00  0.00     0.031 A 
ATOM     53  C   UNL     1      -3.696   2.206  -0.670  1.00  0.00     0.131 A 
ATOM     54  C   UNL     1      -4.730  -0.081  -1.814  1.00  0.00     0.055 A 
ATOM     55  C   UNL     1      -4.752   1.550  -0.044  1.00  0.00     0.041 A 
ATOM     56  F   UNL     1      -3.220   3.321  -0.090  1.00  0.00    -0.206 F 
ATOM     57  C   UNL     1      -5.281   0.401  -0.622  1.00  0.00     0.022 A 
BRANCH  54  58
ATOM     58  S   UNL     1      -5.451  -1.519  -2.642  1.00  0.00     0.124 S 
ATOM     59  O   UNL     1      -5.750  -0.983  -3.965  1.00  0.00    -0.237 OA
ATOM     60  O   UNL     1      -4.356  -2.482  -2.573  1.00  0.00    -0.237 OA
ATOM     61  O   UNL     1      -6.613  -1.837  -1.816  1.00  0.00    -0.744 OA
ENDBRANCH  54  58
ENDBRANCH  27  51
BRANCH  39  62
ATOM     62  C   UNL     1      -2.065   4.966  -7.976  1.00  0.00     0.023 A 
ATOM     63  C   UNL     1      -3.345   5.547  -7.995  1.00  0.00     0.031 A 
ATOM     64  C   UNL     1      -1.623   4.326  -9.153  1.00  0.00     0.131 A 
ATOM     65  C   UNL     1      -4.165   5.406  -9.127  1.00  0.00     0.055 A 
ATOM     66  C   UNL     1      -2.406   4.277 -10.310  1.00  0.00     0.041 A 
ATOM     67  F   UNL     1      -0.413   3.744  -9.203  1.00  0.00    -0.206 F 
ATOM     68  C   UNL     1      -3.694   4.801 -10.294  1.00  0.00     0.022 A 
BRANCH  65  69
ATOM     69  S   UNL     1      -5.912   5.881  -8.997  1.00  0.00     0.124 S 
ATOM     70  O   UNL     1      -6.360   5.062  -7.875  1.00  0.00    -0.237 OA
ATOM     71  O   UNL     1      -5.827   7.316  -8.747  1.00  0.00    -0.237 OA
ATOM     72  O   UNL     1      -6.466   5.509 -10.297  1.00  0.00    -0.744 OA
ENDBRANCH  65  69
ENDBRANCH  39  62
ENDBRANCH  13  14
ENDBRANCH   6   8
ENDBRANCH   5   6
ENDBRANCH   4   5
ENDBRANCH   3   4
ENDBRANCH   2   3
ENDBRANCH   1   2
BRANCH   1  73
ATOM     73  C   UNL     1       5.658   1.158   5.428  1.00  0.00     0.188 C 
BRANCH  73  74
ATOM     74  O   UNL     1       5.839  -0.236   5.203  1.00  0.00    -0.376 OA
BRANCH  74  75
ATOM     75  C   UNL     1       5.164  -0.803   4.073  1.00  0.00     0.202 C 
BRANCH  75  76
ATOM     76  C   UNL     1       3.654  -0.518   3.909  1.00  0.00     0.261 C 
BRANCH  76  77
ATOM     77  O   UNL     1       3.391   0.845   3.514  1.00  0.00    -0.459 OA
BRANCH  77  78
ATOM     78  C   UNL     1       2.251   1.490   3.913  1.00  0.00     0.370 C 
ATOM     79  O   UNL     1       1.462   0.992   4.715  1.00  0.00    -0.245 OA
BRANCH  78  80
ATOM     80  C   UNL     1       2.112   2.999   3.350  1.00  0.00     0.328 C 
BRANCH  80  81
ATOM     81  N   UNL     1       2.577   3.855   4.474  1.00  0.00    -0.316 N 
ATOM     82  C   UNL     1       3.541   4.915   4.184  1.00  0.00     0.284 C 
ATOM     83  C   UNL     1       1.437   4.433   5.242  1.00  0.00     0.284 C 
ATOM     84  H   UNL     1       3.103   3.178   5.027  1.00  0.00     0.349 HD
ATOM     85  C   UNL     1       2.933   6.143   3.510  1.00  0.00     0.178 C 
ATOM     86  C   UNL     1       0.773   5.696   4.612  1.00  0.00     0.178 C 
ATOM     87  N   UNL     1       1.817   6.664   4.284  1.00  0.00    -0.360 N 
BRANCH  87  88
ATOM     88  C   UNL     1       1.571   8.014   4.120  1.00  0.00     0.038 A 
ATOM     89  C   UNL     1       1.664   8.837   5.247  1.00  0.00     0.026 A 
ATOM     90  C   UNL     1       1.450   8.615   2.859  1.00  0.00     0.046 A 
ATOM     91  C   UNL     1       1.700  10.226   5.123  1.00  0.00     0.004 A 
ATOM     92  C   UNL     1       1.480  10.005   2.736  1.00  0.00     0.043 A 
ATOM     93  C   UNL     1       1.618  10.812   3.862  1.00  0.00     0.020 A 
ATOM     94  Cl  UNL     1       1.411  10.732   1.177  1.00  0.00    -0.084 Cl
ENDBRANCH  87  88
ENDBRANCH  80  81
BRANCH  80  95
ATOM     95  C   UNL     1       2.774   3.165   1.965  1.00  0.00     0.046 A 
ATOM     96  C   UNL     1       3.953   2.516   1.618  1.00  0.00     0.094 A 
ATOM     97  C   UNL     1       2.375   3.820   0.717  1.00  0.00     0.011 A 
ATOM     98  N   UNL     1       4.043   2.029   0.334  1.00  0.00    -0.361 N 
ATOM     99  C   UNL     1       3.257   2.770  -0.492  1.00  0.00     0.046 A 
ATOM    100  C   UNL     1       1.221   5.125   0.078  1.00  0.00     0.031 A 
ATOM    101  H   UNL     1       4.594   1.262   0.056  1.00  0.00     0.166 HD
ATOM    102  C   UNL     1       3.063   2.984  -2.311  1.00  0.00     0.028 A 
ATOM    103  C   UNL     1       0.994   5.390  -1.744  1.00  0.00     0.041 A 
ATOM    104  C   UNL     1       1.938   4.287  -2.962  1.00  0.00     0.022 A 
ATOM    105  Cl  UNL     1      -0.269   6.458  -2.257  1.00  0.00    -0.084 Cl
ENDBRANCH  80  95
ENDBRANCH  78  80
ENDBRANCH  77  78
ENDBRANCH  76  77
ENDBRANCH  75  76
ENDBRANCH  74  75
ENDBRANCH  73  74
ENDBRANCH   1  73
TORSDOF 23
