REMARK SMILES O=C(Nc1ccc(C(=O)OCCOCCOCCOC(=O)c2ccc(-c3c4nc(c(-c5cc(S(=O)(=O)[O-])ccc5F)c5ccc([nH]5)c(-c5cc(S(=O)(=O)[O-])ccc5F)c5nc(c(-c6cc(S(=O)(=O)[O-])ccc6F)c6ccc3[nH]6)C=C5)C=C4)cc2)cc1)c1cc(F)cc(Br)c1
REMARK SMILES IDX 15 1 14 2 13 3 12 4 11 5 10 6 8 7 9 8 7 9 4 10 5 11 86 12
REMARK SMILES IDX 6 13 85 14 3 15 1 16 2 17 87 19 88 20 94 21 89 22 92 23
REMARK SMILES IDX 90 24 91 25 93 26 16 27 17 28 18 29 19 30 20 31 21 32 22 33
REMARK SMILES IDX 23 34 84 35 24 36 83 37 25 38 26 39 27 40 77 41 28 42 82 43
REMARK SMILES IDX 76 44 78 45 29 46 81 47 75 48 74 49 30 51 62 52 42 53 61 54
REMARK SMILES IDX 43 55 46 56 60 57 79 58 44 59 45 60 59 62 80 63 47 64 31 65
REMARK SMILES IDX 32 66 40 67 33 68 39 69 41 70 38 71 34 72 35 73 36 74 37 75
REMARK SMILES IDX 63 76 64 77 72 78 65 79 71 80 73 81 70 82 66 83 67 84 68 85
REMARK SMILES IDX 69 86 48 87 49 88 57 89 50 90 56 91 58 92 55 93 51 94 52 95
REMARK SMILES IDX 53 96 54 97
REMARK H PARENT 3 18 78 50 46 61
REMARK Flexibility Score: inf
ROOT
ATOM      1  C   UNL     1       9.080   0.279  -3.296  1.00  0.00     0.188 C 
ENDROOT
BRANCH   1   2
ATOM      2  C   UNL     1       9.834   1.505  -2.740  1.00  0.00     0.188 C 
BRANCH   2   3
ATOM      3  O   UNL     1      11.196   1.393  -2.366  1.00  0.00    -0.376 OA
BRANCH   3   4
ATOM      4  C   UNL     1      11.615   0.407  -1.436  1.00  0.00     0.202 C 
BRANCH   4   5
ATOM      5  C   UNL     1      10.806   0.064  -0.176  1.00  0.00     0.261 C 
BRANCH   5   6
ATOM      6  O   UNL     1       9.399  -0.092  -0.383  1.00  0.00    -0.460 OA
BRANCH   6   7
ATOM      7  C   UNL     1       8.627   0.851   0.209  1.00  0.00     0.338 C 
ATOM      8  O   UNL     1       8.998   1.739   0.958  1.00  0.00    -0.246 OA
BRANCH   7   9
ATOM      9  C   UNL     1       7.244   0.771  -0.308  1.00  0.00     0.060 A 
ATOM     10  C   UNL     1       4.545   0.742  -0.945  1.00  0.00     0.041 A 
ATOM     11  C   UNL     1       5.220   1.960  -0.922  1.00  0.00     0.027 A 
ATOM     12  C   UNL     1       5.259  -0.463  -0.870  1.00  0.00     0.027 A 
ATOM     13  C   UNL     1       6.568   1.973  -0.566  1.00  0.00     0.018 A 
ATOM     14  C   UNL     1       6.611  -0.453  -0.534  1.00  0.00     0.018 A 
BRANCH  10  15
ATOM     15  N   UNL     1       3.143   0.775  -0.843  1.00  0.00    -0.322 N 
ATOM     16  O   UNL     1       1.137   0.045  -0.034  1.00  0.00    -0.269 OA
ATOM     17  C   UNL     1       2.363   0.030   0.029  1.00  0.00     0.255 C 
ATOM     18  H   UNL     1       2.669   1.387  -1.450  1.00  0.00     0.170 HD
BRANCH  17  19
ATOM     19  C   UNL     1       3.012  -0.760   1.110  1.00  0.00     0.044 A 
ATOM     20  C   UNL     1       4.024  -0.211   1.910  1.00  0.00     0.053 A 
ATOM     21  C   UNL     1       2.650  -2.102   1.260  1.00  0.00     0.029 A 
ATOM     22  C   UNL     1       4.761  -1.046   2.740  1.00  0.00     0.125 A 
ATOM     23  C   UNL     1       3.381  -2.911   2.131  1.00  0.00     0.021 A 
ATOM     24  F   UNL     1       5.812  -0.552   3.407  1.00  0.00    -0.207 F 
ATOM     25  C   UNL     1       4.458  -2.397   2.849  1.00  0.00     0.055 A 
ATOM     26  Br  UNL     1       2.937  -4.740   2.302  1.00  0.00    -0.051 Br
ENDBRANCH  17  19
ENDBRANCH  10  15
ENDBRANCH   7   9
ENDBRANCH   6   7
ENDBRANCH   5   6
ENDBRANCH   4   5
ENDBRANCH   3   4
ENDBRANCH   2   3
ENDBRANCH   1   2
BRANCH   1  27
ATOM     27  O   UNL     1       9.757  -0.953  -3.267  1.00  0.00    -0.376 OA
BRANCH  27  28
ATOM     28  C   UNL     1      10.668  -1.288  -4.299  1.00  0.00     0.202 C 
BRANCH  28  29
ATOM     29  C   UNL     1      11.067  -0.400  -5.498  1.00  0.00     0.261 C 
BRANCH  29  30
ATOM     30  O   UNL     1      10.583   0.943  -5.561  1.00  0.00    -0.460 OA
BRANCH  30  31
ATOM     31  C   UNL     1       9.536   1.159  -6.393  1.00  0.00     0.338 C 
ATOM     32  O   UNL     1       8.936   0.316  -7.050  1.00  0.00    -0.246 OA
BRANCH  31  33
ATOM     33  C   UNL     1       9.095   2.558  -6.248  1.00  0.00     0.060 A 
ATOM     34  C   UNL     1       7.852   2.821  -5.657  1.00  0.00     0.016 A 
ATOM     35  C   UNL     1       9.896   3.605  -6.707  1.00  0.00     0.016 A 
ATOM     36  C   UNL     1       7.401   4.136  -5.533  1.00  0.00     0.010 A 
ATOM     37  C   UNL     1       9.431   4.920  -6.602  1.00  0.00     0.010 A 
ATOM     38  C   UNL     1       8.173   5.193  -6.033  1.00  0.00    -0.014 A 
BRANCH  38  39
ATOM     39  C   UNL     1       7.607   6.564  -6.101  1.00  0.00     0.031 A 
ATOM     40  C   UNL     1       7.042   7.048  -7.410  1.00  0.00     0.074 A 
ATOM     41  C   UNL     1       7.587   7.365  -5.019  1.00  0.00     0.049 A 
ATOM     42  N   UNL     1       6.573   8.226  -7.728  1.00  0.00    -0.248 NA
ATOM     43  C   UNL     1       7.006   6.066  -8.505  1.00  0.00     0.031 C 
ATOM     44  C   UNL     1       8.057   6.993  -3.685  1.00  0.00     0.029 A 
ATOM     45  N   UNL     1       7.165   8.664  -4.876  1.00  0.00    -0.354 N 
ATOM     46  C   UNL     1       6.193   8.133  -9.063  1.00  0.00     0.074 A 
ATOM     47  C   UNL     1       6.515   6.791  -9.500  1.00  0.00     0.031 C 
ATOM     48  C   UNL     1       7.911   8.047  -2.863  1.00  0.00     0.029 A 
ATOM     49  C   UNL     1       7.383   9.182  -3.620  1.00  0.00     0.049 A 
ATOM     50  H   UNL     1       6.745   9.177  -5.604  1.00  0.00     0.167 HD
ATOM     51  C   UNL     1       5.625   9.080  -9.850  1.00  0.00     0.034 A 
ATOM     52  C   UNL     1       7.212  10.435  -3.147  1.00  0.00     0.034 A 
ATOM     53  C   UNL     1       5.323  10.419  -9.405  1.00  0.00     0.049 A 
ATOM     54  C   UNL     1       6.670  11.502  -4.074  1.00  0.00     0.074 A 
ATOM     55  C   UNL     1       4.733  11.449 -10.117  1.00  0.00     0.029 A 
ATOM     56  N   UNL     1       5.599  10.921  -8.140  1.00  0.00    -0.354 N 
ATOM     57  N   UNL     1       6.304  11.399  -5.332  1.00  0.00    -0.248 NA
ATOM     58  C   UNL     1       6.513  12.851  -3.514  1.00  0.00     0.031 C 
ATOM     59  C   UNL     1       4.729  12.593  -9.313  1.00  0.00     0.029 A 
ATOM     60  C   UNL     1       5.229  12.255  -8.066  1.00  0.00     0.049 A 
ATOM     61  H   UNL     1       6.000  10.405  -7.404  1.00  0.00     0.167 HD
ATOM     62  C   UNL     1       5.839  12.662  -5.697  1.00  0.00     0.074 A 
ATOM     63  C   UNL     1       5.957  13.502  -4.525  1.00  0.00     0.031 C 
ATOM     64  C   UNL     1       5.354  13.087  -6.892  1.00  0.00     0.034 A 
BRANCH  51  65
ATOM     65  C   UNL     1       5.347   8.718 -11.288  1.00  0.00     0.023 A 
ATOM     66  C   UNL     1       4.413   7.728 -11.639  1.00  0.00     0.031 A 
ATOM     67  C   UNL     1       6.032   9.375 -12.327  1.00  0.00     0.131 A 
ATOM     68  C   UNL     1       4.231   7.384 -12.987  1.00  0.00     0.055 A 
ATOM     69  C   UNL     1       5.790   9.082 -13.670  1.00  0.00     0.041 A 
ATOM     70  F   UNL     1       6.955  10.311 -12.052  1.00  0.00    -0.206 F 
ATOM     71  C   UNL     1       4.893   8.073 -14.006  1.00  0.00     0.022 A 
BRANCH  68  72
ATOM     72  S   UNL     1       3.212   5.938 -13.384  1.00  0.00     0.124 S 
ATOM     73  O   UNL     1       3.912   4.877 -12.665  1.00  0.00    -0.237 OA
ATOM     74  O   UNL     1       1.907   6.316 -12.854  1.00  0.00    -0.237 OA
ATOM     75  O   UNL     1       3.292   5.851 -14.841  1.00  0.00    -0.744 OA
ENDBRANCH  68  72
ENDBRANCH  51  65
BRANCH  52  76
ATOM     76  C   UNL     1       7.600  10.784  -1.748  1.00  0.00     0.023 A 
ATOM     77  C   UNL     1       6.655  11.271  -0.831  1.00  0.00     0.031 A 
ATOM     78  C   UNL     1       8.943  10.717  -1.333  1.00  0.00     0.131 A 
ATOM     79  C   UNL     1       7.072  11.729   0.430  1.00  0.00     0.055 A 
ATOM     80  C   UNL     1       9.343  11.111  -0.054  1.00  0.00     0.041 A 
ATOM     81  F   UNL     1       9.892  10.268  -2.170  1.00  0.00    -0.206 F 
ATOM     82  C   UNL     1       8.407  11.637   0.830  1.00  0.00     0.022 A 
BRANCH  79  83
ATOM     83  S   UNL     1       5.861  12.556   1.497  1.00  0.00     0.124 S 
ATOM     84  O   UNL     1       5.406  13.645   0.639  1.00  0.00    -0.237 OA
ATOM     85  O   UNL     1       4.897  11.489   1.744  1.00  0.00    -0.237 OA
ATOM     86  O   UNL     1       6.650  12.963   2.657  1.00  0.00    -0.744 OA
ENDBRANCH  79  83
ENDBRANCH  52  76
BRANCH  64  87
ATOM     87  C   UNL     1       4.857  14.513  -6.972  1.00  0.00     0.023 A 
ATOM     88  C   UNL     1       5.721  15.613  -6.830  1.00  0.00     0.031 A 
ATOM     89  C   UNL     1       3.491  14.772  -7.189  1.00  0.00     0.131 A 
ATOM     90  C   UNL     1       5.201  16.918  -6.848  1.00  0.00     0.055 A 
ATOM     91  C   UNL     1       2.991  16.072  -7.274  1.00  0.00     0.041 A 
ATOM     92  F   UNL     1       2.617  13.762  -7.329  1.00  0.00    -0.206 F 
ATOM     93  C   UNL     1       3.846  17.154  -7.088  1.00  0.00     0.022 A 
BRANCH  90  94
ATOM     94  S   UNL     1       6.305  18.302  -6.452  1.00  0.00     0.124 S 
ATOM     95  O   UNL     1       6.781  17.939  -5.121  1.00  0.00    -0.237 OA
ATOM     96  O   UNL     1       7.293  18.230  -7.524  1.00  0.00    -0.237 OA
ATOM     97  O   UNL     1       5.425  19.468  -6.499  1.00  0.00    -0.744 OA
ENDBRANCH  90  94
ENDBRANCH  64  87
ENDBRANCH  38  39
ENDBRANCH  31  33
ENDBRANCH  30  31
ENDBRANCH  29  30
ENDBRANCH  28  29
ENDBRANCH  27  28
ENDBRANCH   1  27
TORSDOF 22
