REMARK SMILES CC[C@@H](Oc1ccc(/C=C2/SC(=S)N(N3CCOCC3)C2=O)cc1OC)C(=O)OCCOCCOCCOC(=O)c1ccc(-c2c3nc(c(-c4cc(S(=O)(=O)[O-])ccc4F)c4ccc([nH]4)c(-c4cc(S(=O)(=O)[O-])ccc4F)c4nc(c(-c5cc(S(=O)(=O)[O-])ccc5F)c5ccc2[nH]5)C=C4)C=C3)cc1
REMARK SMILES IDX 33 1 32 2 31 3 30 4 29 5 27 6 28 7 3 8 2 9 1 10 4 11 5 12
REMARK SMILES IDX 6 13 24 14 7 15 23 16 8 17 25 18 26 19 9 20 10 21 11 22
REMARK SMILES IDX 21 23 12 24 14 25 22 26 13 27 15 28 16 29 20 30 17 31 19 32
REMARK SMILES IDX 18 33 34 34 35 35 36 36 37 37 38 38 39 39 40 40 41 41 42 42
REMARK SMILES IDX 103 43 43 44 102 45 44 46 45 47 46 48 96 49 47 50 101 51
REMARK SMILES IDX 95 52 97 53 48 54 100 55 94 56 93 57 49 59 81 60 61 61 80 62
REMARK SMILES IDX 62 63 65 64 79 65 98 66 63 67 64 68 78 70 99 71 66 72 50 73
REMARK SMILES IDX 51 74 59 75 52 76 58 77 60 78 57 79 53 80 54 81 55 82 56 83
REMARK SMILES IDX 82 84 83 85 91 86 84 87 90 88 92 89 89 90 85 91 86 92 87 93
REMARK SMILES IDX 88 94 67 95 68 96 76 97 69 98 75 99 77 100 74 101 70 102
REMARK SMILES IDX 71 103 72 104 73 105
REMARK H PARENT 97 58 65 69
REMARK Flexibility Score: inf
ROOT
ATOM      1  C   UNL     1       1.386   5.377  -2.045  1.00  0.00     0.188 C 
ENDROOT
BRANCH   1   2
ATOM      2  O   UNL     1       0.715   6.051  -3.098  1.00  0.00    -0.376 OA
BRANCH   2   3
ATOM      3  C   UNL     1      -0.641   5.685  -3.327  1.00  0.00     0.202 C 
BRANCH   3   4
ATOM      4  C   UNL     1      -0.932   4.247  -3.789  1.00  0.00     0.261 C 
BRANCH   4   5
ATOM      5  O   UNL     1      -0.377   3.207  -2.965  1.00  0.00    -0.461 OA
BRANCH   5   6
ATOM      6  C   UNL     1       0.628   2.469  -3.531  1.00  0.00     0.347 C 
ATOM      7  O   UNL     1       1.086   2.658  -4.653  1.00  0.00    -0.248 OA
BRANCH   6   8
ATOM      8  C   UNL     1       1.105   1.337  -2.624  1.00  0.00     0.282 C 
BRANCH   8   9
ATOM      9  C   UNL     1       1.514   1.823  -1.222  1.00  0.00     0.054 C 
ATOM     10  C   UNL     1       2.150   0.765  -0.322  1.00  0.00     0.008 C 
ENDBRANCH   8   9
BRANCH   8  11
ATOM     11  O   UNL     1      -0.015   0.441  -2.597  1.00  0.00    -0.475 OA
BRANCH  11  12
ATOM     12  C   UNL     1       0.370  -0.868  -2.546  1.00  0.00     0.162 A 
ATOM     13  C   UNL     1       1.030  -1.447  -3.638  1.00  0.00     0.051 A 
ATOM     14  C   UNL     1       0.116  -1.609  -1.392  1.00  0.00     0.161 A 
ATOM     15  C   UNL     1       1.484  -2.763  -3.563  1.00  0.00     0.012 A 
ATOM     16  C   UNL     1       0.639  -2.893  -1.301  1.00  0.00     0.058 A 
ATOM     17  C   UNL     1       1.274  -3.498  -2.397  1.00  0.00    -0.020 A 
BRANCH  14  18
ATOM     18  O   UNL     1      -0.541  -1.184  -0.268  1.00  0.00    -0.493 OA
ATOM     19  C   UNL     1      -1.613  -0.272  -0.481  1.00  0.00     0.278 C 
ENDBRANCH  14  18
BRANCH  17  20
ATOM     20  C   UNL     1       1.696  -4.897  -2.312  1.00  0.00     0.029 C 
ATOM     21  C   UNL     1       0.878  -5.888  -1.927  1.00  0.00     0.082 C 
ATOM     22  S   UNL     1       1.426  -7.483  -1.580  1.00  0.00    -0.053 SA
ATOM     23  C   UNL     1      -0.579  -5.777  -1.615  1.00  0.00     0.280 C 
ATOM     24  C   UNL     1      -0.045  -7.886  -0.687  1.00  0.00     0.163 C 
ATOM     25  N   UNL     1      -0.946  -6.838  -0.796  1.00  0.00    -0.220 N 
ATOM     26  O   UNL     1      -1.330  -4.929  -2.081  1.00  0.00    -0.267 OA
ATOM     27  S   UNL     1      -0.192  -9.347   0.107  1.00  0.00    -0.050 S 
BRANCH  25  28
ATOM     28  N   UNL     1      -2.225  -6.813  -0.236  1.00  0.00    -0.208 NA
ATOM     29  C   UNL     1      -2.430  -6.646   1.191  1.00  0.00     0.137 C 
ATOM     30  C   UNL     1      -3.365  -7.267  -1.006  1.00  0.00     0.137 C 
ATOM     31  C   UNL     1      -3.166  -7.855   1.793  1.00  0.00     0.177 C 
ATOM     32  C   UNL     1      -3.988  -8.494  -0.337  1.00  0.00     0.177 C 
ATOM     33  O   UNL     1      -4.329  -8.219   1.031  1.00  0.00    -0.379 OA
ENDBRANCH  25  28
ENDBRANCH  17  20
ENDBRANCH  11  12
ENDBRANCH   8  11
ENDBRANCH   6   8
ENDBRANCH   5   6
ENDBRANCH   4   5
ENDBRANCH   3   4
ENDBRANCH   2   3
ENDBRANCH   1   2
BRANCH   1  34
ATOM     34  C   UNL     1       0.814   5.519  -0.634  1.00  0.00     0.188 C 
BRANCH  34  35
ATOM     35  O   UNL     1      -0.593   5.356  -0.495  1.00  0.00    -0.376 OA
BRANCH  35  36
ATOM     36  C   UNL     1      -1.072   5.331   0.858  1.00  0.00     0.202 C 
BRANCH  36  37
ATOM     37  C   UNL     1      -0.617   6.496   1.763  1.00  0.00     0.261 C 
BRANCH  37  38
ATOM     38  O   UNL     1       0.808   6.564   1.988  1.00  0.00    -0.460 OA
BRANCH  38  39
ATOM     39  C   UNL     1       1.406   5.458   2.502  1.00  0.00     0.338 C 
ATOM     40  O   UNL     1       0.840   4.516   3.014  1.00  0.00    -0.246 OA
BRANCH  39  41
ATOM     41  C   UNL     1       2.841   5.460   2.086  1.00  0.00     0.060 A 
ATOM     42  C   UNL     1       3.433   4.230   1.761  1.00  0.00     0.016 A 
ATOM     43  C   UNL     1       3.579   6.640   1.940  1.00  0.00     0.016 A 
ATOM     44  C   UNL     1       4.767   4.173   1.342  1.00  0.00     0.010 A 
ATOM     45  C   UNL     1       4.918   6.580   1.528  1.00  0.00     0.010 A 
ATOM     46  C   UNL     1       5.533   5.343   1.262  1.00  0.00    -0.014 A 
BRANCH  46  47
ATOM     47  C   UNL     1       7.014   5.256   1.126  1.00  0.00     0.031 A 
ATOM     48  C   UNL     1       7.845   5.340   2.381  1.00  0.00     0.074 A 
ATOM     49  C   UNL     1       7.624   5.073  -0.060  1.00  0.00     0.049 A 
ATOM     50  N   UNL     1       9.145   5.331   2.526  1.00  0.00    -0.248 NA
ATOM     51  C   UNL     1       7.098   5.452   3.644  1.00  0.00     0.031 C 
ATOM     52  C   UNL     1       6.950   4.921  -1.347  1.00  0.00     0.029 A 
ATOM     53  N   UNL     1       8.962   4.988  -0.371  1.00  0.00    -0.354 N 
ATOM     54  C   UNL     1       9.374   5.436   3.894  1.00  0.00     0.074 A 
ATOM     55  C   UNL     1       8.077   5.551   4.528  1.00  0.00     0.031 C 
ATOM     56  C   UNL     1       7.878   4.770  -2.310  1.00  0.00     0.029 A 
ATOM     57  C   UNL     1       9.214   4.853  -1.717  1.00  0.00     0.049 A 
ATOM     58  H   UNL     1       9.674   5.022   0.308  1.00  0.00     0.167 HD
ATOM     59  C   UNL     1      10.551   5.425   4.567  1.00  0.00     0.034 A 
ATOM     60  C   UNL     1      10.383   4.825  -2.395  1.00  0.00     0.034 A 
ATOM     61  C   UNL     1      11.844   5.330   3.934  1.00  0.00     0.049 A 
ATOM     62  C   UNL     1      11.688   4.929  -1.635  1.00  0.00     0.074 A 
ATOM     63  C   UNL     1      13.093   5.310   4.529  1.00  0.00     0.029 A 
ATOM     64  N   UNL     1      12.057   5.258   2.564  1.00  0.00    -0.354 N 
ATOM     65  N   UNL     1      11.890   5.025  -0.341  1.00  0.00    -0.248 NA
ATOM     66  C   UNL     1      12.925   4.918  -2.432  1.00  0.00     0.031 C 
ATOM     67  C   UNL     1      14.062   5.304   3.519  1.00  0.00     0.029 A 
ATOM     68  C   UNL     1      13.418   5.232   2.295  1.00  0.00     0.049 A 
ATOM     69  H   UNL     1      11.347   5.230   1.883  1.00  0.00     0.167 HD
ATOM     70  C   UNL     1      13.275   5.050  -0.172  1.00  0.00     0.074 A 
ATOM     71  C   UNL     1      13.858   4.949  -1.492  1.00  0.00     0.031 C 
ATOM     72  C   UNL     1      13.998   5.140   0.975  1.00  0.00     0.034 A 
BRANCH  59  73
ATOM     73  C   UNL     1      10.485   5.578   6.067  1.00  0.00     0.023 A 
ATOM     74  C   UNL     1       9.864   4.615   6.882  1.00  0.00     0.031 A 
ATOM     75  C   UNL     1      11.011   6.725   6.686  1.00  0.00     0.131 A 
ATOM     76  C   UNL     1       9.714   4.854   8.256  1.00  0.00     0.055 A 
ATOM     77  C   UNL     1      10.935   6.917   8.066  1.00  0.00     0.041 A 
ATOM     78  F   UNL     1      11.592   7.690   5.956  1.00  0.00    -0.206 F 
ATOM     79  C   UNL     1      10.269   5.986   8.858  1.00  0.00     0.022 A 
BRANCH  76  80
ATOM     80  S   UNL     1       8.647   3.746   9.216  1.00  0.00     0.124 S 
ATOM     81  O   UNL     1       7.380   3.861   8.497  1.00  0.00    -0.237 OA
ATOM     82  O   UNL     1       9.334   2.466   9.098  1.00  0.00    -0.237 OA
ATOM     83  O   UNL     1       8.651   4.338  10.552  1.00  0.00    -0.744 OA
ENDBRANCH  76  80
ENDBRANCH  59  73
BRANCH  60  84
ATOM     84  C   UNL     1      10.395   4.751  -3.887  1.00  0.00     0.023 A 
ATOM     85  C   UNL     1      10.980   3.667  -4.563  1.00  0.00     0.031 A 
ATOM     86  C   UNL     1       9.889   5.812  -4.661  1.00  0.00     0.131 A 
ATOM     87  C   UNL     1      11.087   3.690  -5.963  1.00  0.00     0.055 A 
ATOM     88  C   UNL     1       9.949   5.804  -6.056  1.00  0.00     0.041 A 
ATOM     89  F   UNL     1       9.330   6.878  -4.068  1.00  0.00    -0.206 F 
ATOM     90  C   UNL     1      10.563   4.744  -6.715  1.00  0.00     0.022 A 
BRANCH  87  91
ATOM     91  S   UNL     1      12.007   2.360  -6.789  1.00  0.00     0.124 S 
ATOM     92  O   UNL     1      13.328   2.494  -6.186  1.00  0.00    -0.237 OA
ATOM     93  O   UNL     1      11.242   1.179  -6.406  1.00  0.00    -0.237 OA
ATOM     94  O   UNL     1      11.927   2.719  -8.204  1.00  0.00    -0.744 OA
ENDBRANCH  87  91
ENDBRANCH  60  84
BRANCH  72  95
ATOM     95  C   UNL     1      15.505   5.078   0.859  1.00  0.00     0.023 A 
ATOM     96  C   UNL     1      16.249   6.092   0.229  1.00  0.00     0.031 A 
ATOM     97  C   UNL     1      16.208   3.982   1.393  1.00  0.00     0.131 A 
ATOM     98  C   UNL     1      17.642   5.965   0.106  1.00  0.00     0.055 A 
ATOM     99  C   UNL     1      17.599   3.891   1.321  1.00  0.00     0.041 A 
ATOM    100  F   UNL     1      15.552   2.982   2.004  1.00  0.00    -0.206 F 
ATOM    101  C   UNL     1      18.323   4.880   0.663  1.00  0.00     0.022 A 
BRANCH  98 102
ATOM    102  S   UNL     1      18.551   7.197  -0.869  1.00  0.00     0.124 S 
ATOM    103  O   UNL     1      17.898   7.097  -2.170  1.00  0.00    -0.237 OA
ATOM    104  O   UNL     1      18.304   8.428  -0.124  1.00  0.00    -0.237 OA
ATOM    105  O   UNL     1      19.931   6.717  -0.829  1.00  0.00    -0.744 OA
ENDBRANCH  98 102
ENDBRANCH  72  95
ENDBRANCH  46  47
ENDBRANCH  39  41
ENDBRANCH  38  39
ENDBRANCH  37  38
ENDBRANCH  36  37
ENDBRANCH  35  36
ENDBRANCH  34  35
ENDBRANCH   1  34
TORSDOF 26
