REMARK SMILES O=C(C[NH+]1CCN(C(=O)c2ccc(F)c(F)c2F)CC1)OCCOCCOCCOC(=O)c1ccc(-c2c3nc(c(-c4cc(S(=O)(=O)[O-])ccc4F)c4ccc([nH]4)c(-c4cc(S(=O)(=O)[O-])ccc4F)c4nc(c(-c5cc(S(=O)(=O)[O-])ccc5F)c5ccc2[nH]5)C=C4)C=C3)cc1
REMARK SMILES IDX 26 1 25 2 24 3 23 4 22 5 21 6 2 7 1 8 3 9 4 10 5 11 20 12
REMARK SMILES IDX 6 14 19 15 7 16 8 17 9 18 10 19 11 20 17 21 12 22 15 23
REMARK SMILES IDX 18 24 13 25 16 26 14 27 27 28 28 29 29 30 30 31 31 32 32 33
REMARK SMILES IDX 33 34 34 35 95 36 35 37 94 38 36 39 37 40 38 41 88 42 39 43
REMARK SMILES IDX 93 44 87 45 89 46 40 47 92 48 86 49 85 50 41 52 73 53 53 54
REMARK SMILES IDX 72 55 54 56 57 57 71 58 90 59 55 60 56 61 70 63 91 64 58 65
REMARK SMILES IDX 42 66 43 67 51 68 44 69 50 70 52 71 49 72 45 73 46 74 47 75
REMARK SMILES IDX 48 76 74 77 75 78 83 79 76 80 82 81 84 82 81 83 77 84 78 85
REMARK SMILES IDX 79 86 80 87 59 88 60 89 68 90 61 91 67 92 69 93 66 94 62 95
REMARK SMILES IDX 63 96 64 97 65 98
REMARK H PARENT 4 13 89 51 57 62
REMARK Flexibility Score: inf
ROOT
ATOM      1  C   UNL     1       2.211  -1.512   2.983  1.00  0.00     0.188 C 
ENDROOT
BRANCH   1   2
ATOM      2  C   UNL     1       3.001  -1.690   1.681  1.00  0.00     0.188 C 
BRANCH   2   3
ATOM      3  O   UNL     1       4.229  -0.983   1.559  1.00  0.00    -0.376 OA
BRANCH   3   4
ATOM      4  C   UNL     1       4.190   0.393   1.917  1.00  0.00     0.202 C 
BRANCH   4   5
ATOM      5  C   UNL     1       3.724   1.239   0.755  1.00  0.00     0.261 C 
BRANCH   5   6
ATOM      6  O   UNL     1       2.366   1.015   0.365  1.00  0.00    -0.459 OA
BRANCH   6   7
ATOM      7  C   UNL     1       2.094   0.780  -0.954  1.00  0.00     0.361 C 
ATOM      8  O   UNL     1       1.093   1.269  -1.470  1.00  0.00    -0.245 OA
BRANCH   7   9
ATOM      9  C   UNL     1       2.997  -0.223  -1.682  1.00  0.00     0.386 C 
BRANCH   9  10
ATOM     10  N   UNL     1       4.030   0.286  -2.603  1.00  0.00    -0.323 N 
ATOM     11  C   UNL     1       4.400   1.695  -2.614  1.00  0.00     0.284 C 
ATOM     12  C   UNL     1       5.225  -0.564  -2.640  1.00  0.00     0.284 C 
ATOM     13  H   UNL     1       3.492   0.222  -3.468  1.00  0.00     0.348 HD
ATOM     14  C   UNL     1       5.612   2.150  -1.765  1.00  0.00     0.181 C 
ATOM     15  C   UNL     1       6.217  -0.305  -1.494  1.00  0.00     0.181 C 
ATOM     16  N   UNL     1       6.523   1.116  -1.240  1.00  0.00    -0.327 N 
ATOM     17  C   UNL     1       7.422   1.536  -0.248  1.00  0.00     0.257 C 
ATOM     18  O   UNL     1       7.374   2.656   0.259  1.00  0.00    -0.269 OA
BRANCH  17  19
ATOM     19  C   UNL     1       8.530   0.652   0.172  1.00  0.00     0.079 A 
ATOM     20  C   UNL     1       9.359   0.072  -0.800  1.00  0.00     0.020 A 
ATOM     21  C   UNL     1       8.858   0.524   1.525  1.00  0.00     0.174 A 
ATOM     22  C   UNL     1      10.472  -0.678  -0.416  1.00  0.00     0.043 A 
ATOM     23  C   UNL     1       9.983  -0.203   1.902  1.00  0.00     0.195 A 
ATOM     24  F   UNL     1       8.104   1.094   2.477  1.00  0.00    -0.203 F 
ATOM     25  C   UNL     1      10.778  -0.807   0.935  1.00  0.00     0.161 A 
ATOM     26  F   UNL     1      10.312  -0.313   3.198  1.00  0.00    -0.200 F 
ATOM     27  F   UNL     1      11.865  -1.505   1.293  1.00  0.00    -0.204 F 
ENDBRANCH  17  19
ENDBRANCH   9  10
ENDBRANCH   7   9
ENDBRANCH   6   7
ENDBRANCH   5   6
ENDBRANCH   4   5
ENDBRANCH   3   4
ENDBRANCH   2   3
ENDBRANCH   1   2
BRANCH   1  28
ATOM     28  O   UNL     1       2.878  -1.459   4.240  1.00  0.00    -0.376 OA
BRANCH  28  29
ATOM     29  C   UNL     1       4.197  -1.962   4.392  1.00  0.00     0.202 C 
BRANCH  29  30
ATOM     30  C   UNL     1       4.346  -3.477   4.516  1.00  0.00     0.261 C 
BRANCH  30  31
ATOM     31  O   UNL     1       4.036  -4.182   3.308  1.00  0.00    -0.460 OA
BRANCH  31  32
ATOM     32  C   UNL     1       2.784  -4.689   3.240  1.00  0.00     0.338 C 
ATOM     33  O   UNL     1       1.890  -4.568   4.067  1.00  0.00    -0.246 OA
BRANCH  32  34
ATOM     34  C   UNL     1       2.593  -5.328   1.927  1.00  0.00     0.060 A 
ATOM     35  C   UNL     1       1.457  -5.006   1.169  1.00  0.00     0.016 A 
ATOM     36  C   UNL     1       3.500  -6.292   1.484  1.00  0.00     0.016 A 
ATOM     37  C   UNL     1       1.187  -5.702  -0.009  1.00  0.00     0.010 A 
ATOM     38  C   UNL     1       3.222  -6.995   0.316  1.00  0.00     0.010 A 
ATOM     39  C   UNL     1       2.041  -6.739  -0.404  1.00  0.00    -0.014 A 
BRANCH  39  40
ATOM     40  C   UNL     1       1.609  -7.743  -1.403  1.00  0.00     0.031 A 
ATOM     41  C   UNL     1       1.073  -9.048  -0.886  1.00  0.00     0.074 A 
ATOM     42  C   UNL     1       1.775  -7.539  -2.719  1.00  0.00     0.049 A 
ATOM     43  N   UNL     1       0.858 -10.171  -1.516  1.00  0.00    -0.248 NA
ATOM     44  C   UNL     1       0.770  -9.091   0.553  1.00  0.00     0.031 C 
ATOM     45  C   UNL     1       2.241  -6.296  -3.327  1.00  0.00     0.029 A 
ATOM     46  N   UNL     1       1.609  -8.398  -3.775  1.00  0.00    -0.354 N 
ATOM     47  C   UNL     1       0.423 -11.068  -0.544  1.00  0.00     0.074 A 
ATOM     48  C   UNL     1       0.442 -10.361   0.719  1.00  0.00     0.031 C 
ATOM     49  C   UNL     1       2.366  -6.486  -4.652  1.00  0.00     0.029 A 
ATOM     50  C   UNL     1       2.043  -7.877  -4.970  1.00  0.00     0.049 A 
ATOM     51  H   UNL     1       1.219  -9.297  -3.686  1.00  0.00     0.167 HD
ATOM     52  C   UNL     1       0.050 -12.362  -0.697  1.00  0.00     0.034 A 
ATOM     53  C   UNL     1       2.214  -8.473  -6.168  1.00  0.00     0.034 A 
ATOM     54  C   UNL     1       0.067 -13.042  -1.969  1.00  0.00     0.049 A 
ATOM     55  C   UNL     1       1.873  -9.937  -6.312  1.00  0.00     0.074 A 
ATOM     56  C   UNL     1      -0.311 -14.339  -2.260  1.00  0.00     0.029 A 
ATOM     57  N   UNL     1       0.511 -12.481  -3.162  1.00  0.00    -0.354 N 
ATOM     58  N   UNL     1       1.459 -10.783  -5.396  1.00  0.00    -0.248 NA
ATOM     59  C   UNL     1       2.018 -10.524  -7.650  1.00  0.00     0.031 C 
ATOM     60  C   UNL     1      -0.012 -14.590  -3.603  1.00  0.00     0.029 A 
ATOM     61  C   UNL     1       0.455 -13.419  -4.181  1.00  0.00     0.049 A 
ATOM     62  H   UNL     1       0.820 -11.552  -3.268  1.00  0.00     0.167 HD
ATOM     63  C   UNL     1       1.256 -11.993  -6.056  1.00  0.00     0.074 A 
ATOM     64  C   UNL     1       1.601 -11.766  -7.446  1.00  0.00     0.031 C 
ATOM     65  C   UNL     1       0.810 -13.178  -5.563  1.00  0.00     0.034 A 
BRANCH  52  66
ATOM     66  C   UNL     1      -0.325 -13.125   0.553  1.00  0.00     0.023 A 
ATOM     67  C   UNL     1      -1.382 -12.716   1.386  1.00  0.00     0.031 A 
ATOM     68  C   UNL     1       0.437 -14.234   0.963  1.00  0.00     0.131 A 
ATOM     69  C   UNL     1      -1.575 -13.336   2.630  1.00  0.00     0.055 A 
ATOM     70  C   UNL     1       0.173 -14.912   2.154  1.00  0.00     0.041 A 
ATOM     71  F   UNL     1       1.477 -14.660   0.228  1.00  0.00    -0.206 F 
ATOM     72  C   UNL     1      -0.824 -14.450   3.008  1.00  0.00     0.022 A 
BRANCH  69  73
ATOM     73  S   UNL     1      -2.679 -12.536   3.829  1.00  0.00     0.124 S 
ATOM     74  O   UNL     1      -2.099 -11.198   3.915  1.00  0.00    -0.237 OA
ATOM     75  O   UNL     1      -3.977 -12.630   3.173  1.00  0.00    -0.237 OA
ATOM     76  O   UNL     1      -2.524 -13.351   5.032  1.00  0.00    -0.744 OA
ENDBRANCH  69  73
ENDBRANCH  52  66
BRANCH  53  77
ATOM     77  C   UNL     1       2.784  -7.694  -7.303  1.00  0.00     0.023 A 
ATOM     78  C   UNL     1       2.017  -7.392  -8.437  1.00  0.00     0.031 A 
ATOM     79  C   UNL     1       4.113  -7.231  -7.260  1.00  0.00     0.131 A 
ATOM     80  C   UNL     1       2.589  -6.664  -9.493  1.00  0.00     0.055 A 
ATOM     81  C   UNL     1       4.662  -6.466  -8.291  1.00  0.00     0.041 A 
ATOM     82  F   UNL     1       4.889  -7.490  -6.196  1.00  0.00    -0.206 F 
ATOM     83  C   UNL     1       3.900  -6.184  -9.419  1.00  0.00     0.022 A 
BRANCH  80  84
ATOM     84  S   UNL     1       1.608  -6.389 -10.993  1.00  0.00     0.124 S 
ATOM     85  O   UNL     1       1.363  -7.755 -11.441  1.00  0.00    -0.237 OA
ATOM     86  O   UNL     1       0.453  -5.667 -10.472  1.00  0.00    -0.237 OA
ATOM     87  O   UNL     1       2.500  -5.603 -11.843  1.00  0.00    -0.744 OA
ENDBRANCH  80  84
ENDBRANCH  53  77
BRANCH  65  88
ATOM     88  C   UNL     1       0.597 -14.308  -6.543  1.00  0.00     0.023 A 
ATOM     89  C   UNL     1       1.662 -14.940  -7.206  1.00  0.00     0.031 A 
ATOM     90  C   UNL     1      -0.707 -14.780  -6.787  1.00  0.00     0.131 A 
ATOM     91  C   UNL     1       1.401 -15.984  -8.109  1.00  0.00     0.055 A 
ATOM     92  C   UNL     1      -0.954 -15.858  -7.637  1.00  0.00     0.041 A 
ATOM     93  F   UNL     1      -1.763 -14.210  -6.186  1.00  0.00    -0.206 F 
ATOM     94  C   UNL     1       0.103 -16.461  -8.311  1.00  0.00     0.022 A 
BRANCH  91  95
ATOM     95  S   UNL     1       2.773 -16.664  -9.081  1.00  0.00     0.124 S 
ATOM     96  O   UNL     1       3.255 -15.483  -9.791  1.00  0.00    -0.237 OA
ATOM     97  O   UNL     1       3.657 -17.193  -8.048  1.00  0.00    -0.237 OA
ATOM     98  O   UNL     1       2.131 -17.673  -9.922  1.00  0.00    -0.744 OA
ENDBRANCH  91  95
ENDBRANCH  65  88
ENDBRANCH  39  40
ENDBRANCH  32  34
ENDBRANCH  31  32
ENDBRANCH  30  31
ENDBRANCH  29  30
ENDBRANCH  28  29
ENDBRANCH   1  28
TORSDOF 22
