REMARK SMILES Cc1ccc2c(c1)C(=O)C[C@H](C(=O)OCCOCCOCCOC(=O)c1ccc(-c3c4nc(c(-c5cc(S(=O)(=O)[O-])ccc5F)c5ccc([nH]5)c(-c5cc(S(=O)(=O)[O-])ccc5F)c5nc(c(-c6cc(S(=O)(=O)[O-])ccc6F)c6ccc3[nH]6)C=C5)C=C4)cc1)C2
REMARK SMILES IDX 20 1 19 2 18 3 17 4 16 5 15 6 14 7 12 8 13 9 11 10 1 11 2 12
REMARK SMILES IDX 3 13 7 14 4 15 6 16 5 17 8 18 89 19 9 20 10 21 21 22 22 23
REMARK SMILES IDX 23 24 24 25 25 26 26 27 27 28 88 29 28 30 87 31 29 32 30 33
REMARK SMILES IDX 31 34 81 35 32 36 86 37 80 38 82 39 33 40 85 41 79 42 78 43
REMARK SMILES IDX 34 45 66 46 46 47 65 48 47 49 50 50 64 51 83 52 48 53 49 54
REMARK SMILES IDX 63 56 84 57 51 58 35 59 36 60 44 61 37 62 43 63 45 64 42 65
REMARK SMILES IDX 38 66 39 67 40 68 41 69 67 70 68 71 76 72 69 73 75 74 77 75
REMARK SMILES IDX 74 76 70 77 71 78 72 79 73 80 52 81 53 82 61 83 54 84 60 85
REMARK SMILES IDX 62 86 59 87 55 88 56 89 57 90 58 91
REMARK H PARENT 82 44 50 55
REMARK Flexibility Score: inf
ROOT
ATOM      1  O   UNL     1       0.363   6.702   3.570  1.00  0.00    -0.376 OA
ENDROOT
BRANCH   1   2
ATOM      2  C   UNL     1       0.171   7.303   2.300  1.00  0.00     0.188 C 
BRANCH   2   3
ATOM      3  C   UNL     1      -1.216   7.940   2.147  1.00  0.00     0.188 C 
BRANCH   3   4
ATOM      4  O   UNL     1      -2.342   7.322   2.759  1.00  0.00    -0.376 OA
BRANCH   4   5
ATOM      5  C   UNL     1      -2.329   5.921   2.976  1.00  0.00     0.202 C 
BRANCH   5   6
ATOM      6  C   UNL     1      -2.374   5.032   1.731  1.00  0.00     0.261 C 
BRANCH   6   7
ATOM      7  O   UNL     1      -1.300   5.229   0.786  1.00  0.00    -0.463 OA
BRANCH   7   8
ATOM      8  C   UNL     1      -1.646   5.781  -0.405  1.00  0.00     0.309 C 
ATOM      9  O   UNL     1      -2.777   6.162  -0.685  1.00  0.00    -0.252 OA
BRANCH   8  10
ATOM     10  C   UNL     1      -0.534   5.779  -1.452  1.00  0.00     0.111 C 
ATOM     11  C   UNL     1       0.901  -0.397   0.153  1.00  0.00     0.044 C 
ATOM     12  C   UNL     1       0.496   0.882  -0.515  1.00  0.00    -0.050 A 
ATOM     13  C   UNL     1      -0.556   0.906  -1.437  1.00  0.00     0.004 A 
ATOM     14  C   UNL     1       1.135   2.081  -0.180  1.00  0.00     0.015 A 
ATOM     15  C   UNL     1      -0.950   2.103  -2.039  1.00  0.00     0.005 A 
ATOM     16  C   UNL     1       0.733   3.284  -0.773  1.00  0.00     0.021 A 
ATOM     17  C   UNL     1      -0.313   3.303  -1.708  1.00  0.00    -0.036 A 
ATOM     18  C   UNL     1       1.410   4.547  -0.382  1.00  0.00     0.164 C 
ATOM     19  C   UNL     1      -0.750   4.583  -2.372  1.00  0.00     0.052 C 
ATOM     20  O   UNL     1       2.372   4.530   0.382  1.00  0.00    -0.294 OA
ATOM     21  C   UNL     1       0.924   5.832  -1.014  1.00  0.00     0.096 C 
ENDBRANCH   8  10
ENDBRANCH   7   8
ENDBRANCH   6   7
ENDBRANCH   5   6
ENDBRANCH   4   5
ENDBRANCH   3   4
ENDBRANCH   2   3
ENDBRANCH   1   2
BRANCH   1  22
ATOM     22  C   UNL     1       1.719   6.688   3.998  1.00  0.00     0.202 C 
BRANCH  22  23
ATOM     23  C   UNL     1       1.892   7.834   4.995  1.00  0.00     0.261 C 
BRANCH  23  24
ATOM     24  O   UNL     1       1.546   9.117   4.438  1.00  0.00    -0.460 OA
BRANCH  24  25
ATOM     25  C   UNL     1       2.339   9.581   3.443  1.00  0.00     0.338 C 
ATOM     26  O   UNL     1       3.387   9.085   3.062  1.00  0.00    -0.246 OA
BRANCH  25  27
ATOM     27  C   UNL     1       1.589  10.642   2.727  1.00  0.00     0.060 A 
ATOM     28  C   UNL     1       0.842  11.590   3.431  1.00  0.00     0.016 A 
ATOM     29  C   UNL     1       1.587  10.646   1.325  1.00  0.00     0.016 A 
ATOM     30  C   UNL     1       0.110  12.553   2.732  1.00  0.00     0.010 A 
ATOM     31  C   UNL     1       0.846  11.604   0.625  1.00  0.00     0.010 A 
ATOM     32  C   UNL     1       0.119  12.579   1.325  1.00  0.00    -0.014 A 
BRANCH  32  33
ATOM     33  C   UNL     1      -0.425  13.768   0.623  1.00  0.00     0.031 A 
ATOM     34  C   UNL     1      -1.782  13.792  -0.009  1.00  0.00     0.074 A 
ATOM     35  C   UNL     1       0.358  14.863   0.583  1.00  0.00     0.049 A 
ATOM     36  N   UNL     1      -2.418  14.812  -0.529  1.00  0.00    -0.248 NA
ATOM     37  C   UNL     1      -2.519  12.523  -0.079  1.00  0.00     0.031 C 
ATOM     38  C   UNL     1       1.712  14.930   1.135  1.00  0.00     0.029 A 
ATOM     39  N   UNL     1       0.139  16.118   0.075  1.00  0.00    -0.354 N 
ATOM     40  C   UNL     1      -3.642  14.321  -0.967  1.00  0.00     0.074 A 
ATOM     41  C   UNL     1      -3.636  12.897  -0.695  1.00  0.00     0.031 C 
ATOM     42  C   UNL     1       2.194  16.166   0.959  1.00  0.00     0.029 A 
ATOM     43  C   UNL     1       1.199  16.974   0.258  1.00  0.00     0.049 A 
ATOM     44  H   UNL     1      -0.695  16.380  -0.377  1.00  0.00     0.167 HD
ATOM     45  C   UNL     1      -4.671  15.007  -1.522  1.00  0.00     0.034 A 
ATOM     46  C   UNL     1       1.359  18.267  -0.089  1.00  0.00     0.034 A 
ATOM     47  C   UNL     1      -4.644  16.428  -1.788  1.00  0.00     0.049 A 
ATOM     48  C   UNL     1       0.210  18.999  -0.728  1.00  0.00     0.074 A 
ATOM     49  C   UNL     1      -5.672  17.223  -2.268  1.00  0.00     0.029 A 
ATOM     50  N   UNL     1      -3.547  17.261  -1.619  1.00  0.00    -0.354 N 
ATOM     51  N   UNL     1      -0.994  18.555  -1.004  1.00  0.00    -0.248 NA
ATOM     52  C   UNL     1       0.426  20.406  -1.088  1.00  0.00     0.031 C 
ATOM     53  C   UNL     1      -5.175  18.511  -2.468  1.00  0.00     0.029 A 
ATOM     54  C   UNL     1      -3.859  18.547  -2.035  1.00  0.00     0.049 A 
ATOM     55  H   UNL     1      -2.676  16.981  -1.258  1.00  0.00     0.167 HD
ATOM     56  C   UNL     1      -1.683  19.631  -1.555  1.00  0.00     0.074 A 
ATOM     57  C   UNL     1      -0.771  20.755  -1.545  1.00  0.00     0.031 C 
ATOM     58  C   UNL     1      -2.953  19.674  -2.029  1.00  0.00     0.034 A 
BRANCH  45  59
ATOM     59  C   UNL     1      -5.949  14.275  -1.859  1.00  0.00     0.023 A 
ATOM     60  C   UNL     1      -6.421  14.246  -3.187  1.00  0.00     0.031 A 
ATOM     61  C   UNL     1      -6.790  13.781  -0.846  1.00  0.00     0.131 A 
ATOM     62  C   UNL     1      -7.714  13.777  -3.458  1.00  0.00     0.055 A 
ATOM     63  C   UNL     1      -8.061  13.277  -1.127  1.00  0.00     0.041 A 
ATOM     64  F   UNL     1      -6.394  13.800   0.437  1.00  0.00    -0.206 F 
ATOM     65  C   UNL     1      -8.534  13.288  -2.436  1.00  0.00     0.022 A 
BRANCH  62  66
ATOM     66  S   UNL     1      -8.416  13.864  -5.130  1.00  0.00     0.124 S 
ATOM     67  O   UNL     1      -8.711  12.459  -5.404  1.00  0.00    -0.237 OA
ATOM     68  O   UNL     1      -9.584  14.716  -4.928  1.00  0.00    -0.237 OA
ATOM     69  O   UNL     1      -7.344  14.440  -5.933  1.00  0.00    -0.744 OA
ENDBRANCH  62  66
ENDBRANCH  45  59
BRANCH  46  70
ATOM     70  C   UNL     1       2.648  18.941   0.241  1.00  0.00     0.023 A 
ATOM     71  C   UNL     1       3.860  18.473  -0.300  1.00  0.00     0.031 A 
ATOM     72  C   UNL     1       2.702  19.960   1.204  1.00  0.00     0.131 A 
ATOM     73  C   UNL     1       5.076  18.968   0.185  1.00  0.00     0.055 A 
ATOM     74  C   UNL     1       3.915  20.505   1.630  1.00  0.00     0.041 A 
ATOM     75  F   UNL     1       1.573  20.425   1.762  1.00  0.00    -0.206 F 
ATOM     76  C   UNL     1       5.111  19.994   1.135  1.00  0.00     0.022 A 
BRANCH  73  77
ATOM     77  S   UNL     1       6.647  18.190  -0.283  1.00  0.00     0.124 S 
ATOM     78  O   UNL     1       7.357  19.295  -0.917  1.00  0.00    -0.237 OA
ATOM     79  O   UNL     1       7.167  17.765   1.014  1.00  0.00    -0.237 OA
ATOM     80  O   UNL     1       6.243  17.106  -1.173  1.00  0.00    -0.744 OA
ENDBRANCH  73  77
ENDBRANCH  46  70
BRANCH  58  81
ATOM     81  C   UNL     1      -3.467  20.970  -2.614  1.00  0.00     0.023 A 
ATOM     82  C   UNL     1      -4.578  21.618  -2.038  1.00  0.00     0.031 A 
ATOM     83  C   UNL     1      -2.965  21.470  -3.828  1.00  0.00     0.131 A 
ATOM     84  C   UNL     1      -5.183  22.691  -2.704  1.00  0.00     0.055 A 
ATOM     85  C   UNL     1      -3.539  22.573  -4.462  1.00  0.00     0.041 A 
ATOM     86  F   UNL     1      -1.912  20.885  -4.422  1.00  0.00    -0.206 F 
ATOM     87  C   UNL     1      -4.664  23.177  -3.909  1.00  0.00     0.022 A 
BRANCH  84  88
ATOM     88  S   UNL     1      -6.716  23.437  -2.084  1.00  0.00     0.124 S 
ATOM     89  O   UNL     1      -6.329  24.837  -1.923  1.00  0.00    -0.237 OA
ATOM     90  O   UNL     1      -7.650  23.171  -3.175  1.00  0.00    -0.237 OA
ATOM     91  O   UNL     1      -6.980  22.720  -0.841  1.00  0.00    -0.744 OA
ENDBRANCH  84  88
ENDBRANCH  58  81
ENDBRANCH  32  33
ENDBRANCH  25  27
ENDBRANCH  24  25
ENDBRANCH  23  24
ENDBRANCH  22  23
ENDBRANCH   1  22
TORSDOF 20
