REMARK SMILES Cc1cc2cc(-c3ccc([C@@H](C)C(=O)OCCOCCOCCOC(=O)c4ccc(-c5c6nc(c(-c7cc(S(=O)(=O)[O-])ccc7F)c7ccc([nH]7)c(-c7cc(S(=O)(=O)[O-])ccc7F)c7nc(c(-c8cc(S(=O)(=O)[O-])ccc8F)c8ccc5[nH]8)C=C7)C=C6)cc4)cc3)ccc2[nH]1
REMARK SMILES IDX 20 1 19 2 18 3 17 4 16 5 15 6 13 7 14 8 11 9 12 10 10 11
REMARK SMILES IDX 7 12 8 13 91 14 9 15 90 16 6 17 1 18 2 19 3 20 95 21 4 22
REMARK SMILES IDX 94 23 5 25 93 26 92 27 21 28 22 29 23 30 24 31 25 32 26 33
REMARK SMILES IDX 27 34 28 35 89 36 29 37 88 38 30 39 31 40 32 41 82 42 33 43
REMARK SMILES IDX 87 44 81 45 83 46 34 47 86 48 80 49 79 50 35 52 67 53 47 54
REMARK SMILES IDX 66 55 48 56 51 57 65 58 84 59 49 60 50 61 64 63 85 64 52 65
REMARK SMILES IDX 36 66 37 67 45 68 38 69 44 70 46 71 43 72 39 73 40 74 41 75
REMARK SMILES IDX 42 76 68 77 69 78 77 79 70 80 76 81 78 82 75 83 71 84 72 85
REMARK SMILES IDX 73 86 74 87 53 88 54 89 62 90 55 91 61 92 63 93 60 94 56 95
REMARK SMILES IDX 57 96 58 97 59 98
REMARK H PARENT 95 24 83 51 51 62
REMARK Flexibility Score: inf
ROOT
ATOM      1  C   UNL     1       7.656  -1.141  -2.039  1.00  0.00     0.188 C 
ENDROOT
BRANCH   1   2
ATOM      2  C   UNL     1       9.176  -1.342  -1.945  1.00  0.00     0.188 C 
BRANCH   2   3
ATOM      3  O   UNL     1       9.902  -1.716  -3.112  1.00  0.00    -0.376 OA
BRANCH   3   4
ATOM      4  C   UNL     1       9.309  -2.610  -4.043  1.00  0.00     0.202 C 
BRANCH   4   5
ATOM      5  C   UNL     1       8.814  -3.976  -3.538  1.00  0.00     0.261 C 
BRANCH   5   6
ATOM      6  O   UNL     1       7.881  -3.937  -2.434  1.00  0.00    -0.463 OA
BRANCH   6   7
ATOM      7  C   UNL     1       8.255  -4.581  -1.299  1.00  0.00     0.313 C 
ATOM      8  O   UNL     1       9.293  -5.236  -1.215  1.00  0.00    -0.252 OA
BRANCH   7   9
ATOM      9  C   UNL     1       7.317  -4.447  -0.093  1.00  0.00     0.126 C 
ATOM     10  C   UNL     1       6.904  -5.849   0.352  1.00  0.00     0.025 C 
BRANCH   9  11
ATOM     11  C   UNL     1       6.091  -3.534  -0.132  1.00  0.00    -0.034 A 
ATOM     12  C   UNL     1       3.815  -1.799  -0.090  1.00  0.00    -0.018 A 
ATOM     13  C   UNL     1       4.009  -2.741  -1.117  1.00  0.00     0.009 A 
ATOM     14  C   UNL     1       4.787  -1.730   0.913  1.00  0.00     0.009 A 
ATOM     15  C   UNL     1       5.117  -3.603  -1.134  1.00  0.00     0.005 A 
ATOM     16  C   UNL     1       5.900  -2.588   0.898  1.00  0.00     0.005 A 
BRANCH  12  17
ATOM     17  C   UNL     1       2.589  -0.977  -0.046  1.00  0.00    -0.018 A 
ATOM     18  C   UNL     1      -3.442   0.163   0.015  1.00  0.00     0.064 C 
ATOM     19  C   UNL     1      -1.974  -0.050   0.011  1.00  0.00     0.013 A 
ATOM     20  C   UNL     1      -1.239  -1.217   0.005  1.00  0.00     0.031 A 
ATOM     21  N   UNL     1      -1.077   0.995   0.021  1.00  0.00    -0.359 N 
ATOM     22  C   UNL     1       0.138  -0.870  -0.007  1.00  0.00     0.000 A 
ATOM     23  C   UNL     1       0.217   0.519   0.004  1.00  0.00     0.046 A 
ATOM     24  H   UNL     1      -1.325   1.947   0.039  1.00  0.00     0.166 HD
ATOM     25  C   UNL     1       1.332  -1.617  -0.025  1.00  0.00     0.019 A 
ATOM     26  C   UNL     1       1.442   1.198   0.002  1.00  0.00     0.027 A 
ATOM     27  C   UNL     1       2.619   0.426  -0.024  1.00  0.00     0.011 A 
ENDBRANCH  12  17
ENDBRANCH   9  11
ENDBRANCH   7   9
ENDBRANCH   6   7
ENDBRANCH   5   6
ENDBRANCH   4   5
ENDBRANCH   3   4
ENDBRANCH   2   3
ENDBRANCH   1   2
BRANCH   1  28
ATOM     28  O   UNL     1       7.146  -1.142  -3.356  1.00  0.00    -0.376 OA
BRANCH  28  29
ATOM     29  C   UNL     1       6.397  -0.007  -3.741  1.00  0.00     0.202 C 
BRANCH  29  30
ATOM     30  C   UNL     1       7.202   1.297  -3.841  1.00  0.00     0.261 C 
BRANCH  30  31
ATOM     31  O   UNL     1       8.008   1.632  -2.695  1.00  0.00    -0.460 OA
BRANCH  31  32
ATOM     32  C   UNL     1       7.354   2.037  -1.582  1.00  0.00     0.338 C 
ATOM     33  O   UNL     1       6.144   2.171  -1.459  1.00  0.00    -0.246 OA
BRANCH  32  34
ATOM     34  C   UNL     1       8.326   2.078  -0.464  1.00  0.00     0.060 A 
ATOM     35  C   UNL     1       8.100   1.284   0.671  1.00  0.00     0.016 A 
ATOM     36  C   UNL     1       9.454   2.898  -0.530  1.00  0.00     0.016 A 
ATOM     37  C   UNL     1       8.977   1.343   1.758  1.00  0.00     0.010 A 
ATOM     38  C   UNL     1      10.320   2.971   0.567  1.00  0.00     0.010 A 
ATOM     39  C   UNL     1      10.066   2.224   1.733  1.00  0.00    -0.014 A 
BRANCH  39  40
ATOM     40  C   UNL     1      10.807   2.530   2.988  1.00  0.00     0.031 A 
ATOM     41  C   UNL     1      10.457   3.795   3.728  1.00  0.00     0.074 A 
ATOM     42  C   UNL     1      11.753   1.707   3.478  1.00  0.00     0.049 A 
ATOM     43  N   UNL     1      11.002   4.317   4.797  1.00  0.00    -0.248 NA
ATOM     44  C   UNL     1       9.343   4.581   3.176  1.00  0.00     0.031 C 
ATOM     45  C   UNL     1      12.151   0.430   2.889  1.00  0.00     0.029 A 
ATOM     46  N   UNL     1      12.558   1.831   4.585  1.00  0.00    -0.354 N 
ATOM     47  C   UNL     1      10.305   5.497   5.040  1.00  0.00     0.074 A 
ATOM     48  C   UNL     1       9.327   5.631   3.981  1.00  0.00     0.031 C 
ATOM     49  C   UNL     1      13.133  -0.107   3.635  1.00  0.00     0.029 A 
ATOM     50  C   UNL     1      13.464   0.805   4.730  1.00  0.00     0.049 A 
ATOM     51  H   UNL     1      12.493   2.584   5.215  1.00  0.00     0.167 HD
ATOM     52  C   UNL     1      10.458   6.382   6.056  1.00  0.00     0.034 A 
ATOM     53  C   UNL     1      14.462   0.637   5.624  1.00  0.00     0.034 A 
ATOM     54  C   UNL     1      11.446   6.244   7.098  1.00  0.00     0.049 A 
ATOM     55  C   UNL     1      14.677   1.684   6.695  1.00  0.00     0.074 A 
ATOM     56  C   UNL     1      11.680   7.078   8.178  1.00  0.00     0.029 A 
ATOM     57  N   UNL     1      12.374   5.214   7.187  1.00  0.00    -0.354 N 
ATOM     58  N   UNL     1      14.009   2.794   6.917  1.00  0.00    -0.248 NA
ATOM     59  C   UNL     1      15.774   1.447   7.643  1.00  0.00     0.031 C 
ATOM     60  C   UNL     1      12.799   6.600   8.868  1.00  0.00     0.029 A 
ATOM     61  C   UNL     1      13.203   5.411   8.282  1.00  0.00     0.049 A 
ATOM     62  H   UNL     1      12.434   4.454   6.564  1.00  0.00     0.167 HD
ATOM     63  C   UNL     1      14.582   3.363   8.055  1.00  0.00     0.074 A 
ATOM     64  C   UNL     1      15.637   2.466   8.478  1.00  0.00     0.031 C 
ATOM     65  C   UNL     1      14.259   4.516   8.696  1.00  0.00     0.034 A 
BRANCH  52  66
ATOM     66  C   UNL     1       9.573   7.607   6.048  1.00  0.00     0.023 A 
ATOM     67  C   UNL     1       8.174   7.515   6.158  1.00  0.00     0.031 A 
ATOM     68  C   UNL     1      10.137   8.887   5.898  1.00  0.00     0.131 A 
ATOM     69  C   UNL     1       7.385   8.669   6.040  1.00  0.00     0.055 A 
ATOM     70  C   UNL     1       9.351  10.040   5.871  1.00  0.00     0.041 A 
ATOM     71  F   UNL     1      11.464   9.038   5.761  1.00  0.00    -0.206 F 
ATOM     72  C   UNL     1       7.965   9.935   5.926  1.00  0.00     0.022 A 
BRANCH  69  73
ATOM     73  S   UNL     1       5.588   8.479   5.881  1.00  0.00     0.124 S 
ATOM     74  O   UNL     1       5.484   7.628   4.698  1.00  0.00    -0.237 OA
ATOM     75  O   UNL     1       5.222   7.858   7.149  1.00  0.00    -0.237 OA
ATOM     76  O   UNL     1       5.112   9.849   5.696  1.00  0.00    -0.744 OA
ENDBRANCH  69  73
ENDBRANCH  52  66
BRANCH  53  77
ATOM     77  C   UNL     1      15.373  -0.544   5.535  1.00  0.00     0.023 A 
ATOM     78  C   UNL     1      15.463  -1.478   6.581  1.00  0.00     0.031 A 
ATOM     79  C   UNL     1      16.224  -0.716   4.428  1.00  0.00     0.131 A 
ATOM     80  C   UNL     1      16.417  -2.507   6.523  1.00  0.00     0.055 A 
ATOM     81  C   UNL     1      17.128  -1.778   4.347  1.00  0.00     0.041 A 
ATOM     82  F   UNL     1      16.190   0.151   3.404  1.00  0.00    -0.206 F 
ATOM     83  C   UNL     1      17.238  -2.673   5.406  1.00  0.00     0.022 A 
BRANCH  80  84
ATOM     84  S   UNL     1      16.643  -3.567   7.978  1.00  0.00     0.124 S 
ATOM     85  O   UNL     1      16.987  -2.590   9.005  1.00  0.00    -0.237 OA
ATOM     86  O   UNL     1      15.331  -4.194   8.103  1.00  0.00    -0.237 OA
ATOM     87  O   UNL     1      17.726  -4.464   7.581  1.00  0.00    -0.744 OA
ENDBRANCH  80  84
ENDBRANCH  53  77
BRANCH  65  88
ATOM     88  C   UNL     1      15.014   4.840   9.967  1.00  0.00     0.023 A 
ATOM     89  C   UNL     1      16.398   5.092   9.973  1.00  0.00     0.031 A 
ATOM     90  C   UNL     1      14.335   4.880  11.199  1.00  0.00     0.131 A 
ATOM     91  C   UNL     1      17.067   5.300  11.190  1.00  0.00     0.055 A 
ATOM     92  C   UNL     1      14.993   5.162  12.397  1.00  0.00     0.041 A 
ATOM     93  F   UNL     1      13.014   4.644  11.260  1.00  0.00    -0.206 F 
ATOM     94  C   UNL     1      16.371   5.357  12.399  1.00  0.00     0.022 A 
BRANCH  91  95
ATOM     95  S   UNL     1      18.880   5.374  11.186  1.00  0.00     0.124 S 
ATOM     96  O   UNL     1      19.234   4.106  10.557  1.00  0.00    -0.237 OA
ATOM     97  O   UNL     1      19.142   6.573  10.396  1.00  0.00    -0.237 OA
ATOM     98  O   UNL     1      19.222   5.480  12.604  1.00  0.00    -0.744 OA
ENDBRANCH  91  95
ENDBRANCH  65  88
ENDBRANCH  39  40
ENDBRANCH  32  34
ENDBRANCH  31  32
ENDBRANCH  30  31
ENDBRANCH  29  30
ENDBRANCH  28  29
ENDBRANCH   1  28
TORSDOF 22
