REMARK SMILES Cc1cccc(OCC(=O)Nc2cc(C(=O)OCCOCCOCCOC(=O)c3ccc(-c4c5nc(c(-c6cc(S(=O)(=O)[O-])ccc6F)c6ccc([nH]6)c(-c6cc(S(=O)(=O)[O-])ccc6F)c6nc(c(-c7cc(S(=O)(=O)[O-])ccc7F)c7ccc4[nH]7)C=C6)C=C5)cc3)c(Cl)cc2Cl)c1
REMARK SMILES IDX 21 1 20 2 19 3 18 4 17 5 15 6 16 7 14 8 12 9 13 10 95 11
REMARK SMILES IDX 94 12 96 13 92 14 93 15 11 16 9 17 10 18 8 20 7 21 6 22 1 23
REMARK SMILES IDX 2 24 3 25 97 26 4 27 5 28 22 29 23 30 24 31 25 32 26 33
REMARK SMILES IDX 27 34 28 35 29 36 30 37 91 38 31 39 90 40 32 41 33 42 34 43
REMARK SMILES IDX 84 44 35 45 89 46 83 47 85 48 36 49 88 50 82 51 81 52 37 54
REMARK SMILES IDX 69 55 49 56 68 57 50 58 53 59 67 60 86 61 51 62 52 63 66 65
REMARK SMILES IDX 87 66 54 67 38 68 39 69 47 70 40 71 46 72 48 73 45 74 41 75
REMARK SMILES IDX 42 76 43 77 44 78 70 79 71 80 79 81 72 82 78 83 80 84 77 85
REMARK SMILES IDX 73 86 74 87 75 88 76 89 55 90 56 91 64 92 57 93 63 94 65 95
REMARK SMILES IDX 62 96 58 97 59 98 60 99 61 100
REMARK H PARENT 11 19 85 53 53 64
REMARK Flexibility Score: inf
ROOT
ATOM      1  C   UNL     1      -7.297  -1.893   0.988  1.00  0.00     0.188 C 
ENDROOT
BRANCH   1   2
ATOM      2  O   UNL     1      -6.938  -0.984  -0.045  1.00  0.00    -0.376 OA
BRANCH   2   3
ATOM      3  C   UNL     1      -5.851  -1.395  -0.839  1.00  0.00     0.202 C 
BRANCH   3   4
ATOM      4  C   UNL     1      -4.567  -0.498  -0.799  1.00  0.00     0.261 C 
BRANCH   4   5
ATOM      5  O   UNL     1      -3.965   0.103   0.553  1.00  0.00    -0.460 OA
BRANCH   5   6
ATOM      6  C   UNL     1      -2.856   0.672   1.302  1.00  0.00     0.339 C 
ATOM      7  O   UNL     1      -1.835  -0.016   1.405  1.00  0.00    -0.246 OA
BRANCH   6   8
ATOM      8  C   UNL     1      -2.943   2.215   2.448  1.00  0.00     0.080 A 
ATOM      9  C   UNL     1      -1.357   3.718   3.345  1.00  0.00     0.061 A 
ATOM     10  C   UNL     1      -1.719   2.401   3.057  1.00  0.00     0.045 A 
ATOM     11  C   UNL     1      -2.204   4.491   4.125  1.00  0.00     0.066 A 
ATOM     12  C   UNL     1      -3.527   4.330   3.878  1.00  0.00     0.044 A 
ATOM     13  Cl  UNL     1      -1.676   5.914   4.933  1.00  0.00    -0.082 Cl
ATOM     14  C   UNL     1      -3.875   3.386   2.889  1.00  0.00     0.057 A 
ATOM     15  Cl  UNL     1      -5.389   4.151   2.264  1.00  0.00    -0.083 Cl
BRANCH   9  16
ATOM     16  N   UNL     1      -0.756   4.486   2.302  1.00  0.00    -0.322 N 
ATOM     17  C   UNL     1      -1.176   4.885   1.028  1.00  0.00     0.262 C 
ATOM     18  O   UNL     1      -0.482   5.818   0.577  1.00  0.00    -0.271 OA
ATOM     19  H   UNL     1       0.148   4.804   2.528  1.00  0.00     0.170 HD
BRANCH  17  20
ATOM     20  C   UNL     1      -2.509   4.187  -0.067  1.00  0.00     0.329 C 
BRANCH  20  21
ATOM     21  O   UNL     1      -2.368   2.381  -1.172  1.00  0.00    -0.484 OA
BRANCH  21  22
ATOM     22  C   UNL     1      -1.209   1.182  -1.434  1.00  0.00     0.120 A 
ATOM     23  C   UNL     1       2.304   0.074  -0.182  1.00  0.00     0.044 C 
ATOM     24  C   UNL     1       0.873   0.015  -0.642  1.00  0.00    -0.047 A 
ATOM     25  C   UNL     1       0.189  -1.193  -0.635  1.00  0.00     0.003 A 
ATOM     26  C   UNL     1       0.183   1.183  -1.050  1.00  0.00     0.049 A 
ATOM     27  C   UNL     1      -1.103  -1.235  -1.167  1.00  0.00     0.004 A 
ATOM     28  C   UNL     1      -1.750  -0.064  -1.650  1.00  0.00     0.046 A 
ENDBRANCH  21  22
ENDBRANCH  20  21
ENDBRANCH  17  20
ENDBRANCH   9  16
ENDBRANCH   6   8
ENDBRANCH   5   6
ENDBRANCH   4   5
ENDBRANCH   3   4
ENDBRANCH   2   3
ENDBRANCH   1   2
BRANCH   1  29
ATOM     29  C   UNL     1      -6.147  -2.154   1.924  1.00  0.00     0.188 C 
BRANCH  29  30
ATOM     30  O   UNL     1      -5.126  -2.948   1.354  1.00  0.00    -0.376 OA
BRANCH  30  31
ATOM     31  C   UNL     1      -4.567  -3.986   2.133  1.00  0.00     0.202 C 
BRANCH  31  32
ATOM     32  C   UNL     1      -5.044  -4.182   3.591  1.00  0.00     0.261 C 
BRANCH  32  33
ATOM     33  O   UNL     1      -4.666  -3.042   4.397  1.00  0.00    -0.460 OA
BRANCH  33  34
ATOM     34  C   UNL     1      -5.591  -2.379   5.181  1.00  0.00     0.338 C 
ATOM     35  O   UNL     1      -6.463  -2.894   5.848  1.00  0.00    -0.246 OA
BRANCH  34  36
ATOM     36  C   UNL     1      -5.378  -0.906   4.940  1.00  0.00     0.060 A 
ATOM     37  C   UNL     1      -6.351   0.070   4.687  1.00  0.00     0.016 A 
ATOM     38  C   UNL     1      -4.152  -0.612   4.483  1.00  0.00     0.016 A 
ATOM     39  C   UNL     1      -6.218   1.040   3.596  1.00  0.00     0.010 A 
ATOM     40  C   UNL     1      -4.125   0.208   3.371  1.00  0.00     0.010 A 
ATOM     41  C   UNL     1      -5.153   1.000   2.698  1.00  0.00    -0.014 A 
BRANCH  41  42
ATOM     42  C   UNL     1      -5.089   1.847   1.086  1.00  0.00     0.031 A 
ATOM     43  C   UNL     1      -3.625   2.526   0.109  1.00  0.00     0.074 A 
ATOM     44  C   UNL     1      -6.268   1.816   0.403  1.00  0.00     0.049 A 
ATOM     45  N   UNL     1      -3.962   3.352  -1.192  1.00  0.00    -0.248 NA
ATOM     46  C   UNL     1      -1.573   2.645   0.358  1.00  0.00     0.031 C 
ATOM     47  C   UNL     1      -6.561   2.127  -0.995  1.00  0.00     0.029 A 
ATOM     48  N   UNL     1      -7.501   1.374   0.888  1.00  0.00    -0.354 N 
ATOM     49  C   UNL     1      -2.531   3.939  -2.107  1.00  0.00     0.074 A 
ATOM     50  C   UNL     1      -0.993   3.545  -1.015  1.00  0.00     0.031 C 
ATOM     51  C   UNL     1      -7.884   2.035  -1.222  1.00  0.00     0.029 A 
ATOM     52  C   UNL     1      -8.523   1.868   0.064  1.00  0.00     0.049 A 
ATOM     53  H   UNL     1      -7.632   0.806   1.681  1.00  0.00     0.167 HD
ATOM     54  C   UNL     1      -2.786   4.449  -3.336  1.00  0.00     0.034 A 
ATOM     55  C   UNL     1      -9.473   2.675   0.604  1.00  0.00     0.034 A 
ATOM     56  C   UNL     1      -4.241   4.614  -3.489  1.00  0.00     0.049 A 
ATOM     57  C   UNL     1      -9.211   4.089   0.085  1.00  0.00     0.074 A 
ATOM     58  C   UNL     1      -5.225   3.910  -4.163  1.00  0.00     0.029 A 
ATOM     59  N   UNL     1      -4.940   5.452  -2.600  1.00  0.00    -0.354 N 
ATOM     60  N   UNL     1      -8.084   4.448  -0.494  1.00  0.00    -0.248 NA
ATOM     61  C   UNL     1     -10.214   5.141  -0.003  1.00  0.00     0.031 C 
ATOM     62  C   UNL     1      -6.502   4.320  -3.654  1.00  0.00     0.029 A 
ATOM     63  C   UNL     1      -6.321   5.289  -2.674  1.00  0.00     0.049 A 
ATOM     64  H   UNL     1      -4.499   6.087  -1.990  1.00  0.00     0.167 HD
ATOM     65  C   UNL     1      -8.221   5.641  -1.140  1.00  0.00     0.074 A 
ATOM     66  C   UNL     1      -9.574   6.053  -0.763  1.00  0.00     0.031 C 
ATOM     67  C   UNL     1      -7.256   6.189  -1.958  1.00  0.00     0.034 A 
BRANCH  54  68
ATOM     68  C   UNL     1      -1.730   4.518  -4.404  1.00  0.00     0.023 A 
ATOM     69  C   UNL     1      -2.105   4.526  -5.758  1.00  0.00     0.031 A 
ATOM     70  C   UNL     1      -0.339   4.509  -4.172  1.00  0.00     0.131 A 
ATOM     71  C   UNL     1      -1.137   4.444  -6.782  1.00  0.00     0.055 A 
ATOM     72  C   UNL     1       0.618   4.328  -5.179  1.00  0.00     0.041 A 
ATOM     73  F   UNL     1       0.170   4.780  -2.970  1.00  0.00    -0.206 F 
ATOM     74  C   UNL     1       0.218   4.288  -6.500  1.00  0.00     0.022 A 
BRANCH  71  75
ATOM     75  S   UNL     1      -1.663   4.642  -8.504  1.00  0.00     0.124 S 
ATOM     76  O   UNL     1      -2.522   3.481  -8.702  1.00  0.00    -0.237 OA
ATOM     77  O   UNL     1      -2.325   5.942  -8.471  1.00  0.00    -0.237 OA
ATOM     78  O   UNL     1      -0.404   4.615  -9.249  1.00  0.00    -0.744 OA
ENDBRANCH  71  75
ENDBRANCH  54  68
BRANCH  55  79
ATOM     79  C   UNL     1      -9.934   2.100   1.923  1.00  0.00     0.023 A 
ATOM     80  C   UNL     1     -10.429   0.754   1.884  1.00  0.00     0.031 A 
ATOM     81  C   UNL     1      -9.464   2.555   3.160  1.00  0.00     0.131 A 
ATOM     82  C   UNL     1     -10.246  -0.130   2.967  1.00  0.00     0.055 A 
ATOM     83  C   UNL     1      -9.355   1.685   4.265  1.00  0.00     0.041 A 
ATOM     84  F   UNL     1      -8.924   3.776   3.280  1.00  0.00    -0.206 F 
ATOM     85  C   UNL     1      -9.677   0.327   4.149  1.00  0.00     0.022 A 
BRANCH  82  86
ATOM     86  S   UNL     1     -10.481  -1.938   2.771  1.00  0.00     0.124 S 
ATOM     87  O   UNL     1     -11.728  -2.167   3.491  1.00  0.00    -0.237 OA
ATOM     88  O   UNL     1     -10.543  -2.121   1.324  1.00  0.00    -0.237 OA
ATOM     89  O   UNL     1      -9.282  -2.494   3.397  1.00  0.00    -0.744 OA
ENDBRANCH  82  86
ENDBRANCH  55  79
BRANCH  67  90
ATOM     90  C   UNL     1      -7.205   7.678  -2.258  1.00  0.00     0.023 A 
ATOM     91  C   UNL     1      -7.992   8.604  -1.563  1.00  0.00     0.031 A 
ATOM     92  C   UNL     1      -6.292   8.245  -3.181  1.00  0.00     0.131 A 
ATOM     93  C   UNL     1      -7.969   9.970  -1.872  1.00  0.00     0.055 A 
ATOM     94  C   UNL     1      -6.172   9.622  -3.390  1.00  0.00     0.041 A 
ATOM     95  F   UNL     1      -5.455   7.501  -3.915  1.00  0.00    -0.206 F 
ATOM     96  C   UNL     1      -7.037  10.496  -2.757  1.00  0.00     0.022 A 
BRANCH  93  97
ATOM     97  S   UNL     1      -9.269  11.005  -1.163  1.00  0.00     0.124 S 
ATOM     98  O   UNL     1     -10.469  10.424  -1.760  1.00  0.00    -0.237 OA
ATOM     99  O   UNL     1      -9.106  10.779   0.270  1.00  0.00    -0.237 OA
ATOM    100  O   UNL     1      -8.930  12.348  -1.626  1.00  0.00    -0.744 OA
ENDBRANCH  93  97
ENDBRANCH  67  90
ENDBRANCH  41  42
ENDBRANCH  34  36
ENDBRANCH  33  34
ENDBRANCH  32  33
ENDBRANCH  31  32
ENDBRANCH  30  31
ENDBRANCH  29  30
ENDBRANCH   1  29
TORSDOF 24
