REMARK SMILES [NH3+][C@@]1(C(=O)OCCOCCOCCOC(=O)c2ccc(-c3c4nc(c(-c5cc(S(=O)(=O)[O-])ccc5F)c5ccc([nH]5)c(-c5cc(S(=O)(=O)[O-])ccc5F)c5nc(c(-c6cc(S(=O)(=O)[O-])ccc6F)c6ccc3[nH]6)C=C5)C=C4)cc2)CC[N@H+](Cc2ccc(OCC(=O)N3CCCCC3)cc2)C1
REMARK SMILES IDX 9 1 8 2 7 3 6 4 5 5 3 6 4 7 2 8 80 9 100 10 81 11 82 12 1 14
REMARK SMILES IDX 83 18 84 19 85 20 99 21 86 22 98 23 87 24 88 25 89 26 90 27
REMARK SMILES IDX 91 28 92 29 93 30 97 31 94 32 96 33 95 34 10 35 11 36 12 37
REMARK SMILES IDX 13 38 14 39 15 40 16 41 17 42 18 43 79 44 19 45 78 46 20 47
REMARK SMILES IDX 21 48 22 49 72 50 23 51 77 52 71 53 73 54 24 55 76 56 70 57
REMARK SMILES IDX 69 58 25 60 57 61 37 62 56 63 38 64 41 65 55 66 74 67 39 68
REMARK SMILES IDX 40 69 54 71 75 72 42 73 26 74 27 75 35 76 28 77 34 78 36 79
REMARK SMILES IDX 33 80 29 81 30 82 31 83 32 84 58 85 59 86 67 87 60 88 66 89
REMARK SMILES IDX 68 90 65 91 61 92 62 93 63 94 64 95 43 96 44 97 52 98 45 99
REMARK SMILES IDX 51 100 53 101 50 102 46 103 47 104 48 105 49 106
REMARK H PARENT 82 13 1 15 1 16 1 17 73 59 41 70
REMARK Flexibility Score: inf
ROOT
ATOM      1  C   UNL     1      -0.818   1.741   2.102  1.00  0.00     0.188 C 
ENDROOT
BRANCH   1   2
ATOM      2  O   UNL     1      -2.069   1.117   1.975  1.00  0.00    -0.376 OA
BRANCH   2   3
ATOM      3  C   UNL     1      -2.265  -0.161   2.518  1.00  0.00     0.202 C 
BRANCH   3   4
ATOM      4  C   UNL     1      -2.435  -1.291   1.500  1.00  0.00     0.261 C 
BRANCH   4   5
ATOM      5  O   UNL     1      -1.206  -2.002   1.366  1.00  0.00    -0.458 OA
BRANCH   5   6
ATOM      6  C   UNL     1      -0.330  -1.410   0.525  1.00  0.00     0.374 C 
ATOM      7  O   UNL     1      -0.648  -0.669  -0.400  1.00  0.00    -0.244 OA
BRANCH   6   8
ATOM      8  C   UNL     1       1.127  -1.622   1.004  1.00  0.00     0.246 C 
ATOM      9  C   UNL     1       1.510  -3.095   1.075  1.00  0.00     0.148 C 
ATOM     10  C   UNL     1       1.250  -1.163   2.482  1.00  0.00     0.344 C 
ATOM     11  C   UNL     1       1.128  -3.530   2.494  1.00  0.00     0.270 C 
ATOM     12  N   UNL     1       1.353  -2.357   3.316  1.00  0.00    -0.325 N 
ATOM     13  H   UNL     1       2.314  -2.408   3.654  1.00  0.00     0.348 HD
BRANCH   8  14
ATOM     14  N   UNL     1       2.000  -0.899   0.044  1.00  0.00    -0.338 N 
ATOM     15  H   UNL     1       1.850  -1.268  -0.895  1.00  0.00     0.345 HD
ATOM     16  H   UNL     1       2.976  -1.028   0.308  1.00  0.00     0.345 HD
ATOM     17  H   UNL     1       1.772   0.095   0.059  1.00  0.00     0.345 HD
ENDBRANCH   8  14
BRANCH  12  18
ATOM     18  C   UNL     1       0.838  -2.324   4.696  1.00  0.00     0.299 C 
BRANCH  18  19
ATOM     19  C   UNL     1      -0.653  -2.103   4.977  1.00  0.00     0.006 A 
ATOM     20  C   UNL     1      -1.054  -1.026   5.782  1.00  0.00     0.013 A 
ATOM     21  C   UNL     1      -1.687  -2.920   4.487  1.00  0.00     0.013 A 
ATOM     22  C   UNL     1      -2.410  -0.652   5.875  1.00  0.00     0.047 A 
ATOM     23  C   UNL     1      -3.053  -2.526   4.554  1.00  0.00     0.047 A 
ATOM     24  C   UNL     1      -3.397  -1.313   5.136  1.00  0.00     0.120 A 
BRANCH  24  25
ATOM     25  O   UNL     1      -4.531  -0.572   4.930  1.00  0.00    -0.484 OA
BRANCH  25  26
ATOM     26  C   UNL     1      -5.541  -0.885   3.985  1.00  0.00     0.329 C 
BRANCH  26  27
ATOM     27  C   UNL     1      -5.547  -1.120   2.413  1.00  0.00     0.260 C 
ATOM     28  O   UNL     1      -5.649  -2.297   2.033  1.00  0.00    -0.271 OA
ATOM     29  N   UNL     1      -5.562  -0.081   1.468  1.00  0.00    -0.340 N 
ATOM     30  C   UNL     1      -6.048  -0.384   0.109  1.00  0.00     0.119 C 
ATOM     31  C   UNL     1      -5.282   1.346   1.686  1.00  0.00     0.119 C 
ATOM     32  C   UNL     1      -5.151   0.153  -1.004  1.00  0.00     0.022 C 
ATOM     33  C   UNL     1      -4.459   1.982   0.538  1.00  0.00     0.022 C 
ATOM     34  C   UNL     1      -4.947   1.655  -0.865  1.00  0.00     0.004 C 
ENDBRANCH  26  27
ENDBRANCH  25  26
ENDBRANCH  24  25
ENDBRANCH  18  19
ENDBRANCH  12  18
ENDBRANCH   6   8
ENDBRANCH   5   6
ENDBRANCH   4   5
ENDBRANCH   3   4
ENDBRANCH   2   3
ENDBRANCH   1   2
BRANCH   1  35
ATOM     35  C   UNL     1      -0.234   1.944   3.513  1.00  0.00     0.188 C 
BRANCH  35  36
ATOM     36  O   UNL     1      -1.084   1.903   4.646  1.00  0.00    -0.376 OA
BRANCH  36  37
ATOM     37  C   UNL     1      -2.256   2.705   4.665  1.00  0.00     0.202 C 
BRANCH  37  38
ATOM     38  C   UNL     1      -2.025   4.208   4.772  1.00  0.00     0.261 C 
BRANCH  38  39
ATOM     39  O   UNL     1      -1.644   4.742   3.500  1.00  0.00    -0.460 OA
BRANCH  39  40
ATOM     40  C   UNL     1      -0.361   5.168   3.396  1.00  0.00     0.338 C 
ATOM     41  O   UNL     1       0.488   5.206   4.259  1.00  0.00    -0.246 OA
BRANCH  40  42
ATOM     42  C   UNL     1      -0.112   5.383   1.962  1.00  0.00     0.060 A 
ATOM     43  C   UNL     1       0.859   4.610   1.306  1.00  0.00     0.016 A 
ATOM     44  C   UNL     1      -0.862   6.338   1.282  1.00  0.00     0.016 A 
ATOM     45  C   UNL     1       1.088   4.794  -0.053  1.00  0.00     0.010 A 
ATOM     46  C   UNL     1      -0.600   6.556  -0.062  1.00  0.00     0.010 A 
ATOM     47  C   UNL     1       0.396   5.809  -0.719  1.00  0.00    -0.014 A 
BRANCH  47  48
ATOM     48  C   UNL     1       0.887   6.330  -2.007  1.00  0.00     0.031 A 
ATOM     49  C   UNL     1       1.782   7.529  -1.943  1.00  0.00     0.074 A 
ATOM     50  C   UNL     1       0.445   5.831  -3.170  1.00  0.00     0.049 A 
ATOM     51  N   UNL     1       2.103   8.377  -2.879  1.00  0.00    -0.248 NA
ATOM     52  C   UNL     1       2.356   7.833  -0.621  1.00  0.00     0.031 C 
ATOM     53  C   UNL     1      -0.381   4.635  -3.318  1.00  0.00     0.029 A 
ATOM     54  N   UNL     1       0.591   6.310  -4.445  1.00  0.00    -0.354 N 
ATOM     55  C   UNL     1       2.882   9.343  -2.250  1.00  0.00     0.074 A 
ATOM     56  C   UNL     1       2.966   8.983  -0.853  1.00  0.00     0.031 C 
ATOM     57  C   UNL     1      -0.715   4.501  -4.613  1.00  0.00     0.029 A 
ATOM     58  C   UNL     1      -0.178   5.636  -5.363  1.00  0.00     0.049 A 
ATOM     59  H   UNL     1       1.185   7.059  -4.679  1.00  0.00     0.167 HD
ATOM     60  C   UNL     1       3.458  10.437  -2.800  1.00  0.00     0.034 A 
ATOM     61  C   UNL     1      -0.463   5.948  -6.643  1.00  0.00     0.034 A 
ATOM     62  C   UNL     1       3.325  10.766  -4.196  1.00  0.00     0.049 A 
ATOM     63  C   UNL     1       0.130   7.209  -7.227  1.00  0.00     0.074 A 
ATOM     64  C   UNL     1       3.883  11.823  -4.890  1.00  0.00     0.029 A 
ATOM     65  N   UNL     1       2.557  10.048  -5.107  1.00  0.00    -0.354 N 
ATOM     66  N   UNL     1       0.874   8.121  -6.641  1.00  0.00    -0.248 NA
ATOM     67  C   UNL     1      -0.151   7.483  -8.642  1.00  0.00     0.031 C 
ATOM     68  C   UNL     1       3.382  11.795  -6.195  1.00  0.00     0.029 A 
ATOM     69  C   UNL     1       2.595  10.662  -6.347  1.00  0.00     0.049 A 
ATOM     70  H   UNL     1       2.060   9.224  -4.900  1.00  0.00     0.167 HD
ATOM     71  C   UNL     1       1.182   9.056  -7.627  1.00  0.00     0.074 A 
ATOM     72  C   UNL     1       0.537   8.599  -8.842  1.00  0.00     0.031 C 
ATOM     73  C   UNL     1       1.940  10.180  -7.543  1.00  0.00     0.034 A 
BRANCH  60  74
ATOM     74  C   UNL     1       4.194  11.374  -1.874  1.00  0.00     0.023 A 
ATOM     75  C   UNL     1       5.303  10.957  -1.116  1.00  0.00     0.031 A 
ATOM     76  C   UNL     1       3.736  12.692  -1.693  1.00  0.00     0.131 A 
ATOM     77  C   UNL     1       5.855  11.813  -0.152  1.00  0.00     0.055 A 
ATOM     78  C   UNL     1       4.353  13.571  -0.801  1.00  0.00     0.041 A 
ATOM     79  F   UNL     1       2.662  13.140  -2.361  1.00  0.00    -0.206 F 
ATOM     80  C   UNL     1       5.407  13.127  -0.010  1.00  0.00     0.022 A 
BRANCH  77  81
ATOM     81  S   UNL     1       7.043  11.125   1.035  1.00  0.00     0.124 S 
ATOM     82  O   UNL     1       6.271  10.034   1.626  1.00  0.00    -0.237 OA
ATOM     83  O   UNL     1       8.153  10.730   0.177  1.00  0.00    -0.237 OA
ATOM     84  O   UNL     1       7.315  12.244   1.935  1.00  0.00    -0.744 OA
ENDBRANCH  77  81
ENDBRANCH  60  74
BRANCH  61  85
ATOM     85  C   UNL     1      -1.391   5.089  -7.429  1.00  0.00     0.023 A 
ATOM     86  C   UNL     1      -0.942   4.372  -8.547  1.00  0.00     0.031 A 
ATOM     87  C   UNL     1      -2.748   4.973  -7.073  1.00  0.00     0.131 A 
ATOM     88  C   UNL     1      -1.846   3.594  -9.289  1.00  0.00     0.055 A 
ATOM     89  C   UNL     1      -3.631   4.156  -7.781  1.00  0.00     0.041 A 
ATOM     90  F   UNL     1      -3.231   5.639  -6.011  1.00  0.00    -0.206 F 
ATOM     91  C   UNL     1      -3.183   3.467  -8.903  1.00  0.00     0.022 A 
BRANCH  88  92
ATOM     92  S   UNL     1      -1.262   2.800 -10.811  1.00  0.00     0.124 S 
ATOM     93  O   UNL     1      -0.822   3.950 -11.593  1.00  0.00    -0.237 OA
ATOM     94  O   UNL     1      -0.209   1.923 -10.312  1.00  0.00    -0.237 OA
ATOM     95  O   UNL     1      -2.451   2.119 -11.317  1.00  0.00    -0.744 OA
ENDBRANCH  88  92
ENDBRANCH  61  85
BRANCH  73  96
ATOM     96  C   UNL     1       2.181  10.956  -8.815  1.00  0.00     0.023 A 
ATOM     97  C   UNL     1       1.160  11.669  -9.464  1.00  0.00     0.031 A 
ATOM     98  C   UNL     1       3.480  11.017  -9.353  1.00  0.00     0.131 A 
ATOM     99  C   UNL     1       1.451  12.389 -10.633  1.00  0.00     0.055 A 
ATOM    100  C   UNL     1       3.775  11.785 -10.479  1.00  0.00     0.041 A 
ATOM    101  F   UNL     1       4.492  10.351  -8.773  1.00  0.00    -0.206 F 
ATOM    102  C   UNL     1       2.755  12.470 -11.130  1.00  0.00     0.022 A 
BRANCH  99 103
ATOM    103  S   UNL     1       0.088  13.170 -11.540  1.00  0.00     0.124 S 
ATOM    104  O   UNL     1      -0.754  12.024 -11.866  1.00  0.00    -0.237 OA
ATOM    105  O   UNL     1      -0.452  14.101 -10.555  1.00  0.00    -0.237 OA
ATOM    106  O   UNL     1       0.752  13.796 -12.683  1.00  0.00    -0.744 OA
ENDBRANCH  99 103
ENDBRANCH  73  96
ENDBRANCH  47  48
ENDBRANCH  40  42
ENDBRANCH  39  40
ENDBRANCH  38  39
ENDBRANCH  37  38
ENDBRANCH  36  37
ENDBRANCH  35  36
ENDBRANCH   1  35
TORSDOF 26
