REMARK SMILES C=CC[N@@H+](CC(=O)OCCOCCOCCOC(=O)c1ccc(-c2c3nc(c(-c4cc(S(=O)(=O)[O-])ccc4F)c4ccc([nH]4)c(-c4cc(S(=O)(=O)[O-])ccc4F)c4nc(c(-c5cc(S(=O)(=O)[O-])ccc5F)c5ccc2[nH]5)C=C4)C=C3)cc1)Cc1nnc(-c2ccc(C)cc2)o1
REMARK SMILES IDX 12 1 11 2 10 3 9 4 8 5 6 6 7 7 5 8 4 9 3 11 2 12 1 13 83 14
REMARK SMILES IDX 84 15 85 16 95 17 86 18 87 19 88 20 89 21 94 22 90 23 93 24
REMARK SMILES IDX 91 25 92 26 13 27 14 28 15 29 16 30 17 31 18 32 19 33 20 34
REMARK SMILES IDX 21 35 82 36 22 37 81 38 23 39 24 40 25 41 75 42 26 43 80 44
REMARK SMILES IDX 74 45 76 46 27 47 79 48 73 49 72 50 28 52 60 53 40 54 59 55
REMARK SMILES IDX 41 56 44 57 58 58 77 59 42 60 43 61 57 63 78 64 45 65 29 66
REMARK SMILES IDX 30 67 38 68 31 69 37 70 39 71 36 72 32 73 33 74 34 75 35 76
REMARK SMILES IDX 61 77 62 78 70 79 63 80 69 81 71 82 68 83 64 84 65 85 66 86
REMARK SMILES IDX 67 87 46 88 47 89 55 90 48 91 54 92 56 93 53 94 49 95 50 96
REMARK SMILES IDX 51 97 52 98
REMARK H PARENT 4 10 76 51 44 62
REMARK Flexibility Score: inf
ROOT
ATOM      1  C   UNL     1      -4.273  -2.323   0.903  1.00  0.00     0.188 C 
ENDROOT
BRANCH   1   2
ATOM      2  O   UNL     1      -5.278  -2.332  -0.092  1.00  0.00    -0.376 OA
BRANCH   2   3
ATOM      3  C   UNL     1      -5.338  -1.278  -1.043  1.00  0.00     0.202 C 
BRANCH   3   4
ATOM      4  C   UNL     1      -5.280   0.194  -0.620  1.00  0.00     0.261 C 
BRANCH   4   5
ATOM      5  O   UNL     1      -4.082   0.559   0.091  1.00  0.00    -0.459 OA
BRANCH   5   6
ATOM      6  C   UNL     1      -4.262   0.924   1.387  1.00  0.00     0.361 C 
ATOM      7  O   UNL     1      -5.366   1.063   1.907  1.00  0.00    -0.245 OA
BRANCH   6   8
ATOM      8  C   UNL     1      -2.985   1.148   2.189  1.00  0.00     0.387 C 
BRANCH   8   9
ATOM      9  N   UNL     1      -1.706   0.651   1.675  1.00  0.00    -0.315 N 
ATOM     10  H   UNL     1      -1.104   1.116   2.354  1.00  0.00     0.349 HD
BRANCH   9  11
ATOM     11  C   UNL     1      -1.166   1.270   0.483  1.00  0.00     0.291 C 
BRANCH  11  12
ATOM     12  C   UNL     1       0.337   1.280   0.504  1.00  0.00     0.025 C 
ATOM     13  C   UNL     1       1.102   0.545  -0.313  1.00  0.00     0.010 C 
ENDBRANCH  11  12
ENDBRANCH   9  11
BRANCH   9  14
ATOM     14  C   UNL     1      -1.269  -0.701   2.034  1.00  0.00     0.363 C 
BRANCH  14  15
ATOM     15  C   UNL     1      -1.491  -1.827   1.088  1.00  0.00     0.271 A 
ATOM     16  N   UNL     1      -1.140  -3.461   1.190  1.00  0.00    -0.106 NA
ATOM     17  O   UNL     1      -2.502  -1.617  -0.416  1.00  0.00    -0.415 OA
ATOM     18  N   UNL     1      -1.928  -4.373  -0.374  1.00  0.00    -0.107 NA
ATOM     19  C   UNL     1      -2.704  -3.222  -1.289  1.00  0.00     0.248 A 
BRANCH  19  20
ATOM     20  C   UNL     1      -3.046  -3.095  -2.689  1.00  0.00     0.039 A 
ATOM     21  C   UNL     1      -4.063  -3.859  -3.259  1.00  0.00     0.014 A 
ATOM     22  C   UNL     1      -2.470  -2.045  -3.423  1.00  0.00     0.014 A 
ATOM     23  C   UNL     1      -4.550  -3.522  -4.526  1.00  0.00     0.004 A 
ATOM     24  C   UNL     1      -2.950  -1.716  -4.688  1.00  0.00     0.004 A 
ATOM     25  C   UNL     1      -4.011  -2.440  -5.239  1.00  0.00    -0.051 A 
ATOM     26  C   UNL     1      -4.618  -2.019  -6.543  1.00  0.00     0.044 C 
ENDBRANCH  19  20
ENDBRANCH  14  15
ENDBRANCH   9  14
ENDBRANCH   8   9
ENDBRANCH   6   8
ENDBRANCH   5   6
ENDBRANCH   4   5
ENDBRANCH   3   4
ENDBRANCH   2   3
ENDBRANCH   1   2
BRANCH   1  27
ATOM     27  C   UNL     1      -2.916  -3.233   0.731  1.00  0.00     0.188 C 
BRANCH  27  28
ATOM     28  O   UNL     1      -1.202  -2.807  -0.402  1.00  0.00    -0.376 OA
BRANCH  28  29
ATOM     29  C   UNL     1       0.196  -3.565  -0.565  1.00  0.00     0.202 C 
BRANCH  29  30
ATOM     30  C   UNL     1       0.453  -5.115  -0.353  1.00  0.00     0.261 C 
BRANCH  30  31
ATOM     31  O   UNL     1      -0.047  -5.754   0.846  1.00  0.00    -0.460 OA
BRANCH  31  32
ATOM     32  C   UNL     1       0.437  -5.284   2.021  1.00  0.00     0.338 C 
ATOM     33  O   UNL     1       1.454  -4.621   2.158  1.00  0.00    -0.246 OA
BRANCH  32  34
ATOM     34  C   UNL     1      -0.583  -5.477   3.100  1.00  0.00     0.060 A 
ATOM     35  C   UNL     1      -0.779  -4.420   4.005  1.00  0.00     0.016 A 
ATOM     36  C   UNL     1      -1.344  -6.642   3.234  1.00  0.00     0.016 A 
ATOM     37  C   UNL     1      -1.645  -4.556   5.092  1.00  0.00     0.010 A 
ATOM     38  C   UNL     1      -2.194  -6.793   4.343  1.00  0.00     0.010 A 
ATOM     39  C   UNL     1      -2.290  -5.777   5.316  1.00  0.00    -0.014 A 
BRANCH  39  40
ATOM     40  C   UNL     1      -2.723  -6.101   6.707  1.00  0.00     0.031 A 
ATOM     41  C   UNL     1      -1.739  -6.863   7.567  1.00  0.00     0.074 A 
ATOM     42  C   UNL     1      -3.883  -5.674   7.239  1.00  0.00     0.049 A 
ATOM     43  N   UNL     1      -1.854  -7.293   8.797  1.00  0.00    -0.248 NA
ATOM     44  C   UNL     1      -0.445  -7.183   6.941  1.00  0.00     0.031 C 
ATOM     45  C   UNL     1      -4.885  -4.863   6.551  1.00  0.00     0.029 A 
ATOM     46  N   UNL     1      -4.411  -5.864   8.495  1.00  0.00    -0.354 N 
ATOM     47  C   UNL     1      -0.654  -7.940   9.084  1.00  0.00     0.074 A 
ATOM     48  C   UNL     1       0.152  -7.886   7.886  1.00  0.00     0.031 C 
ATOM     49  C   UNL     1      -5.910  -4.631   7.393  1.00  0.00     0.029 A 
ATOM     50  C   UNL     1      -5.657  -5.307   8.667  1.00  0.00     0.049 A 
ATOM     51  H   UNL     1      -3.939  -6.355   9.206  1.00  0.00     0.167 HD
ATOM     52  C   UNL     1      -0.252  -8.519  10.241  1.00  0.00     0.034 A 
ATOM     53  C   UNL     1      -6.503  -5.358   9.720  1.00  0.00     0.034 A 
ATOM     54  C   UNL     1      -1.066  -8.578  11.429  1.00  0.00     0.049 A 
ATOM     55  C   UNL     1      -6.077  -6.101  10.969  1.00  0.00     0.074 A 
ATOM     56  C   UNL     1      -0.763  -9.147  12.653  1.00  0.00     0.029 A 
ATOM     57  N   UNL     1      -2.349  -8.059  11.539  1.00  0.00    -0.354 N 
ATOM     58  N   UNL     1      -4.947  -6.723  11.223  1.00  0.00    -0.248 NA
ATOM     59  C   UNL     1      -7.040  -6.138  12.079  1.00  0.00     0.031 C 
ATOM     60  C   UNL     1      -1.891  -9.047  13.473  1.00  0.00     0.029 A 
ATOM     61  C   UNL     1      -2.864  -8.326  12.799  1.00  0.00     0.049 A 
ATOM     62  H   UNL     1      -2.825  -7.572  10.827  1.00  0.00     0.167 HD
ATOM     63  C   UNL     1      -5.053  -7.188  12.535  1.00  0.00     0.074 A 
ATOM     64  C   UNL     1      -6.347  -6.759  13.021  1.00  0.00     0.031 C 
ATOM     65  C   UNL     1      -4.160  -7.899  13.273  1.00  0.00     0.034 A 
BRANCH  52  66
ATOM     66  C   UNL     1       1.102  -9.191  10.245  1.00  0.00     0.023 A 
ATOM     67  C   UNL     1       2.294  -8.473  10.034  1.00  0.00     0.031 A 
ATOM     68  C   UNL     1       1.197 -10.583  10.418  1.00  0.00     0.131 A 
ATOM     69  C   UNL     1       3.514  -9.157   9.926  1.00  0.00     0.055 A 
ATOM     70  C   UNL     1       2.425 -11.247  10.397  1.00  0.00     0.041 A 
ATOM     71  F   UNL     1       0.094 -11.327  10.592  1.00  0.00    -0.206 F 
ATOM     72  C   UNL     1       3.592 -10.536  10.135  1.00  0.00     0.022 A 
BRANCH  69  73
ATOM     73  S   UNL     1       4.975  -8.245   9.353  1.00  0.00     0.124 S 
ATOM     74  O   UNL     1       4.524  -7.751   8.055  1.00  0.00    -0.237 OA
ATOM     75  O   UNL     1       5.148  -7.240  10.395  1.00  0.00    -0.237 OA
ATOM     76  O   UNL     1       6.016  -9.269   9.294  1.00  0.00    -0.744 OA
ENDBRANCH  69  73
ENDBRANCH  52  66
BRANCH  53  77
ATOM     77  C   UNL     1      -7.861  -4.735   9.643  1.00  0.00     0.023 A 
ATOM     78  C   UNL     1      -8.255  -3.718  10.529  1.00  0.00     0.031 A 
ATOM     79  C   UNL     1      -8.819  -5.213   8.730  1.00  0.00     0.131 A 
ATOM     80  C   UNL     1      -9.580  -3.249  10.517  1.00  0.00     0.055 A 
ATOM     81  C   UNL     1     -10.117  -4.699   8.680  1.00  0.00     0.041 A 
ATOM     82  F   UNL     1      -8.507  -6.195   7.869  1.00  0.00    -0.206 F 
ATOM     83  C   UNL     1     -10.508  -3.720   9.587  1.00  0.00     0.022 A 
BRANCH  80  84
ATOM     84  S   UNL     1     -10.107  -2.084  11.807  1.00  0.00     0.124 S 
ATOM     85  O   UNL     1      -9.831  -2.843  13.022  1.00  0.00    -0.237 OA
ATOM     86  O   UNL     1      -9.239  -0.939  11.554  1.00  0.00    -0.237 OA
ATOM     87  O   UNL     1     -11.522  -1.868  11.513  1.00  0.00    -0.744 OA
ENDBRANCH  80  84
ENDBRANCH  53  77
BRANCH  65  88
ATOM     88  C   UNL     1      -4.531  -8.203  14.708  1.00  0.00     0.023 A 
ATOM     89  C   UNL     1      -5.637  -9.006  15.040  1.00  0.00     0.031 A 
ATOM     90  C   UNL     1      -3.776  -7.658  15.763  1.00  0.00     0.131 A 
ATOM     91  C   UNL     1      -6.002  -9.175  16.385  1.00  0.00     0.055 A 
ATOM     92  C   UNL     1      -4.097  -7.896  17.101  1.00  0.00     0.041 A 
ATOM     93  F   UNL     1      -2.710  -6.882  15.512  1.00  0.00    -0.206 F 
ATOM     94  C   UNL     1      -5.227  -8.642  17.418  1.00  0.00     0.022 A 
BRANCH  91  95
ATOM     95  S   UNL     1      -7.581  -9.984  16.762  1.00  0.00     0.124 S 
ATOM     96  O   UNL     1      -8.527  -9.171  16.006  1.00  0.00    -0.237 OA
ATOM     97  O   UNL     1      -7.364 -11.339  16.264  1.00  0.00    -0.237 OA
ATOM     98  O   UNL     1      -7.687  -9.868  18.216  1.00  0.00    -0.744 OA
ENDBRANCH  91  95
ENDBRANCH  65  88
ENDBRANCH  39  40
ENDBRANCH  32  34
ENDBRANCH  31  32
ENDBRANCH  30  31
ENDBRANCH  29  30
ENDBRANCH  28  29
ENDBRANCH  27  28
ENDBRANCH   1  27
TORSDOF 26
