REMARK SMILES O=C(CCc1nc(-c2ccccc2)c(-c2ccccc2)o1)OCCOCCOCCOC(=O)c1ccc(-c2c3nc(c(-c4cc(S(=O)(=O)[O-])ccc4F)c4ccc([nH]4)c(-c4cc(S(=O)(=O)[O-])ccc4F)c4nc(c(-c5cc(S(=O)(=O)[O-])ccc5F)c5ccc2[nH]5)C=C4)C=C3)cc1
REMARK SMILES IDX 26 1 25 2 24 3 23 4 22 5 2 6 1 7 3 8 4 9 5 10 6 11 21 12
REMARK SMILES IDX 7 13 14 14 8 15 9 16 13 17 10 18 12 19 11 20 15 21 16 22
REMARK SMILES IDX 20 23 17 24 19 25 18 26 27 27 28 28 29 29 30 30 31 31 32 32
REMARK SMILES IDX 33 33 34 34 35 35 96 36 36 37 95 38 37 39 38 40 39 41 89 42
REMARK SMILES IDX 40 43 94 44 88 45 90 46 41 47 93 48 87 49 86 50 42 52 74 53
REMARK SMILES IDX 54 54 73 55 55 56 58 57 72 58 91 59 56 60 57 61 71 63 92 64
REMARK SMILES IDX 59 65 43 66 44 67 52 68 45 69 51 70 53 71 50 72 46 73 47 74
REMARK SMILES IDX 48 75 49 76 75 77 76 78 84 79 77 80 83 81 85 82 82 83 78 84
REMARK SMILES IDX 79 85 80 86 81 87 60 88 61 89 69 90 62 91 68 92 70 93 67 94
REMARK SMILES IDX 63 95 64 96 65 97 66 98
REMARK H PARENT 90 51 58 62
REMARK Flexibility Score: inf
ROOT
ATOM      1  C   UNL     1       1.975  -1.373  -1.310  1.00  0.00     0.188 C 
ENDROOT
BRANCH   1   2
ATOM      2  O   UNL     1       3.323  -0.994  -1.525  1.00  0.00    -0.376 OA
BRANCH   2   3
ATOM      3  C   UNL     1       4.204  -1.055  -0.407  1.00  0.00     0.202 C 
BRANCH   3   4
ATOM      4  C   UNL     1       3.624  -0.734   0.980  1.00  0.00     0.261 C 
BRANCH   4   5
ATOM      5  O   UNL     1       2.627   0.303   1.127  1.00  0.00    -0.463 OA
BRANCH   5   6
ATOM      6  C   UNL     1       2.562   1.559   0.669  1.00  0.00     0.306 C 
ATOM      7  O   UNL     1       1.666   2.294   1.087  1.00  0.00    -0.252 OA
BRANCH   6   8
ATOM      8  C   UNL     1       3.542   2.082  -0.339  1.00  0.00     0.132 C 
BRANCH   8   9
ATOM      9  C   UNL     1       4.635   2.933   0.296  1.00  0.00     0.109 C 
BRANCH   9  10
ATOM     10  C   UNL     1       5.674   2.123   0.989  1.00  0.00     0.196 A 
ATOM     11  N   UNL     1       5.977   0.857   0.804  1.00  0.00    -0.213 NA
ATOM     12  O   UNL     1       6.382   2.719   2.001  1.00  0.00    -0.440 OA
ATOM     13  C   UNL     1       6.784   0.536   1.855  1.00  0.00     0.117 A 
ATOM     14  C   UNL     1       7.133   1.692   2.516  1.00  0.00     0.162 A 
BRANCH  13  15
ATOM     15  C   UNL     1       7.048  -0.825   2.292  1.00  0.00     0.004 A 
ATOM     16  C   UNL     1       6.794  -1.178   3.630  1.00  0.00     0.010 A 
ATOM     17  C   UNL     1       7.451  -1.821   1.398  1.00  0.00     0.010 A 
ATOM     18  C   UNL     1       6.980  -2.486   4.076  1.00  0.00     0.001 A 
ATOM     19  C   UNL     1       7.642  -3.134   1.848  1.00  0.00     0.001 A 
ATOM     20  C   UNL     1       7.413  -3.463   3.186  1.00  0.00     0.000 A 
ENDBRANCH  13  15
BRANCH  14  21
ATOM     21  C   UNL     1       8.070   1.984   3.573  1.00  0.00     0.020 A 
ATOM     22  C   UNL     1       7.736   2.803   4.651  1.00  0.00     0.012 A 
ATOM     23  C   UNL     1       9.332   1.372   3.528  1.00  0.00     0.012 A 
ATOM     24  C   UNL     1       8.659   2.997   5.680  1.00  0.00     0.001 A 
ATOM     25  C   UNL     1      10.251   1.568   4.552  1.00  0.00     0.001 A 
ATOM     26  C   UNL     1       9.912   2.381   5.629  1.00  0.00     0.000 A 
ENDBRANCH  14  21
ENDBRANCH   9  10
ENDBRANCH   8   9
ENDBRANCH   6   8
ENDBRANCH   5   6
ENDBRANCH   4   5
ENDBRANCH   3   4
ENDBRANCH   2   3
ENDBRANCH   1   2
BRANCH   1  27
ATOM     27  C   UNL     1       1.732  -2.838  -0.937  1.00  0.00     0.188 C 
BRANCH  27  28
ATOM     28  O   UNL     1       2.808  -3.386  -0.189  1.00  0.00    -0.376 OA
BRANCH  28  29
ATOM     29  C   UNL     1       3.501  -4.470  -0.794  1.00  0.00     0.202 C 
BRANCH  29  30
ATOM     30  C   UNL     1       4.277  -4.258  -2.115  1.00  0.00     0.261 C 
BRANCH  30  31
ATOM     31  O   UNL     1       3.766  -3.308  -3.060  1.00  0.00    -0.460 OA
BRANCH  31  32
ATOM     32  C   UNL     1       2.821  -3.718  -3.932  1.00  0.00     0.338 C 
ATOM     33  O   UNL     1       2.272  -4.810  -3.947  1.00  0.00    -0.246 OA
BRANCH  32  34
ATOM     34  C   UNL     1       2.462  -2.574  -4.800  1.00  0.00     0.060 A 
ATOM     35  C   UNL     1       1.216  -1.955  -4.647  1.00  0.00     0.016 A 
ATOM     36  C   UNL     1       3.354  -2.112  -5.770  1.00  0.00     0.016 A 
ATOM     37  C   UNL     1       0.881  -0.835  -5.417  1.00  0.00     0.010 A 
ATOM     38  C   UNL     1       2.994  -1.027  -6.582  1.00  0.00     0.010 A 
ATOM     39  C   UNL     1       1.757  -0.379  -6.410  1.00  0.00    -0.014 A 
BRANCH  39  40
ATOM     40  C   UNL     1       1.322   0.658  -7.383  1.00  0.00     0.031 A 
ATOM     41  C   UNL     1       0.656   0.205  -8.653  1.00  0.00     0.074 A 
ATOM     42  C   UNL     1       1.539   1.970  -7.164  1.00  0.00     0.049 A 
ATOM     43  N   UNL     1       0.320   0.899  -9.709  1.00  0.00    -0.248 NA
ATOM     44  C   UNL     1       0.329  -1.228  -8.744  1.00  0.00     0.031 C 
ATOM     45  C   UNL     1       2.111   2.540  -5.945  1.00  0.00     0.029 A 
ATOM     46  N   UNL     1       1.326   3.061  -7.975  1.00  0.00    -0.354 N 
ATOM     47  C   UNL     1      -0.238  -0.013 -10.598  1.00  0.00     0.074 A 
ATOM     48  C   UNL     1      -0.195  -1.310  -9.958  1.00  0.00     0.031 C 
ATOM     49  C   UNL     1       2.238   3.870  -6.104  1.00  0.00     0.029 A 
ATOM     50  C   UNL     1       1.809   4.242  -7.452  1.00  0.00     0.049 A 
ATOM     51  H   UNL     1       0.872   3.004  -8.846  1.00  0.00     0.167 HD
ATOM     52  C   UNL     1      -0.726   0.212 -11.841  1.00  0.00     0.034 A 
ATOM     53  C   UNL     1       1.938   5.463  -8.017  1.00  0.00     0.034 A 
ATOM     54  C   UNL     1      -0.751   1.508 -12.471  1.00  0.00     0.049 A 
ATOM     55  C   UNL     1       1.481   5.662  -9.449  1.00  0.00     0.074 A 
ATOM     56  C   UNL     1      -1.268   1.848 -13.709  1.00  0.00     0.029 A 
ATOM     57  N   UNL     1      -0.214   2.667 -11.931  1.00  0.00    -0.354 N 
ATOM     58  N   UNL     1       0.921   4.799 -10.267  1.00  0.00    -0.248 NA
ATOM     59  C   UNL     1       1.679   6.996 -10.037  1.00  0.00     0.031 C 
ATOM     60  C   UNL     1      -0.958   3.187 -13.958  1.00  0.00     0.029 A 
ATOM     61  C   UNL     1      -0.333   3.710 -12.837  1.00  0.00     0.049 A 
ATOM     62  H   UNL     1       0.191   2.739 -11.037  1.00  0.00     0.167 HD
ATOM     63  C   UNL     1       0.677   5.497 -11.449  1.00  0.00     0.074 A 
ATOM     64  C   UNL     1       1.129   6.854 -11.234  1.00  0.00     0.031 C 
ATOM     65  C   UNL     1       0.128   5.058 -12.611  1.00  0.00     0.034 A 
BRANCH  52  66
ATOM     66  C   UNL     1      -1.201  -0.975 -12.639  1.00  0.00     0.023 A 
ATOM     67  C   UNL     1      -2.343  -1.710 -12.282  1.00  0.00     0.031 A 
ATOM     68  C   UNL     1      -0.502  -1.357 -13.799  1.00  0.00     0.131 A 
ATOM     69  C   UNL     1      -2.732  -2.812 -13.059  1.00  0.00     0.055 A 
ATOM     70  C   UNL     1      -0.934  -2.411 -14.605  1.00  0.00     0.041 A 
ATOM     71  F   UNL     1       0.612  -0.707 -14.170  1.00  0.00    -0.206 F 
ATOM     72  C   UNL     1      -2.052  -3.150 -14.232  1.00  0.00     0.022 A 
BRANCH  69  73
ATOM     73  S   UNL     1      -4.085  -3.864 -12.464  1.00  0.00     0.124 S 
ATOM     74  O   UNL     1      -3.566  -4.315 -11.176  1.00  0.00    -0.237 OA
ATOM     75  O   UNL     1      -5.207  -2.934 -12.409  1.00  0.00    -0.237 OA
ATOM     76  O   UNL     1      -4.187  -4.904 -13.486  1.00  0.00    -0.744 OA
ENDBRANCH  69  73
ENDBRANCH  52  66
BRANCH  53  77
ATOM     77  C   UNL     1       2.610   6.584  -7.287  1.00  0.00     0.023 A 
ATOM     78  C   UNL     1       1.955   7.806  -7.059  1.00  0.00     0.031 A 
ATOM     79  C   UNL     1       3.963   6.491  -6.911  1.00  0.00     0.131 A 
ATOM     80  C   UNL     1       2.669   8.901  -6.541  1.00  0.00     0.055 A 
ATOM     81  C   UNL     1       4.648   7.559  -6.329  1.00  0.00     0.041 A 
ATOM     82  F   UNL     1       4.651   5.356  -7.119  1.00  0.00    -0.206 F 
ATOM     83  C   UNL     1       4.006   8.780  -6.159  1.00  0.00     0.022 A 
BRANCH  80  84
ATOM     84  S   UNL     1       1.864  10.528  -6.511  1.00  0.00     0.124 S 
ATOM     85  O   UNL     1       1.484  10.695  -7.910  1.00  0.00    -0.237 OA
ATOM     86  O   UNL     1       0.771  10.308  -5.570  1.00  0.00    -0.237 OA
ATOM     87  O   UNL     1       2.921  11.421  -6.041  1.00  0.00    -0.744 OA
ENDBRANCH  80  84
ENDBRANCH  53  77
BRANCH  65  88
ATOM     88  C   UNL     1      -0.052   6.063 -13.724  1.00  0.00     0.023 A 
ATOM     89  C   UNL     1       1.045   6.639 -14.388  1.00  0.00     0.031 A 
ATOM     90  C   UNL     1      -1.344   6.432 -14.142  1.00  0.00     0.131 A 
ATOM     91  C   UNL     1       0.831   7.583 -15.404  1.00  0.00     0.055 A 
ATOM     92  C   UNL     1      -1.551   7.323 -15.196  1.00  0.00     0.041 A 
ATOM     93  F   UNL     1      -2.429   5.916 -13.543  1.00  0.00    -0.206 F 
ATOM     94  C   UNL     1      -0.460   7.912 -15.826  1.00  0.00     0.022 A 
BRANCH  91  95
ATOM     95  S   UNL     1       2.263   8.434 -16.123  1.00  0.00     0.124 S 
ATOM     96  O   UNL     1       2.837   9.099 -14.958  1.00  0.00    -0.237 OA
ATOM     97  O   UNL     1       3.041   7.329 -16.674  1.00  0.00    -0.237 OA
ATOM     98  O   UNL     1       1.668   9.327 -17.117  1.00  0.00    -0.744 OA
ENDBRANCH  91  95
ENDBRANCH  65  88
ENDBRANCH  39  40
ENDBRANCH  32  34
ENDBRANCH  31  32
ENDBRANCH  30  31
ENDBRANCH  29  30
ENDBRANCH  28  29
ENDBRANCH  27  28
ENDBRANCH   1  27
TORSDOF 24
