REMARK SMILES C[N@@H+]1CC[C@H]2CN(C(=O)c3csc(-c4ccncc4)n3)C[C@@]2(C(=O)OCCOCCOCCOC(=O)c2ccc(-c3c4nc(c(-c5cc(S(=O)(=O)[O-])ccc5F)c5ccc([nH]5)c(-c5cc(S(=O)(=O)[O-])ccc5F)c5nc(c(-c6cc(S(=O)(=O)[O-])ccc6F)c6ccc3[nH]6)C=C5)C=C4)cc2)C1
REMARK SMILES IDX 29 1 28 2 27 3 26 4 25 5 23 6 24 7 22 8 1 9 2 10 3 11 100 12
REMARK SMILES IDX 4 14 5 15 21 16 6 17 7 18 8 19 9 20 10 21 11 22 20 23 12 24
REMARK SMILES IDX 13 25 14 26 15 27 19 28 16 29 18 30 17 31 30 32 31 33 32 34
REMARK SMILES IDX 33 35 34 36 35 37 36 38 37 39 38 40 99 41 39 42 98 43 40 44
REMARK SMILES IDX 41 45 42 46 92 47 43 48 97 49 91 50 93 51 44 52 96 53 90 54
REMARK SMILES IDX 89 55 45 57 77 58 57 59 76 60 58 61 61 62 75 63 94 64 59 65
REMARK SMILES IDX 60 66 74 68 95 69 62 70 46 71 47 72 55 73 48 74 54 75 56 76
REMARK SMILES IDX 53 77 49 78 50 79 51 80 52 81 78 82 79 83 87 84 80 85 86 86
REMARK SMILES IDX 88 87 85 88 81 89 82 90 83 91 84 92 63 93 64 94 72 95 65 96
REMARK SMILES IDX 71 97 73 98 70 99 66 100 67 101 68 102 69 103
REMARK H PARENT 2 13 93 56 61 67
REMARK Flexibility Score: inf
ROOT
ATOM      1  C   UNL     1      -0.747   0.408  -2.282  1.00  0.00     0.188 C 
ENDROOT
BRANCH   1   2
ATOM      2  O   UNL     1       0.182   0.691  -3.335  1.00  0.00    -0.376 OA
BRANCH   2   3
ATOM      3  C   UNL     1       1.477   1.109  -2.881  1.00  0.00     0.202 C 
BRANCH   3   4
ATOM      4  C   UNL     1       2.557   0.088  -3.286  1.00  0.00     0.261 C 
BRANCH   4   5
ATOM      5  O   UNL     1       2.187  -1.214  -2.792  1.00  0.00    -0.463 OA
BRANCH   5   6
ATOM      6  C   UNL     1       2.917  -1.922  -1.859  1.00  0.00     0.320 C 
ATOM      7  O   UNL     1       4.035  -1.634  -1.478  1.00  0.00    -0.251 OA
BRANCH   6   8
ATOM      8  C   UNL     1       1.978  -3.020  -1.314  1.00  0.00     0.139 C 
ATOM      9  C   UNL     1       1.637  -0.562   1.169  1.00  0.00     0.332 C 
ATOM     10  N   UNL     1       1.084  -1.877   0.858  1.00  0.00    -0.336 N 
ATOM     11  C   UNL     1       1.748  -2.901   1.659  1.00  0.00     0.262 C 
ATOM     12  C   UNL     1       0.894  -2.202  -0.568  1.00  0.00     0.283 C 
ATOM     13  H   UNL     1       0.105  -1.847   1.143  1.00  0.00     0.347 HD
ATOM     14  C   UNL     1       1.702  -4.237   0.966  1.00  0.00     0.068 C 
ATOM     15  C   UNL     1       2.446  -4.176  -0.378  1.00  0.00     0.039 C 
ATOM     16  C   UNL     1       1.553  -3.777  -2.616  1.00  0.00     0.145 C 
ATOM     17  C   UNL     1       2.101  -5.484  -1.088  1.00  0.00     0.125 C 
ATOM     18  N   UNL     1       2.066  -5.131  -2.465  1.00  0.00    -0.336 N 
BRANCH  18  19
ATOM     19  C   UNL     1       2.288  -6.100  -3.423  1.00  0.00     0.273 C 
ATOM     20  O   UNL     1       2.095  -7.293  -3.188  1.00  0.00    -0.267 OA
BRANCH  19  21
ATOM     21  C   UNL     1       2.889  -5.686  -4.694  1.00  0.00     0.139 A 
ATOM     22  C   UNL     1       2.775  -6.439  -5.850  1.00  0.00     0.101 A 
ATOM     23  N   UNL     1       3.783  -4.616  -4.793  1.00  0.00    -0.231 NA
ATOM     24  S   UNL     1       3.782  -5.809  -7.078  1.00  0.00    -0.122 S 
ATOM     25  C   UNL     1       4.348  -4.611  -5.981  1.00  0.00     0.124 A 
BRANCH  25  26
ATOM     26  C   UNL     1       5.427  -3.718  -6.394  1.00  0.00     0.013 A 
ATOM     27  C   UNL     1       6.702  -3.853  -5.838  1.00  0.00     0.031 A 
ATOM     28  C   UNL     1       5.203  -2.720  -7.341  1.00  0.00     0.031 A 
ATOM     29  C   UNL     1       7.700  -2.997  -6.271  1.00  0.00     0.111 A 
ATOM     30  C   UNL     1       6.265  -1.909  -7.703  1.00  0.00     0.111 A 
ATOM     31  N   UNL     1       7.511  -2.031  -7.197  1.00  0.00    -0.265 NA
ENDBRANCH  25  26
ENDBRANCH  19  21
ENDBRANCH  18  19
ENDBRANCH   6   8
ENDBRANCH   5   6
ENDBRANCH   4   5
ENDBRANCH   3   4
ENDBRANCH   2   3
ENDBRANCH   1   2
BRANCH   1  32
ATOM     32  C   UNL     1      -1.536  -0.866  -2.628  1.00  0.00     0.188 C 
BRANCH  32  33
ATOM     33  O   UNL     1      -2.596  -0.730  -3.574  1.00  0.00    -0.376 OA
BRANCH  33  34
ATOM     34  C   UNL     1      -3.350   0.473  -3.513  1.00  0.00     0.202 C 
BRANCH  34  35
ATOM     35  C   UNL     1      -4.269   0.665  -2.293  1.00  0.00     0.261 C 
BRANCH  35  36
ATOM     36  O   UNL     1      -3.669   0.410  -1.005  1.00  0.00    -0.460 OA
BRANCH  36  37
ATOM     37  C   UNL     1      -4.074  -0.752  -0.420  1.00  0.00     0.338 C 
ATOM     38  O   UNL     1      -4.800  -1.593  -0.921  1.00  0.00    -0.246 OA
BRANCH  37  39
ATOM     39  C   UNL     1      -3.460  -0.950   0.914  1.00  0.00     0.060 A 
ATOM     40  C   UNL     1      -2.816  -2.167   1.169  1.00  0.00     0.016 A 
ATOM     41  C   UNL     1      -3.672  -0.045   1.958  1.00  0.00     0.016 A 
ATOM     42  C   UNL     1      -2.428  -2.506   2.471  1.00  0.00     0.010 A 
ATOM     43  C   UNL     1      -3.292  -0.393   3.266  1.00  0.00     0.010 A 
ATOM     44  C   UNL     1      -2.704  -1.643   3.540  1.00  0.00    -0.014 A 
BRANCH  44  45
ATOM     45  C   UNL     1      -2.544  -2.115   4.947  1.00  0.00     0.031 A 
ATOM     46  C   UNL     1      -3.750  -2.635   5.688  1.00  0.00     0.074 A 
ATOM     47  C   UNL     1      -1.349  -2.110   5.568  1.00  0.00     0.049 A 
ATOM     48  N   UNL     1      -3.859  -3.033   6.930  1.00  0.00    -0.248 NA
ATOM     49  C   UNL     1      -5.001  -2.709   4.920  1.00  0.00     0.031 C 
ATOM     50  C   UNL     1      -0.092  -1.684   4.964  1.00  0.00     0.029 A 
ATOM     51  N   UNL     1      -1.000  -2.471   6.849  1.00  0.00    -0.354 N 
ATOM     52  C   UNL     1      -5.190  -3.401   7.098  1.00  0.00     0.074 A 
ATOM     53  C   UNL     1      -5.853  -3.145   5.835  1.00  0.00     0.031 C 
ATOM     54  C   UNL     1       0.894  -1.806   5.871  1.00  0.00     0.029 A 
ATOM     55  C   UNL     1       0.331  -2.270   7.140  1.00  0.00     0.049 A 
ATOM     56  H   UNL     1      -1.642  -2.840   7.498  1.00  0.00     0.167 HD
ATOM     57  C   UNL     1      -5.806  -3.905   8.198  1.00  0.00     0.034 A 
ATOM     58  C   UNL     1       1.010  -2.411   8.298  1.00  0.00     0.034 A 
ATOM     59  C   UNL     1      -5.150  -4.143   9.462  1.00  0.00     0.049 A 
ATOM     60  C   UNL     1       0.282  -2.876   9.541  1.00  0.00     0.074 A 
ATOM     61  C   UNL     1      -5.691  -4.652  10.631  1.00  0.00     0.029 A 
ATOM     62  N   UNL     1      -3.815  -3.875   9.733  1.00  0.00    -0.354 N 
ATOM     63  N   UNL     1      -0.979  -3.213   9.686  1.00  0.00    -0.248 NA
ATOM     64  C   UNL     1       1.073  -2.979  10.777  1.00  0.00     0.031 C 
ATOM     65  C   UNL     1      -4.707  -4.621  11.625  1.00  0.00     0.029 A 
ATOM     66  C   UNL     1      -3.526  -4.174  11.057  1.00  0.00     0.049 A 
ATOM     67  H   UNL     1      -3.167  -3.523   9.080  1.00  0.00     0.167 HD
ATOM     68  C   UNL     1      -1.119  -3.600  11.019  1.00  0.00     0.074 A 
ATOM     69  C   UNL     1       0.185  -3.466  11.631  1.00  0.00     0.031 C 
ATOM     70  C   UNL     1      -2.226  -4.035  11.673  1.00  0.00     0.034 A 
BRANCH  57  71
ATOM     71  C   UNL     1      -7.287  -4.178   8.093  1.00  0.00     0.023 A 
ATOM     72  C   UNL     1      -7.801  -5.154   7.222  1.00  0.00     0.031 A 
ATOM     73  C   UNL     1      -8.201  -3.430   8.857  1.00  0.00     0.131 A 
ATOM     74  C   UNL     1      -9.189  -5.304   7.082  1.00  0.00     0.055 A 
ATOM     75  C   UNL     1      -9.578  -3.641   8.773  1.00  0.00     0.041 A 
ATOM     76  F   UNL     1      -7.770  -2.470   9.691  1.00  0.00    -0.206 F 
ATOM     77  C   UNL     1     -10.081  -4.572   7.869  1.00  0.00     0.022 A 
BRANCH  74  78
ATOM     78  S   UNL     1      -9.816  -6.364   5.750  1.00  0.00     0.124 S 
ATOM     79  O   UNL     1      -9.212  -5.745   4.572  1.00  0.00    -0.237 OA
ATOM     80  O   UNL     1      -9.298  -7.675   6.120  1.00  0.00    -0.237 OA
ATOM     81  O   UNL     1     -11.267  -6.215   5.847  1.00  0.00    -0.744 OA
ENDBRANCH  74  78
ENDBRANCH  57  71
BRANCH  58  82
ATOM     82  C   UNL     1       2.458  -2.052   8.378  1.00  0.00     0.023 A 
ATOM     83  C   UNL     1       3.430  -3.010   8.710  1.00  0.00     0.031 A 
ATOM     84  C   UNL     1       2.879  -0.721   8.207  1.00  0.00     0.131 A 
ATOM     85  C   UNL     1       4.763  -2.615   8.912  1.00  0.00     0.055 A 
ATOM     86  C   UNL     1       4.215  -0.343   8.351  1.00  0.00     0.041 A 
ATOM     87  F   UNL     1       1.992   0.238   7.897  1.00  0.00    -0.206 F 
ATOM     88  C   UNL     1       5.164  -1.291   8.720  1.00  0.00     0.022 A 
BRANCH  85  89
ATOM     89  S   UNL     1       5.951  -3.841   9.526  1.00  0.00     0.124 S 
ATOM     90  O   UNL     1       5.342  -4.234  10.791  1.00  0.00    -0.237 OA
ATOM     91  O   UNL     1       5.929  -4.841   8.464  1.00  0.00    -0.237 OA
ATOM     92  O   UNL     1       7.194  -3.082   9.639  1.00  0.00    -0.744 OA
ENDBRANCH  85  89
ENDBRANCH  58  82
BRANCH  70  93
ATOM     93  C   UNL     1      -2.065  -4.459  13.116  1.00  0.00     0.023 A 
ATOM     94  C   UNL     1      -1.740  -3.544  14.134  1.00  0.00     0.031 A 
ATOM     95  C   UNL     1      -2.237  -5.809  13.476  1.00  0.00     0.131 A 
ATOM     96  C   UNL     1      -1.550  -3.998  15.450  1.00  0.00     0.055 A 
ATOM     97  C   UNL     1      -2.104  -6.244  14.796  1.00  0.00     0.041 A 
ATOM     98  F   UNL     1      -2.545  -6.729  12.548  1.00  0.00    -0.206 F 
ATOM     99  C   UNL     1      -1.746  -5.339  15.790  1.00  0.00     0.022 A 
BRANCH  96 100
ATOM    100  S   UNL     1      -0.956  -2.827  16.704  1.00  0.00     0.124 S 
ATOM    101  O   UNL     1       0.297  -2.363  16.118  1.00  0.00    -0.237 OA
ATOM    102  O   UNL     1      -2.037  -1.848  16.754  1.00  0.00    -0.237 OA
ATOM    103  O   UNL     1      -0.812  -3.651  17.903  1.00  0.00    -0.744 OA
ENDBRANCH  96 100
ENDBRANCH  70  93
ENDBRANCH  44  45
ENDBRANCH  37  39
ENDBRANCH  36  37
ENDBRANCH  35  36
ENDBRANCH  34  35
ENDBRANCH  33  34
ENDBRANCH  32  33
ENDBRANCH   1  32
TORSDOF 23
