REMARK SMILES COc1cccc2c(C)cc(S[C@H](C)C(=O)Nc3ccc(C(=O)OCCOCCOCCOC(=O)c4ccc(-c5c6nc(c(-c7cc(S(=O)(=O)[O-])ccc7F)c7ccc([nH]7)c(-c7cc(S(=O)(=O)[O-])ccc7F)c7nc(c(-c8cc(S(=O)(=O)[O-])ccc8F)c8ccc5[nH]8)C=C7)C=C6)cc4)cc3)nc12
REMARK SMILES IDX 28 1 27 2 26 3 25 4 24 5 22 6 23 7 21 8 18 9 19 10 100 11
REMARK SMILES IDX 20 12 99 13 17 14 15 15 16 16 13 18 14 19 12 20 11 21 3 22
REMARK SMILES IDX 4 23 102 24 5 25 7 26 101 27 6 28 8 29 9 30 10 31 2 32 1 33
REMARK SMILES IDX 29 34 30 35 31 36 32 37 33 38 34 39 35 40 36 41 37 42 98 43
REMARK SMILES IDX 38 44 97 45 39 46 40 47 41 48 91 49 42 50 96 51 90 52 92 53
REMARK SMILES IDX 43 54 95 55 89 56 88 57 44 59 76 60 56 61 75 62 57 63 60 64
REMARK SMILES IDX 74 65 93 66 58 67 59 68 73 70 94 71 61 72 45 73 46 74 54 75
REMARK SMILES IDX 47 76 53 77 55 78 52 79 48 80 49 81 50 82 51 83 77 84 78 85
REMARK SMILES IDX 86 86 79 87 85 88 87 89 84 90 80 91 81 92 82 93 83 94 62 95
REMARK SMILES IDX 63 96 71 97 64 98 70 99 72 100 69 101 65 102 66 103 67 104
REMARK SMILES IDX 68 105
REMARK H PARENT 17 17 92 58 60 69
REMARK Flexibility Score: inf
ROOT
ATOM      1  C   UNL     1       0.577  -6.126   1.281  1.00  0.00     0.188 C 
ENDROOT
BRANCH   1   2
ATOM      2  O   UNL     1       0.037  -6.413   2.560  1.00  0.00    -0.376 OA
BRANCH   2   3
ATOM      3  C   UNL     1       0.341  -5.597   3.680  1.00  0.00     0.202 C 
BRANCH   3   4
ATOM      4  C   UNL     1       1.794  -5.278   4.026  1.00  0.00     0.261 C 
BRANCH   4   5
ATOM      5  O   UNL     1       2.501  -4.675   2.938  1.00  0.00    -0.460 OA
BRANCH   5   6
ATOM      6  C   UNL     1       3.601  -5.352   2.526  1.00  0.00     0.338 C 
ATOM      7  O   UNL     1       4.072  -6.357   3.034  1.00  0.00    -0.246 OA
BRANCH   6   8
ATOM      8  C   UNL     1       4.093  -4.781   1.254  1.00  0.00     0.060 A 
ATOM      9  C   UNL     1       5.210  -3.772  -1.082  1.00  0.00     0.041 A 
ATOM     10  C   UNL     1       5.214  -5.149  -0.859  1.00  0.00     0.027 A 
ATOM     11  C   UNL     1       4.511  -2.922  -0.224  1.00  0.00     0.027 A 
ATOM     12  C   UNL     1       4.678  -5.651   0.327  1.00  0.00     0.018 A 
ATOM     13  C   UNL     1       3.968  -3.420   0.959  1.00  0.00     0.018 A 
BRANCH   9  14
ATOM     14  N   UNL     1       5.981  -3.277  -2.135  1.00  0.00    -0.325 N 
ATOM     15  C   UNL     1       6.972  -2.334  -2.102  1.00  0.00     0.237 C 
ATOM     16  O   UNL     1       7.478  -2.019  -3.190  1.00  0.00    -0.273 OA
ATOM     17  H   UNL     1       5.785  -3.658  -3.022  1.00  0.00     0.169 HD
BRANCH  15  18
ATOM     18  C   UNL     1       7.514  -1.661  -0.824  1.00  0.00     0.139 C 
ATOM     19  C   UNL     1       6.696  -0.452  -0.382  1.00  0.00     0.030 C 
BRANCH  18  20
ATOM     20  S   UNL     1       7.769  -2.833   0.564  1.00  0.00    -0.093 SA
BRANCH  20  21
ATOM     21  C   UNL     1       9.447  -2.677   1.095  1.00  0.00     0.098 A 
ATOM     22  C   UNL     1      11.441  -4.750   3.332  1.00  0.00     0.145 A 
ATOM     23  C   UNL     1      12.700  -4.771   3.941  1.00  0.00     0.049 A 
ATOM     24  C   UNL     1      11.058  -3.720   2.452  1.00  0.00     0.114 A 
ATOM     25  C   UNL     1      13.627  -3.786   3.649  1.00  0.00     0.005 A 
ATOM     26  C   UNL     1      12.003  -2.708   2.166  1.00  0.00     0.007 A 
ATOM     27  N   UNL     1       9.821  -3.681   1.916  1.00  0.00    -0.238 NA
ATOM     28  C   UNL     1      13.284  -2.767   2.765  1.00  0.00     0.011 A 
ATOM     29  C   UNL     1      11.609  -1.661   1.298  1.00  0.00    -0.039 A 
ATOM     30  C   UNL     1      12.538  -0.537   0.925  1.00  0.00     0.045 C 
ATOM     31  C   UNL     1      10.308  -1.647   0.781  1.00  0.00     0.039 A 
BRANCH  22  32
ATOM     32  O   UNL     1      10.609  -5.769   3.743  1.00  0.00    -0.494 OA
ATOM     33  C   UNL     1      10.033  -6.503   2.661  1.00  0.00     0.278 C 
ENDBRANCH  22  32
ENDBRANCH  20  21
ENDBRANCH  18  20
ENDBRANCH  15  18
ENDBRANCH   9  14
ENDBRANCH   6   8
ENDBRANCH   5   6
ENDBRANCH   4   5
ENDBRANCH   3   4
ENDBRANCH   2   3
ENDBRANCH   1   2
BRANCH   1  34
ATOM     34  C   UNL     1       0.441  -4.724   0.647  1.00  0.00     0.188 C 
BRANCH  34  35
ATOM     35  O   UNL     1      -0.434  -3.753   1.196  1.00  0.00    -0.376 OA
BRANCH  35  36
ATOM     36  C   UNL     1      -1.784  -4.112   1.442  1.00  0.00     0.202 C 
BRANCH  36  37
ATOM     37  C   UNL     1      -2.641  -4.617   0.281  1.00  0.00     0.261 C 
BRANCH  37  38
ATOM     38  O   UNL     1      -2.118  -5.807  -0.327  1.00  0.00    -0.460 OA
BRANCH  38  39
ATOM     39  C   UNL     1      -1.843  -5.707  -1.651  1.00  0.00     0.338 C 
ATOM     40  O   UNL     1      -2.024  -4.741  -2.372  1.00  0.00    -0.246 OA
BRANCH  39  41
ATOM     41  C   UNL     1      -1.111  -6.912  -2.082  1.00  0.00     0.060 A 
ATOM     42  C   UNL     1       0.182  -6.757  -2.597  1.00  0.00     0.016 A 
ATOM     43  C   UNL     1      -1.700  -8.175  -2.002  1.00  0.00     0.016 A 
ATOM     44  C   UNL     1       0.894  -7.873  -3.038  1.00  0.00     0.010 A 
ATOM     45  C   UNL     1      -0.993  -9.288  -2.466  1.00  0.00     0.010 A 
ATOM     46  C   UNL     1       0.302  -9.142  -2.995  1.00  0.00    -0.014 A 
BRANCH  46  47
ATOM     47  C   UNL     1       0.988 -10.314  -3.591  1.00  0.00     0.031 A 
ATOM     48  C   UNL     1       0.665 -10.710  -5.003  1.00  0.00     0.074 A 
ATOM     49  C   UNL     1       1.870 -11.028  -2.869  1.00  0.00     0.049 A 
ATOM     50  N   UNL     1       1.054 -11.759  -5.679  1.00  0.00    -0.248 NA
ATOM     51  C   UNL     1      -0.217  -9.800  -5.749  1.00  0.00     0.031 C 
ATOM     52  C   UNL     1       2.301 -10.709  -1.508  1.00  0.00     0.029 A 
ATOM     53  N   UNL     1       2.545 -12.183  -3.174  1.00  0.00    -0.354 N 
ATOM     54  C   UNL     1       0.468 -11.637  -6.934  1.00  0.00     0.074 A 
ATOM     55  C   UNL     1      -0.324 -10.425  -6.912  1.00  0.00     0.031 C 
ATOM     56  C   UNL     1       3.149 -11.664  -1.086  1.00  0.00     0.029 A 
ATOM     57  C   UNL     1       3.283 -12.682  -2.126  1.00  0.00     0.049 A 
ATOM     58  H   UNL     1       2.506 -12.614  -4.059  1.00  0.00     0.167 HD
ATOM     59  C   UNL     1       0.583 -12.462  -8.005  1.00  0.00     0.034 A 
ATOM     60  C   UNL     1       3.950 -13.849  -2.006  1.00  0.00     0.034 A 
ATOM     61  C   UNL     1       1.351 -13.682  -8.001  1.00  0.00     0.049 A 
ATOM     62  C   UNL     1       3.953 -14.816  -3.167  1.00  0.00     0.074 A 
ATOM     63  C   UNL     1       1.549 -14.580  -9.036  1.00  0.00     0.029 A 
ATOM     64  N   UNL     1       2.030 -14.191  -6.901  1.00  0.00    -0.354 N 
ATOM     65  N   UNL     1       3.404 -14.687  -4.353  1.00  0.00    -0.248 NA
ATOM     66  C   UNL     1       4.660 -16.088  -2.968  1.00  0.00     0.031 C 
ATOM     67  C   UNL     1       2.283 -15.665  -8.542  1.00  0.00     0.029 A 
ATOM     68  C   UNL     1       2.607 -15.411  -7.219  1.00  0.00     0.049 A 
ATOM     69  H   UNL     1       2.091 -13.750  -6.023  1.00  0.00     0.167 HD
ATOM     70  C   UNL     1       3.719 -15.854  -5.046  1.00  0.00     0.074 A 
ATOM     71  C   UNL     1       4.519 -16.665  -4.152  1.00  0.00     0.031 C 
ATOM     72  C   UNL     1       3.382 -16.221  -6.309  1.00  0.00     0.034 A 
BRANCH  59  73
ATOM     73  C   UNL     1      -0.188 -12.092  -9.246  1.00  0.00     0.023 A 
ATOM     74  C   UNL     1       0.121 -10.943  -9.993  1.00  0.00     0.031 A 
ATOM     75  C   UNL     1      -1.262 -12.891  -9.676  1.00  0.00     0.131 A 
ATOM     76  C   UNL     1      -0.672 -10.592 -11.096  1.00  0.00     0.055 A 
ATOM     77  C   UNL     1      -2.004 -12.574 -10.815  1.00  0.00     0.041 A 
ATOM     78  F   UNL     1      -1.616 -13.988  -8.988  1.00  0.00    -0.206 F 
ATOM     79  C   UNL     1      -1.718 -11.412 -11.525  1.00  0.00     0.022 A 
BRANCH  76  80
ATOM     80  S   UNL     1      -0.393  -8.985 -11.889  1.00  0.00     0.124 S 
ATOM     81  O   UNL     1      -0.615  -8.063 -10.777  1.00  0.00    -0.237 OA
ATOM     82  O   UNL     1       0.983  -9.099 -12.359  1.00  0.00    -0.237 OA
ATOM     83  O   UNL     1      -1.409  -8.940 -12.938  1.00  0.00    -0.744 OA
ENDBRANCH  76  80
ENDBRANCH  59  73
BRANCH  60  84
ATOM     84  C   UNL     1       4.611 -14.217  -0.721  1.00  0.00     0.023 A 
ATOM     85  C   UNL     1       6.000 -14.410  -0.649  1.00  0.00     0.031 A 
ATOM     86  C   UNL     1       3.851 -14.456   0.438  1.00  0.00     0.131 A 
ATOM     87  C   UNL     1       6.580 -14.876   0.541  1.00  0.00     0.055 A 
ATOM     88  C   UNL     1       4.439 -14.866   1.635  1.00  0.00     0.041 A 
ATOM     89  F   UNL     1       2.518 -14.294   0.422  1.00  0.00    -0.206 F 
ATOM     90  C   UNL     1       5.811 -15.093   1.687  1.00  0.00     0.022 A 
BRANCH  87  91
ATOM     91  S   UNL     1       8.346 -15.288   0.541  1.00  0.00     0.124 S 
ATOM     92  O   UNL     1       8.416 -16.296  -0.511  1.00  0.00    -0.237 OA
ATOM     93  O   UNL     1       8.958 -13.999   0.236  1.00  0.00    -0.237 OA
ATOM     94  O   UNL     1       8.581 -15.783   1.896  1.00  0.00    -0.744 OA
ENDBRANCH  87  91
ENDBRANCH  60  84
BRANCH  72  95
ATOM     95  C   UNL     1       3.904 -17.550  -6.799  1.00  0.00     0.023 A 
ATOM     96  C   UNL     1       3.442 -18.766  -6.266  1.00  0.00     0.031 A 
ATOM     97  C   UNL     1       4.883 -17.598  -7.808  1.00  0.00     0.131 A 
ATOM     98  C   UNL     1       3.992 -19.978  -6.711  1.00  0.00     0.055 A 
ATOM     99  C   UNL     1       5.387 -18.809  -8.285  1.00  0.00     0.041 A 
ATOM    100  F   UNL     1       5.361 -16.467  -8.350  1.00  0.00    -0.206 F 
ATOM    101  C   UNL     1       4.950 -20.007  -7.729  1.00  0.00     0.022 A 
BRANCH  98 102
ATOM    102  S   UNL     1       3.493 -21.517  -5.892  1.00  0.00     0.124 S 
ATOM    103  O   UNL     1       3.916 -21.279  -4.516  1.00  0.00    -0.237 OA
ATOM    104  O   UNL     1       2.052 -21.541  -6.120  1.00  0.00    -0.237 OA
ATOM    105  O   UNL     1       4.249 -22.546  -6.604  1.00  0.00    -0.744 OA
ENDBRANCH  98 102
ENDBRANCH  72  95
ENDBRANCH  46  47
ENDBRANCH  39  41
ENDBRANCH  38  39
ENDBRANCH  37  38
ENDBRANCH  36  37
ENDBRANCH  35  36
ENDBRANCH  34  35
ENDBRANCH   1  34
TORSDOF 25
