REMARK SMILES CC(=O)Nc1ccc(/C(=C\c2ccc(S(C)(=O)=O)cc2)C(=O)OCCOCCOCCOC(=O)c2ccc(-c3c4nc(c(-c5cc(S(=O)(=O)[O-])ccc5F)c5ccc([nH]5)c(-c5cc(S(=O)(=O)[O-])ccc5F)c5nc(c(-c6cc(S(=O)(=O)[O-])ccc6F)c6ccc3[nH]6)C=C5)C=C4)cc2)cc1
REMARK SMILES IDX 28 1 27 2 26 3 25 4 24 5 23 6 21 7 22 8 9 9 10 10 8 11 5 12
REMARK SMILES IDX 6 13 99 14 7 15 98 16 4 17 1 18 2 19 3 20 11 22 12 23 20 24
REMARK SMILES IDX 13 25 19 26 14 27 15 28 16 29 17 30 18 31 29 32 30 33 31 34
REMARK SMILES IDX 32 35 33 36 34 37 35 38 36 39 97 40 37 41 96 42 38 43 39 44
REMARK SMILES IDX 40 45 90 46 41 47 95 48 89 49 91 50 42 51 94 52 88 53 87 54
REMARK SMILES IDX 43 56 75 57 55 58 74 59 56 60 59 61 73 62 92 63 57 64 58 65
REMARK SMILES IDX 72 67 93 68 60 69 44 70 45 71 53 72 46 73 52 74 54 75 51 76
REMARK SMILES IDX 47 77 48 78 49 79 50 80 76 81 77 82 85 83 78 84 84 85 86 86
REMARK SMILES IDX 83 87 79 88 80 89 81 90 82 91 61 92 62 93 70 94 63 95 69 96
REMARK SMILES IDX 71 97 68 98 64 99 65 100 66 101 67 102
REMARK H PARENT 4 21 91 55 59 66
REMARK Flexibility Score: inf
ROOT
ATOM      1  C   UNL     1       4.323  -5.289   2.684  1.00  0.00     0.188 C 
ENDROOT
BRANCH   1   2
ATOM      2  C   UNL     1       5.267  -4.410   1.836  1.00  0.00     0.188 C 
BRANCH   2   3
ATOM      3  O   UNL     1       6.544  -4.945   1.590  1.00  0.00    -0.376 OA
BRANCH   3   4
ATOM      4  C   UNL     1       7.618  -4.720   2.482  1.00  0.00     0.202 C 
BRANCH   4   5
ATOM      5  C   UNL     1       7.511  -4.126   3.899  1.00  0.00     0.261 C 
BRANCH   5   6
ATOM      6  O   UNL     1       6.207  -3.848   4.409  1.00  0.00    -0.460 OA
BRANCH   6   7
ATOM      7  C   UNL     1       5.857  -2.536   4.523  1.00  0.00     0.338 C 
ATOM      8  O   UNL     1       6.557  -1.590   4.199  1.00  0.00    -0.246 OA
BRANCH   7   9
ATOM      9  C   UNL     1       4.444  -2.404   5.021  1.00  0.00     0.067 C 
ATOM     10  C   UNL     1       4.078  -3.296   5.977  1.00  0.00     0.024 C 
BRANCH   9  11
ATOM     11  C   UNL     1       3.560  -1.342   4.449  1.00  0.00    -0.011 A 
ATOM     12  C   UNL     1       1.676   0.457   3.273  1.00  0.00     0.041 A 
ATOM     13  C   UNL     1       1.723   0.254   4.654  1.00  0.00     0.027 A 
ATOM     14  C   UNL     1       2.641  -0.168   2.493  1.00  0.00     0.027 A 
ATOM     15  C   UNL     1       2.660  -0.612   5.232  1.00  0.00     0.011 A 
ATOM     16  C   UNL     1       3.571  -1.053   3.074  1.00  0.00     0.011 A 
BRANCH  12  17
ATOM     17  N   UNL     1       0.688   1.341   2.818  1.00  0.00    -0.326 N 
ATOM     18  C   UNL     1       0.236   0.633   0.468  1.00  0.00     0.114 C 
ATOM     19  C   UNL     1       0.076   1.570   1.622  1.00  0.00     0.221 C 
ATOM     20  O   UNL     1      -0.722   2.509   1.564  1.00  0.00    -0.275 OA
ATOM     21  H   UNL     1       0.358   1.937   3.529  1.00  0.00     0.169 HD
ENDBRANCH  12  17
ENDBRANCH   9  11
BRANCH  10  22
ATOM     22  C   UNL     1       2.808  -3.333   6.718  1.00  0.00    -0.025 A 
ATOM     23  C   UNL     1       2.864  -3.048   8.089  1.00  0.00     0.009 A 
ATOM     24  C   UNL     1       1.564  -3.487   6.091  1.00  0.00     0.009 A 
ATOM     25  C   UNL     1       1.696  -2.788   8.802  1.00  0.00     0.021 A 
ATOM     26  C   UNL     1       0.387  -3.220   6.800  1.00  0.00     0.021 A 
ATOM     27  C   UNL     1       0.465  -2.840   8.143  1.00  0.00     0.067 A 
BRANCH  27  28
ATOM     28  S   UNL     1      -0.974  -2.234   8.993  1.00  0.00     0.175 S 
ATOM     29  C   UNL     1      -1.390  -3.534  10.117  1.00  0.00     0.163 C 
ATOM     30  O   UNL     1      -0.548  -1.089   9.777  1.00  0.00    -0.224 OA
ATOM     31  O   UNL     1      -2.050  -2.118   8.029  1.00  0.00    -0.224 OA
ENDBRANCH  27  28
ENDBRANCH  10  22
ENDBRANCH   7   9
ENDBRANCH   6   7
ENDBRANCH   5   6
ENDBRANCH   4   5
ENDBRANCH   3   4
ENDBRANCH   2   3
ENDBRANCH   1   2
BRANCH   1  32
ATOM     32  O   UNL     1       4.740  -6.578   3.111  1.00  0.00    -0.376 OA
BRANCH  32  33
ATOM     33  C   UNL     1       5.314  -7.460   2.156  1.00  0.00     0.202 C 
BRANCH  33  34
ATOM     34  C   UNL     1       4.578  -7.759   0.839  1.00  0.00     0.261 C 
BRANCH  34  35
ATOM     35  O   UNL     1       4.130  -6.608   0.105  1.00  0.00    -0.460 OA
BRANCH  35  36
ATOM     36  C   UNL     1       2.784  -6.473  -0.011  1.00  0.00     0.338 C 
ATOM     37  O   UNL     1       1.927  -7.220   0.432  1.00  0.00    -0.246 OA
BRANCH  36  38
ATOM     38  C   UNL     1       2.480  -5.163  -0.620  1.00  0.00     0.060 A 
ATOM     39  C   UNL     1       1.872  -4.180   0.171  1.00  0.00     0.016 A 
ATOM     40  C   UNL     1       2.764  -4.911  -1.963  1.00  0.00     0.016 A 
ATOM     41  C   UNL     1       1.572  -2.933  -0.376  1.00  0.00     0.010 A 
ATOM     42  C   UNL     1       2.430  -3.668  -2.517  1.00  0.00     0.010 A 
ATOM     43  C   UNL     1       1.831  -2.672  -1.729  1.00  0.00    -0.014 A 
BRANCH  43  44
ATOM     44  C   UNL     1       1.381  -1.393  -2.335  1.00  0.00     0.031 A 
ATOM     45  C   UNL     1       0.018  -1.319  -2.966  1.00  0.00     0.074 A 
ATOM     46  C   UNL     1       2.146  -0.288  -2.254  1.00  0.00     0.049 A 
ATOM     47  N   UNL     1      -0.564  -0.314  -3.565  1.00  0.00    -0.248 NA
ATOM     48  C   UNL     1      -0.797  -2.541  -2.904  1.00  0.00     0.031 C 
ATOM     49  C   UNL     1       3.431  -0.207  -1.562  1.00  0.00     0.029 A 
ATOM     50  N   UNL     1       1.926   0.992  -2.701  1.00  0.00    -0.354 N 
ATOM     51  C   UNL     1      -1.804  -0.786  -3.981  1.00  0.00     0.074 A 
ATOM     52  C   UNL     1      -1.890  -2.168  -3.553  1.00  0.00     0.031 C 
ATOM     53  C   UNL     1       3.862   1.066  -1.591  1.00  0.00     0.029 A 
ATOM     54  C   UNL     1       2.927   1.878  -2.372  1.00  0.00     0.049 A 
ATOM     55  H   UNL     1       1.125   1.253  -3.211  1.00  0.00     0.167 HD
ATOM     56  C   UNL     1      -2.771  -0.134  -4.674  1.00  0.00     0.034 A 
ATOM     57  C   UNL     1       3.085   3.182  -2.688  1.00  0.00     0.034 A 
ATOM     58  C   UNL     1      -2.666   1.239  -5.106  1.00  0.00     0.049 A 
ATOM     59  C   UNL     1       2.039   3.853  -3.553  1.00  0.00     0.074 A 
ATOM     60  C   UNL     1      -3.581   1.985  -5.830  1.00  0.00     0.029 A 
ATOM     61  N   UNL     1      -1.580   2.071  -4.869  1.00  0.00    -0.354 N 
ATOM     62  N   UNL     1       0.893   3.378  -3.986  1.00  0.00    -0.248 NA
ATOM     63  C   UNL     1       2.324   5.226  -3.998  1.00  0.00     0.031 C 
ATOM     64  C   UNL     1      -3.011   3.232  -6.106  1.00  0.00     0.029 A 
ATOM     65  C   UNL     1      -1.775   3.299  -5.484  1.00  0.00     0.049 A 
ATOM     66  H   UNL     1      -0.786   1.824  -4.341  1.00  0.00     0.167 HD
ATOM     67  C   UNL     1       0.323   4.396  -4.749  1.00  0.00     0.074 A 
ATOM     68  C   UNL     1       1.232   5.521  -4.689  1.00  0.00     0.031 C 
ATOM     69  C   UNL     1      -0.842   4.400  -5.448  1.00  0.00     0.034 A 
BRANCH  56  70
ATOM     70  C   UNL     1      -3.979  -0.932  -5.097  1.00  0.00     0.023 A 
ATOM     71  C   UNL     1      -4.905  -1.442  -4.173  1.00  0.00     0.031 A 
ATOM     72  C   UNL     1      -4.188  -1.206  -6.462  1.00  0.00     0.131 A 
ATOM     73  C   UNL     1      -5.966  -2.246  -4.620  1.00  0.00     0.055 A 
ATOM     74  C   UNL     1      -5.285  -1.944  -6.906  1.00  0.00     0.041 A 
ATOM     75  F   UNL     1      -3.319  -0.769  -7.387  1.00  0.00    -0.206 F 
ATOM     76  C   UNL     1      -6.176  -2.480  -5.982  1.00  0.00     0.022 A 
BRANCH  73  77
ATOM     77  S   UNL     1      -6.988  -3.103  -3.390  1.00  0.00     0.124 S 
ATOM     78  O   UNL     1      -5.984  -3.865  -2.650  1.00  0.00    -0.237 OA
ATOM     79  O   UNL     1      -7.611  -1.998  -2.672  1.00  0.00    -0.237 OA
ATOM     80  O   UNL     1      -7.896  -3.911  -4.202  1.00  0.00    -0.744 OA
ENDBRANCH  73  77
ENDBRANCH  56  70
BRANCH  57  81
ATOM     81  C   UNL     1       4.313   3.930  -2.275  1.00  0.00     0.023 A 
ATOM     82  C   UNL     1       4.236   5.111  -1.516  1.00  0.00     0.031 A 
ATOM     83  C   UNL     1       5.587   3.518  -2.712  1.00  0.00     0.131 A 
ATOM     84  C   UNL     1       5.399   5.856  -1.257  1.00  0.00     0.055 A 
ATOM     85  C   UNL     1       6.747   4.225  -2.392  1.00  0.00     0.041 A 
ATOM     86  F   UNL     1       5.725   2.413  -3.462  1.00  0.00    -0.206 F 
ATOM     87  C   UNL     1       6.655   5.410  -1.672  1.00  0.00     0.022 A 
BRANCH  84  88
ATOM     88  S   UNL     1       5.241   7.485  -0.469  1.00  0.00     0.124 S 
ATOM     89  O   UNL     1       4.352   8.177  -1.395  1.00  0.00    -0.237 OA
ATOM     90  O   UNL     1       4.676   7.140   0.831  1.00  0.00    -0.237 OA
ATOM     91  O   UNL     1       6.615   7.982  -0.437  1.00  0.00    -0.744 OA
ENDBRANCH  84  88
ENDBRANCH  57  81
BRANCH  69  92
ATOM     92  C   UNL     1      -1.188   5.656  -6.213  1.00  0.00     0.023 A 
ATOM     93  C   UNL     1      -0.432   6.067  -7.327  1.00  0.00     0.031 A 
ATOM     94  C   UNL     1      -2.292   6.442  -5.839  1.00  0.00     0.131 A 
ATOM     95  C   UNL     1      -0.764   7.253  -8.001  1.00  0.00     0.055 A 
ATOM     96  C   UNL     1      -2.651   7.591  -6.548  1.00  0.00     0.041 A 
ATOM     97  F   UNL     1      -3.050   6.099  -4.786  1.00  0.00    -0.206 F 
ATOM     98  C   UNL     1      -1.880   8.007  -7.629  1.00  0.00     0.022 A 
BRANCH  95  99
ATOM     99  S   UNL     1       0.320   7.833  -9.335  1.00  0.00     0.124 S 
ATOM    100  O   UNL     1       1.587   8.024  -8.636  1.00  0.00    -0.237 OA
ATOM    101  O   UNL     1       0.275   6.723 -10.281  1.00  0.00    -0.237 OA
ATOM    102  O   UNL     1      -0.326   9.062  -9.793  1.00  0.00    -0.744 OA
ENDBRANCH  95  99
ENDBRANCH  69  92
ENDBRANCH  43  44
ENDBRANCH  36  38
ENDBRANCH  35  36
ENDBRANCH  34  35
ENDBRANCH  33  34
ENDBRANCH  32  33
ENDBRANCH   1  32
TORSDOF 24
