REMARK SMILES COC(=O)[C@@H]([NH2+]CC(C)(C)C(=O)OCCOCCOCCOC(=O)c1ccc(-c2c3nc(c(-c4cc(S(=O)(=O)[O-])ccc4F)c4ccc([nH]4)c(-c4cc(S(=O)(=O)[O-])ccc4F)c4nc(c(-c5cc(S(=O)(=O)[O-])ccc5F)c5ccc2[nH]5)C=C4)C=C3)cc1)c1ccccc1
REMARK SMILES IDX 17 1 16 2 15 3 14 4 13 5 11 6 12 7 8 8 9 9 10 10 7 11 6 12
REMARK SMILES IDX 5 15 3 16 4 17 2 18 1 19 88 20 89 21 93 22 90 23 92 24 91 25
REMARK SMILES IDX 18 26 19 27 20 28 21 29 22 30 23 31 24 32 25 33 26 34 87 35
REMARK SMILES IDX 27 36 86 37 28 38 29 39 30 40 80 41 31 42 85 43 79 44 81 45
REMARK SMILES IDX 32 46 84 47 78 48 77 49 33 51 65 52 45 53 64 54 46 55 49 56
REMARK SMILES IDX 63 57 82 58 47 59 48 60 62 62 83 63 50 64 34 65 35 66 43 67
REMARK SMILES IDX 36 68 42 69 44 70 41 71 37 72 38 73 39 74 40 75 66 76 67 77
REMARK SMILES IDX 75 78 68 79 74 80 76 81 73 82 69 83 70 84 71 85 72 86 51 87
REMARK SMILES IDX 52 88 60 89 53 90 59 91 61 92 58 93 54 94 55 95 56 96 57 97
REMARK H PARENT 6 13 6 14 81 50 49 61
REMARK Flexibility Score: inf
ROOT
ATOM      1  C   UNL     1      -1.957   3.544   5.740  1.00  0.00     0.188 C 
ENDROOT
BRANCH   1   2
ATOM      2  O   UNL     1      -1.663   2.682   6.836  1.00  0.00    -0.376 OA
BRANCH   2   3
ATOM      3  C   UNL     1      -0.461   1.930   6.705  1.00  0.00     0.202 C 
BRANCH   3   4
ATOM      4  C   UNL     1       0.775   2.770   7.007  1.00  0.00     0.261 C 
BRANCH   4   5
ATOM      5  O   UNL     1       0.935   3.788   6.003  1.00  0.00    -0.463 OA
BRANCH   5   6
ATOM      6  C   UNL     1       2.015   3.745   5.190  1.00  0.00     0.317 C 
ATOM      7  O   UNL     1       2.868   2.868   5.233  1.00  0.00    -0.251 OA
BRANCH   6   8
ATOM      8  C   UNL     1       2.005   4.907   4.189  1.00  0.00     0.111 C 
ATOM      9  C   UNL     1       3.427   5.079   3.632  1.00  0.00     0.029 C 
ATOM     10  C   UNL     1       1.633   6.237   4.909  1.00  0.00     0.029 C 
BRANCH   8  11
ATOM     11  C   UNL     1       0.967   4.648   3.058  1.00  0.00     0.279 C 
BRANCH  11  12
ATOM     12  N   UNL     1       1.168   3.578   2.075  1.00  0.00    -0.330 N 
ATOM     13  H   UNL     1       0.616   3.813   1.250  1.00  0.00     0.347 HD
ATOM     14  H   UNL     1       2.177   3.544   1.929  1.00  0.00     0.347 HD
BRANCH  12  15
ATOM     15  C   UNL     1       0.797   2.197   2.480  1.00  0.00     0.324 C 
BRANCH  15  16
ATOM     16  C   UNL     1       1.480   1.189   1.523  1.00  0.00     0.369 C 
ATOM     17  O   UNL     1       2.512   0.589   1.807  1.00  0.00    -0.245 OA
BRANCH  16  18
ATOM     18  O   UNL     1       0.787   1.038   0.360  1.00  0.00    -0.464 OA
ATOM     19  C   UNL     1       1.225  -0.045  -0.459  1.00  0.00     0.282 C 
ENDBRANCH  16  18
ENDBRANCH  15  16
BRANCH  15  20
ATOM     20  C   UNL     1      -0.692   1.873   2.604  1.00  0.00     0.021 A 
ATOM     21  C   UNL     1      -1.708   2.784   2.317  1.00  0.00     0.010 A 
ATOM     22  C   UNL     1      -1.075   0.584   3.036  1.00  0.00     0.010 A 
ATOM     23  C   UNL     1      -3.047   2.436   2.518  1.00  0.00     0.001 A 
ATOM     24  C   UNL     1      -2.419   0.230   3.190  1.00  0.00     0.001 A 
ATOM     25  C   UNL     1      -3.410   1.166   2.943  1.00  0.00     0.000 A 
ENDBRANCH  15  20
ENDBRANCH  12  15
ENDBRANCH  11  12
ENDBRANCH   8  11
ENDBRANCH   6   8
ENDBRANCH   5   6
ENDBRANCH   4   5
ENDBRANCH   3   4
ENDBRANCH   2   3
ENDBRANCH   1   2
BRANCH   1  26
ATOM     26  C   UNL     1      -1.781   5.045   6.025  1.00  0.00     0.188 C 
BRANCH  26  27
ATOM     27  O   UNL     1      -2.062   5.582   7.310  1.00  0.00    -0.376 OA
BRANCH  27  28
ATOM     28  C   UNL     1      -3.025   4.933   8.117  1.00  0.00     0.202 C 
BRANCH  28  29
ATOM     29  C   UNL     1      -4.490   5.005   7.671  1.00  0.00     0.261 C 
BRANCH  29  30
ATOM     30  O   UNL     1      -4.724   4.830   6.264  1.00  0.00    -0.460 OA
BRANCH  30  31
ATOM     31  C   UNL     1      -4.856   5.986   5.554  1.00  0.00     0.338 C 
ATOM     32  O   UNL     1      -4.782   7.114   5.985  1.00  0.00    -0.246 OA
BRANCH  31  33
ATOM     33  C   UNL     1      -4.979   5.668   4.107  1.00  0.00     0.060 A 
ATOM     34  C   UNL     1      -4.164   6.356   3.195  1.00  0.00     0.016 A 
ATOM     35  C   UNL     1      -5.921   4.750   3.642  1.00  0.00     0.016 A 
ATOM     36  C   UNL     1      -4.290   6.133   1.817  1.00  0.00     0.010 A 
ATOM     37  C   UNL     1      -6.062   4.543   2.261  1.00  0.00     0.010 A 
ATOM     38  C   UNL     1      -5.255   5.239   1.335  1.00  0.00    -0.014 A 
BRANCH  38  39
ATOM     39  C   UNL     1      -5.571   5.149  -0.120  1.00  0.00     0.031 A 
ATOM     40  C   UNL     1      -6.762   5.914  -0.621  1.00  0.00     0.074 A 
ATOM     41  C   UNL     1      -4.868   4.390  -0.984  1.00  0.00     0.049 A 
ATOM     42  N   UNL     1      -7.299   5.929  -1.812  1.00  0.00    -0.248 NA
ATOM     43  C   UNL     1      -7.431   6.780   0.362  1.00  0.00     0.031 C 
ATOM     44  C   UNL     1      -3.646   3.666  -0.670  1.00  0.00     0.029 A 
ATOM     45  N   UNL     1      -5.095   4.075  -2.304  1.00  0.00    -0.354 N 
ATOM     46  C   UNL     1      -8.355   6.827  -1.731  1.00  0.00     0.074 A 
ATOM     47  C   UNL     1      -8.427   7.272  -0.355  1.00  0.00     0.031 C 
ATOM     48  C   UNL     1      -3.273   2.921  -1.723  1.00  0.00     0.029 A 
ATOM     49  C   UNL     1      -4.221   3.136  -2.810  1.00  0.00     0.049 A 
ATOM     50  H   UNL     1      -5.814   4.484  -2.838  1.00  0.00     0.167 HD
ATOM     51  C   UNL     1      -9.171   7.266  -2.720  1.00  0.00     0.034 A 
ATOM     52  C   UNL     1      -4.186   2.516  -4.008  1.00  0.00     0.034 A 
ATOM     53  C   UNL     1      -9.120   6.787  -4.077  1.00  0.00     0.049 A 
ATOM     54  C   UNL     1      -5.198   2.908  -5.056  1.00  0.00     0.074 A 
ATOM     55  C   UNL     1      -9.906   7.161  -5.153  1.00  0.00     0.029 A 
ATOM     56  N   UNL     1      -8.249   5.810  -4.543  1.00  0.00    -0.354 N 
ATOM     57  N   UNL     1      -6.168   3.789  -4.978  1.00  0.00    -0.248 NA
ATOM     58  C   UNL     1      -5.090   2.246  -6.364  1.00  0.00     0.031 C 
ATOM     59  C   UNL     1      -9.558   6.363  -6.248  1.00  0.00     0.029 A 
ATOM     60  C   UNL     1      -8.503   5.543  -5.880  1.00  0.00     0.049 A 
ATOM     61  H   UNL     1      -7.553   5.372  -4.002  1.00  0.00     0.167 HD
ATOM     62  C   UNL     1      -6.749   3.826  -6.243  1.00  0.00     0.074 A 
ATOM     63  C   UNL     1      -6.024   2.877  -7.061  1.00  0.00     0.031 C 
ATOM     64  C   UNL     1      -7.777   4.592  -6.689  1.00  0.00     0.034 A 
BRANCH  51  65
ATOM     65  C   UNL     1     -10.208   8.285  -2.326  1.00  0.00     0.023 A 
ATOM     66  C   UNL     1      -9.835   9.554  -1.844  1.00  0.00     0.031 A 
ATOM     67  C   UNL     1     -11.573   7.959  -2.344  1.00  0.00     0.131 A 
ATOM     68  C   UNL     1     -10.807  10.409  -1.308  1.00  0.00     0.055 A 
ATOM     69  C   UNL     1     -12.545   8.853  -1.891  1.00  0.00     0.041 A 
ATOM     70  F   UNL     1     -11.983   6.754  -2.768  1.00  0.00    -0.206 F 
ATOM     71  C   UNL     1     -12.163  10.078  -1.351  1.00  0.00     0.022 A 
BRANCH  68  72
ATOM     72  S   UNL     1     -10.254  11.876  -0.395  1.00  0.00     0.124 S 
ATOM     73  O   UNL     1      -9.457  11.274   0.672  1.00  0.00    -0.237 OA
ATOM     74  O   UNL     1      -9.512  12.617  -1.407  1.00  0.00    -0.237 OA
ATOM     75  O   UNL     1     -11.503  12.495   0.044  1.00  0.00    -0.744 OA
ENDBRANCH  68  72
ENDBRANCH  51  65
BRANCH  52  76
ATOM     76  C   UNL     1      -3.174   1.456  -4.296  1.00  0.00     0.023 A 
ATOM     77  C   UNL     1      -2.192   1.636  -5.284  1.00  0.00     0.031 A 
ATOM     78  C   UNL     1      -3.228   0.213  -3.640  1.00  0.00     0.131 A 
ATOM     79  C   UNL     1      -1.341   0.572  -5.628  1.00  0.00     0.055 A 
ATOM     80  C   UNL     1      -2.348  -0.826  -3.953  1.00  0.00     0.041 A 
ATOM     81  F   UNL     1      -4.148  -0.015  -2.690  1.00  0.00    -0.206 F 
ATOM     82  C   UNL     1      -1.407  -0.654  -4.964  1.00  0.00     0.022 A 
BRANCH  79  83
ATOM     83  S   UNL     1      -0.206   0.784  -7.029  1.00  0.00     0.124 S 
ATOM     84  O   UNL     1      -1.128   1.098  -8.114  1.00  0.00    -0.237 OA
ATOM     85  O   UNL     1       0.641   1.879  -6.568  1.00  0.00    -0.237 OA
ATOM     86  O   UNL     1       0.458  -0.514  -7.128  1.00  0.00    -0.744 OA
ENDBRANCH  79  83
ENDBRANCH  52  76
BRANCH  64  87
ATOM     87  C   UNL     1      -8.139   4.476  -8.149  1.00  0.00     0.023 A 
ATOM     88  C   UNL     1      -8.690   3.302  -8.690  1.00  0.00     0.031 A 
ATOM     89  C   UNL     1      -7.925   5.566  -9.013  1.00  0.00     0.131 A 
ATOM     90  C   UNL     1      -8.962   3.227 -10.065  1.00  0.00     0.055 A 
ATOM     91  C   UNL     1      -8.254   5.506 -10.368  1.00  0.00     0.041 A 
ATOM     92  F   UNL     1      -7.398   6.711  -8.552  1.00  0.00    -0.206 F 
ATOM     93  C   UNL     1      -8.765   4.327 -10.903  1.00  0.00     0.022 A 
BRANCH  90  94
ATOM     94  S   UNL     1      -9.503   1.642 -10.761  1.00  0.00     0.124 S 
ATOM     95  O   UNL     1      -8.385   0.765 -10.426  1.00  0.00    -0.237 OA
ATOM     96  O   UNL     1     -10.747   1.392 -10.041  1.00  0.00    -0.237 OA
ATOM     97  O   UNL     1      -9.660   1.929 -12.186  1.00  0.00    -0.744 OA
ENDBRANCH  90  94
ENDBRANCH  64  87
ENDBRANCH  38  39
ENDBRANCH  31  33
ENDBRANCH  30  31
ENDBRANCH  29  30
ENDBRANCH  28  29
ENDBRANCH  27  28
ENDBRANCH  26  27
ENDBRANCH   1  26
TORSDOF 26
