REMARK SMILES CO[C@@H]1C[C@H](C(=O)OCCOCCOCCOC(=O)c2ccc(-c3c4nc(c(-c5cc(S(=O)(=O)[O-])ccc5F)c5ccc([nH]5)c(-c5cc(S(=O)(=O)[O-])ccc5F)c5nc(c(-c6cc(S(=O)(=O)[O-])ccc6F)c6ccc3[nH]6)C=C5)C=C4)cc2)N(C(=O)c2ccn(C)c(=O)c2)C1
REMARK SMILES IDX 13 1 12 2 11 3 10 4 9 5 8 6 6 7 7 8 5 9 3 10 4 11 94 12
REMARK SMILES IDX 83 13 2 14 1 15 84 16 85 17 86 18 87 19 93 20 88 21 91 22
REMARK SMILES IDX 89 23 92 24 90 25 14 26 15 27 16 28 17 29 18 30 19 31 20 32
REMARK SMILES IDX 21 33 82 34 22 35 81 36 23 37 24 38 25 39 75 40 26 41 80 42
REMARK SMILES IDX 74 43 76 44 27 45 79 46 73 47 72 48 28 50 60 51 40 52 59 53
REMARK SMILES IDX 41 54 44 55 58 56 77 57 42 58 43 59 57 61 78 62 45 63 29 64
REMARK SMILES IDX 30 65 38 66 31 67 37 68 39 69 36 70 32 71 33 72 34 73 35 74
REMARK SMILES IDX 61 75 62 76 70 77 63 78 69 79 71 80 68 81 64 82 65 83 66 84
REMARK SMILES IDX 67 85 46 86 47 87 55 88 48 89 54 90 56 91 53 92 49 93 50 94
REMARK SMILES IDX 51 95 52 96
REMARK H PARENT 76 49 44 60
REMARK Flexibility Score: inf
ROOT
ATOM      1  C   UNL     1      -2.448   2.251  -1.039  1.00  0.00     0.188 C 
ENDROOT
BRANCH   1   2
ATOM      2  C   UNL     1      -3.568   1.452  -1.716  1.00  0.00     0.188 C 
BRANCH   2   3
ATOM      3  O   UNL     1      -4.578   0.924  -0.861  1.00  0.00    -0.376 OA
BRANCH   3   4
ATOM      4  C   UNL     1      -4.154   0.047   0.183  1.00  0.00     0.202 C 
BRANCH   4   5
ATOM      5  C   UNL     1      -3.428  -1.235  -0.247  1.00  0.00     0.261 C 
BRANCH   5   6
ATOM      6  O   UNL     1      -2.268  -0.987  -1.063  1.00  0.00    -0.462 OA
BRANCH   6   7
ATOM      7  C   UNL     1      -2.225  -1.673  -2.236  1.00  0.00     0.329 C 
ATOM      8  O   UNL     1      -3.037  -2.538  -2.557  1.00  0.00    -0.250 OA
BRANCH   7   9
ATOM      9  C   UNL     1      -1.120  -1.179  -3.194  1.00  0.00     0.198 C 
ATOM     10  C   UNL     1       1.002  -1.647  -2.131  1.00  0.00     0.140 C 
ATOM     11  C   UNL     1       0.103  -0.494  -2.604  1.00  0.00     0.071 C 
ATOM     12  C   UNL     1       0.529  -2.870  -2.945  1.00  0.00     0.152 C 
ATOM     13  N   UNL     1      -0.538  -2.370  -3.796  1.00  0.00    -0.322 N 
BRANCH  10  14
ATOM     14  O   UNL     1       0.827  -1.850  -0.727  1.00  0.00    -0.380 OA
ATOM     15  C   UNL     1       1.560  -0.901   0.047  1.00  0.00     0.195 C 
ENDBRANCH  10  14
BRANCH  13  16
ATOM     16  C   UNL     1      -1.013  -3.064  -4.885  1.00  0.00     0.254 C 
ATOM     17  O   UNL     1      -0.640  -4.199  -5.170  1.00  0.00    -0.269 OA
BRANCH  16  18
ATOM     18  C   UNL     1      -1.971  -2.341  -5.770  1.00  0.00     0.046 A 
ATOM     19  C   UNL     1      -3.349  -2.745  -5.901  1.00  0.00     0.032 A 
ATOM     20  C   UNL     1      -1.488  -1.313  -6.483  1.00  0.00     0.085 A 
ATOM     21  C   UNL     1      -4.156  -2.084  -6.742  1.00  0.00     0.089 A 
ATOM     22  C   UNL     1      -2.384  -0.547  -7.385  1.00  0.00     0.251 A 
ATOM     23  N   UNL     1      -3.695  -1.006  -7.481  1.00  0.00    -0.319 N 
ATOM     24  O   UNL     1      -1.918   0.427  -7.967  1.00  0.00    -0.269 OA
ATOM     25  C   UNL     1      -4.616  -0.345  -8.402  1.00  0.00     0.153 C 
ENDBRANCH  16  18
ENDBRANCH  13  16
ENDBRANCH   7   9
ENDBRANCH   6   7
ENDBRANCH   5   6
ENDBRANCH   4   5
ENDBRANCH   3   4
ENDBRANCH   2   3
ENDBRANCH   1   2
BRANCH   1  26
ATOM     26  O   UNL     1      -1.887   1.634   0.113  1.00  0.00    -0.376 OA
BRANCH  26  27
ATOM     27  C   UNL     1      -0.842   2.343   0.782  1.00  0.00     0.202 C 
BRANCH  27  28
ATOM     28  C   UNL     1      -1.143   3.806   1.153  1.00  0.00     0.261 C 
BRANCH  28  29
ATOM     29  O   UNL     1      -1.323   4.691   0.029  1.00  0.00    -0.460 OA
BRANCH  29  30
ATOM     30  C   UNL     1      -0.377   4.691  -0.940  1.00  0.00     0.338 C 
ATOM     31  O   UNL     1       0.746   4.221  -0.855  1.00  0.00    -0.246 OA
BRANCH  30  32
ATOM     32  C   UNL     1      -1.036   5.091  -2.212  1.00  0.00     0.060 A 
ATOM     33  C   UNL     1      -0.675   4.421  -3.391  1.00  0.00     0.016 A 
ATOM     34  C   UNL     1      -2.077   6.025  -2.232  1.00  0.00     0.016 A 
ATOM     35  C   UNL     1      -1.347   4.689  -4.588  1.00  0.00     0.010 A 
ATOM     36  C   UNL     1      -2.739   6.301  -3.431  1.00  0.00     0.010 A 
ATOM     37  C   UNL     1      -2.368   5.647  -4.619  1.00  0.00    -0.014 A 
BRANCH  37  38
ATOM     38  C   UNL     1      -2.940   6.109  -5.909  1.00  0.00     0.031 A 
ATOM     39  C   UNL     1      -2.385   7.365  -6.520  1.00  0.00     0.074 A 
ATOM     40  C   UNL     1      -3.946   5.452  -6.515  1.00  0.00     0.049 A 
ATOM     41  N   UNL     1      -2.795   8.037  -7.564  1.00  0.00    -0.248 NA
ATOM     42  C   UNL     1      -1.208   7.943  -5.852  1.00  0.00     0.031 C 
ATOM     43  C   UNL     1      -4.536   4.195  -6.058  1.00  0.00     0.029 A 
ATOM     44  N   UNL     1      -4.662   5.767  -7.645  1.00  0.00    -0.354 N 
ATOM     45  C   UNL     1      -1.929   9.117  -7.680  1.00  0.00     0.074 A 
ATOM     46  C   UNL     1      -0.996   9.030  -6.577  1.00  0.00     0.031 C 
ATOM     47  C   UNL     1      -5.537   3.856  -6.890  1.00  0.00     0.029 A 
ATOM     48  C   UNL     1      -5.690   4.894  -7.911  1.00  0.00     0.049 A 
ATOM     49  H   UNL     1      -4.457   6.546  -8.211  1.00  0.00     0.167 HD
ATOM     50  C   UNL     1      -1.909  10.090  -8.623  1.00  0.00     0.034 A 
ATOM     51  C   UNL     1      -6.664   4.947  -8.844  1.00  0.00     0.034 A 
ATOM     52  C   UNL     1      -2.856  10.181  -9.705  1.00  0.00     0.049 A 
ATOM     53  C   UNL     1      -6.704   6.114  -9.807  1.00  0.00     0.074 A 
ATOM     54  C   UNL     1      -2.915  11.117 -10.722  1.00  0.00     0.029 A 
ATOM     55  N   UNL     1      -3.924   9.316  -9.901  1.00  0.00    -0.354 N 
ATOM     56  N   UNL     1      -5.878   7.131  -9.911  1.00  0.00    -0.248 NA
ATOM     57  C   UNL     1      -7.812   6.145 -10.772  1.00  0.00     0.031 C 
ATOM     58  C   UNL     1      -4.061  10.867 -11.484  1.00  0.00     0.029 A 
ATOM     59  C   UNL     1      -4.675   9.726 -10.993  1.00  0.00     0.049 A 
ATOM     60  H   UNL     1      -4.120   8.526  -9.346  1.00  0.00     0.167 HD
ATOM     61  C   UNL     1      -6.354   7.902 -10.970  1.00  0.00     0.074 A 
ATOM     62  C   UNL     1      -7.532   7.231 -11.477  1.00  0.00     0.031 C 
ATOM     63  C   UNL     1      -5.859   9.059 -11.481  1.00  0.00     0.034 A 
BRANCH  50  64
ATOM     64  C   UNL     1      -0.860  11.164  -8.481  1.00  0.00     0.023 A 
ATOM     65  C   UNL     1       0.512  10.877  -8.586  1.00  0.00     0.031 A 
ATOM     66  C   UNL     1      -1.238  12.489  -8.201  1.00  0.00     0.131 A 
ATOM     67  C   UNL     1       1.457  11.884  -8.342  1.00  0.00     0.055 A 
ATOM     68  C   UNL     1      -0.294  13.504  -8.039  1.00  0.00     0.041 A 
ATOM     69  F   UNL     1      -2.533  12.816  -8.063  1.00  0.00    -0.206 F 
ATOM     70  C   UNL     1       1.063  13.201  -8.094  1.00  0.00     0.022 A 
BRANCH  67  71
ATOM     71  S   UNL     1       3.204  11.417  -8.206  1.00  0.00     0.124 S 
ATOM     72  O   UNL     1       3.166  10.440  -7.121  1.00  0.00    -0.237 OA
ATOM     73  O   UNL     1       3.494  10.888  -9.533  1.00  0.00    -0.237 OA
ATOM     74  O   UNL     1       3.870  12.676  -7.876  1.00  0.00    -0.744 OA
ENDBRANCH  67  71
ENDBRANCH  50  64
BRANCH  51  75
ATOM     75  C   UNL     1      -7.735   3.908  -8.885  1.00  0.00     0.023 A 
ATOM     76  C   UNL     1      -7.901   3.079 -10.006  1.00  0.00     0.031 A 
ATOM     77  C   UNL     1      -8.656   3.781  -7.830  1.00  0.00     0.131 A 
ATOM     78  C   UNL     1      -8.989   2.192 -10.065  1.00  0.00     0.055 A 
ATOM     79  C   UNL     1      -9.706   2.862  -7.871  1.00  0.00     0.041 A 
ATOM     80  F   UNL     1      -8.549   4.554  -6.738  1.00  0.00    -0.206 F 
ATOM     81  C   UNL     1      -9.884   2.069  -9.000  1.00  0.00     0.022 A 
BRANCH  78  82
ATOM     82  S   UNL     1      -9.264   1.254 -11.592  1.00  0.00     0.124 S 
ATOM     83  O   UNL     1      -9.410   2.321 -12.575  1.00  0.00    -0.237 OA
ATOM     84  O   UNL     1      -8.042   0.461 -11.679  1.00  0.00    -0.237 OA
ATOM     85  O   UNL     1     -10.479   0.493 -11.310  1.00  0.00    -0.744 OA
ENDBRANCH  78  82
ENDBRANCH  51  75
BRANCH  63  86
ATOM     86  C   UNL     1      -6.569   9.655 -12.673  1.00  0.00     0.023 A 
ATOM     87  C   UNL     1      -7.855  10.211 -12.567  1.00  0.00     0.031 A 
ATOM     88  C   UNL     1      -5.936   9.686 -13.929  1.00  0.00     0.131 A 
ATOM     89  C   UNL     1      -8.483  10.742 -13.705  1.00  0.00     0.055 A 
ATOM     90  C   UNL     1      -6.543  10.264 -15.045  1.00  0.00     0.041 A 
ATOM     91  F   UNL     1      -4.707   9.169 -14.088  1.00  0.00    -0.206 F 
ATOM     92  C   UNL     1      -7.828  10.788 -14.939  1.00  0.00     0.022 A 
BRANCH  89  93
ATOM     93  S   UNL     1     -10.197  11.321 -13.569  1.00  0.00     0.124 S 
ATOM     94  O   UNL     1     -10.899  10.103 -13.177  1.00  0.00    -0.237 OA
ATOM     95  O   UNL     1     -10.099  12.357 -12.547  1.00  0.00    -0.237 OA
ATOM     96  O   UNL     1     -10.504  11.807 -14.914  1.00  0.00    -0.744 OA
ENDBRANCH  89  93
ENDBRANCH  63  86
ENDBRANCH  37  38
ENDBRANCH  30  32
ENDBRANCH  29  30
ENDBRANCH  28  29
ENDBRANCH  27  28
ENDBRANCH  26  27
ENDBRANCH   1  26
TORSDOF 23
