REMARK SMILES CC(C)Cc1ccc(S(=O)(=O)Nc2cnc(N3CCCC3)c(C(=O)OCCOCCOCCOC(=O)c3ccc(-c4c5nc(c(-c6cc(S(=O)(=O)[O-])ccc6F)c6ccc([nH]6)c(-c6cc(S(=O)(=O)[O-])ccc6F)c6nc(c(-c7cc(S(=O)(=O)[O-])ccc7F)c7ccc4[nH]7)C=C6)C=C5)cc3)c2)cc1
REMARK SMILES IDX 29 1 28 2 27 3 26 4 25 5 23 6 24 7 22 8 13 9 14 10 100 11
REMARK SMILES IDX 15 12 16 13 12 14 9 16 10 17 11 18 8 19 5 20 6 21 102 22
REMARK SMILES IDX 7 23 101 24 4 25 2 26 1 27 3 28 17 29 18 30 21 31 19 32
REMARK SMILES IDX 20 33 30 34 31 35 32 36 33 37 34 38 35 39 36 40 37 41 38 42
REMARK SMILES IDX 99 43 39 44 98 45 40 46 41 47 42 48 92 49 43 50 97 51 91 52
REMARK SMILES IDX 93 53 44 54 96 55 90 56 89 57 45 59 77 60 57 61 76 62 58 63
REMARK SMILES IDX 61 64 75 65 94 66 59 67 60 68 74 70 95 71 62 72 46 73 47 74
REMARK SMILES IDX 55 75 48 76 54 77 56 78 53 79 49 80 50 81 51 82 52 83 78 84
REMARK SMILES IDX 79 85 87 86 80 87 86 88 88 89 85 90 81 91 82 92 83 93 84 94
REMARK SMILES IDX 63 95 64 96 72 97 65 98 71 99 73 100 70 101 66 102 67 103
REMARK SMILES IDX 68 104 69 105
REMARK H PARENT 12 15 93 58 61 69
REMARK Flexibility Score: inf
ROOT
ATOM      1  C   UNL     1      -2.405  -7.155   3.575  1.00  0.00     0.188 C 
ENDROOT
BRANCH   1   2
ATOM      2  O   UNL     1      -3.266  -6.254   4.257  1.00  0.00    -0.376 OA
BRANCH   2   3
ATOM      3  C   UNL     1      -2.763  -4.936   4.406  1.00  0.00     0.202 C 
BRANCH   3   4
ATOM      4  C   UNL     1      -2.782  -4.087   3.130  1.00  0.00     0.261 C 
BRANCH   4   5
ATOM      5  O   UNL     1      -2.353  -4.772   1.944  1.00  0.00    -0.460 OA
BRANCH   5   6
ATOM      6  C   UNL     1      -1.027  -4.794   1.661  1.00  0.00     0.342 C 
ATOM      7  O   UNL     1      -0.162  -4.263   2.335  1.00  0.00    -0.246 OA
BRANCH   6   8
ATOM      8  C   UNL     1      -0.820  -5.552   0.393  1.00  0.00     0.104 A 
ATOM      9  C   UNL     1      -1.466  -5.881  -1.910  1.00  0.00     0.068 A 
ATOM     10  C   UNL     1      -0.268  -6.565  -2.071  1.00  0.00     0.140 A 
ATOM     11  C   UNL     1      -1.777  -5.439  -0.633  1.00  0.00     0.048 A 
ATOM     12  N   UNL     1       0.615  -6.789  -1.070  1.00  0.00    -0.236 NA
ATOM     13  C   UNL     1       0.345  -6.293   0.161  1.00  0.00     0.143 A 
BRANCH   9  14
ATOM     14  N   UNL     1      -2.320  -5.601  -3.028  1.00  0.00    -0.278 N 
ATOM     15  H   UNL     1      -2.722  -6.350  -3.524  1.00  0.00     0.180 HD
BRANCH  14  16
ATOM     16  S   UNL     1      -2.657  -3.998  -3.519  1.00  0.00     0.261 S 
ATOM     17  O   UNL     1      -4.102  -3.894  -3.554  1.00  0.00    -0.201 OA
ATOM     18  O   UNL     1      -1.878  -3.784  -4.720  1.00  0.00    -0.201 OA
BRANCH  16  19
ATOM     19  C   UNL     1      -2.069  -2.831  -2.314  1.00  0.00     0.087 A 
ATOM     20  C   UNL     1      -1.294  -1.244  -0.131  1.00  0.00    -0.048 A 
ATOM     21  C   UNL     1      -2.550  -1.065  -0.729  1.00  0.00     0.005 A 
ATOM     22  C   UNL     1      -0.423  -2.191  -0.686  1.00  0.00     0.005 A 
ATOM     23  C   UNL     1      -2.947  -1.869  -1.802  1.00  0.00     0.022 A 
ATOM     24  C   UNL     1      -0.769  -2.914  -1.824  1.00  0.00     0.022 A 
BRANCH  20  25
ATOM     25  C   UNL     1      -0.930  -0.448   1.108  1.00  0.00     0.038 C 
BRANCH  25  26
ATOM     26  C   UNL     1       0.580  -0.271   1.381  1.00  0.00    -0.013 C 
ATOM     27  C   UNL     1       1.286   0.463   0.235  1.00  0.00     0.008 C 
ATOM     28  C   UNL     1       0.811   0.486   2.689  1.00  0.00     0.008 C 
ENDBRANCH  25  26
ENDBRANCH  20  25
ENDBRANCH  16  19
ENDBRANCH  14  16
ENDBRANCH   9  14
BRANCH  13  29
ATOM     29  N   UNL     1       1.202  -6.659   1.147  1.00  0.00    -0.356 N 
ATOM     30  C   UNL     1       0.928  -7.706   2.100  1.00  0.00     0.118 C 
ATOM     31  C   UNL     1       2.471  -6.009   1.413  1.00  0.00     0.118 C 
ATOM     32  C   UNL     1       1.528  -7.106   3.364  1.00  0.00     0.023 C 
ATOM     33  C   UNL     1       2.817  -6.476   2.839  1.00  0.00     0.023 C 
ENDBRANCH  13  29
ENDBRANCH   6   8
ENDBRANCH   5   6
ENDBRANCH   4   5
ENDBRANCH   3   4
ENDBRANCH   2   3
ENDBRANCH   1   2
BRANCH   1  34
ATOM     34  C   UNL     1      -2.983  -7.661   2.238  1.00  0.00     0.188 C 
BRANCH  34  35
ATOM     35  O   UNL     1      -4.384  -7.680   2.014  1.00  0.00    -0.376 OA
BRANCH  35  36
ATOM     36  C   UNL     1      -5.243  -7.931   3.109  1.00  0.00     0.202 C 
BRANCH  36  37
ATOM     37  C   UNL     1      -5.123  -9.278   3.837  1.00  0.00     0.261 C 
BRANCH  37  38
ATOM     38  O   UNL     1      -3.795  -9.814   3.971  1.00  0.00    -0.460 OA
BRANCH  38  39
ATOM     39  C   UNL     1      -3.441 -10.727   3.028  1.00  0.00     0.338 C 
ATOM     40  O   UNL     1      -4.144 -11.133   2.114  1.00  0.00    -0.246 OA
BRANCH  39  41
ATOM     41  C   UNL     1      -1.996 -11.053   3.146  1.00  0.00     0.060 A 
ATOM     42  C   UNL     1      -1.206 -11.014   1.987  1.00  0.00     0.016 A 
ATOM     43  C   UNL     1      -1.424 -11.437   4.361  1.00  0.00     0.016 A 
ATOM     44  C   UNL     1       0.142 -11.385   2.034  1.00  0.00     0.010 A 
ATOM     45  C   UNL     1      -0.078 -11.836   4.400  1.00  0.00     0.010 A 
ATOM     46  C   UNL     1       0.708 -11.838   3.233  1.00  0.00    -0.014 A 
BRANCH  46  47
ATOM     47  C   UNL     1       2.049 -12.491   3.225  1.00  0.00     0.031 A 
ATOM     48  C   UNL     1       2.122 -13.972   2.993  1.00  0.00     0.074 A 
ATOM     49  C   UNL     1       3.188 -11.799   3.417  1.00  0.00     0.049 A 
ATOM     50  N   UNL     1       3.167 -14.757   2.983  1.00  0.00    -0.248 NA
ATOM     51  C   UNL     1       0.844 -14.656   2.753  1.00  0.00     0.031 C 
ATOM     52  C   UNL     1       3.251 -10.363   3.629  1.00  0.00     0.029 A 
ATOM     53  N   UNL     1       4.503 -12.197   3.471  1.00  0.00    -0.354 N 
ATOM     54  C   UNL     1       2.676 -16.033   2.737  1.00  0.00     0.074 A 
ATOM     55  C   UNL     1       1.235 -15.915   2.634  1.00  0.00     0.031 C 
ATOM     56  C   UNL     1       4.530  -9.987   3.787  1.00  0.00     0.029 A 
ATOM     57  C   UNL     1       5.384 -11.170   3.736  1.00  0.00     0.049 A 
ATOM     58  H   UNL     1       4.789 -13.129   3.334  1.00  0.00     0.167 HD
ATOM     59  C   UNL     1       3.363 -17.194   2.610  1.00  0.00     0.034 A 
ATOM     60  C   UNL     1       6.718 -11.181   3.946  1.00  0.00     0.034 A 
ATOM     61  C   UNL     1       4.794 -17.305   2.754  1.00  0.00     0.049 A 
ATOM     62  C   UNL     1       7.450 -12.502   3.888  1.00  0.00     0.074 A 
ATOM     63  C   UNL     1       5.583 -18.436   2.642  1.00  0.00     0.029 A 
ATOM     64  N   UNL     1       5.650 -16.256   3.066  1.00  0.00    -0.354 N 
ATOM     65  N   UNL     1       6.972 -13.699   3.634  1.00  0.00    -0.248 NA
ATOM     66  C   UNL     1       8.896 -12.476   4.147  1.00  0.00     0.031 C 
ATOM     67  C   UNL     1       6.898 -18.089   2.966  1.00  0.00     0.029 A 
ATOM     68  C   UNL     1       6.951 -16.723   3.189  1.00  0.00     0.049 A 
ATOM     69  H   UNL     1       5.374 -15.318   3.182  1.00  0.00     0.167 HD
ATOM     70  C   UNL     1       8.066 -14.561   3.673  1.00  0.00     0.074 A 
ATOM     71  C   UNL     1       9.227 -13.745   3.958  1.00  0.00     0.031 C 
ATOM     72  C   UNL     1       8.105 -15.905   3.485  1.00  0.00     0.034 A 
BRANCH  59  73
ATOM     73  C   UNL     1       2.553 -18.443   2.371  1.00  0.00     0.023 A 
ATOM     74  C   UNL     1       1.793 -18.618   1.202  1.00  0.00     0.031 A 
ATOM     75  C   UNL     1       2.506 -19.453   3.348  1.00  0.00     0.131 A 
ATOM     76  C   UNL     1       0.961 -19.740   1.073  1.00  0.00     0.055 A 
ATOM     77  C   UNL     1       1.741 -20.607   3.175  1.00  0.00     0.041 A 
ATOM     78  F   UNL     1       3.189 -19.326   4.497  1.00  0.00    -0.206 F 
ATOM     79  C   UNL     1       0.950 -20.748   2.039  1.00  0.00     0.022 A 
BRANCH  76  80
ATOM     80  S   UNL     1      -0.221 -19.786  -0.302  1.00  0.00     0.124 S 
ATOM     81  O   UNL     1      -0.999 -18.573  -0.063  1.00  0.00    -0.237 OA
ATOM     82  O   UNL     1       0.652 -19.766  -1.469  1.00  0.00    -0.237 OA
ATOM     83  O   UNL     1      -0.948 -21.036  -0.086  1.00  0.00    -0.744 OA
ENDBRANCH  76  80
ENDBRANCH  59  73
BRANCH  60  84
ATOM     84  C   UNL     1       7.456  -9.925   4.287  1.00  0.00     0.023 A 
ATOM     85  C   UNL     1       8.496  -9.443   3.474  1.00  0.00     0.031 A 
ATOM     86  C   UNL     1       7.182  -9.229   5.479  1.00  0.00     0.131 A 
ATOM     87  C   UNL     1       9.255  -8.335   3.887  1.00  0.00     0.055 A 
ATOM     88  C   UNL     1       7.899  -8.091   5.854  1.00  0.00     0.041 A 
ATOM     89  F   UNL     1       6.206  -9.645   6.301  1.00  0.00    -0.206 F 
ATOM     90  C   UNL     1       8.954  -7.646   5.063  1.00  0.00     0.022 A 
BRANCH  87  91
ATOM     91  S   UNL     1      10.715  -7.865   2.915  1.00  0.00     0.124 S 
ATOM     92  O   UNL     1      11.500  -9.094   2.949  1.00  0.00    -0.237 OA
ATOM     93  O   UNL     1      10.122  -7.516   1.629  1.00  0.00    -0.237 OA
ATOM     94  O   UNL     1      11.276  -6.744   3.665  1.00  0.00    -0.744 OA
ENDBRANCH  87  91
ENDBRANCH  60  84
BRANCH  72  95
ATOM     95  C   UNL     1       9.461 -16.571   3.530  1.00  0.00     0.023 A 
ATOM     96  C   UNL     1      10.226 -16.626   4.709  1.00  0.00     0.031 A 
ATOM     97  C   UNL     1       9.996 -17.156   2.368  1.00  0.00     0.131 A 
ATOM     98  C   UNL     1      11.505 -17.204   4.685  1.00  0.00     0.055 A 
ATOM     99  C   UNL     1      11.240 -17.788   2.367  1.00  0.00     0.041 A 
ATOM    100  F   UNL     1       9.313 -17.129   1.212  1.00  0.00    -0.206 F 
ATOM    101  C   UNL     1      12.008 -17.803   3.527  1.00  0.00     0.022 A 
BRANCH  98 102
ATOM    102  S   UNL     1      12.547 -17.081   6.166  1.00  0.00     0.124 S 
ATOM    103  O   UNL     1      12.629 -15.637   6.359  1.00  0.00    -0.237 OA
ATOM    104  O   UNL     1      11.767 -17.813   7.159  1.00  0.00    -0.237 OA
ATOM    105  O   UNL     1      13.796 -17.725   5.762  1.00  0.00    -0.744 OA
ENDBRANCH  98 102
ENDBRANCH  72  95
ENDBRANCH  46  47
ENDBRANCH  39  41
ENDBRANCH  38  39
ENDBRANCH  37  38
ENDBRANCH  36  37
ENDBRANCH  35  36
ENDBRANCH  34  35
ENDBRANCH   1  34
TORSDOF 26
