REMARK SMILES C[C@H]1CCC[C@]1(C(=O)OCCOCCOCCOC(=O)c1ccc(-c2c3nc(c(-c4cc(S(=O)(=O)[O-])ccc4F)c4ccc([nH]4)c(-c4cc(S(=O)(=O)[O-])ccc4F)c4nc(c(-c5cc(S(=O)(=O)[O-])ccc5F)c5ccc2[nH]5)C=C4)C=C3)cc1)c1ccc2c(c1)OCO2
REMARK SMILES IDX 14 1 13 2 12 3 11 4 10 5 9 6 7 7 8 8 6 9 1 10 2 11 3 12 4 13
REMARK SMILES IDX 5 14 84 15 85 16 89 17 86 18 88 19 87 20 90 21 92 22 91 23
REMARK SMILES IDX 15 24 16 25 17 26 18 27 19 28 20 29 21 30 22 31 83 32 23 33
REMARK SMILES IDX 82 34 24 35 25 36 26 37 76 38 27 39 81 40 75 41 77 42 28 43
REMARK SMILES IDX 80 44 74 45 73 46 29 48 61 49 41 50 60 51 42 52 45 53 59 54
REMARK SMILES IDX 78 55 43 56 44 57 58 59 79 60 46 61 30 62 31 63 39 64 32 65
REMARK SMILES IDX 38 66 40 67 37 68 33 69 34 70 35 71 36 72 62 73 63 74 71 75
REMARK SMILES IDX 64 76 70 77 72 78 69 79 65 80 66 81 67 82 68 83 47 84 48 85
REMARK SMILES IDX 56 86 49 87 55 88 57 89 54 90 50 91 51 92 52 93 53 94
REMARK H PARENT 77 47 45 58
REMARK Flexibility Score: inf
ROOT
ATOM      1  C   UNL     1       1.234   1.585   4.518  1.00  0.00     0.188 C 
ENDROOT
BRANCH   1   2
ATOM      2  C   UNL     1       0.264   2.564   3.874  1.00  0.00     0.188 C 
BRANCH   2   3
ATOM      3  O   UNL     1      -0.977   2.765   4.531  1.00  0.00    -0.376 OA
BRANCH   3   4
ATOM      4  C   UNL     1      -1.752   1.598   4.768  1.00  0.00     0.202 C 
BRANCH   4   5
ATOM      5  C   UNL     1      -2.348   0.882   3.545  1.00  0.00     0.261 C 
BRANCH   5   6
ATOM      6  O   UNL     1      -1.458   0.625   2.435  1.00  0.00    -0.463 OA
BRANCH   6   7
ATOM      7  C   UNL     1      -1.587   1.480   1.379  1.00  0.00     0.316 C 
ATOM      8  O   UNL     1      -2.337   2.455   1.401  1.00  0.00    -0.251 OA
BRANCH   7   9
ATOM      9  C   UNL     1      -0.808   1.065   0.101  1.00  0.00     0.096 C 
ATOM     10  C   UNL     1       1.439   0.045   1.082  1.00  0.00     0.009 C 
ATOM     11  C   UNL     1       0.245  -0.086   0.150  1.00  0.00     0.008 C 
ATOM     12  C   UNL     1      -0.556  -1.364   0.340  1.00  0.00     0.005 C 
ATOM     13  C   UNL     1      -1.815  -1.133  -0.487  1.00  0.00     0.002 C 
ATOM     14  C   UNL     1      -1.923   0.380  -0.749  1.00  0.00     0.024 C 
BRANCH   9  15
ATOM     15  C   UNL     1      -0.118   2.272  -0.594  1.00  0.00    -0.027 A 
ATOM     16  C   UNL     1       0.287   3.425   0.134  1.00  0.00     0.009 A 
ATOM     17  C   UNL     1       0.310   2.168  -1.935  1.00  0.00     0.055 A 
ATOM     18  C   UNL     1       1.140   4.392  -0.416  1.00  0.00     0.051 A 
ATOM     19  C   UNL     1       1.168   3.123  -2.444  1.00  0.00     0.166 A 
ATOM     20  C   UNL     1       1.586   4.194  -1.699  1.00  0.00     0.165 A 
ATOM     21  O   UNL     1       1.744   3.090  -3.676  1.00  0.00    -0.454 OA
ATOM     22  O   UNL     1       2.484   4.967  -2.361  1.00  0.00    -0.454 OA
ATOM     23  C   UNL     1       2.683   4.182  -3.553  1.00  0.00     0.468 C 
ENDBRANCH   9  15
ENDBRANCH   7   9
ENDBRANCH   6   7
ENDBRANCH   5   6
ENDBRANCH   4   5
ENDBRANCH   3   4
ENDBRANCH   2   3
ENDBRANCH   1   2
BRANCH   1  24
ATOM     24  O   UNL     1       0.730   0.277   4.738  1.00  0.00    -0.376 OA
BRANCH  24  25
ATOM     25  C   UNL     1       1.666  -0.700   5.201  1.00  0.00     0.202 C 
BRANCH  25  26
ATOM     26  C   UNL     1       2.829  -0.271   6.124  1.00  0.00     0.261 C 
BRANCH  26  27
ATOM     27  O   UNL     1       3.609   0.869   5.707  1.00  0.00    -0.460 OA
BRANCH  27  28
ATOM     28  C   UNL     1       4.234   0.808   4.500  1.00  0.00     0.338 C 
ATOM     29  O   UNL     1       4.340  -0.178   3.809  1.00  0.00    -0.246 OA
BRANCH  28  30
ATOM     30  C   UNL     1       4.509   2.213   4.045  1.00  0.00     0.060 A 
ATOM     31  C   UNL     1       4.366   2.509   2.680  1.00  0.00     0.016 A 
ATOM     32  C   UNL     1       4.819   3.246   4.937  1.00  0.00     0.016 A 
ATOM     33  C   UNL     1       4.587   3.808   2.200  1.00  0.00     0.010 A 
ATOM     34  C   UNL     1       5.057   4.543   4.454  1.00  0.00     0.010 A 
ATOM     35  C   UNL     1       4.984   4.826   3.077  1.00  0.00    -0.014 A 
BRANCH  35  36
ATOM     36  C   UNL     1       5.572   6.091   2.546  1.00  0.00     0.031 A 
ATOM     37  C   UNL     1       7.077   6.187   2.482  1.00  0.00     0.074 A 
ATOM     38  C   UNL     1       4.829   7.125   2.108  1.00  0.00     0.049 A 
ATOM     39  N   UNL     1       7.842   7.202   2.172  1.00  0.00    -0.248 NA
ATOM     40  C   UNL     1       7.815   4.960   2.824  1.00  0.00     0.031 C 
ATOM     41  C   UNL     1       3.371   7.152   2.037  1.00  0.00     0.029 A 
ATOM     42  N   UNL     1       5.210   8.365   1.643  1.00  0.00    -0.354 N 
ATOM     43  C   UNL     1       9.150   6.743   2.298  1.00  0.00     0.074 A 
ATOM     44  C   UNL     1       9.070   5.368   2.743  1.00  0.00     0.031 C 
ATOM     45  C   UNL     1       2.980   8.349   1.560  1.00  0.00     0.029 A 
ATOM     46  C   UNL     1       4.154   9.197   1.344  1.00  0.00     0.049 A 
ATOM     47  H   UNL     1       6.151   8.631   1.533  1.00  0.00     0.167 HD
ATOM     48  C   UNL     1      10.312   7.401   2.062  1.00  0.00     0.034 A 
ATOM     49  C   UNL     1       4.135  10.499   0.977  1.00  0.00     0.034 A 
ATOM     50  C   UNL     1      10.388   8.773   1.627  1.00  0.00     0.049 A 
ATOM     51  C   UNL     1       5.443  11.252   0.831  1.00  0.00     0.074 A 
ATOM     52  C   UNL     1      11.517   9.532   1.369  1.00  0.00     0.029 A 
ATOM     53  N   UNL     1       9.296   9.599   1.397  1.00  0.00    -0.354 N 
ATOM     54  N   UNL     1       6.674  10.816   0.981  1.00  0.00    -0.248 NA
ATOM     55  C   UNL     1       5.358  12.675   0.467  1.00  0.00     0.031 C 
ATOM     56  C   UNL     1      11.111  10.834   1.062  1.00  0.00     0.029 A 
ATOM     57  C   UNL     1       9.726  10.866   1.033  1.00  0.00     0.049 A 
ATOM     58  H   UNL     1       8.354   9.325   1.479  1.00  0.00     0.167 HD
ATOM     59  C   UNL     1       7.502  11.900   0.689  1.00  0.00     0.074 A 
ATOM     60  C   UNL     1       6.635  13.007   0.350  1.00  0.00     0.031 C 
ATOM     61  C   UNL     1       8.859  11.970   0.692  1.00  0.00     0.034 A 
BRANCH  48  62
ATOM     62  C   UNL     1      11.595   6.655   2.340  1.00  0.00     0.023 A 
ATOM     63  C   UNL     1      11.956   5.503   1.619  1.00  0.00     0.031 A 
ATOM     64  C   UNL     1      12.450   7.082   3.371  1.00  0.00     0.131 A 
ATOM     65  C   UNL     1      13.097   4.776   1.991  1.00  0.00     0.055 A 
ATOM     66  C   UNL     1      13.631   6.404   3.677  1.00  0.00     0.041 A 
ATOM     67  F   UNL     1      12.144   8.159   4.111  1.00  0.00    -0.206 F 
ATOM     68  C   UNL     1      13.952   5.233   2.996  1.00  0.00     0.022 A 
BRANCH  65  69
ATOM     69  S   UNL     1      13.360   3.140   1.252  1.00  0.00     0.124 S 
ATOM     70  O   UNL     1      12.129   2.447   1.625  1.00  0.00    -0.237 OA
ATOM     71  O   UNL     1      13.513   3.454  -0.163  1.00  0.00    -0.237 OA
ATOM     72  O   UNL     1      14.566   2.653   1.919  1.00  0.00    -0.744 OA
ENDBRANCH  65  69
ENDBRANCH  48  62
BRANCH  49  73
ATOM     73  C   UNL     1       2.839  11.220   0.780  1.00  0.00     0.023 A 
ATOM     74  C   UNL     1       2.503  11.801  -0.455  1.00  0.00     0.031 A 
ATOM     75  C   UNL     1       1.956  11.418   1.858  1.00  0.00     0.131 A 
ATOM     76  C   UNL     1       1.347  12.592  -0.568  1.00  0.00     0.055 A 
ATOM     77  C   UNL     1       0.775  12.152   1.723  1.00  0.00     0.041 A 
ATOM     78  F   UNL     1       2.233  10.904   3.067  1.00  0.00    -0.206 F 
ATOM     79  C   UNL     1       0.472  12.757   0.508  1.00  0.00     0.022 A 
BRANCH  76  80
ATOM     80  S   UNL     1       1.056  13.499  -2.114  1.00  0.00     0.124 S 
ATOM     81  O   UNL     1       2.254  14.327  -2.200  1.00  0.00    -0.237 OA
ATOM     82  O   UNL     1       0.952  12.417  -3.087  1.00  0.00    -0.237 OA
ATOM     83  O   UNL     1      -0.186  14.223  -1.856  1.00  0.00    -0.744 OA
ENDBRANCH  76  80
ENDBRANCH  49  73
BRANCH  61  84
ATOM     84  C   UNL     1       9.500  13.265   0.244  1.00  0.00     0.023 A 
ATOM     85  C   UNL     1       9.379  14.458   0.978  1.00  0.00     0.031 A 
ATOM     86  C   UNL     1      10.262  13.296  -0.939  1.00  0.00     0.131 A 
ATOM     87  C   UNL     1       9.971  15.639   0.498  1.00  0.00     0.055 A 
ATOM     88  C   UNL     1      10.899  14.457  -1.379  1.00  0.00     0.041 A 
ATOM     89  F   UNL     1      10.412  12.188  -1.684  1.00  0.00    -0.206 F 
ATOM     90  C   UNL     1      10.746  15.641  -0.665  1.00  0.00     0.022 A 
BRANCH  87  91
ATOM     91  S   UNL     1       9.650  17.198   1.369  1.00  0.00     0.124 S 
ATOM     92  O   UNL     1       8.194  17.283   1.315  1.00  0.00    -0.237 OA
ATOM     93  O   UNL     1      10.225  16.945   2.686  1.00  0.00    -0.237 OA
ATOM     94  O   UNL     1      10.359  18.193   0.567  1.00  0.00    -0.744 OA
ENDBRANCH  87  91
ENDBRANCH  61  84
ENDBRANCH  35  36
ENDBRANCH  28  30
ENDBRANCH  27  28
ENDBRANCH  26  27
ENDBRANCH  25  26
ENDBRANCH  24  25
ENDBRANCH   1  24
TORSDOF 21
