REMARK SMILES CC[C@@H](C(=O)OCCOCCOCCOC(=O)c1ccc(-c2c3nc(c(-c4cc(S(=O)(=O)[O-])ccc4F)c4ccc([nH]4)c(-c4cc(S(=O)(=O)[O-])ccc4F)c4nc(c(-c5cc(S(=O)(=O)[O-])ccc5F)c5ccc2[nH]5)C=C4)C=C3)cc1)N(C)C(=O)N(C)CC(C)(C)O
REMARK SMILES IDX 9 1 8 2 7 3 6 4 4 5 5 6 3 7 2 8 1 9 81 10 82 11 83 12 84 13
REMARK SMILES IDX 85 14 86 15 87 16 88 17 89 18 90 19 91 20 10 22 11 23 12 24
REMARK SMILES IDX 13 25 14 26 15 27 16 28 17 29 18 30 19 31 80 32 20 33 79 34
REMARK SMILES IDX 21 35 22 36 23 37 73 38 24 39 78 40 72 41 74 42 25 43 77 44
REMARK SMILES IDX 71 45 70 46 26 48 58 49 38 50 57 51 39 52 42 53 56 54 75 55
REMARK SMILES IDX 40 56 41 57 55 59 76 60 43 61 27 62 28 63 36 64 29 65 35 66
REMARK SMILES IDX 37 67 34 68 30 69 31 70 32 71 33 72 59 73 60 74 68 75 61 76
REMARK SMILES IDX 67 77 69 78 66 79 62 80 63 81 64 82 65 83 44 84 45 85 53 86
REMARK SMILES IDX 46 87 52 88 54 89 51 90 47 91 48 92 49 93 50 94
REMARK H PARENT 91 21 74 47 42 58
REMARK Flexibility Score: inf
ROOT
ATOM      1  O   UNL     1      -1.145   3.368   1.913  1.00  0.00    -0.376 OA
ENDROOT
BRANCH   1   2
ATOM      2  C   UNL     1      -0.069   4.144   1.390  1.00  0.00     0.202 C 
BRANCH   2   3
ATOM      3  C   UNL     1       1.368   3.803   1.855  1.00  0.00     0.261 C 
BRANCH   3   4
ATOM      4  O   UNL     1       1.720   2.405   1.709  1.00  0.00    -0.462 OA
BRANCH   4   5
ATOM      5  C   UNL     1       1.812   1.682   2.863  1.00  0.00     0.328 C 
ATOM      6  O   UNL     1       1.905   2.216   3.966  1.00  0.00    -0.250 OA
BRANCH   5   7
ATOM      7  C   UNL     1       1.883   0.134   2.653  1.00  0.00     0.196 C 
BRANCH   7   8
ATOM      8  C   UNL     1       1.363  -0.524   1.347  1.00  0.00     0.034 C 
ATOM      9  C   UNL     1       1.894  -0.017   0.018  1.00  0.00     0.007 C 
ENDBRANCH   7   8
BRANCH   7  10
ATOM     10  N   UNL     1       1.317  -0.506   3.904  1.00  0.00    -0.314 N 
ATOM     11  C   UNL     1       2.257  -0.690   4.992  1.00  0.00     0.149 C 
BRANCH  10  12
ATOM     12  C   UNL     1      -0.055  -0.661   4.022  1.00  0.00     0.320 C 
ATOM     13  O   UNL     1      -0.735  -0.884   3.019  1.00  0.00    -0.248 OA
BRANCH  12  14
ATOM     14  N   UNL     1      -0.713  -0.412   5.215  1.00  0.00    -0.325 N 
ATOM     15  C   UNL     1      -0.409  -1.109   6.464  1.00  0.00     0.148 C 
BRANCH  14  16
ATOM     16  C   UNL     1      -2.139  -0.014   5.068  1.00  0.00     0.155 C 
BRANCH  16  17
ATOM     17  C   UNL     1      -2.642   1.323   5.754  1.00  0.00     0.077 C 
ATOM     18  C   UNL     1      -2.722   2.392   4.664  1.00  0.00     0.043 C 
ATOM     19  C   UNL     1      -4.033   1.298   6.427  1.00  0.00     0.043 C 
BRANCH  17  20
ATOM     20  O   UNL     1      -1.722   1.767   6.753  1.00  0.00    -0.389 OA
ATOM     21  H   UNL     1      -0.828   1.799   6.378  1.00  0.00     0.211 HD
ENDBRANCH  17  20
ENDBRANCH  16  17
ENDBRANCH  14  16
ENDBRANCH  12  14
ENDBRANCH  10  12
ENDBRANCH   7  10
ENDBRANCH   5   7
ENDBRANCH   4   5
ENDBRANCH   3   4
ENDBRANCH   2   3
ENDBRANCH   1   2
BRANCH   1  22
ATOM     22  C   UNL     1      -0.967   1.968   1.714  1.00  0.00     0.188 C 
BRANCH  22  23
ATOM     23  C   UNL     1      -2.202   1.255   1.244  1.00  0.00     0.188 C 
BRANCH  23  24
ATOM     24  O   UNL     1      -2.269   1.280  -0.184  1.00  0.00    -0.376 OA
BRANCH  24  25
ATOM     25  C   UNL     1      -3.071   2.342  -0.664  1.00  0.00     0.202 C 
BRANCH  25  26
ATOM     26  C   UNL     1      -4.583   2.063  -0.562  1.00  0.00     0.261 C 
BRANCH  26  27
ATOM     27  O   UNL     1      -5.007   1.380   0.644  1.00  0.00    -0.460 OA
BRANCH  27  28
ATOM     28  C   UNL     1      -4.888   0.011   0.639  1.00  0.00     0.338 C 
ATOM     29  O   UNL     1      -4.604  -0.667  -0.320  1.00  0.00    -0.246 OA
BRANCH  28  30
ATOM     30  C   UNL     1      -5.026  -0.530   2.042  1.00  0.00     0.060 A 
ATOM     31  C   UNL     1      -4.296  -1.667   2.428  1.00  0.00     0.016 A 
ATOM     32  C   UNL     1      -5.876   0.053   2.981  1.00  0.00     0.016 A 
ATOM     33  C   UNL     1      -4.420  -2.219   3.731  1.00  0.00     0.010 A 
ATOM     34  C   UNL     1      -6.011  -0.509   4.271  1.00  0.00     0.010 A 
ATOM     35  C   UNL     1      -5.280  -1.651   4.686  1.00  0.00    -0.014 A 
BRANCH  35  36
ATOM     36  C   UNL     1      -5.659  -2.385   5.966  1.00  0.00     0.031 A 
ATOM     37  C   UNL     1      -6.914  -3.218   5.868  1.00  0.00     0.074 A 
ATOM     38  C   UNL     1      -5.039  -2.358   7.179  1.00  0.00     0.049 A 
ATOM     39  N   UNL     1      -7.492  -3.956   6.778  1.00  0.00    -0.248 NA
ATOM     40  C   UNL     1      -7.618  -3.188   4.575  1.00  0.00     0.031 C 
ATOM     41  C   UNL     1      -3.854  -1.610   7.528  1.00  0.00     0.029 A 
ATOM     42  N   UNL     1      -5.336  -2.963   8.394  1.00  0.00    -0.354 N 
ATOM     43  C   UNL     1      -8.606  -4.501   6.158  1.00  0.00     0.074 A 
ATOM     44  C   UNL     1      -8.679  -3.929   4.832  1.00  0.00     0.031 C 
ATOM     45  C   UNL     1      -3.522  -1.745   8.813  1.00  0.00     0.029 A 
ATOM     46  C   UNL     1      -4.488  -2.611   9.436  1.00  0.00     0.049 A 
ATOM     47  H   UNL     1      -6.086  -3.591   8.507  1.00  0.00     0.167 HD
ATOM     48  C   UNL     1      -9.473  -5.428   6.630  1.00  0.00     0.034 A 
ATOM     49  C   UNL     1      -4.444  -2.904  10.753  1.00  0.00     0.034 A 
ATOM     50  C   UNL     1      -9.439  -5.962   7.965  1.00  0.00     0.049 A 
ATOM     51  C   UNL     1      -5.454  -3.868  11.280  1.00  0.00     0.074 A 
ATOM     52  C   UNL     1     -10.266  -6.918   8.526  1.00  0.00     0.029 A 
ATOM     53  N   UNL     1      -8.554  -5.570   8.962  1.00  0.00    -0.354 N 
ATOM     54  N   UNL     1      -6.448  -4.430  10.639  1.00  0.00    -0.248 NA
ATOM     55  C   UNL     1      -5.316  -4.272  12.681  1.00  0.00     0.031 C 
ATOM     56  C   UNL     1      -9.931  -7.051   9.877  1.00  0.00     0.029 A 
ATOM     57  C   UNL     1      -8.836  -6.247  10.140  1.00  0.00     0.049 A 
ATOM     58  H   UNL     1      -7.833  -4.909   8.849  1.00  0.00     0.167 HD
ATOM     59  C   UNL     1      -7.028  -5.301  11.548  1.00  0.00     0.074 A 
ATOM     60  C   UNL     1      -6.262  -5.193  12.775  1.00  0.00     0.031 C 
ATOM     61  C   UNL     1      -8.090  -6.123  11.369  1.00  0.00     0.034 A 
BRANCH  48  62
ATOM     62  C   UNL     1     -10.544  -5.880   5.672  1.00  0.00     0.023 A 
ATOM     63  C   UNL     1     -10.217  -6.531   4.467  1.00  0.00     0.031 A 
ATOM     64  C   UNL     1     -11.892  -5.580   5.919  1.00  0.00     0.131 A 
ATOM     65  C   UNL     1     -11.215  -6.778   3.516  1.00  0.00     0.055 A 
ATOM     66  C   UNL     1     -12.893  -5.914   5.007  1.00  0.00     0.041 A 
ATOM     67  F   UNL     1     -12.255  -4.929   7.035  1.00  0.00    -0.206 F 
ATOM     68  C   UNL     1     -12.556  -6.500   3.789  1.00  0.00     0.022 A 
BRANCH  65  69
ATOM     69  S   UNL     1     -10.715  -7.309   1.855  1.00  0.00     0.124 S 
ATOM     70  O   UNL     1      -9.925  -6.165   1.408  1.00  0.00    -0.237 OA
ATOM     71  O   UNL     1      -9.970  -8.534   2.124  1.00  0.00    -0.237 OA
ATOM     72  O   UNL     1     -11.986  -7.492   1.159  1.00  0.00    -0.744 OA
ENDBRANCH  65  69
ENDBRANCH  48  62
BRANCH  49  73
ATOM     73  C   UNL     1      -3.416  -2.291  11.662  1.00  0.00     0.023 A 
ATOM     74  C   UNL     1      -2.436  -3.068  12.306  1.00  0.00     0.031 A 
ATOM     75  C   UNL     1      -3.425  -0.908  11.932  1.00  0.00     0.131 A 
ATOM     76  C   UNL     1      -1.545  -2.472  13.218  1.00  0.00     0.055 A 
ATOM     77  C   UNL     1      -2.502  -0.311  12.796  1.00  0.00     0.041 A 
ATOM     78  F   UNL     1      -4.330  -0.109  11.344  1.00  0.00    -0.206 F 
ATOM     79  C   UNL     1      -1.563  -1.097  13.456  1.00  0.00     0.022 A 
BRANCH  76  80
ATOM     80  S   UNL     1      -0.415  -3.533  14.167  1.00  0.00     0.124 S 
ATOM     81  O   UNL     1      -1.339  -4.479  14.782  1.00  0.00    -0.237 OA
ATOM     82  O   UNL     1       0.448  -4.066  13.119  1.00  0.00    -0.237 OA
ATOM     83  O   UNL     1       0.232  -2.603  15.090  1.00  0.00    -0.744 OA
ENDBRANCH  76  80
ENDBRANCH  49  73
BRANCH  61  84
ATOM     84  C   UNL     1      -8.433  -7.020  12.527  1.00  0.00     0.023 A 
ATOM     85  C   UNL     1      -8.838  -6.501  13.768  1.00  0.00     0.031 A 
ATOM     86  C   UNL     1      -8.259  -8.410  12.411  1.00  0.00     0.131 A 
ATOM     87  C   UNL     1      -8.949  -7.355  14.872  1.00  0.00     0.055 A 
ATOM     88  C   UNL     1      -8.462  -9.265  13.492  1.00  0.00     0.041 A 
ATOM     89  F   UNL     1      -7.861  -8.956  11.250  1.00  0.00    -0.206 F 
ATOM     90  C   UNL     1      -8.786  -8.736  14.738  1.00  0.00     0.022 A 
BRANCH  87  91
ATOM     91  S   UNL     1      -9.140  -6.613  16.515  1.00  0.00     0.124 S 
ATOM     92  O   UNL     1      -7.960  -5.757  16.596  1.00  0.00    -0.237 OA
ATOM     93  O   UNL     1     -10.420  -5.923  16.400  1.00  0.00    -0.237 OA
ATOM     94  O   UNL     1      -9.134  -7.766  17.413  1.00  0.00    -0.744 OA
ENDBRANCH  87  91
ENDBRANCH  61  84
ENDBRANCH  35  36
ENDBRANCH  28  30
ENDBRANCH  27  28
ENDBRANCH  26  27
ENDBRANCH  25  26
ENDBRANCH  24  25
ENDBRANCH  23  24
ENDBRANCH  22  23
ENDBRANCH   1  22
TORSDOF 27
