REMARK SMILES COc1ccc(-c2ccc(/C=C3\SC(=S)N([C@H](Cc4ccccc4)C(=O)OCCOCCOCCOC(=O)c4ccc(-c5c6nc(c(-c7cc(S(=O)(=O)[O-])ccc7F)c7ccc([nH]7)c(-c7cc(S(=O)(=O)[O-])ccc7F)c7nc(c(-c8cc(S(=O)(=O)[O-])ccc8F)c8ccc5[nH]8)C=C7)C=C6)cc4)C3=O)o2)cc1
REMARK SMILES IDX 31 1 30 2 29 3 28 4 27 5 25 6 26 7 17 8 16 9 11 10 12 11
REMARK SMILES IDX 13 12 102 13 14 14 103 15 15 16 10 17 7 18 8 19 104 20 9 21
REMARK SMILES IDX 6 22 3 23 4 24 106 25 5 26 105 27 2 28 1 29 18 30 19 31
REMARK SMILES IDX 20 32 24 33 21 34 23 35 22 36 32 37 33 38 34 39 35 40 36 41
REMARK SMILES IDX 37 42 38 43 39 44 40 45 101 46 41 47 100 48 42 49 43 50
REMARK SMILES IDX 44 51 94 52 45 53 99 54 93 55 95 56 46 57 98 58 92 59 91 60
REMARK SMILES IDX 47 62 79 63 59 64 78 65 60 66 63 67 77 68 96 69 61 70 62 71
REMARK SMILES IDX 76 73 97 74 64 75 48 76 49 77 57 78 50 79 56 80 58 81 55 82
REMARK SMILES IDX 51 83 52 84 53 85 54 86 80 87 81 88 89 89 82 90 88 91 90 92
REMARK SMILES IDX 87 93 83 94 84 95 85 96 86 97 65 98 66 99 74 100 67 101
REMARK SMILES IDX 73 102 75 103 72 104 68 105 69 106 70 107 71 108
REMARK H PARENT 95 61 63 72
REMARK Flexibility Score: inf
ROOT
ATOM      1  C   UNL     1       2.630 -12.726  10.763  1.00  0.00     0.188 C 
ENDROOT
BRANCH   1   2
ATOM      2  O   UNL     1       3.033 -14.033  10.365  1.00  0.00    -0.376 OA
BRANCH   2   3
ATOM      3  C   UNL     1       3.261 -14.256   8.975  1.00  0.00     0.202 C 
BRANCH   3   4
ATOM      4  C   UNL     1       2.054 -14.111   8.036  1.00  0.00     0.261 C 
BRANCH   4   5
ATOM      5  O   UNL     1       1.345 -12.866   8.170  1.00  0.00    -0.462 OA
BRANCH   5   6
ATOM      6  C   UNL     1       0.101 -12.966   8.699  1.00  0.00     0.329 C 
ATOM      7  O   UNL     1      -0.427 -14.022   9.043  1.00  0.00    -0.250 OA
BRANCH   6   8
ATOM      8  C   UNL     1      -0.607 -11.619   8.899  1.00  0.00     0.206 C 
BRANCH   8   9
ATOM      9  N   UNL     1      -1.972 -11.828   8.400  1.00  0.00    -0.278 N 
ATOM     10  C   UNL     1      -3.827 -12.250   5.403  1.00  0.00     0.068 C 
ATOM     11  C   UNL     1      -3.530 -12.181   6.699  1.00  0.00     0.084 C 
ATOM     12  S   UNL     1      -4.505 -12.173   8.102  1.00  0.00    -0.054 SA
ATOM     13  C   UNL     1      -2.109 -12.164   7.069  1.00  0.00     0.267 C 
ATOM     14  C   UNL     1      -3.118 -11.892   9.158  1.00  0.00     0.149 C 
ATOM     15  O   UNL     1      -1.215 -12.507   6.306  1.00  0.00    -0.268 OA
ATOM     16  S   UNL     1      -3.282 -11.704  10.804  1.00  0.00    -0.052 S 
BRANCH  10  17
ATOM     17  C   UNL     1      -5.116 -12.470   4.887  1.00  0.00     0.128 A 
ATOM     18  C   UNL     1      -6.602 -13.507   3.623  1.00  0.00     0.134 A 
ATOM     19  C   UNL     1      -7.314 -12.599   4.370  1.00  0.00     0.051 A 
ATOM     20  O   UNL     1      -5.283 -13.394   3.896  1.00  0.00    -0.457 OA
ATOM     21  C   UNL     1      -6.362 -11.937   5.187  1.00  0.00     0.051 A 
BRANCH  18  22
ATOM     22  C   UNL     1      -6.915 -14.530   2.651  1.00  0.00     0.017 A 
ATOM     23  C   UNL     1      -7.480 -16.529   0.769  1.00  0.00     0.118 A 
ATOM     24  C   UNL     1      -6.586 -16.781   1.809  1.00  0.00     0.047 A 
ATOM     25  C   UNL     1      -8.094 -15.278   0.674  1.00  0.00     0.047 A 
ATOM     26  C   UNL     1      -6.294 -15.784   2.737  1.00  0.00     0.016 A 
ATOM     27  C   UNL     1      -7.817 -14.284   1.617  1.00  0.00     0.016 A 
BRANCH  23  28
ATOM     28  O   UNL     1      -7.693 -17.587  -0.070  1.00  0.00    -0.497 OA
ATOM     29  C   UNL     1      -8.231 -17.269  -1.346  1.00  0.00     0.278 C 
ENDBRANCH  23  28
ENDBRANCH  18  22
ENDBRANCH  10  17
ENDBRANCH   8   9
BRANCH   8  30
ATOM     30  C   UNL     1       0.044 -10.286   8.453  1.00  0.00     0.073 C 
BRANCH  30  31
ATOM     31  C   UNL     1      -0.122  -9.848   7.015  1.00  0.00    -0.045 A 
ATOM     32  C   UNL     1       0.830 -10.210   6.054  1.00  0.00     0.004 A 
ATOM     33  C   UNL     1      -1.260  -9.131   6.604  1.00  0.00     0.004 A 
ATOM     34  C   UNL     1       0.622  -9.913   4.706  1.00  0.00     0.000 A 
ATOM     35  C   UNL     1      -1.470  -8.844   5.253  1.00  0.00     0.000 A 
ATOM     36  C   UNL     1      -0.533  -9.245   4.304  1.00  0.00     0.000 A 
ENDBRANCH  30  31
ENDBRANCH   8  30
ENDBRANCH   6   8
ENDBRANCH   5   6
ENDBRANCH   4   5
ENDBRANCH   3   4
ENDBRANCH   2   3
ENDBRANCH   1   2
BRANCH   1  37
ATOM     37  C   UNL     1       3.486 -11.557  10.268  1.00  0.00     0.188 C 
BRANCH  37  38
ATOM     38  O   UNL     1       3.707 -11.540   8.861  1.00  0.00    -0.376 OA
BRANCH  38  39
ATOM     39  C   UNL     1       4.487 -10.458   8.345  1.00  0.00     0.202 C 
BRANCH  39  40
ATOM     40  C   UNL     1       5.829 -10.194   9.057  1.00  0.00     0.261 C 
BRANCH  40  41
ATOM     41  O   UNL     1       5.694  -9.774  10.430  1.00  0.00    -0.460 OA
BRANCH  41  42
ATOM     42  C   UNL     1       4.895  -8.705  10.659  1.00  0.00     0.338 C 
ATOM     43  O   UNL     1       4.509  -7.906   9.822  1.00  0.00    -0.246 OA
BRANCH  42  44
ATOM     44  C   UNL     1       4.338  -8.809  12.033  1.00  0.00     0.060 A 
ATOM     45  C   UNL     1       3.030  -8.351  12.242  1.00  0.00     0.016 A 
ATOM     46  C   UNL     1       5.051  -9.387  13.090  1.00  0.00     0.016 A 
ATOM     47  C   UNL     1       2.470  -8.383  13.519  1.00  0.00     0.010 A 
ATOM     48  C   UNL     1       4.490  -9.416  14.373  1.00  0.00     0.010 A 
ATOM     49  C   UNL     1       3.222  -8.855  14.603  1.00  0.00    -0.014 A 
BRANCH  49  50
ATOM     50  C   UNL     1       2.802  -8.473  15.977  1.00  0.00     0.031 A 
ATOM     51  C   UNL     1       3.428  -7.234  16.571  1.00  0.00     0.074 A 
ATOM     52  C   UNL     1       1.848  -9.140  16.652  1.00  0.00     0.049 A 
ATOM     53  N   UNL     1       3.203  -6.654  17.721  1.00  0.00    -0.248 NA
ATOM     54  C   UNL     1       4.448  -6.557  15.750  1.00  0.00     0.031 C 
ATOM     55  C   UNL     1       1.143 -10.329  16.176  1.00  0.00     0.029 A 
ATOM     56  N   UNL     1       1.303  -8.902  17.891  1.00  0.00    -0.354 N 
ATOM     57  C   UNL     1       4.050  -5.551  17.760  1.00  0.00     0.074 A 
ATOM     58  C   UNL     1       4.823  -5.564  16.539  1.00  0.00     0.031 C 
ATOM     59  C   UNL     1       0.260 -10.718  17.115  1.00  0.00     0.029 A 
ATOM     60  C   UNL     1       0.350  -9.821  18.268  1.00  0.00     0.049 A 
ATOM     61  H   UNL     1       1.569  -8.142  18.457  1.00  0.00     0.167 HD
ATOM     62  C   UNL     1       4.168  -4.603  18.720  1.00  0.00     0.034 A 
ATOM     63  C   UNL     1      -0.355  -9.928  19.414  1.00  0.00     0.034 A 
ATOM     64  C   UNL     1       3.396  -4.591  19.934  1.00  0.00     0.049 A 
ATOM     65  C   UNL     1      -0.166  -8.882  20.494  1.00  0.00     0.074 A 
ATOM     66  C   UNL     1       3.427  -3.667  20.963  1.00  0.00     0.029 A 
ATOM     67  N   UNL     1       2.459  -5.551  20.290  1.00  0.00    -0.354 N 
ATOM     68  N   UNL     1       0.614  -7.823  20.498  1.00  0.00    -0.248 NA
ATOM     69  C   UNL     1      -0.970  -9.034  21.714  1.00  0.00     0.031 C 
ATOM     70  C   UNL     1       2.563  -4.105  21.971  1.00  0.00     0.029 A 
ATOM     71  C   UNL     1       1.928  -5.257  21.535  1.00  0.00     0.049 A 
ATOM     72  H   UNL     1       2.209  -6.328  19.738  1.00  0.00     0.167 HD
ATOM     73  C   UNL     1       0.353  -7.164  21.700  1.00  0.00     0.074 A 
ATOM     74  C   UNL     1      -0.666  -7.931  22.381  1.00  0.00     0.031 C 
ATOM     75  C   UNL     1       0.904  -6.026  22.198  1.00  0.00     0.034 A 
BRANCH  62  76
ATOM     76  C   UNL     1       5.207  -3.531  18.513  1.00  0.00     0.023 A 
ATOM     77  C   UNL     1       5.097  -2.574  17.489  1.00  0.00     0.031 A 
ATOM     78  C   UNL     1       6.332  -3.475  19.354  1.00  0.00     0.131 A 
ATOM     79  C   UNL     1       6.121  -1.633  17.302  1.00  0.00     0.055 A 
ATOM     80  C   UNL     1       7.311  -2.491  19.207  1.00  0.00     0.041 A 
ATOM     81  F   UNL     1       6.502  -4.382  20.329  1.00  0.00    -0.206 F 
ATOM     82  C   UNL     1       7.213  -1.568  18.171  1.00  0.00     0.022 A 
BRANCH  79  83
ATOM     83  S   UNL     1       6.061  -0.560  15.841  1.00  0.00     0.124 S 
ATOM     84  O   UNL     1       6.129  -1.536  14.756  1.00  0.00    -0.237 OA
ATOM     85  O   UNL     1       4.785   0.127  16.003  1.00  0.00    -0.237 OA
ATOM     86  O   UNL     1       7.246   0.283  15.986  1.00  0.00    -0.744 OA
ENDBRANCH  79  83
ENDBRANCH  62  76
BRANCH  63  87
ATOM     87  C   UNL     1      -1.283 -11.078  19.648  1.00  0.00     0.023 A 
ATOM     88  C   UNL     1      -2.650 -10.876  19.903  1.00  0.00     0.031 A 
ATOM     89  C   UNL     1      -0.787 -12.390  19.743  1.00  0.00     0.131 A 
ATOM     90  C   UNL     1      -3.453 -11.951  20.321  1.00  0.00     0.055 A 
ATOM     91  C   UNL     1      -1.604 -13.467  20.092  1.00  0.00     0.041 A 
ATOM     92  F   UNL     1       0.512 -12.643  19.516  1.00  0.00    -0.206 F 
ATOM     93  C   UNL     1      -2.941 -13.248  20.405  1.00  0.00     0.022 A 
BRANCH  90  94
ATOM     94  S   UNL     1      -5.141 -11.606  20.895  1.00  0.00     0.124 S 
ATOM     95  O   UNL     1      -4.902 -10.608  21.931  1.00  0.00    -0.237 OA
ATOM     96  O   UNL     1      -5.781 -11.124  19.676  1.00  0.00    -0.237 OA
ATOM     97  O   UNL     1      -5.610 -12.904  21.374  1.00  0.00    -0.744 OA
ENDBRANCH  90  94
ENDBRANCH  63  87
BRANCH  75  98
ATOM     98  C   UNL     1       0.358  -5.509  23.510  1.00  0.00     0.023 A 
ATOM     99  C   UNL     1       0.488  -6.232  24.709  1.00  0.00     0.031 A 
ATOM    100  C   UNL     1      -0.327  -4.280  23.553  1.00  0.00     0.131 A 
ATOM    101  C   UNL     1      -0.123  -5.760  25.880  1.00  0.00     0.055 A 
ATOM    102  C   UNL     1      -0.871  -3.781  24.736  1.00  0.00     0.041 A 
ATOM    103  F   UNL     1      -0.480  -3.544  22.441  1.00  0.00    -0.206 F 
ATOM    104  C   UNL     1      -0.788  -4.531  25.905  1.00  0.00     0.022 A 
BRANCH 101 105
ATOM    105  S   UNL     1      -0.147  -6.833  27.343  1.00  0.00     0.124 S 
ATOM    106  O   UNL     1      -0.738  -8.057  26.813  1.00  0.00    -0.237 OA
ATOM    107  O   UNL     1       1.267  -6.908  27.695  1.00  0.00    -0.237 OA
ATOM    108  O   UNL     1      -0.984  -6.100  28.292  1.00  0.00    -0.744 OA
ENDBRANCH 101 105
ENDBRANCH  75  98
ENDBRANCH  49  50
ENDBRANCH  42  44
ENDBRANCH  41  42
ENDBRANCH  40  41
ENDBRANCH  39  40
ENDBRANCH  38  39
ENDBRANCH  37  38
ENDBRANCH   1  37
TORSDOF 26
