REMARK SMILES O=C(OCCOCCOCCOC(=O)c1cccc2c1cc(Br)c1ccccc12)c1ccc(-c2c3nc(c(-c4cc(S(=O)(=O)[O-])ccc4F)c4ccc([nH]4)c(-c4cc(S(=O)(=O)[O-])ccc4F)c4nc(c(-c5cc(S(=O)(=O)[O-])ccc5F)c5ccc2[nH]5)C=C4)C=C3)cc1
REMARK SMILES IDX 6 1 5 2 4 3 3 4 2 5 1 6 30 7 31 8 92 9 32 10 91 11 33 12
REMARK SMILES IDX 34 13 35 14 85 15 36 16 90 17 84 18 86 19 37 20 89 21 83 22
REMARK SMILES IDX 82 23 38 25 70 26 50 27 69 28 51 29 54 30 68 31 87 32 52 33
REMARK SMILES IDX 53 34 67 36 88 37 55 38 39 39 40 40 48 41 41 42 47 43 49 44
REMARK SMILES IDX 46 45 42 46 43 47 44 48 45 49 71 50 72 51 80 52 73 53 79 54
REMARK SMILES IDX 81 55 78 56 74 57 75 58 76 59 77 60 56 61 57 62 65 63 58 64
REMARK SMILES IDX 64 65 66 66 63 67 59 68 60 69 61 70 62 71 7 72 8 73 9 74
REMARK SMILES IDX 10 75 11 76 12 77 13 78 14 79 15 80 16 81 20 82 17 83 19 84
REMARK SMILES IDX 21 85 18 86 29 87 22 88 24 89 28 90 23 91 25 92 27 93 26 94
REMARK H PARENT 86 24 54 35
REMARK Flexibility Score: inf
ROOT
ATOM      1  O   UNL     1       3.899   1.519  -0.248  1.00  0.00    -0.376 OA
ENDROOT
BRANCH   1   2
ATOM      2  C   UNL     1       4.856   1.022  -1.187  1.00  0.00     0.202 C 
BRANCH   2   3
ATOM      3  C   UNL     1       4.681  -0.466  -1.519  1.00  0.00     0.261 C 
BRANCH   3   4
ATOM      4  O   UNL     1       3.325  -0.920  -1.392  1.00  0.00    -0.460 OA
BRANCH   4   5
ATOM      5  C   UNL     1       2.665  -1.368  -0.294  1.00  0.00     0.338 C 
ATOM      6  O   UNL     1       1.510  -1.762  -0.461  1.00  0.00    -0.246 OA
BRANCH   5   7
ATOM      7  C   UNL     1       3.222  -1.416   1.105  1.00  0.00     0.060 A 
ATOM      8  C   UNL     1       2.393  -1.990   2.092  1.00  0.00     0.016 A 
ATOM      9  C   UNL     1       4.474  -0.957   1.518  1.00  0.00     0.016 A 
ATOM     10  C   UNL     1       2.825  -2.145   3.417  1.00  0.00     0.010 A 
ATOM     11  C   UNL     1       4.925  -1.136   2.826  1.00  0.00     0.010 A 
ATOM     12  C   UNL     1       4.114  -1.748   3.780  1.00  0.00    -0.014 A 
BRANCH  12  13
ATOM     13  C   UNL     1       4.720  -2.123   5.076  1.00  0.00     0.031 A 
ATOM     14  C   UNL     1       5.020  -1.106   6.130  1.00  0.00     0.074 A 
ATOM     15  C   UNL     1       5.166  -3.386   5.207  1.00  0.00     0.049 A 
ATOM     16  N   UNL     1       5.526  -1.287   7.322  1.00  0.00    -0.248 NA
ATOM     17  C   UNL     1       4.749   0.299   5.797  1.00  0.00     0.031 C 
ATOM     18  C   UNL     1       5.060  -4.415   4.172  1.00  0.00     0.029 A 
ATOM     19  N   UNL     1       5.840  -4.001   6.228  1.00  0.00    -0.354 N 
ATOM     20  C   UNL     1       5.572  -0.030   7.907  1.00  0.00     0.074 A 
ATOM     21  C   UNL     1       5.150   0.917   6.901  1.00  0.00     0.031 C 
ATOM     22  C   UNL     1       5.671  -5.528   4.601  1.00  0.00     0.029 A 
ATOM     23  C   UNL     1       6.207  -5.293   5.939  1.00  0.00     0.049 A 
ATOM     24  H   UNL     1       6.042  -3.561   7.085  1.00  0.00     0.167 HD
ATOM     25  C   UNL     1       5.895   0.293   9.182  1.00  0.00     0.034 A 
ATOM     26  C   UNL     1       6.890  -6.194   6.672  1.00  0.00     0.034 A 
ATOM     27  C   UNL     1       6.407  -0.658  10.132  1.00  0.00     0.049 A 
ATOM     28  C   UNL     1       7.263  -5.831   8.082  1.00  0.00     0.074 A 
ATOM     29  C   UNL     1       6.737  -0.458  11.459  1.00  0.00     0.029 A 
ATOM     30  N   UNL     1       6.694  -1.986   9.844  1.00  0.00    -0.354 N 
ATOM     31  N   UNL     1       7.113  -4.681   8.700  1.00  0.00    -0.248 NA
ATOM     32  C   UNL     1       7.852  -6.886   8.914  1.00  0.00     0.031 C 
ATOM     33  C   UNL     1       7.274  -1.648  11.957  1.00  0.00     0.029 A 
ATOM     34  C   UNL     1       7.223  -2.611  10.960  1.00  0.00     0.049 A 
ATOM     35  H   UNL     1       6.543  -2.420   8.973  1.00  0.00     0.167 HD
ATOM     36  C   UNL     1       7.567  -4.880   9.999  1.00  0.00     0.074 A 
ATOM     37  C   UNL     1       7.978  -6.268  10.082  1.00  0.00     0.031 C 
ATOM     38  C   UNL     1       7.636  -3.995  11.027  1.00  0.00     0.034 A 
BRANCH  25  39
ATOM     39  C   UNL     1       5.642   1.706   9.644  1.00  0.00     0.023 A 
ATOM     40  C   UNL     1       6.693   2.542  10.059  1.00  0.00     0.031 A 
ATOM     41  C   UNL     1       4.323   2.181   9.777  1.00  0.00     0.131 A 
ATOM     42  C   UNL     1       6.403   3.806  10.595  1.00  0.00     0.055 A 
ATOM     43  C   UNL     1       4.042   3.450  10.284  1.00  0.00     0.041 A 
ATOM     44  F   UNL     1       3.283   1.420   9.398  1.00  0.00    -0.206 F 
ATOM     45  C   UNL     1       5.086   4.266  10.703  1.00  0.00     0.022 A 
BRANCH  42  46
ATOM     46  S   UNL     1       7.716   4.892  11.217  1.00  0.00     0.124 S 
ATOM     47  O   UNL     1       7.558   6.067  10.363  1.00  0.00    -0.237 OA
ATOM     48  O   UNL     1       7.323   5.078  12.612  1.00  0.00    -0.237 OA
ATOM     49  O   UNL     1       8.937   4.125  11.001  1.00  0.00    -0.744 OA
ENDBRANCH  42  46
ENDBRANCH  25  39
BRANCH  26  50
ATOM     50  C   UNL     1       7.115  -7.544   6.085  1.00  0.00     0.023 A 
ATOM     51  C   UNL     1       7.924  -7.707   4.944  1.00  0.00     0.031 A 
ATOM     52  C   UNL     1       6.360  -8.642   6.527  1.00  0.00     0.131 A 
ATOM     53  C   UNL     1       7.893  -8.918   4.239  1.00  0.00     0.055 A 
ATOM     54  C   UNL     1       6.382  -9.866   5.858  1.00  0.00     0.041 A 
ATOM     55  F   UNL     1       5.555  -8.522   7.594  1.00  0.00    -0.206 F 
ATOM     56  C   UNL     1       7.136 -10.002   4.695  1.00  0.00     0.022 A 
BRANCH  53  57
ATOM     57  S   UNL     1       8.703  -9.076   2.621  1.00  0.00     0.124 S 
ATOM     58  O   UNL     1       9.649 -10.162   2.859  1.00  0.00    -0.237 OA
ATOM     59  O   UNL     1       7.574  -9.402   1.753  1.00  0.00    -0.237 OA
ATOM     60  O   UNL     1       9.294  -7.761   2.400  1.00  0.00    -0.744 OA
ENDBRANCH  53  57
ENDBRANCH  26  50
BRANCH  38  61
ATOM     61  C   UNL     1       8.194  -4.473  12.343  1.00  0.00     0.023 A 
ATOM     62  C   UNL     1       7.380  -4.482  13.492  1.00  0.00     0.031 A 
ATOM     63  C   UNL     1       9.559  -4.774  12.489  1.00  0.00     0.131 A 
ATOM     64  C   UNL     1       7.947  -4.751  14.743  1.00  0.00     0.055 A 
ATOM     65  C   UNL     1      10.110  -5.084  13.732  1.00  0.00     0.041 A 
ATOM     66  F   UNL     1      10.376  -4.765  11.424  1.00  0.00    -0.206 F 
ATOM     67  C   UNL     1       9.306  -5.059  14.868  1.00  0.00     0.022 A 
BRANCH  64  68
ATOM     68  S   UNL     1       6.965  -4.617  16.262  1.00  0.00     0.124 S 
ATOM     69  O   UNL     1       6.977  -5.994  16.749  1.00  0.00    -0.237 OA
ATOM     70  O   UNL     1       7.747  -3.668  17.052  1.00  0.00    -0.237 OA
ATOM     71  O   UNL     1       5.669  -4.129  15.802  1.00  0.00    -0.744 OA
ENDBRANCH  64  68
ENDBRANCH  38  61
ENDBRANCH  12  13
ENDBRANCH   5   7
ENDBRANCH   4   5
ENDBRANCH   3   4
ENDBRANCH   2   3
ENDBRANCH   1   2
BRANCH   1  72
ATOM     72  C   UNL     1       2.675   1.928  -0.868  1.00  0.00     0.188 C 
BRANCH  72  73
ATOM     73  C   UNL     1       2.267   3.340  -0.450  1.00  0.00     0.188 C 
BRANCH  73  74
ATOM     74  O   UNL     1       3.209   4.361  -0.762  1.00  0.00    -0.376 OA
BRANCH  74  75
ATOM     75  C   UNL     1       4.349   4.453   0.098  1.00  0.00     0.202 C 
BRANCH  75  76
ATOM     76  C   UNL     1       4.087   4.920   1.537  1.00  0.00     0.261 C 
BRANCH  76  77
ATOM     77  O   UNL     1       3.593   3.890   2.422  1.00  0.00    -0.460 OA
BRANCH  77  78
ATOM     78  C   UNL     1       2.362   4.100   2.938  1.00  0.00     0.338 C 
ATOM     79  O   UNL     1       1.543   4.949   2.575  1.00  0.00    -0.246 OA
BRANCH  78  80
ATOM     80  C   UNL     1       2.105   3.211   4.081  1.00  0.00     0.067 A 
ATOM     81  C   UNL     1       2.740   3.573   5.270  1.00  0.00     0.016 A 
ATOM     82  C   UNL     1       1.126   2.176   4.041  1.00  0.00    -0.002 A 
ATOM     83  C   UNL     1       2.400   2.920   6.439  1.00  0.00     0.002 A 
ATOM     84  C   UNL     1       0.763   1.507   5.239  1.00  0.00    -0.010 A 
ATOM     85  C   UNL     1       0.487   1.792   2.852  1.00  0.00     0.026 A 
ATOM     86  C   UNL     1       1.440   1.906   6.420  1.00  0.00     0.009 A 
ATOM     87  C   UNL     1      -0.274   0.498   5.223  1.00  0.00    -0.009 A 
ATOM     88  C   UNL     1      -0.493   0.798   2.823  1.00  0.00     0.026 A 
ATOM     89  C   UNL     1      -0.909   0.146   4.000  1.00  0.00    -0.004 A 
ATOM     90  C   UNL     1      -0.727  -0.166   6.394  1.00  0.00     0.009 A 
ATOM     91  Br  UNL     1      -1.234   0.417   1.105  1.00  0.00    -0.050 Br
ATOM     92  C   UNL     1      -1.940  -0.830   4.014  1.00  0.00     0.010 A 
ATOM     93  C   UNL     1      -1.754  -1.112   6.383  1.00  0.00     0.001 A 
ATOM     94  C   UNL     1      -2.363  -1.445   5.189  1.00  0.00     0.001 A 
ENDBRANCH  78  80
ENDBRANCH  77  78
ENDBRANCH  76  77
ENDBRANCH  75  76
ENDBRANCH  74  75
ENDBRANCH  73  74
ENDBRANCH  72  73
ENDBRANCH   1  72
TORSDOF 20
