REMARK SMILES Cc1cc2c(c(C)c1Cl)C=C(C(=O)OCCOCCOCCOC(=O)c1ccc(-c3c4nc(c(-c5cc(S(=O)(=O)[O-])ccc5F)c5ccc([nH]5)c(-c5cc(S(=O)(=O)[O-])ccc5F)c5nc(c(-c6cc(S(=O)(=O)[O-])ccc6F)c6ccc3[nH]6)C=C5)C=C4)cc1)[C@@H](C(F)(F)F)O2
REMARK SMILES IDX 19 1 18 2 17 3 16 4 15 5 14 6 12 7 13 8 11 9 1 10 2 11 3 12
REMARK SMILES IDX 8 13 4 14 6 15 9 16 5 17 94 18 7 19 10 20 89 21 90 22 91 23
REMARK SMILES IDX 92 24 93 25 20 26 21 27 22 28 23 29 24 30 25 31 26 32 27 33
REMARK SMILES IDX 88 34 28 35 87 36 29 37 30 38 31 39 81 40 32 41 86 42 80 43
REMARK SMILES IDX 82 44 33 45 85 46 79 47 78 48 34 50 66 51 46 52 65 53 47 54
REMARK SMILES IDX 50 55 64 56 83 57 48 58 49 59 63 61 84 62 51 63 35 64 36 65
REMARK SMILES IDX 44 66 37 67 43 68 45 69 42 70 38 71 39 72 40 73 41 74 67 75
REMARK SMILES IDX 68 76 76 77 69 78 75 79 77 80 74 81 70 82 71 83 72 84 73 85
REMARK SMILES IDX 52 86 53 87 61 88 54 89 60 90 62 91 59 92 55 93 56 94 57 95
REMARK SMILES IDX 58 96
REMARK H PARENT 82 49 50 60
REMARK Flexibility Score: inf
ROOT
ATOM      1  C   UNL     1       1.569  -6.760   5.026  1.00  0.00     0.188 C 
ENDROOT
BRANCH   1   2
ATOM      2  C   UNL     1       0.265  -6.978   5.823  1.00  0.00     0.188 C 
BRANCH   2   3
ATOM      3  O   UNL     1       0.034  -8.291   6.276  1.00  0.00    -0.376 OA
BRANCH   3   4
ATOM      4  C   UNL     1      -0.595  -9.253   5.450  1.00  0.00     0.202 C 
BRANCH   4   5
ATOM      5  C   UNL     1      -0.964  -9.077   3.964  1.00  0.00     0.261 C 
BRANCH   5   6
ATOM      6  O   UNL     1      -0.470  -7.920   3.289  1.00  0.00    -0.460 OA
BRANCH   6   7
ATOM      7  C   UNL     1      -1.396  -6.974   2.996  1.00  0.00     0.338 C 
ATOM      8  O   UNL     1      -2.587  -7.017   3.249  1.00  0.00    -0.246 OA
BRANCH   7   9
ATOM      9  C   UNL     1      -0.715  -5.797   2.421  1.00  0.00     0.087 C 
ATOM     10  C   UNL     1       1.109  -0.047   0.102  1.00  0.00     0.046 C 
ATOM     11  C   UNL     1       0.601  -1.166   0.973  1.00  0.00    -0.028 A 
ATOM     12  C   UNL     1       0.954  -2.469   0.598  1.00  0.00     0.052 A 
ATOM     13  C   UNL     1      -0.213  -0.984   2.107  1.00  0.00     0.047 A 
ATOM     14  C   UNL     1       0.451  -3.574   1.280  1.00  0.00     0.128 A 
ATOM     15  C   UNL     1      -0.713  -2.097   2.831  1.00  0.00    -0.021 A 
ATOM     16  Cl  UNL     1      -0.620   0.631   2.599  1.00  0.00    -0.084 Cl
ATOM     17  C   UNL     1      -0.411  -3.405   2.368  1.00  0.00     0.022 A 
ATOM     18  O   UNL     1       0.862  -4.782   0.791  1.00  0.00    -0.475 OA
ATOM     19  C   UNL     1      -1.551  -1.921   4.079  1.00  0.00     0.047 C 
ATOM     20  C   UNL     1      -1.019  -4.603   2.946  1.00  0.00     0.027 C 
ATOM     21  C   UNL     1       0.277  -5.998   1.314  1.00  0.00     0.316 C 
BRANCH  21  22
ATOM     22  C   UNL     1      -0.306  -6.793   0.137  1.00  0.00     0.430 C 
ATOM     23  F   UNL     1       0.598  -6.923  -0.865  1.00  0.00    -0.167 F 
ATOM     24  F   UNL     1      -0.655  -8.051   0.501  1.00  0.00    -0.167 F 
ATOM     25  F   UNL     1      -1.405  -6.205  -0.385  1.00  0.00    -0.167 F 
ENDBRANCH  21  22
ENDBRANCH   7   9
ENDBRANCH   6   7
ENDBRANCH   5   6
ENDBRANCH   4   5
ENDBRANCH   3   4
ENDBRANCH   2   3
ENDBRANCH   1   2
BRANCH   1  26
ATOM     26  O   UNL     1       2.385  -7.866   4.679  1.00  0.00    -0.376 OA
BRANCH  26  27
ATOM     27  C   UNL     1       2.837  -8.740   5.705  1.00  0.00     0.202 C 
BRANCH  27  28
ATOM     28  C   UNL     1       3.359  -8.225   7.060  1.00  0.00     0.261 C 
BRANCH  28  29
ATOM     29  O   UNL     1       2.615  -7.162   7.671  1.00  0.00    -0.460 OA
BRANCH  29  30
ATOM     30  C   UNL     1       3.243  -5.958   7.716  1.00  0.00     0.338 C 
ATOM     31  O   UNL     1       4.359  -5.694   7.298  1.00  0.00    -0.246 OA
BRANCH  30  32
ATOM     32  C   UNL     1       2.286  -4.938   8.187  1.00  0.00     0.060 A 
ATOM     33  C   UNL     1       1.871  -3.938   7.296  1.00  0.00     0.016 A 
ATOM     34  C   UNL     1       1.807  -4.962   9.497  1.00  0.00     0.016 A 
ATOM     35  C   UNL     1       0.963  -2.966   7.711  1.00  0.00     0.010 A 
ATOM     36  C   UNL     1       0.919  -3.967   9.921  1.00  0.00     0.010 A 
ATOM     37  C   UNL     1       0.501  -2.959   9.034  1.00  0.00    -0.014 A 
BRANCH  37  38
ATOM     38  C   UNL     1      -0.307  -1.814   9.521  1.00  0.00     0.031 A 
ATOM     39  C   UNL     1       0.391  -0.689  10.233  1.00  0.00     0.074 A 
ATOM     40  C   UNL     1      -1.632  -1.753   9.290  1.00  0.00     0.049 A 
ATOM     41  N   UNL     1      -0.113   0.399  10.752  1.00  0.00    -0.248 NA
ATOM     42  C   UNL     1       1.851  -0.807  10.374  1.00  0.00     0.031 C 
ATOM     43  C   UNL     1      -2.409  -2.752   8.559  1.00  0.00     0.029 A 
ATOM     44  N   UNL     1      -2.557  -0.801   9.643  1.00  0.00    -0.354 N 
ATOM     45  C   UNL     1       0.968   1.106  11.266  1.00  0.00     0.074 A 
ATOM     46  C   UNL     1       2.149   0.302  11.036  1.00  0.00     0.031 C 
ATOM     47  C   UNL     1      -3.692  -2.355   8.509  1.00  0.00     0.029 A 
ATOM     48  C   UNL     1      -3.837  -1.093   9.235  1.00  0.00     0.049 A 
ATOM     49  H   UNL     1      -2.325   0.016  10.141  1.00  0.00     0.167 HD
ATOM     50  C   UNL     1       0.977   2.323  11.861  1.00  0.00     0.034 A 
ATOM     51  C   UNL     1      -4.994  -0.427   9.435  1.00  0.00     0.034 A 
ATOM     52  C   UNL     1      -0.204   3.111  12.101  1.00  0.00     0.049 A 
ATOM     53  C   UNL     1      -4.975   0.870  10.210  1.00  0.00     0.074 A 
ATOM     54  C   UNL     1      -0.299   4.350  12.710  1.00  0.00     0.029 A 
ATOM     55  N   UNL     1      -1.494   2.739  11.749  1.00  0.00    -0.354 N 
ATOM     56  N   UNL     1      -3.949   1.510  10.720  1.00  0.00    -0.248 NA
ATOM     57  C   UNL     1      -6.268   1.532  10.439  1.00  0.00     0.031 C 
ATOM     58  C   UNL     1      -1.650   4.697  12.787  1.00  0.00     0.029 A 
ATOM     59  C   UNL     1      -2.392   3.711  12.155  1.00  0.00     0.049 A 
ATOM     60  H   UNL     1      -1.734   1.908  11.280  1.00  0.00     0.167 HD
ATOM     61  C   UNL     1      -4.470   2.666  11.297  1.00  0.00     0.074 A 
ATOM     62  C   UNL     1      -5.901   2.634  11.081  1.00  0.00     0.031 C 
ATOM     63  C   UNL     1      -3.817   3.668  11.937  1.00  0.00     0.034 A 
BRANCH  50  64
ATOM     64  C   UNL     1       2.303   2.866  12.319  1.00  0.00     0.023 A 
ATOM     65  C   UNL     1       3.286   3.267  11.399  1.00  0.00     0.031 A 
ATOM     66  C   UNL     1       2.575   3.014  13.690  1.00  0.00     0.131 A 
ATOM     67  C   UNL     1       4.511   3.767  11.863  1.00  0.00     0.055 A 
ATOM     68  C   UNL     1       3.771   3.570  14.144  1.00  0.00     0.041 A 
ATOM     69  F   UNL     1       1.677   2.628  14.610  1.00  0.00    -0.206 F 
ATOM     70  C   UNL     1       4.750   3.945  13.228  1.00  0.00     0.022 A 
BRANCH  67  71
ATOM     71  S   UNL     1       5.820   4.114  10.658  1.00  0.00     0.124 S 
ATOM     72  O   UNL     1       6.079   2.783  10.114  1.00  0.00    -0.237 OA
ATOM     73  O   UNL     1       5.176   5.059   9.753  1.00  0.00    -0.237 OA
ATOM     74  O   UNL     1       6.898   4.668  11.473  1.00  0.00    -0.744 OA
ENDBRANCH  67  71
ENDBRANCH  50  64
BRANCH  51  75
ATOM     75  C   UNL     1      -6.276  -0.976   8.911  1.00  0.00     0.023 A 
ATOM     76  C   UNL     1      -6.986  -0.314   7.898  1.00  0.00     0.031 A 
ATOM     77  C   UNL     1      -6.821  -2.164   9.432  1.00  0.00     0.131 A 
ATOM     78  C   UNL     1      -8.213  -0.830   7.452  1.00  0.00     0.055 A 
ATOM     79  C   UNL     1      -8.021  -2.695   8.957  1.00  0.00     0.041 A 
ATOM     80  F   UNL     1      -6.182  -2.834  10.404  1.00  0.00    -0.206 F 
ATOM     81  C   UNL     1      -8.728  -2.023   7.964  1.00  0.00     0.022 A 
BRANCH  78  82
ATOM     82  S   UNL     1      -9.154   0.105   6.215  1.00  0.00     0.124 S 
ATOM     83  O   UNL     1      -9.450   1.337   6.937  1.00  0.00    -0.237 OA
ATOM     84  O   UNL     1      -8.193   0.215   5.122  1.00  0.00    -0.237 OA
ATOM     85  O   UNL     1     -10.305  -0.753   5.944  1.00  0.00    -0.744 OA
ENDBRANCH  78  82
ENDBRANCH  51  75
BRANCH  63  86
ATOM     86  C   UNL     1      -4.624   4.846  12.419  1.00  0.00     0.023 A 
ATOM     87  C   UNL     1      -5.475   4.753  13.533  1.00  0.00     0.031 A 
ATOM     88  C   UNL     1      -4.465   6.103  11.806  1.00  0.00     0.131 A 
ATOM     89  C   UNL     1      -6.146   5.896  13.993  1.00  0.00     0.055 A 
ATOM     90  C   UNL     1      -5.100   7.244  12.295  1.00  0.00     0.041 A 
ATOM     91  F   UNL     1      -3.657   6.245  10.743  1.00  0.00    -0.206 F 
ATOM     92  C   UNL     1      -5.948   7.144  13.394  1.00  0.00     0.022 A 
BRANCH  89  93
ATOM     93  S   UNL     1      -7.295   5.735  15.388  1.00  0.00     0.124 S 
ATOM     94  O   UNL     1      -8.336   4.881  14.824  1.00  0.00    -0.237 OA
ATOM     95  O   UNL     1      -6.459   5.126  16.418  1.00  0.00    -0.237 OA
ATOM     96  O   UNL     1      -7.702   7.113  15.659  1.00  0.00    -0.744 OA
ENDBRANCH  89  93
ENDBRANCH  63  86
ENDBRANCH  37  38
ENDBRANCH  30  32
ENDBRANCH  29  30
ENDBRANCH  28  29
ENDBRANCH  27  28
ENDBRANCH  26  27
ENDBRANCH   1  26
TORSDOF 21
