REMARK SMILES C[C@@H]1CCCN(C(=O)CSc2nnc3c4ccccc4n(CC(=O)OCCOCCOCCOC(=O)c4ccc(-c5c6nc(c(-c7cc(S(=O)(=O)[O-])ccc7F)c7ccc([nH]7)c(-c7cc(S(=O)(=O)[O-])ccc7F)c7nc(c(-c8cc(S(=O)(=O)[O-])ccc8F)c8ccc5[nH]8)C=C7)C=C6)cc4)c3n2)C1
REMARK SMILES IDX 29 1 28 2 27 3 26 4 25 5 23 6 24 7 22 8 21 9 11 10 12 11
REMARK SMILES IDX 101 12 13 13 100 14 14 15 15 16 20 17 16 18 19 19 17 20
REMARK SMILES IDX 18 21 10 22 9 23 7 24 8 25 6 26 1 27 2 28 3 29 102 30 4 31
REMARK SMILES IDX 5 32 30 33 31 34 32 35 33 36 34 37 35 38 36 39 37 40 38 41
REMARK SMILES IDX 99 42 39 43 98 44 40 45 41 46 42 47 92 48 43 49 97 50 91 51
REMARK SMILES IDX 93 52 44 53 96 54 90 55 89 56 45 58 77 59 57 60 76 61 58 62
REMARK SMILES IDX 61 63 75 64 94 65 59 66 60 67 74 69 95 70 62 71 46 72 47 73
REMARK SMILES IDX 55 74 48 75 54 76 56 77 53 78 49 79 50 80 51 81 52 82 78 83
REMARK SMILES IDX 79 84 87 85 80 86 86 87 88 88 85 89 81 90 82 91 83 92 84 93
REMARK SMILES IDX 63 94 64 95 72 96 65 97 71 98 73 99 70 100 66 101 67 102
REMARK SMILES IDX 68 103 69 104
REMARK H PARENT 93 57 61 68
REMARK Flexibility Score: inf
ROOT
ATOM      1  C   UNL     1       4.788   4.879   8.013  1.00  0.00     0.188 C 
ENDROOT
BRANCH   1   2
ATOM      2  O   UNL     1       5.879   4.407   8.768  1.00  0.00    -0.376 OA
BRANCH   2   3
ATOM      3  C   UNL     1       6.870   3.678   8.072  1.00  0.00     0.202 C 
BRANCH   3   4
ATOM      4  C   UNL     1       6.428   2.776   6.908  1.00  0.00     0.261 C 
BRANCH   4   5
ATOM      5  O   UNL     1       5.806   3.491   5.794  1.00  0.00    -0.462 OA
BRANCH   5   6
ATOM      6  C   UNL     1       4.678   2.918   5.288  1.00  0.00     0.326 C 
ATOM      7  O   UNL     1       4.344   1.783   5.630  1.00  0.00    -0.250 OA
BRANCH   6   8
ATOM      8  C   UNL     1       3.705   3.810   4.503  1.00  0.00     0.246 C 
BRANCH   8   9
ATOM      9  N   UNL     1       4.136   4.831   3.546  1.00  0.00    -0.313 N 
ATOM     10  C   UNL     1       4.732   3.293   0.439  1.00  0.00     0.211 A 
ATOM     11  N   UNL     1       4.949   4.402  -0.320  1.00  0.00    -0.122 NA
ATOM     12  N   UNL     1       4.539   3.260   1.770  1.00  0.00    -0.201 NA
ATOM     13  N   UNL     1       4.919   5.622   0.221  1.00  0.00    -0.144 NA
ATOM     14  C   UNL     1       4.465   4.505   2.260  1.00  0.00     0.165 A 
ATOM     15  C   UNL     1       4.630   5.678   1.542  1.00  0.00     0.138 A 
ATOM     16  C   UNL     1       4.343   6.769   2.393  1.00  0.00     0.030 A 
ATOM     17  C   UNL     1       3.833   6.193   3.558  1.00  0.00     0.053 A 
ATOM     18  C   UNL     1       4.320   8.178   2.253  1.00  0.00     0.013 A 
ATOM     19  C   UNL     1       3.102   6.986   4.441  1.00  0.00     0.027 A 
ATOM     20  C   UNL     1       3.709   8.973   3.227  1.00  0.00     0.001 A 
ATOM     21  C   UNL     1       3.047   8.373   4.279  1.00  0.00     0.002 A 
BRANCH  10  22
ATOM     22  S   UNL     1       4.942   1.709  -0.326  1.00  0.00    -0.074 SA
BRANCH  22  23
ATOM     23  C   UNL     1       3.613   1.794  -1.560  1.00  0.00     0.178 C 
BRANCH  23  24
ATOM     24  C   UNL     1       2.236   1.996  -0.953  1.00  0.00     0.233 C 
ATOM     25  O   UNL     1       1.755   3.130  -0.995  1.00  0.00    -0.274 OA
BRANCH  24  26
ATOM     26  N   UNL     1       1.554   0.900  -0.408  1.00  0.00    -0.342 N 
ATOM     27  C   UNL     1      -3.022   0.021   1.135  1.00  0.00     0.009 C 
ATOM     28  C   UNL     1      -0.998  -0.132   0.340  1.00  0.00     0.005 C 
ATOM     29  C   UNL     1       0.128  -1.512   0.517  1.00  0.00     0.007 C 
ATOM     30  C   UNL     1       0.226   1.173   0.164  1.00  0.00     0.122 C 
ATOM     31  C   UNL     1       1.373  -1.487  -0.353  1.00  0.00     0.022 C 
ATOM     32  C   UNL     1       2.214  -0.306   0.014  1.00  0.00     0.119 C 
ENDBRANCH  24  26
ENDBRANCH  23  24
ENDBRANCH  22  23
ENDBRANCH  10  22
ENDBRANCH   8   9
ENDBRANCH   6   8
ENDBRANCH   5   6
ENDBRANCH   4   5
ENDBRANCH   3   4
ENDBRANCH   2   3
ENDBRANCH   1   2
BRANCH   1  33
ATOM     33  C   UNL     1       5.042   5.884   6.877  1.00  0.00     0.188 C 
BRANCH  33  34
ATOM     34  O   UNL     1       6.363   6.259   6.580  1.00  0.00    -0.376 OA
BRANCH  34  35
ATOM     35  C   UNL     1       6.968   7.144   7.505  1.00  0.00     0.202 C 
BRANCH  35  36
ATOM     36  C   UNL     1       6.095   8.120   8.349  1.00  0.00     0.261 C 
BRANCH  36  37
ATOM     37  O   UNL     1       4.905   7.543   8.982  1.00  0.00    -0.460 OA
BRANCH  37  38
ATOM     38  C   UNL     1       3.710   8.213   8.828  1.00  0.00     0.338 C 
ATOM     39  O   UNL     1       3.632   9.395   8.521  1.00  0.00    -0.246 OA
BRANCH  38  40
ATOM     40  C   UNL     1       2.533   7.253   8.663  1.00  0.00     0.060 A 
ATOM     41  C   UNL     1       2.195   6.158   9.461  1.00  0.00     0.016 A 
ATOM     42  C   UNL     1       1.840   7.357   7.462  1.00  0.00     0.016 A 
ATOM     43  C   UNL     1       1.429   5.065   8.916  1.00  0.00     0.010 A 
ATOM     44  C   UNL     1       1.088   6.278   6.935  1.00  0.00     0.010 A 
ATOM     45  C   UNL     1       0.989   5.041   7.573  1.00  0.00    -0.014 A 
BRANCH  45  46
ATOM     46  C   UNL     1       0.037   4.018   6.977  1.00  0.00     0.031 A 
ATOM     47  C   UNL     1      -1.307   4.359   7.454  1.00  0.00     0.074 A 
ATOM     48  C   UNL     1       0.080   2.963   6.100  1.00  0.00     0.049 A 
ATOM     49  N   UNL     1      -1.765   3.929   8.579  1.00  0.00    -0.248 NA
ATOM     50  C   UNL     1      -2.072   5.450   6.846  1.00  0.00     0.031 C 
ATOM     51  C   UNL     1       1.226   2.382   5.444  1.00  0.00     0.029 A 
ATOM     52  N   UNL     1      -0.922   2.129   5.596  1.00  0.00    -0.354 N 
ATOM     53  C   UNL     1      -3.027   4.467   8.664  1.00  0.00     0.074 A 
ATOM     54  C   UNL     1      -3.029   5.597   7.766  1.00  0.00     0.031 C 
ATOM     55  C   UNL     1       0.890   1.532   4.441  1.00  0.00     0.029 A 
ATOM     56  C   UNL     1      -0.547   1.297   4.503  1.00  0.00     0.049 A 
ATOM     57  H   UNL     1      -1.831   2.117   5.973  1.00  0.00     0.167 HD
ATOM     58  C   UNL     1      -4.034   3.728   9.201  1.00  0.00     0.034 A 
ATOM     59  C   UNL     1      -1.110   0.165   3.950  1.00  0.00     0.034 A 
ATOM     60  C   UNL     1      -3.515   2.535   9.841  1.00  0.00     0.049 A 
ATOM     61  C   UNL     1      -2.057  -0.392   4.938  1.00  0.00     0.074 A 
ATOM     62  C   UNL     1      -2.620   2.285  10.864  1.00  0.00     0.029 A 
ATOM     63  N   UNL     1      -3.606   1.360   9.132  1.00  0.00    -0.354 N 
ATOM     64  N   UNL     1      -1.667  -1.013   6.015  1.00  0.00    -0.248 NA
ATOM     65  C   UNL     1      -3.373   0.219   5.003  1.00  0.00     0.031 C 
ATOM     66  C   UNL     1      -1.901   1.120  10.468  1.00  0.00     0.029 A 
ATOM     67  C   UNL     1      -2.441   0.647   9.271  1.00  0.00     0.049 A 
ATOM     68  H   UNL     1      -4.387   1.073   8.606  1.00  0.00     0.167 HD
ATOM     69  C   UNL     1      -2.418  -0.426   7.022  1.00  0.00     0.074 A 
ATOM     70  C   UNL     1      -3.498   0.274   6.329  1.00  0.00     0.031 C 
ATOM     71  C   UNL     1      -1.941  -0.309   8.295  1.00  0.00     0.034 A 
BRANCH  58  72
ATOM     72  C   UNL     1      -5.470   3.883   8.781  1.00  0.00     0.023 A 
ATOM     73  C   UNL     1      -5.875   4.611   7.646  1.00  0.00     0.031 A 
ATOM     74  C   UNL     1      -6.472   3.139   9.425  1.00  0.00     0.131 A 
ATOM     75  C   UNL     1      -7.205   4.630   7.218  1.00  0.00     0.055 A 
ATOM     76  C   UNL     1      -7.787   3.091   8.951  1.00  0.00     0.041 A 
ATOM     77  F   UNL     1      -6.190   2.395  10.505  1.00  0.00    -0.206 F 
ATOM     78  C   UNL     1      -8.162   3.845   7.845  1.00  0.00     0.022 A 
BRANCH  75  79
ATOM     79  S   UNL     1      -7.704   5.692   5.834  1.00  0.00     0.124 S 
ATOM     80  O   UNL     1      -8.287   4.725   4.911  1.00  0.00    -0.237 OA
ATOM     81  O   UNL     1      -8.648   6.595   6.488  1.00  0.00    -0.237 OA
ATOM     82  O   UNL     1      -6.452   6.310   5.410  1.00  0.00    -0.744 OA
ENDBRANCH  75  79
ENDBRANCH  58  72
BRANCH  59  83
ATOM     83  C   UNL     1      -1.383  -0.010   2.470  1.00  0.00     0.023 A 
ATOM     84  C   UNL     1      -1.687   1.522   1.576  1.00  0.00     0.031 A 
ATOM     85  C   UNL     1      -1.891  -1.557   1.669  1.00  0.00     0.131 A 
ATOM     86  C   UNL     1      -2.336   1.516  -0.105  1.00  0.00     0.055 A 
ATOM     87  C   UNL     1      -2.522  -1.579  -0.054  1.00  0.00     0.041 A 
ATOM     88  F   UNL     1      -1.840  -2.723   2.334  1.00  0.00    -0.206 F 
ATOM     89  C   UNL     1      -2.785  -0.020  -0.927  1.00  0.00     0.022 A 
BRANCH  86  90
ATOM     90  S   UNL     1      -2.738   3.099  -0.846  1.00  0.00     0.124 S 
ATOM     91  O   UNL     1      -2.322   2.892  -2.229  1.00  0.00    -0.237 OA
ATOM     92  O   UNL     1      -4.175   3.173  -0.619  1.00  0.00    -0.237 OA
ATOM     93  O   UNL     1      -1.918   4.013  -0.059  1.00  0.00    -0.744 OA
ENDBRANCH  86  90
ENDBRANCH  59  83
BRANCH  71  94
ATOM     94  C   UNL     1      -0.705  -1.097   8.685  1.00  0.00     0.023 A 
ATOM     95  C   UNL     1      -0.794  -1.865   9.859  1.00  0.00     0.031 A 
ATOM     96  C   UNL     1       0.565  -0.983   8.086  1.00  0.00     0.131 A 
ATOM     97  C   UNL     1       0.348  -2.438  10.429  1.00  0.00     0.055 A 
ATOM     98  C   UNL     1       1.698  -1.611   8.624  1.00  0.00     0.041 A 
ATOM     99  F   UNL     1       0.764  -0.208   7.012  1.00  0.00    -0.206 F 
ATOM    100  C   UNL     1       1.595  -2.329   9.812  1.00  0.00     0.022 A 
BRANCH  97 101
ATOM    101  S   UNL     1       0.253  -3.208  12.065  1.00  0.00     0.124 S 
ATOM    102  O   UNL     1       0.593  -4.598  11.772  1.00  0.00    -0.237 OA
ATOM    103  O   UNL     1       1.259  -2.461  12.817  1.00  0.00    -0.237 OA
ATOM    104  O   UNL     1      -1.127  -2.978  12.484  1.00  0.00    -0.744 OA
ENDBRANCH  97 101
ENDBRANCH  71  94
ENDBRANCH  45  46
ENDBRANCH  38  40
ENDBRANCH  37  38
ENDBRANCH  36  37
ENDBRANCH  35  36
ENDBRANCH  34  35
ENDBRANCH  33  34
ENDBRANCH   1  33
TORSDOF 25
