REMARK SMILES C[C@H](CO)CSc1cc(Cl)ccc1C(=O)OCCOCCOCCOC(=O)c1ccc(-c2c3nc(c(-c4cc(S(=O)(=O)[O-])ccc4F)c4ccc([nH]4)c(-c4cc(S(=O)(=O)[O-])ccc4F)c4nc(c(-c5cc(S(=O)(=O)[O-])ccc5F)c5ccc2[nH]5)C=C4)C=C3)cc1
REMARK SMILES IDX 20 1 19 2 18 3 17 4 16 5 14 6 15 7 13 8 7 9 8 10 9 11 12 12
REMARK SMILES IDX 10 13 11 14 6 15 5 16 2 17 1 18 3 19 4 20 21 22 22 23 23 24
REMARK SMILES IDX 24 25 25 26 26 27 27 28 28 29 29 30 90 31 30 32 89 33 31 34
REMARK SMILES IDX 32 35 33 36 83 37 34 38 88 39 82 40 84 41 35 42 87 43 81 44
REMARK SMILES IDX 80 45 36 47 68 48 48 49 67 50 49 51 52 52 66 53 85 54 50 55
REMARK SMILES IDX 51 56 65 58 86 59 53 60 37 61 38 62 46 63 39 64 45 65 47 66
REMARK SMILES IDX 44 67 40 68 41 69 42 70 43 71 69 72 70 73 78 74 71 75 77 76
REMARK SMILES IDX 79 77 76 78 72 79 73 80 74 81 75 82 54 83 55 84 63 85 56 86
REMARK SMILES IDX 62 87 64 88 61 89 57 90 58 91 59 92 60 93
REMARK H PARENT 4 21 84 46 52 57
REMARK Flexibility Score: inf
ROOT
ATOM      1  C   UNL     1      -3.999   2.670   0.860  1.00  0.00     0.188 C 
ENDROOT
BRANCH   1   2
ATOM      2  O   UNL     1      -5.359   2.277   0.980  1.00  0.00    -0.376 OA
BRANCH   2   3
ATOM      3  C   UNL     1      -5.777   1.027   0.443  1.00  0.00     0.202 C 
BRANCH   3   4
ATOM      4  C   UNL     1      -5.305   0.568  -0.948  1.00  0.00     0.261 C 
BRANCH   4   5
ATOM      5  O   UNL     1      -3.886   0.658  -1.174  1.00  0.00    -0.460 OA
BRANCH   5   6
ATOM      6  C   UNL     1      -3.514   1.387  -2.253  1.00  0.00     0.339 C 
ATOM      7  O   UNL     1      -4.266   1.910  -3.063  1.00  0.00    -0.246 OA
BRANCH   6   8
ATOM      8  C   UNL     1      -2.064   1.693  -2.253  1.00  0.00     0.073 A 
ATOM      9  C   UNL     1      -1.034   0.740  -2.306  1.00  0.00     0.023 A 
ATOM     10  C   UNL     1       0.272   1.189  -2.565  1.00  0.00     0.036 A 
ATOM     11  C   UNL     1       0.573   2.551  -2.602  1.00  0.00     0.042 A 
ATOM     12  C   UNL     1      -1.748   3.068  -2.288  1.00  0.00     0.018 A 
ATOM     13  Cl  UNL     1       2.198   3.058  -2.839  1.00  0.00    -0.084 Cl
ATOM     14  C   UNL     1      -0.428   3.496  -2.425  1.00  0.00     0.021 A 
BRANCH   9  15
ATOM     15  S   UNL     1      -1.236  -1.023  -2.087  1.00  0.00    -0.125 SA
BRANCH  15  16
ATOM     16  C   UNL     1      -0.868  -1.205  -0.283  1.00  0.00     0.080 C 
BRANCH  16  17
ATOM     17  C   UNL     1       0.611  -1.454   0.084  1.00  0.00     0.022 C 
ATOM     18  C   UNL     1       0.682  -2.283   1.380  1.00  0.00     0.011 C 
BRANCH  17  19
ATOM     19  C   UNL     1       1.403  -0.162   0.325  1.00  0.00     0.160 C 
BRANCH  19  20
ATOM     20  O   UNL     1       2.778  -0.379   0.026  1.00  0.00    -0.396 OA
ATOM     21  H   UNL     1       3.127  -1.080   0.598  1.00  0.00     0.210 HD
ENDBRANCH  19  20
ENDBRANCH  17  19
ENDBRANCH  16  17
ENDBRANCH  15  16
ENDBRANCH   9  15
ENDBRANCH   6   8
ENDBRANCH   5   6
ENDBRANCH   4   5
ENDBRANCH   3   4
ENDBRANCH   2   3
ENDBRANCH   1   2
BRANCH   1  22
ATOM     22  C   UNL     1      -2.895   1.692   1.306  1.00  0.00     0.188 C 
BRANCH  22  23
ATOM     23  O   UNL     1      -3.356   0.409   1.660  1.00  0.00    -0.376 OA
BRANCH  23  24
ATOM     24  C   UNL     1      -3.557   0.091   3.026  1.00  0.00     0.202 C 
BRANCH  24  25
ATOM     25  C   UNL     1      -3.956   1.110   4.115  1.00  0.00     0.261 C 
BRANCH  25  26
ATOM     26  O   UNL     1      -3.717   2.500   3.879  1.00  0.00    -0.460 OA
BRANCH  26  27
ATOM     27  C   UNL     1      -2.502   2.980   4.227  1.00  0.00     0.338 C 
ATOM     28  O   UNL     1      -1.559   2.333   4.660  1.00  0.00    -0.246 OA
BRANCH  27  29
ATOM     29  C   UNL     1      -2.433   4.390   3.792  1.00  0.00     0.060 A 
ATOM     30  C   UNL     1      -1.534   4.749   2.777  1.00  0.00     0.016 A 
ATOM     31  C   UNL     1      -3.262   5.351   4.375  1.00  0.00     0.016 A 
ATOM     32  C   UNL     1      -1.450   6.077   2.356  1.00  0.00     0.010 A 
ATOM     33  C   UNL     1      -3.159   6.684   3.967  1.00  0.00     0.010 A 
ATOM     34  C   UNL     1      -2.236   7.059   2.973  1.00  0.00    -0.014 A 
BRANCH  34  35
ATOM     35  C   UNL     1      -1.967   8.496   2.718  1.00  0.00     0.031 A 
ATOM     36  C   UNL     1      -1.138   9.255   3.718  1.00  0.00     0.074 A 
ATOM     37  C   UNL     1      -2.438   9.115   1.620  1.00  0.00     0.049 A 
ATOM     38  N   UNL     1      -0.842  10.527   3.762  1.00  0.00    -0.248 NA
ATOM     39  C   UNL     1      -0.574   8.465   4.823  1.00  0.00     0.031 C 
ATOM     40  C   UNL     1      -3.206   8.475   0.554  1.00  0.00     0.029 A 
ATOM     41  N   UNL     1      -2.347  10.428   1.228  1.00  0.00    -0.354 N 
ATOM     42  C   UNL     1      -0.064  10.695   4.902  1.00  0.00     0.074 A 
ATOM     43  C   UNL     1       0.032   9.399   5.540  1.00  0.00     0.031 C 
ATOM     44  C   UNL     1      -3.527   9.402  -0.367  1.00  0.00     0.029 A 
ATOM     45  C   UNL     1      -3.031  10.707   0.067  1.00  0.00     0.049 A 
ATOM     46  H   UNL     1      -1.840  11.106   1.730  1.00  0.00     0.167 HD
ATOM     47  C   UNL     1       0.521  11.825   5.371  1.00  0.00     0.034 A 
ATOM     48  C   UNL     1      -3.258  11.885  -0.552  1.00  0.00     0.034 A 
ATOM     49  C   UNL     1       0.402  13.112   4.731  1.00  0.00     0.049 A 
ATOM     50  C   UNL     1      -2.686  13.151   0.047  1.00  0.00     0.074 A 
ATOM     51  C   UNL     1       0.962  14.318   5.113  1.00  0.00     0.029 A 
ATOM     52  N   UNL     1      -0.342  13.367   3.586  1.00  0.00    -0.354 N 
ATOM     53  N   UNL     1      -1.947  13.298   1.124  1.00  0.00    -0.248 NA
ATOM     54  C   UNL     1      -2.975  14.408  -0.656  1.00  0.00     0.031 C 
ATOM     55  C   UNL     1       0.489  15.314   4.252  1.00  0.00     0.029 A 
ATOM     56  C   UNL     1      -0.289  14.717   3.273  1.00  0.00     0.049 A 
ATOM     57  H   UNL     1      -0.835  12.688   3.071  1.00  0.00     0.167 HD
ATOM     58  C   UNL     1      -1.656  14.660   1.203  1.00  0.00     0.074 A 
ATOM     59  C   UNL     1      -2.287  15.284   0.059  1.00  0.00     0.031 C 
ATOM     60  C   UNL     1      -0.930  15.332   2.134  1.00  0.00     0.034 A 
BRANCH  47  61
ATOM     61  C   UNL     1       1.290  11.722   6.666  1.00  0.00     0.023 A 
ATOM     62  C   UNL     1       2.437  10.918   6.788  1.00  0.00     0.031 A 
ATOM     63  C   UNL     1       0.850  12.416   7.808  1.00  0.00     0.131 A 
ATOM     64  C   UNL     1       3.059  10.770   8.037  1.00  0.00     0.055 A 
ATOM     65  C   UNL     1       1.525  12.333   9.027  1.00  0.00     0.041 A 
ATOM     66  F   UNL     1      -0.255  13.177   7.761  1.00  0.00    -0.206 F 
ATOM     67  C   UNL     1       2.628  11.494   9.151  1.00  0.00     0.022 A 
BRANCH  64  68
ATOM     68  S   UNL     1       4.340   9.499   8.221  1.00  0.00     0.124 S 
ATOM     69  O   UNL     1       3.619   8.292   7.825  1.00  0.00    -0.237 OA
ATOM     70  O   UNL     1       5.373   9.957   7.299  1.00  0.00    -0.237 OA
ATOM     71  O   UNL     1       4.691   9.569   9.638  1.00  0.00    -0.744 OA
ENDBRANCH  64  68
ENDBRANCH  47  61
BRANCH  48  72
ATOM     72  C   UNL     1      -4.105  11.948  -1.780  1.00  0.00     0.023 A 
ATOM     73  C   UNL     1      -3.586  12.416  -2.998  1.00  0.00     0.031 A 
ATOM     74  C   UNL     1      -5.470  11.608  -1.735  1.00  0.00     0.131 A 
ATOM     75  C   UNL     1      -4.435  12.579  -4.105  1.00  0.00     0.055 A 
ATOM     76  C   UNL     1      -6.296  11.713  -2.856  1.00  0.00     0.041 A 
ATOM     77  F   UNL     1      -6.022  11.165  -0.595  1.00  0.00    -0.206 F 
ATOM     78  C   UNL     1      -5.782  12.215  -4.047  1.00  0.00     0.022 A 
BRANCH  75  79
ATOM     79  S   UNL     1      -3.775  13.375  -5.595  1.00  0.00     0.124 S 
ATOM     80  O   UNL     1      -3.337  14.664  -5.072  1.00  0.00    -0.237 OA
ATOM     81  O   UNL     1      -2.718  12.450  -5.990  1.00  0.00    -0.237 OA
ATOM     82  O   UNL     1      -4.926  13.424  -6.494  1.00  0.00    -0.744 OA
ENDBRANCH  75  79
ENDBRANCH  48  72
BRANCH  60  83
ATOM     83  C   UNL     1      -0.735  16.817   1.923  1.00  0.00     0.023 A 
ATOM     84  C   UNL     1      -1.809  17.723   1.966  1.00  0.00     0.031 A 
ATOM     85  C   UNL     1       0.550  17.331   1.670  1.00  0.00     0.131 A 
ATOM     86  C   UNL     1      -1.588  19.084   1.702  1.00  0.00     0.055 A 
ATOM     87  C   UNL     1       0.774  18.695   1.478  1.00  0.00     0.041 A 
ATOM     88  F   UNL     1       1.615  16.514   1.612  1.00  0.00    -0.206 F 
ATOM     89  C   UNL     1      -0.300  19.578   1.479  1.00  0.00     0.022 A 
BRANCH  86  90
ATOM     90  S   UNL     1      -3.020  20.187   1.550  1.00  0.00     0.124 S 
ATOM     91  O   UNL     1      -3.778  19.553   0.476  1.00  0.00    -0.237 OA
ATOM     92  O   UNL     1      -3.615  20.111   2.881  1.00  0.00    -0.237 OA
ATOM     93  O   UNL     1      -2.425  21.478   1.211  1.00  0.00    -0.744 OA
ENDBRANCH  86  90
ENDBRANCH  60  83
ENDBRANCH  34  35
ENDBRANCH  27  29
ENDBRANCH  26  27
ENDBRANCH  25  26
ENDBRANCH  24  25
ENDBRANCH  23  24
ENDBRANCH  22  23
ENDBRANCH   1  22
TORSDOF 25
