REMARK SMILES C=CCn1nc(C(=O)OCCOCCOCCOC(=O)c2ccc(-c3c4nc(c(-c5cc(S(=O)(=O)[O-])ccc5F)c5ccc([nH]5)c(-c5cc(S(=O)(=O)[O-])ccc5F)c5nc(c(-c6cc(S(=O)(=O)[O-])ccc6F)c6ccc3[nH]6)C=C5)C=C4)cc2)c2c1CC[C@@H]([NH2+]Cc1nc(C)cc(=O)[nH]1)C2
REMARK SMILES IDX 13 1 12 2 11 3 10 4 9 5 7 6 8 7 6 8 4 9 5 10 85 11 84 12
REMARK SMILES IDX 86 13 99 14 87 15 88 16 3 17 2 18 1 19 89 20 90 23 91 24
REMARK SMILES IDX 92 25 98 26 93 27 96 28 94 30 95 31 97 32 14 33 15 34 16 35
REMARK SMILES IDX 17 36 18 37 19 38 20 39 21 40 22 41 83 42 23 43 82 44 24 45
REMARK SMILES IDX 25 46 26 47 76 48 27 49 81 50 75 51 77 52 28 53 80 54 74 55
REMARK SMILES IDX 73 56 29 58 61 59 41 60 60 61 42 62 45 63 59 64 78 65 43 66
REMARK SMILES IDX 44 67 58 69 79 70 46 71 30 72 31 73 39 74 32 75 38 76 40 77
REMARK SMILES IDX 37 78 33 79 34 80 35 81 36 82 62 83 63 84 71 85 64 86 70 87
REMARK SMILES IDX 72 88 69 89 65 90 66 91 67 92 68 93 47 94 48 95 56 96 49 97
REMARK SMILES IDX 55 98 57 99 54 100 50 101 51 102 52 103 53 104
REMARK H PARENT 89 21 89 22 98 29 77 57 45 68
REMARK Flexibility Score: inf
ROOT
ATOM      1  C   UNL     1      -0.471  -6.265  -3.032  1.00  0.00     0.188 C 
ENDROOT
BRANCH   1   2
ATOM      2  O   UNL     1      -0.899  -7.589  -3.334  1.00  0.00    -0.376 OA
BRANCH   2   3
ATOM      3  C   UNL     1      -1.969  -7.795  -4.243  1.00  0.00     0.202 C 
BRANCH   3   4
ATOM      4  C   UNL     1      -3.326  -7.121  -3.967  1.00  0.00     0.261 C 
BRANCH   4   5
ATOM      5  O   UNL     1      -3.269  -5.704  -3.735  1.00  0.00    -0.458 OA
BRANCH   5   6
ATOM      6  C   UNL     1      -3.474  -5.281  -2.451  1.00  0.00     0.359 C 
ATOM      7  O   UNL     1      -3.863  -6.022  -1.546  1.00  0.00    -0.244 OA
BRANCH   6   8
ATOM      8  C   UNL     1      -3.097  -3.866  -2.245  1.00  0.00     0.174 A 
ATOM      9  N   UNL     1      -2.339  -2.132  -1.226  1.00  0.00    -0.265 N 
ATOM     10  N   UNL     1      -2.682  -3.425  -1.035  1.00  0.00    -0.165 NA
ATOM     11  C   UNL     1      -2.683  -1.687  -2.466  1.00  0.00     0.043 A 
ATOM     12  C   UNL     1      -3.039  -2.802  -3.196  1.00  0.00     0.014 A 
ATOM     13  C   UNL     1      -2.619  -0.293  -2.977  1.00  0.00     0.062 C 
ATOM     14  C   UNL     1      -3.327  -2.749  -4.661  1.00  0.00     0.105 C 
ATOM     15  C   UNL     1      -3.403  -0.223  -4.306  1.00  0.00     0.072 C 
ATOM     16  C   UNL     1      -2.992  -1.353  -5.287  1.00  0.00     0.187 C 
BRANCH   9  17
ATOM     17  C   UNL     1      -1.716  -1.378  -0.141  1.00  0.00     0.171 C 
BRANCH  17  18
ATOM     18  C   UNL     1      -0.212  -1.376  -0.217  1.00  0.00    -0.011 C 
ATOM     19  C   UNL     1       0.556  -0.277  -0.219  1.00  0.00     0.006 C 
ENDBRANCH  17  18
ENDBRANCH   9  17
BRANCH  16  20
ATOM     20  N   UNL     1      -1.568  -1.210  -5.622  1.00  0.00    -0.337 N 
ATOM     21  H   UNL     1      -1.228  -2.107  -5.969  1.00  0.00     0.346 HD
ATOM     22  H   UNL     1      -1.092  -0.914  -4.771  1.00  0.00     0.346 HD
BRANCH  20  23
ATOM     23  C   UNL     1      -1.298  -0.191  -6.637  1.00  0.00     0.337 C 
BRANCH  23  24
ATOM     24  C   UNL     1       0.200   0.086  -6.776  1.00  0.00     0.164 A 
ATOM     25  N   UNL     1       1.042  -0.132  -5.816  1.00  0.00    -0.234 NA
ATOM     26  N   UNL     1       0.571   0.638  -7.975  1.00  0.00    -0.306 N 
ATOM     27  C   UNL     1       2.366   0.158  -6.047  1.00  0.00     0.045 A 
ATOM     28  C   UNL     1       1.854   1.013  -8.238  1.00  0.00     0.251 A 
ATOM     29  H   UNL     1      -0.114   0.767  -8.671  1.00  0.00     0.171 HD
ATOM     30  C   UNL     1       3.320  -0.190  -4.939  1.00  0.00     0.067 C 
ATOM     31  C   UNL     1       2.824   0.710  -7.180  1.00  0.00     0.095 A 
ATOM     32  O   UNL     1       2.170   1.581  -9.276  1.00  0.00    -0.270 OA
ENDBRANCH  23  24
ENDBRANCH  20  23
ENDBRANCH  16  20
ENDBRANCH   6   8
ENDBRANCH   5   6
ENDBRANCH   4   5
ENDBRANCH   3   4
ENDBRANCH   2   3
ENDBRANCH   1   2
BRANCH   1  33
ATOM     33  C   UNL     1      -0.410  -5.176  -4.130  1.00  0.00     0.188 C 
BRANCH  33  34
ATOM     34  O   UNL     1      -0.958  -5.543  -5.392  1.00  0.00    -0.376 OA
BRANCH  34  35
ATOM     35  C   UNL     1      -0.076  -5.509  -6.511  1.00  0.00     0.202 C 
BRANCH  35  36
ATOM     36  C   UNL     1       0.985  -6.609  -6.563  1.00  0.00     0.261 C 
BRANCH  36  37
ATOM     37  O   UNL     1       1.613  -6.844  -5.316  1.00  0.00    -0.460 OA
BRANCH  37  38
ATOM     38  C   UNL     1       2.440  -5.874  -4.895  1.00  0.00     0.338 C 
ATOM     39  O   UNL     1       2.622  -4.780  -5.432  1.00  0.00    -0.246 OA
BRANCH  38  40
ATOM     40  C   UNL     1       3.123  -6.340  -3.690  1.00  0.00     0.060 A 
ATOM     41  C   UNL     1       3.957  -5.424  -3.047  1.00  0.00     0.016 A 
ATOM     42  C   UNL     1       3.222  -7.725  -3.494  1.00  0.00     0.016 A 
ATOM     43  C   UNL     1       5.111  -5.909  -2.488  1.00  0.00     0.010 A 
ATOM     44  C   UNL     1       4.394  -8.204  -2.982  1.00  0.00     0.010 A 
ATOM     45  C   UNL     1       5.362  -7.277  -2.607  1.00  0.00    -0.014 A 
BRANCH  45  46
ATOM     46  C   UNL     1       6.726  -7.723  -2.471  1.00  0.00     0.031 A 
ATOM     47  C   UNL     1       7.096  -8.106  -1.102  1.00  0.00     0.074 A 
ATOM     48  C   UNL     1       7.498  -7.885  -3.562  1.00  0.00     0.049 A 
ATOM     49  N   UNL     1       7.899  -7.492  -0.303  1.00  0.00    -0.248 NA
ATOM     50  C   UNL     1       6.323  -9.187  -0.473  1.00  0.00     0.031 C 
ATOM     51  C   UNL     1       7.094  -7.843  -4.972  1.00  0.00     0.029 A 
ATOM     52  N   UNL     1       8.795  -8.270  -3.627  1.00  0.00    -0.354 N 
ATOM     53  C   UNL     1       7.894  -8.243   0.865  1.00  0.00     0.074 A 
ATOM     54  C   UNL     1       6.734  -9.084   0.788  1.00  0.00     0.031 C 
ATOM     55  C   UNL     1       8.052  -8.440  -5.718  1.00  0.00     0.029 A 
ATOM     56  C   UNL     1       9.166  -8.801  -4.854  1.00  0.00     0.049 A 
ATOM     57  H   UNL     1       9.419  -8.181  -2.871  1.00  0.00     0.167 HD
ATOM     58  C   UNL     1       8.983  -8.298   1.677  1.00  0.00     0.034 A 
ATOM     59  C   UNL     1      10.242  -9.600  -5.082  1.00  0.00     0.034 A 
ATOM     60  C   UNL     1       9.919  -7.244   1.349  1.00  0.00     0.049 A 
ATOM     61  C   UNL     1      11.181  -9.388  -3.941  1.00  0.00     0.074 A 
ATOM     62  C   UNL     1       9.844  -5.864   1.331  1.00  0.00     0.029 A 
ATOM     63  N   UNL     1      11.024  -7.569   0.589  1.00  0.00    -0.354 N 
ATOM     64  N   UNL     1      11.771  -8.247  -3.694  1.00  0.00    -0.248 NA
ATOM     65  C   UNL     1      11.070 -10.277  -2.789  1.00  0.00     0.031 C 
ATOM     66  C   UNL     1      10.593  -5.468   0.186  1.00  0.00     0.029 A 
ATOM     67  C   UNL     1      11.144  -6.615  -0.394  1.00  0.00     0.049 A 
ATOM     68  H   UNL     1      11.617  -8.342   0.724  1.00  0.00     0.167 HD
ATOM     69  C   UNL     1      11.720  -8.097  -2.313  1.00  0.00     0.074 A 
ATOM     70  C   UNL     1      11.365  -9.421  -1.804  1.00  0.00     0.031 C 
ATOM     71  C   UNL     1      11.674  -6.863  -1.724  1.00  0.00     0.034 A 
BRANCH  58  72
ATOM     72  C   UNL     1       9.370  -9.493   2.519  1.00  0.00     0.023 A 
ATOM     73  C   UNL     1      10.552  -9.373   3.271  1.00  0.00     0.031 A 
ATOM     74  C   UNL     1       8.826 -10.797   2.443  1.00  0.00     0.131 A 
ATOM     75  C   UNL     1      11.194 -10.506   3.796  1.00  0.00     0.055 A 
ATOM     76  C   UNL     1       9.429 -11.911   3.033  1.00  0.00     0.041 A 
ATOM     77  F   UNL     1       7.740 -11.101   1.726  1.00  0.00    -0.206 F 
ATOM     78  C   UNL     1      10.640 -11.776   3.683  1.00  0.00     0.022 A 
BRANCH  75  79
ATOM     79  S   UNL     1      12.864 -10.304   4.459  1.00  0.00     0.124 S 
ATOM     80  O   UNL     1      13.530  -9.594   3.373  1.00  0.00    -0.237 OA
ATOM     81  O   UNL     1      12.611  -9.537   5.674  1.00  0.00    -0.237 OA
ATOM     82  O   UNL     1      13.310 -11.679   4.670  1.00  0.00    -0.744 OA
ENDBRANCH  75  79
ENDBRANCH  58  72
BRANCH  59  83
ATOM     83  C   UNL     1      10.259 -10.784  -5.992  1.00  0.00     0.023 A 
ATOM     84  C   UNL     1      11.448 -11.361  -6.483  1.00  0.00     0.031 A 
ATOM     85  C   UNL     1       9.064 -11.502  -6.247  1.00  0.00     0.131 A 
ATOM     86  C   UNL     1      11.405 -12.577  -7.209  1.00  0.00     0.055 A 
ATOM     87  C   UNL     1       9.024 -12.688  -6.981  1.00  0.00     0.041 A 
ATOM     88  F   UNL     1       7.891 -11.116  -5.721  1.00  0.00    -0.206 F 
ATOM     89  C   UNL     1      10.199 -13.236  -7.463  1.00  0.00     0.022 A 
BRANCH  86  90
ATOM     90  S   UNL     1      12.944 -13.378  -7.764  1.00  0.00     0.124 S 
ATOM     91  O   UNL     1      13.414 -12.463  -8.798  1.00  0.00    -0.237 OA
ATOM     92  O   UNL     1      13.730 -13.429  -6.537  1.00  0.00    -0.237 OA
ATOM     93  O   UNL     1      12.494 -14.681  -8.256  1.00  0.00    -0.744 OA
ENDBRANCH  86  90
ENDBRANCH  59  83
BRANCH  71  94
ATOM     94  C   UNL     1      11.959  -5.635  -2.566  1.00  0.00     0.023 A 
ATOM     95  C   UNL     1      11.207  -5.244  -3.696  1.00  0.00     0.031 A 
ATOM     96  C   UNL     1      12.924  -4.733  -2.081  1.00  0.00     0.131 A 
ATOM     97  C   UNL     1      11.433  -3.985  -4.291  1.00  0.00     0.055 A 
ATOM     98  C   UNL     1      13.131  -3.482  -2.660  1.00  0.00     0.041 A 
ATOM     99  F   UNL     1      13.649  -5.034  -0.990  1.00  0.00    -0.206 F 
ATOM    100  C   UNL     1      12.386  -3.103  -3.770  1.00  0.00     0.022 A 
BRANCH  97 101
ATOM    101  S   UNL     1      10.480  -3.464  -5.755  1.00  0.00     0.124 S 
ATOM    102  O   UNL     1      10.577  -4.611  -6.650  1.00  0.00    -0.237 OA
ATOM    103  O   UNL     1       9.159  -3.196  -5.193  1.00  0.00    -0.237 OA
ATOM    104  O   UNL     1      11.193  -2.271  -6.217  1.00  0.00    -0.744 OA
ENDBRANCH  97 101
ENDBRANCH  71  94
ENDBRANCH  45  46
ENDBRANCH  38  40
ENDBRANCH  37  38
ENDBRANCH  36  37
ENDBRANCH  35  36
ENDBRANCH  34  35
ENDBRANCH  33  34
ENDBRANCH   1  33
TORSDOF 25
