REMARK SMILES O=C(/C=N\OCc1ccccc1)OCCOCCOCCOC(=O)c1ccc(-c2c3nc(c(-c4cc(S(=O)(=O)[O-])ccc4F)c4ccc([nH]4)c(-c4cc(S(=O)(=O)[O-])ccc4F)c4nc(c(-c5cc(S(=O)(=O)[O-])ccc5F)c5ccc2[nH]5)C=C4)C=C3)cc1
REMARK SMILES IDX 17 1 16 2 15 3 14 4 13 5 2 6 1 7 3 8 4 9 5 10 6 11 7 12 8 13
REMARK SMILES IDX 12 14 9 15 11 16 10 17 18 18 19 19 20 20 21 21 22 22 23 23
REMARK SMILES IDX 24 24 25 25 26 26 87 27 27 28 86 29 28 30 29 31 30 32 80 33
REMARK SMILES IDX 31 34 85 35 79 36 81 37 32 38 84 39 78 40 77 41 33 43 65 44
REMARK SMILES IDX 45 45 64 46 46 47 49 48 63 49 82 50 47 51 48 52 62 54 83 55
REMARK SMILES IDX 50 56 34 57 35 58 43 59 36 60 42 61 44 62 41 63 37 64 38 65
REMARK SMILES IDX 39 66 40 67 66 68 67 69 75 70 68 71 74 72 76 73 73 74 69 75
REMARK SMILES IDX 70 76 71 77 72 78 51 79 52 80 60 81 53 82 59 83 61 84 58 85
REMARK SMILES IDX 54 86 55 87 56 88 57 89
REMARK H PARENT 81 42 49 53
REMARK Flexibility Score: inf
ROOT
ATOM      1  C   UNL     1       2.675   0.118  -1.683  1.00  0.00     0.188 C 
ENDROOT
BRANCH   1   2
ATOM      2  O   UNL     1       4.061   0.003  -1.394  1.00  0.00    -0.376 OA
BRANCH   2   3
ATOM      3  C   UNL     1       4.559  -1.189  -0.812  1.00  0.00     0.202 C 
BRANCH   3   4
ATOM      4  C   UNL     1       4.052  -1.581   0.575  1.00  0.00     0.261 C 
BRANCH   4   5
ATOM      5  O   UNL     1       2.929  -0.833   1.034  1.00  0.00    -0.459 OA
BRANCH   5   6
ATOM      6  C   UNL     1       3.208   0.100   1.960  1.00  0.00     0.352 C 
ATOM      7  O   UNL     1       2.830   0.048   3.119  1.00  0.00    -0.245 OA
BRANCH   6   8
ATOM      8  C   UNL     1       3.672   1.415   1.379  1.00  0.00     0.247 C 
ATOM      9  N   UNL     1       4.889   1.769   1.102  1.00  0.00    -0.087 NA
BRANCH   9  10
ATOM     10  O   UNL     1       5.809   0.725   1.261  1.00  0.00    -0.391 OA
BRANCH  10  11
ATOM     11  C   UNL     1       7.116   1.155   0.842  1.00  0.00     0.299 C 
BRANCH  11  12
ATOM     12  C   UNL     1       7.259   1.471  -0.636  1.00  0.00    -0.008 A 
ATOM     13  C   UNL     1       7.888   0.580  -1.520  1.00  0.00     0.007 A 
ATOM     14  C   UNL     1       6.784   2.689  -1.145  1.00  0.00     0.007 A 
ATOM     15  C   UNL     1       8.043   0.907  -2.871  1.00  0.00     0.000 A 
ATOM     16  C   UNL     1       6.936   3.014  -2.494  1.00  0.00     0.000 A 
ATOM     17  C   UNL     1       7.571   2.126  -3.356  1.00  0.00     0.000 A 
ENDBRANCH  11  12
ENDBRANCH  10  11
ENDBRANCH   9  10
ENDBRANCH   6   8
ENDBRANCH   5   6
ENDBRANCH   4   5
ENDBRANCH   3   4
ENDBRANCH   2   3
ENDBRANCH   1   2
BRANCH   1  18
ATOM     18  C   UNL     1       2.007  -0.960  -2.547  1.00  0.00     0.188 C 
BRANCH  18  19
ATOM     19  O   UNL     1       2.869  -2.009  -2.957  1.00  0.00    -0.376 OA
BRANCH  19  20
ATOM     20  C   UNL     1       3.357  -1.915  -4.293  1.00  0.00     0.202 C 
BRANCH  20  21
ATOM     21  C   UNL     1       4.312  -0.751  -4.607  1.00  0.00     0.261 C 
BRANCH  21  22
ATOM     22  O   UNL     1       3.786   0.574  -4.416  1.00  0.00    -0.460 OA
BRANCH  22  23
ATOM     23  C   UNL     1       2.799   0.979  -5.237  1.00  0.00     0.338 C 
ATOM     24  O   UNL     1       2.247   0.316  -6.104  1.00  0.00    -0.246 OA
BRANCH  23  25
ATOM     25  C   UNL     1       2.418   2.352  -4.855  1.00  0.00     0.060 A 
ATOM     26  C   UNL     1       1.187   2.579  -4.228  1.00  0.00     0.016 A 
ATOM     27  C   UNL     1       3.265   3.421  -5.159  1.00  0.00     0.016 A 
ATOM     28  C   UNL     1       0.786   3.887  -3.934  1.00  0.00     0.010 A 
ATOM     29  C   UNL     1       2.855   4.728  -4.876  1.00  0.00     0.010 A 
ATOM     30  C   UNL     1       1.599   4.973  -4.291  1.00  0.00    -0.014 A 
BRANCH  30  31
ATOM     31  C   UNL     1       1.065   6.360  -4.226  1.00  0.00     0.031 A 
ATOM     32  C   UNL     1       0.527   6.982  -5.488  1.00  0.00     0.074 A 
ATOM     33  C   UNL     1       1.040   7.053  -3.072  1.00  0.00     0.049 A 
ATOM     34  N   UNL     1       0.065   8.189  -5.692  1.00  0.00    -0.248 NA
ATOM     35  C   UNL     1       0.513   6.122  -6.682  1.00  0.00     0.031 C 
ATOM     36  C   UNL     1       1.486   6.549  -1.775  1.00  0.00     0.029 A 
ATOM     37  N   UNL     1       0.625   8.336  -2.809  1.00  0.00    -0.354 N 
ATOM     38  C   UNL     1      -0.292   8.236  -7.037  1.00  0.00     0.074 A 
ATOM     39  C   UNL     1       0.043   6.947  -7.604  1.00  0.00     0.031 C 
ATOM     40  C   UNL     1       1.331   7.518  -0.855  1.00  0.00     0.029 A 
ATOM     41  C   UNL     1       0.814   8.723  -1.502  1.00  0.00     0.049 A 
ATOM     42  H   UNL     1       0.230   8.925  -3.492  1.00  0.00     0.167 HD
ATOM     43  C   UNL     1      -0.854   9.256  -7.732  1.00  0.00     0.034 A 
ATOM     44  C   UNL     1       0.618   9.918  -0.904  1.00  0.00     0.034 A 
ATOM     45  C   UNL     1      -1.169  10.542  -7.160  1.00  0.00     0.049 A 
ATOM     46  C   UNL     1       0.079  11.071  -1.722  1.00  0.00     0.074 A 
ATOM     47  C   UNL     1      -1.746  11.641  -7.775  1.00  0.00     0.029 A 
ATOM     48  N   UNL     1      -0.922  10.910  -5.844  1.00  0.00    -0.354 N 
ATOM     49  N   UNL     1      -0.259  11.101  -2.991  1.00  0.00    -0.248 NA
ATOM     50  C   UNL     1      -0.111  12.350  -1.023  1.00  0.00     0.031 C 
ATOM     51  C   UNL     1      -1.779  12.693  -6.853  1.00  0.00     0.029 A 
ATOM     52  C   UNL     1      -1.302  12.228  -5.638  1.00  0.00     0.049 A 
ATOM     53  H   UNL     1      -0.533  10.322  -5.157  1.00  0.00     0.167 HD
ATOM     54  C   UNL     1      -0.735  12.389  -3.229  1.00  0.00     0.074 A 
ATOM     55  C   UNL     1      -0.649  13.102  -1.972  1.00  0.00     0.031 C 
ATOM     56  C   UNL     1      -1.208  12.932  -4.380  1.00  0.00     0.034 A 
BRANCH  43  57
ATOM     57  C   UNL     1      -1.109   9.033  -9.204  1.00  0.00     0.023 A 
ATOM     58  C   UNL     1      -2.027   8.070  -9.660  1.00  0.00     0.031 A 
ATOM     59  C   UNL     1      -0.403   9.777 -10.166  1.00  0.00     0.131 A 
ATOM     60  C   UNL     1      -2.164   7.831 -11.036  1.00  0.00     0.055 A 
ATOM     61  C   UNL     1      -0.603   9.589 -11.534  1.00  0.00     0.041 A 
ATOM     62  F   UNL     1       0.503  10.694  -9.790  1.00  0.00    -0.206 F 
ATOM     63  C   UNL     1      -1.477   8.602 -11.977  1.00  0.00     0.022 A 
BRANCH  60  64
ATOM     64  S   UNL     1      -3.150   6.407 -11.576  1.00  0.00     0.124 S 
ATOM     65  O   UNL     1      -2.458   5.302 -10.916  1.00  0.00    -0.237 OA
ATOM     66  O   UNL     1      -4.476   6.728 -11.064  1.00  0.00    -0.237 OA
ATOM     67  O   UNL     1      -3.019   6.432 -13.032  1.00  0.00    -0.744 OA
ENDBRANCH  60  64
ENDBRANCH  43  57
BRANCH  44  68
ATOM     68  C   UNL     1       0.974  10.117   0.532  1.00  0.00     0.023 A 
ATOM     69  C   UNL     1       0.000  10.457   1.486  1.00  0.00     0.031 A 
ATOM     70  C   UNL     1       2.312  10.039   0.959  1.00  0.00     0.131 A 
ATOM     71  C   UNL     1       0.384  10.755   2.804  1.00  0.00     0.055 A 
ATOM     72  C   UNL     1       2.682  10.280   2.284  1.00  0.00     0.041 A 
ATOM     73  F   UNL     1       3.285   9.725   0.089  1.00  0.00    -0.206 F 
ATOM     74  C   UNL     1       1.716  10.655   3.212  1.00  0.00     0.022 A 
BRANCH  71  75
ATOM     75  S   UNL     1      -0.873  11.372   3.958  1.00  0.00     0.124 S 
ATOM     76  O   UNL     1      -1.353  12.562   3.265  1.00  0.00    -0.237 OA
ATOM     77  O   UNL     1      -1.801  10.248   4.023  1.00  0.00    -0.237 OA
ATOM     78  O   UNL     1      -0.116  11.625   5.182  1.00  0.00    -0.744 OA
ENDBRANCH  71  75
ENDBRANCH  44  68
BRANCH  56  79
ATOM     79  C   UNL     1      -1.725  14.350  -4.317  1.00  0.00     0.023 A 
ATOM     80  C   UNL     1      -0.875  15.444  -4.075  1.00  0.00     0.031 A 
ATOM     81  C   UNL     1      -3.095  14.608  -4.503  1.00  0.00     0.131 A 
ATOM     82  C   UNL     1      -1.412  16.738  -3.974  1.00  0.00     0.055 A 
ATOM     83  C   UNL     1      -3.614  15.903  -4.461  1.00  0.00     0.041 A 
ATOM     84  F   UNL     1      -3.954  13.602  -4.737  1.00  0.00    -0.206 F 
ATOM     85  C   UNL     1      -2.773  16.975  -4.182  1.00  0.00     0.022 A 
BRANCH  82  86
ATOM     86  S   UNL     1      -0.321  18.100  -3.479  1.00  0.00     0.124 S 
ATOM     87  O   UNL     1       0.173  17.640  -2.186  1.00  0.00    -0.237 OA
ATOM     88  O   UNL     1       0.656  18.127  -4.562  1.00  0.00    -0.237 OA
ATOM     89  O   UNL     1      -1.216  19.255  -3.426  1.00  0.00    -0.744 OA
ENDBRANCH  82  86
ENDBRANCH  56  79
ENDBRANCH  30  31
ENDBRANCH  23  25
ENDBRANCH  22  23
ENDBRANCH  21  22
ENDBRANCH  20  21
ENDBRANCH  19  20
ENDBRANCH  18  19
ENDBRANCH   1  18
TORSDOF 23
