REMARK SMILES O=C(OCCOCCOCCOC(=O)c1ccc(-c2c3nc(c(-c4cc(S(=O)(=O)[O-])ccc4F)c4ccc([nH]4)c(-c4cc(S(=O)(=O)[O-])ccc4F)c4nc(c(-c5cc(S(=O)(=O)[O-])ccc5F)c5ccc2[nH]5)C=C4)C=C3)cc1)C1=Cc2cc(Cl)ccc2O[C@@H]1C(F)(F)F
REMARK SMILES IDX 8 1 7 2 6 3 5 4 4 5 3 6 2 7 1 8 78 9 79 10 88 11 80 12 87 13
REMARK SMILES IDX 81 14 86 15 82 16 85 17 83 18 84 19 89 20 90 21 91 22 92 23
REMARK SMILES IDX 9 24 10 25 11 26 12 27 13 28 14 29 15 30 16 31 77 32 17 33
REMARK SMILES IDX 76 34 18 35 19 36 20 37 70 38 21 39 75 40 69 41 71 42 22 43
REMARK SMILES IDX 74 44 68 45 67 46 23 48 55 49 35 50 54 51 36 52 39 53 53 54
REMARK SMILES IDX 72 55 37 56 38 57 52 59 73 60 40 61 24 62 25 63 33 64 26 65
REMARK SMILES IDX 32 66 34 67 31 68 27 69 28 70 29 71 30 72 56 73 57 74 65 75
REMARK SMILES IDX 58 76 64 77 66 78 63 79 59 80 60 81 61 82 62 83 41 84 42 85
REMARK SMILES IDX 50 86 43 87 49 88 51 89 48 90 44 91 45 92 46 93 47 94
REMARK H PARENT 71 47 39 58
REMARK Flexibility Score: inf
ROOT
ATOM      1  C   UNL     1       1.318   2.677  -2.428  1.00  0.00     0.188 C 
ENDROOT
BRANCH   1   2
ATOM      2  C   UNL     1       1.485   1.808  -1.184  1.00  0.00     0.188 C 
BRANCH   2   3
ATOM      3  O   UNL     1       2.825   1.790  -0.703  1.00  0.00    -0.376 OA
BRANCH   3   4
ATOM      4  C   UNL     1       3.663   0.793  -1.292  1.00  0.00     0.202 C 
BRANCH   4   5
ATOM      5  C   UNL     1       3.242  -0.642  -0.950  1.00  0.00     0.261 C 
BRANCH   5   6
ATOM      6  O   UNL     1       2.506  -0.660   0.289  1.00  0.00    -0.460 OA
BRANCH   6   7
ATOM      7  C   UNL     1       2.937  -1.528   1.223  1.00  0.00     0.338 C 
ATOM      8  O   UNL     1       2.536  -2.680   1.298  1.00  0.00    -0.246 OA
BRANCH   7   9
ATOM      9  C   UNL     1       3.893  -0.918   2.188  1.00  0.00     0.087 C 
ATOM     10  C   UNL     1       4.906  -1.751   2.505  1.00  0.00     0.027 C 
ATOM     11  C   UNL     1       4.195   0.563   2.058  1.00  0.00     0.316 C 
ATOM     12  C   UNL     1       6.018  -1.543   1.552  1.00  0.00     0.019 A 
ATOM     13  O   UNL     1       5.488   0.827   1.425  1.00  0.00    -0.475 OA
ATOM     14  C   UNL     1       6.810  -2.612   1.131  1.00  0.00     0.032 A 
ATOM     15  C   UNL     1       6.226  -0.260   1.027  1.00  0.00     0.128 A 
ATOM     16  C   UNL     1       7.775  -2.400   0.147  1.00  0.00     0.041 A 
ATOM     17  C   UNL     1       7.188  -0.056   0.040  1.00  0.00     0.048 A 
ATOM     18  Cl  UNL     1       8.745  -3.713  -0.395  1.00  0.00    -0.084 Cl
ATOM     19  C   UNL     1       7.952  -1.133  -0.416  1.00  0.00     0.024 A 
BRANCH  11  20
ATOM     20  C   UNL     1       4.072   1.315   3.384  1.00  0.00     0.430 C 
ATOM     21  F   UNL     1       4.133   2.654   3.192  1.00  0.00    -0.167 F 
ATOM     22  F   UNL     1       2.888   1.053   3.985  1.00  0.00    -0.167 F 
ATOM     23  F   UNL     1       5.056   0.978   4.247  1.00  0.00    -0.167 F 
ENDBRANCH  11  20
ENDBRANCH   7   9
ENDBRANCH   6   7
ENDBRANCH   5   6
ENDBRANCH   4   5
ENDBRANCH   3   4
ENDBRANCH   2   3
ENDBRANCH   1   2
BRANCH   1  24
ATOM     24  O   UNL     1       2.398   2.498  -3.343  1.00  0.00    -0.376 OA
BRANCH  24  25
ATOM     25  C   UNL     1       3.096   3.711  -3.642  1.00  0.00     0.202 C 
BRANCH  25  26
ATOM     26  C   UNL     1       4.101   4.194  -2.575  1.00  0.00     0.261 C 
BRANCH  26  27
ATOM     27  O   UNL     1       3.590   4.418  -1.248  1.00  0.00    -0.460 OA
BRANCH  27  28
ATOM     28  C   UNL     1       2.765   5.474  -1.081  1.00  0.00     0.338 C 
ATOM     29  O   UNL     1       2.373   6.229  -1.950  1.00  0.00    -0.246 OA
BRANCH  28  30
ATOM     30  C   UNL     1       2.325   5.526   0.332  1.00  0.00     0.060 A 
ATOM     31  C   UNL     1       1.007   5.182   0.646  1.00  0.00     0.016 A 
ATOM     32  C   UNL     1       3.178   6.020   1.323  1.00  0.00     0.016 A 
ATOM     33  C   UNL     1       0.526   5.371   1.946  1.00  0.00     0.010 A 
ATOM     34  C   UNL     1       2.689   6.220   2.624  1.00  0.00     0.010 A 
ATOM     35  C   UNL     1       1.348   5.934   2.934  1.00  0.00    -0.014 A 
BRANCH  35  36
ATOM     36  C   UNL     1       0.729   6.404   4.205  1.00  0.00     0.031 A 
ATOM     37  C   UNL     1       0.256   7.833   4.289  1.00  0.00     0.074 A 
ATOM     38  C   UNL     1       0.517   5.570   5.240  1.00  0.00     0.049 A 
ATOM     39  N   UNL     1      -0.391   8.444   5.249  1.00  0.00    -0.248 NA
ATOM     40  C   UNL     1       0.549   8.684   3.125  1.00  0.00     0.031 C 
ATOM     41  C   UNL     1       0.904   4.161   5.283  1.00  0.00     0.029 A 
ATOM     42  N   UNL     1      -0.084   5.790   6.457  1.00  0.00    -0.354 N 
ATOM     43  C   UNL     1      -0.615   9.739   4.792  1.00  0.00     0.074 A 
ATOM     44  C   UNL     1       0.022   9.841   3.496  1.00  0.00     0.031 C 
ATOM     45  C   UNL     1       0.535   3.644   6.470  1.00  0.00     0.029 A 
ATOM     46  C   UNL     1      -0.098   4.686   7.279  1.00  0.00     0.049 A 
ATOM     47  H   UNL     1      -0.470   6.658   6.716  1.00  0.00     0.167 HD
ATOM     48  C   UNL     1      -1.306  10.746   5.383  1.00  0.00     0.034 A 
ATOM     49  C   UNL     1      -0.558   4.537   8.540  1.00  0.00     0.034 A 
ATOM     50  C   UNL     1      -1.896  10.658   6.697  1.00  0.00     0.049 A 
ATOM     51  C   UNL     1      -1.237   5.706   9.222  1.00  0.00     0.074 A 
ATOM     52  C   UNL     1      -2.592  11.629   7.398  1.00  0.00     0.029 A 
ATOM     53  N   UNL     1      -1.846   9.540   7.519  1.00  0.00    -0.354 N 
ATOM     54  N   UNL     1      -1.469   6.915   8.763  1.00  0.00    -0.248 NA
ATOM     55  C   UNL     1      -1.737   5.479  10.585  1.00  0.00     0.031 C 
ATOM     56  C   UNL     1      -2.902  11.121   8.665  1.00  0.00     0.029 A 
ATOM     57  C   UNL     1      -2.473   9.805   8.727  1.00  0.00     0.049 A 
ATOM     58  H   UNL     1      -1.425   8.682   7.278  1.00  0.00     0.167 HD
ATOM     59  C   UNL     1      -2.170   7.577   9.771  1.00  0.00     0.074 A 
ATOM     60  C   UNL     1      -2.343   6.626  10.848  1.00  0.00     0.031 C 
ATOM     61  C   UNL     1      -2.631   8.855   9.804  1.00  0.00     0.034 A 
BRANCH  48  62
ATOM     62  C   UNL     1      -1.422  12.041   4.615  1.00  0.00     0.023 A 
ATOM     63  C   UNL     1      -2.119  12.109   3.395  1.00  0.00     0.031 A 
ATOM     64  C   UNL     1      -0.807  13.213   5.088  1.00  0.00     0.131 A 
ATOM     65  C   UNL     1      -2.126  13.302   2.657  1.00  0.00     0.055 A 
ATOM     66  C   UNL     1      -0.883  14.418   4.386  1.00  0.00     0.041 A 
ATOM     67  F   UNL     1      -0.109  13.205   6.234  1.00  0.00    -0.206 F 
ATOM     68  C   UNL     1      -1.534  14.464   3.156  1.00  0.00     0.022 A 
BRANCH  65  69
ATOM     69  S   UNL     1      -2.803  13.278   0.974  1.00  0.00     0.124 S 
ATOM     70  O   UNL     1      -1.953  12.281   0.328  1.00  0.00    -0.237 OA
ATOM     71  O   UNL     1      -4.190  12.888   1.196  1.00  0.00    -0.237 OA
ATOM     72  O   UNL     1      -2.607  14.649   0.506  1.00  0.00    -0.744 OA
ENDBRANCH  65  69
ENDBRANCH  48  62
BRANCH  49  73
ATOM     73  C   UNL     1      -0.364   3.251   9.274  1.00  0.00     0.023 A 
ATOM     74  C   UNL     1      -1.454   2.493   9.735  1.00  0.00     0.031 A 
ATOM     75  C   UNL     1       0.930   2.809   9.608  1.00  0.00     0.131 A 
ATOM     76  C   UNL     1      -1.232   1.371  10.552  1.00  0.00     0.055 A 
ATOM     77  C   UNL     1       1.146   1.659  10.369  1.00  0.00     0.041 A 
ATOM     78  F   UNL     1       2.008   3.498   9.202  1.00  0.00    -0.206 F 
ATOM     79  C   UNL     1       0.060   0.942  10.861  1.00  0.00     0.022 A 
BRANCH  76  80
ATOM     80  S   UNL     1      -2.663   0.544  11.304  1.00  0.00     0.124 S 
ATOM     81  O   UNL     1      -3.294   1.641  12.028  1.00  0.00    -0.237 OA
ATOM     82  O   UNL     1      -3.379   0.052  10.131  1.00  0.00    -0.237 OA
ATOM     83  O   UNL     1      -2.057  -0.490  12.140  1.00  0.00    -0.744 OA
ENDBRANCH  76  80
ENDBRANCH  49  73
BRANCH  61  84
ATOM     84  C   UNL     1      -3.408   9.278  11.031  1.00  0.00     0.023 A 
ATOM     85  C   UNL     1      -2.811   9.341  12.304  1.00  0.00     0.031 A 
ATOM     86  C   UNL     1      -4.774   9.598  10.930  1.00  0.00     0.131 A 
ATOM     87  C   UNL     1      -3.592   9.643  13.431  1.00  0.00     0.055 A 
ATOM     88  C   UNL     1      -5.530   9.965  12.045  1.00  0.00     0.041 A 
ATOM     89  F   UNL     1      -5.400   9.557   9.743  1.00  0.00    -0.206 F 
ATOM     90  C   UNL     1      -4.944   9.972  13.307  1.00  0.00     0.022 A 
BRANCH  87  91
ATOM     91  S   UNL     1      -2.844   9.490  15.077  1.00  0.00     0.124 S 
ATOM     92  O   UNL     1      -2.376   8.108  15.071  1.00  0.00    -0.237 OA
ATOM     93  O   UNL     1      -1.806  10.515  15.044  1.00  0.00    -0.237 OA
ATOM     94  O   UNL     1      -3.955   9.764  15.986  1.00  0.00    -0.744 OA
ENDBRANCH  87  91
ENDBRANCH  61  84
ENDBRANCH  35  36
ENDBRANCH  28  30
ENDBRANCH  27  28
ENDBRANCH  26  27
ENDBRANCH  25  26
ENDBRANCH  24  25
ENDBRANCH   1  24
TORSDOF 21
