REMARK SMILES O=C(OCCOCCOCCOC(=O)c1cn2ccccc2n1)c1ccc(-c2c3nc(c(-c4cc(S(=O)(=O)[O-])ccc4F)c4ccc([nH]4)c(-c4cc(S(=O)(=O)[O-])ccc4F)c4nc(c(-c5cc(S(=O)(=O)[O-])ccc5F)c5ccc2[nH]5)C=C4)C=C3)cc1
REMARK SMILES IDX 6 1 5 2 4 3 3 4 2 5 1 6 24 7 25 8 86 9 26 10 85 11 27 12
REMARK SMILES IDX 28 13 29 14 79 15 30 16 84 17 78 18 80 19 31 20 83 21 77 22
REMARK SMILES IDX 76 23 32 25 64 26 44 27 63 28 45 29 48 30 62 31 81 32 46 33
REMARK SMILES IDX 47 34 61 36 82 37 49 38 33 39 34 40 42 41 35 42 41 43 43 44
REMARK SMILES IDX 40 45 36 46 37 47 38 48 39 49 65 50 66 51 74 52 67 53 73 54
REMARK SMILES IDX 75 55 72 56 68 57 69 58 70 59 71 60 50 61 51 62 59 63 52 64
REMARK SMILES IDX 58 65 60 66 57 67 53 68 54 69 55 70 56 71 7 72 8 73 9 74
REMARK SMILES IDX 10 75 11 76 12 77 13 78 14 79 15 80 16 81 23 82 17 83 22 84
REMARK SMILES IDX 18 85 21 86 19 87 20 88
REMARK H PARENT 80 24 48 35
REMARK Flexibility Score: inf
ROOT
ATOM      1  O   UNL     1       3.927  -0.486   2.446  1.00  0.00    -0.376 OA
ENDROOT
BRANCH   1   2
ATOM      2  C   UNL     1       4.938   0.094   1.611  1.00  0.00     0.202 C 
BRANCH   2   3
ATOM      3  C   UNL     1       4.524   1.299   0.733  1.00  0.00     0.261 C 
BRANCH   3   4
ATOM      4  O   UNL     1       3.160   1.273   0.247  1.00  0.00    -0.460 OA
BRANCH   4   5
ATOM      5  C   UNL     1       2.638   1.029  -0.975  1.00  0.00     0.338 C 
ATOM      6  O   UNL     1       1.526   1.481  -1.244  1.00  0.00    -0.246 OA
BRANCH   5   7
ATOM      7  C   UNL     1       3.307   0.154  -1.980  1.00  0.00     0.060 A 
ATOM      8  C   UNL     1       4.367  -0.695  -1.685  1.00  0.00     0.016 A 
ATOM      9  C   UNL     1       2.779   0.112  -3.280  1.00  0.00     0.016 A 
ATOM     10  C   UNL     1       4.962  -1.494  -2.652  1.00  0.00     0.010 A 
ATOM     11  C   UNL     1       3.334  -0.730  -4.252  1.00  0.00     0.010 A 
ATOM     12  C   UNL     1       4.453  -1.516  -3.945  1.00  0.00    -0.014 A 
BRANCH  12  13
ATOM     13  C   UNL     1       5.193  -2.262  -4.985  1.00  0.00     0.031 A 
ATOM     14  C   UNL     1       5.954  -1.476  -6.010  1.00  0.00     0.074 A 
ATOM     15  C   UNL     1       5.266  -3.606  -4.948  1.00  0.00     0.049 A 
ATOM     16  N   UNL     1       6.581  -1.893  -7.075  1.00  0.00    -0.248 NA
ATOM     17  C   UNL     1       6.035  -0.022  -5.790  1.00  0.00     0.031 C 
ATOM     18  C   UNL     1       4.686  -4.456  -3.907  1.00  0.00     0.029 A 
ATOM     19  N   UNL     1       5.858  -4.496  -5.806  1.00  0.00    -0.354 N 
ATOM     20  C   UNL     1       7.118  -0.754  -7.662  1.00  0.00     0.074 A 
ATOM     21  C   UNL     1       6.727   0.373  -6.847  1.00  0.00     0.031 C 
ATOM     22  C   UNL     1       4.912  -5.745  -4.211  1.00  0.00     0.029 A 
ATOM     23  C   UNL     1       5.596  -5.811  -5.494  1.00  0.00     0.049 A 
ATOM     24  H   UNL     1       6.416  -4.222  -6.569  1.00  0.00     0.167 HD
ATOM     25  C   UNL     1       7.870  -0.670  -8.785  1.00  0.00     0.034 A 
ATOM     26  C   UNL     1       5.817  -6.932  -6.206  1.00  0.00     0.034 A 
ATOM     27  C   UNL     1       8.230  -1.817  -9.577  1.00  0.00     0.049 A 
ATOM     28  C   UNL     1       6.495  -6.797  -7.540  1.00  0.00     0.074 A 
ATOM     29  C   UNL     1       8.975  -1.868 -10.739  1.00  0.00     0.029 A 
ATOM     30  N   UNL     1       7.848  -3.123  -9.290  1.00  0.00    -0.354 N 
ATOM     31  N   UNL     1       6.949  -5.713  -8.124  1.00  0.00    -0.248 NA
ATOM     32  C   UNL     1       6.678  -8.030  -8.313  1.00  0.00     0.031 C 
ATOM     33  C   UNL     1       8.980  -3.191 -11.195  1.00  0.00     0.029 A 
ATOM     34  C   UNL     1       8.299  -3.979 -10.279  1.00  0.00     0.049 A 
ATOM     35  H   UNL     1       7.332  -3.398  -8.498  1.00  0.00     0.167 HD
ATOM     36  C   UNL     1       7.482  -6.134  -9.335  1.00  0.00     0.074 A 
ATOM     37  C   UNL     1       7.303  -7.573  -9.389  1.00  0.00     0.031 C 
ATOM     38  C   UNL     1       8.074  -5.404 -10.312  1.00  0.00     0.034 A 
BRANCH  25  39
ATOM     39  C   UNL     1       8.256   0.710  -9.251  1.00  0.00     0.023 A 
ATOM     40  C   UNL     1       9.131   1.530  -8.517  1.00  0.00     0.031 A 
ATOM     41  C   UNL     1       7.684   1.234 -10.423  1.00  0.00     0.131 A 
ATOM     42  C   UNL     1       9.356   2.853  -8.930  1.00  0.00     0.055 A 
ATOM     43  C   UNL     1       7.968   2.526 -10.866  1.00  0.00     0.041 A 
ATOM     44  F   UNL     1       6.817   0.505 -11.144  1.00  0.00    -0.206 F 
ATOM     45  C   UNL     1       8.798   3.349 -10.111  1.00  0.00     0.022 A 
BRANCH  42  46
ATOM     46  S   UNL     1      10.283   3.962  -7.833  1.00  0.00     0.124 S 
ATOM     47  O   UNL     1       9.437   3.974  -6.642  1.00  0.00    -0.237 OA
ATOM     48  O   UNL     1      11.563   3.277  -7.699  1.00  0.00    -0.237 OA
ATOM     49  O   UNL     1      10.324   5.222  -8.572  1.00  0.00    -0.744 OA
ENDBRANCH  42  46
ENDBRANCH  25  39
BRANCH  26  50
ATOM     50  C   UNL     1       5.247  -8.239  -5.775  1.00  0.00     0.023 A 
ATOM     51  C   UNL     1       6.051  -9.329  -5.414  1.00  0.00     0.031 A 
ATOM     52  C   UNL     1       3.855  -8.433  -5.829  1.00  0.00     0.131 A 
ATOM     53  C   UNL     1       5.453 -10.574  -5.151  1.00  0.00     0.055 A 
ATOM     54  C   UNL     1       3.263  -9.655  -5.512  1.00  0.00     0.041 A 
ATOM     55  F   UNL     1       3.049  -7.432  -6.215  1.00  0.00    -0.206 F 
ATOM     56  C   UNL     1       4.065 -10.738  -5.178  1.00  0.00     0.022 A 
BRANCH  53  57
ATOM     57  S   UNL     1       6.521 -12.017  -4.880  1.00  0.00     0.124 S 
ATOM     58  O   UNL     1       7.250 -12.084  -6.141  1.00  0.00    -0.237 OA
ATOM     59  O   UNL     1       7.293 -11.607  -3.712  1.00  0.00    -0.237 OA
ATOM     60  O   UNL     1       5.571 -13.102  -4.647  1.00  0.00    -0.744 OA
ENDBRANCH  53  57
ENDBRANCH  26  50
BRANCH  38  61
ATOM     61  C   UNL     1       8.589  -6.172 -11.496  1.00  0.00     0.023 A 
ATOM     62  C   UNL     1       7.712  -6.764 -12.420  1.00  0.00     0.031 A 
ATOM     63  C   UNL     1       9.972  -6.330 -11.685  1.00  0.00     0.131 A 
ATOM     64  C   UNL     1       8.231  -7.533 -13.469  1.00  0.00     0.055 A 
ATOM     65  C   UNL     1      10.482  -7.045 -12.766  1.00  0.00     0.041 A 
ATOM     66  F   UNL     1      10.845  -5.788 -10.822  1.00  0.00    -0.206 F 
ATOM     67  C   UNL     1       9.610  -7.661 -13.660  1.00  0.00     0.022 A 
BRANCH  64  68
ATOM     68  S   UNL     1       7.075  -8.431 -14.538  1.00  0.00     0.124 S 
ATOM     69  O   UNL     1       6.444  -9.348 -13.595  1.00  0.00    -0.237 OA
ATOM     70  O   UNL     1       6.226  -7.361 -15.052  1.00  0.00    -0.237 OA
ATOM     71  O   UNL     1       7.946  -9.060 -15.530  1.00  0.00    -0.744 OA
ENDBRANCH  64  68
ENDBRANCH  38  61
ENDBRANCH  12  13
ENDBRANCH   5   7
ENDBRANCH   4   5
ENDBRANCH   3   4
ENDBRANCH   2   3
ENDBRANCH   1   2
BRANCH   1  72
ATOM     72  C   UNL     1       2.821  -1.039   1.735  1.00  0.00     0.188 C 
BRANCH  72  73
ATOM     73  C   UNL     1       2.031  -2.171   2.411  1.00  0.00     0.188 C 
BRANCH  73  74
ATOM     74  O   UNL     1       2.520  -2.835   3.565  1.00  0.00    -0.376 OA
BRANCH  74  75
ATOM     75  C   UNL     1       3.902  -3.120   3.667  1.00  0.00     0.202 C 
BRANCH  75  76
ATOM     76  C   UNL     1       4.580  -3.966   2.583  1.00  0.00     0.261 C 
BRANCH  76  77
ATOM     77  O   UNL     1       3.872  -4.050   1.344  1.00  0.00    -0.458 OA
BRANCH  77  78
ATOM     78  C   UNL     1       3.268  -5.250   1.105  1.00  0.00     0.358 C 
ATOM     79  O   UNL     1       3.266  -6.198   1.894  1.00  0.00    -0.244 OA
BRANCH  78  80
ATOM     80  C   UNL     1       2.669  -5.341  -0.222  1.00  0.00     0.167 A 
ATOM     81  C   UNL     1       2.587  -6.506  -0.961  1.00  0.00     0.128 A 
ATOM     82  N   UNL     1       2.084  -4.290  -0.920  1.00  0.00    -0.222 NA
ATOM     83  N   UNL     1       1.927  -6.182  -2.111  1.00  0.00    -0.306 N 
ATOM     84  C   UNL     1       1.619  -4.827  -2.035  1.00  0.00     0.137 A 
ATOM     85  C   UNL     1       1.603  -6.994  -3.192  1.00  0.00     0.093 A 
ATOM     86  C   UNL     1       0.912  -4.269  -3.142  1.00  0.00     0.048 A 
ATOM     87  C   UNL     1       0.943  -6.462  -4.234  1.00  0.00     0.018 A 
ATOM     88  C   UNL     1       0.588  -5.051  -4.192  1.00  0.00     0.005 A 
ENDBRANCH  78  80
ENDBRANCH  77  78
ENDBRANCH  76  77
ENDBRANCH  75  76
ENDBRANCH  74  75
ENDBRANCH  73  74
ENDBRANCH  72  73
ENDBRANCH   1  72
TORSDOF 20
