REMARK SMILES Cc1c(C#N)c2ccccc2n1CC(=O)N1CC[C@H](O)C[C@@H]1C(=O)OCCOCCOCCOC(=O)c1ccc(-c2c3nc(c(-c4cc(S(=O)(=O)[O-])ccc4F)c4ccc([nH]4)c(-c4cc(S(=O)(=O)[O-])ccc4F)c4nc(c(-c5cc(S(=O)(=O)[O-])ccc5F)c5ccc2[nH]5)C=C4)C=C3)cc1
REMARK SMILES IDX 29 1 28 2 27 3 26 4 25 5 23 6 24 7 22 8 16 9 17 10 18 11
REMARK SMILES IDX 21 12 19 13 14 14 15 15 13 16 12 17 1 18 2 19 3 20 6 21
REMARK SMILES IDX 11 22 7 23 10 24 8 25 9 26 4 27 5 28 20 29 30 31 31 32 32 33
REMARK SMILES IDX 33 34 34 35 35 36 36 37 37 38 38 39 99 40 39 41 98 42 40 43
REMARK SMILES IDX 41 44 42 45 92 46 43 47 97 48 91 49 93 50 44 51 96 52 90 53
REMARK SMILES IDX 89 54 45 56 77 57 57 58 76 59 58 60 61 61 75 62 94 63 59 64
REMARK SMILES IDX 60 65 74 67 95 68 62 69 46 70 47 71 55 72 48 73 54 74 56 75
REMARK SMILES IDX 53 76 49 77 50 78 51 79 52 80 78 81 79 82 87 83 80 84 86 85
REMARK SMILES IDX 88 86 85 87 81 88 82 89 83 90 84 91 63 92 64 93 72 94 65 95
REMARK SMILES IDX 71 96 73 97 70 98 66 99 67 100 68 101 69 102
REMARK H PARENT 20 30 93 55 61 66
REMARK Flexibility Score: inf
ROOT
ATOM      1  C   UNL     1       4.709   4.779   6.578  1.00  0.00     0.188 C 
ENDROOT
BRANCH   1   2
ATOM      2  O   UNL     1       4.310   4.466   7.885  1.00  0.00    -0.376 OA
BRANCH   2   3
ATOM      3  C   UNL     1       3.439   3.385   8.149  1.00  0.00     0.202 C 
BRANCH   3   4
ATOM      4  C   UNL     1       2.489   2.691   7.150  1.00  0.00     0.261 C 
BRANCH   4   5
ATOM      5  O   UNL     1       3.018   2.137   5.917  1.00  0.00    -0.462 OA
BRANCH   5   6
ATOM      6  C   UNL     1       2.706   2.915   4.846  1.00  0.00     0.329 C 
ATOM      7  O   UNL     1       2.162   3.995   5.040  1.00  0.00    -0.250 OA
BRANCH   6   8
ATOM      8  C   UNL     1       3.083   2.405   3.424  1.00  0.00     0.197 C 
ATOM      9  N   UNL     1       2.184   1.336   3.068  1.00  0.00    -0.327 N 
ATOM     10  C   UNL     1       2.726   0.028   3.389  1.00  0.00     0.123 C 
ATOM     11  C   UNL     1       4.000  -0.230   2.594  1.00  0.00     0.053 C 
ATOM     12  C   UNL     1       4.481   2.213   2.816  1.00  0.00     0.069 C 
ATOM     13  C   UNL     1       5.048   0.815   2.933  1.00  0.00     0.118 C 
BRANCH   9  14
ATOM     14  C   UNL     1       1.466   1.535   1.890  1.00  0.00     0.243 C 
ATOM     15  O   UNL     1       1.991   2.021   0.892  1.00  0.00    -0.273 OA
BRANCH  14  16
ATOM     16  C   UNL     1      -0.018   1.253   1.954  1.00  0.00     0.222 C 
BRANCH  16  17
ATOM     17  N   UNL     1      -0.250  -0.169   2.089  1.00  0.00    -0.334 N 
ATOM     18  C   UNL     1       0.717  -0.716  -0.188  1.00  0.00     0.066 C 
ATOM     19  C   UNL     1       0.175  -1.101   1.160  1.00  0.00     0.034 A 
ATOM     20  C   UNL     1       0.158  -2.327   1.800  1.00  0.00     0.080 A 
ATOM     21  C   UNL     1      -0.294  -2.132   3.142  1.00  0.00     0.018 A 
ATOM     22  C   UNL     1      -0.573  -0.772   3.293  1.00  0.00     0.050 A 
ATOM     23  C   UNL     1      -0.409  -2.967   4.275  1.00  0.00     0.012 A 
ATOM     24  C   UNL     1      -0.962  -0.217   4.526  1.00  0.00     0.027 A 
ATOM     25  C   UNL     1      -0.788  -2.421   5.508  1.00  0.00     0.001 A 
ATOM     26  C   UNL     1      -1.061  -1.064   5.630  1.00  0.00     0.002 A 
BRANCH  20  27
ATOM     27  C   UNL     1       0.663  -3.553   1.245  1.00  0.00     0.102 C 
ATOM     28  N   UNL     1       1.080  -4.548   0.845  1.00  0.00    -0.192 NA
ENDBRANCH  20  27
ENDBRANCH  16  17
ENDBRANCH  14  16
ENDBRANCH   9  14
BRANCH  13  29
ATOM     29  O   UNL     1       5.576   0.563   4.231  1.00  0.00    -0.393 OA
ATOM     30  H   UNL     1       4.863   0.620   4.886  1.00  0.00     0.210 HD
ENDBRANCH  13  29
ENDBRANCH   6   8
ENDBRANCH   5   6
ENDBRANCH   4   5
ENDBRANCH   3   4
ENDBRANCH   2   3
ENDBRANCH   1   2
BRANCH   1  31
ATOM     31  C   UNL     1       5.378   3.676   5.771  1.00  0.00     0.188 C 
BRANCH  31  32
ATOM     32  O   UNL     1       5.755   2.462   6.364  1.00  0.00    -0.376 OA
BRANCH  32  33
ATOM     33  C   UNL     1       6.766   2.590   7.352  1.00  0.00     0.202 C 
BRANCH  33  34
ATOM     34  C   UNL     1       7.966   3.573   7.159  1.00  0.00     0.261 C 
BRANCH  34  35
ATOM     35  O   UNL     1       7.705   4.818   6.446  1.00  0.00    -0.460 OA
BRANCH  35  36
ATOM     36  C   UNL     1       8.303   4.999   5.219  1.00  0.00     0.338 C 
ATOM     37  O   UNL     1       9.306   4.412   4.844  1.00  0.00    -0.246 OA
BRANCH  36  38
ATOM     38  C   UNL     1       7.330   5.687   4.268  1.00  0.00     0.060 A 
ATOM     39  C   UNL     1       6.444   6.704   4.652  1.00  0.00     0.016 A 
ATOM     40  C   UNL     1       7.051   5.005   3.076  1.00  0.00     0.016 A 
ATOM     41  C   UNL     1       5.206   6.892   3.963  1.00  0.00     0.010 A 
ATOM     42  C   UNL     1       5.821   5.196   2.411  1.00  0.00     0.010 A 
ATOM     43  C   UNL     1       4.824   6.065   2.890  1.00  0.00    -0.014 A 
BRANCH  43  44
ATOM     44  C   UNL     1       3.674   6.325   1.957  1.00  0.00     0.031 A 
ATOM     45  C   UNL     1       3.948   7.527   1.160  1.00  0.00     0.074 A 
ATOM     46  C   UNL     1       2.457   5.766   1.695  1.00  0.00     0.049 A 
ATOM     47  N   UNL     1       3.369   8.656   1.405  1.00  0.00    -0.248 NA
ATOM     48  C   UNL     1       5.073   7.592   0.238  1.00  0.00     0.031 C 
ATOM     49  C   UNL     1       1.577   5.031   2.565  1.00  0.00     0.029 A 
ATOM     50  N   UNL     1       1.679   5.803   0.535  1.00  0.00    -0.354 N 
ATOM     51  C   UNL     1       3.894   9.544   0.491  1.00  0.00     0.074 A 
ATOM     52  C   UNL     1       5.062   8.895  -0.053  1.00  0.00     0.031 C 
ATOM     53  C   UNL     1       0.531   4.494   1.910  1.00  0.00     0.029 A 
ATOM     54  C   UNL     1       0.648   4.823   0.500  1.00  0.00     0.049 A 
ATOM     55  H   UNL     1       1.830   6.449  -0.192  1.00  0.00     0.167 HD
ATOM     56  C   UNL     1       3.166  10.624   0.101  1.00  0.00     0.034 A 
ATOM     57  C   UNL     1      -0.498   4.700  -0.238  1.00  0.00     0.034 A 
ATOM     58  C   UNL     1       2.061  10.866   1.000  1.00  0.00     0.049 A 
ATOM     59  C   UNL     1      -1.035   6.075  -0.372  1.00  0.00     0.074 A 
ATOM     60  C   UNL     1       1.931  11.222   2.327  1.00  0.00     0.029 A 
ATOM     61  N   UNL     1       0.827  10.396   0.620  1.00  0.00    -0.354 N 
ATOM     62  N   UNL     1      -1.544   6.733   0.635  1.00  0.00    -0.248 NA
ATOM     63  C   UNL     1      -0.467   6.872  -1.450  1.00  0.00     0.031 C 
ATOM     64  C   UNL     1       0.779  10.527   2.794  1.00  0.00     0.029 A 
ATOM     65  C   UNL     1       0.213   9.850   1.715  1.00  0.00     0.049 A 
ATOM     66  H   UNL     1       0.448  10.443  -0.287  1.00  0.00     0.167 HD
ATOM     67  C   UNL     1      -0.925   7.972   0.561  1.00  0.00     0.074 A 
ATOM     68  C   UNL     1      -0.282   7.998  -0.757  1.00  0.00     0.031 C 
ATOM     69  C   UNL     1      -0.750   8.773   1.653  1.00  0.00     0.034 A 
BRANCH  56  70
ATOM     70  C   UNL     1       3.221  11.185  -1.296  1.00  0.00     0.023 A 
ATOM     71  C   UNL     1       3.926  10.577  -2.351  1.00  0.00     0.031 A 
ATOM     72  C   UNL     1       2.359  12.239  -1.656  1.00  0.00     0.131 A 
ATOM     73  C   UNL     1       3.765  10.995  -3.676  1.00  0.00     0.055 A 
ATOM     74  C   UNL     1       2.145  12.611  -2.986  1.00  0.00     0.041 A 
ATOM     75  F   UNL     1       1.644  12.897  -0.731  1.00  0.00    -0.206 F 
ATOM     76  C   UNL     1       2.847  11.985  -4.006  1.00  0.00     0.022 A 
BRANCH  73  77
ATOM     77  S   UNL     1       4.743  10.243  -5.005  1.00  0.00     0.124 S 
ATOM     78  O   UNL     1       3.704   9.737  -5.895  1.00  0.00    -0.237 OA
ATOM     79  O   UNL     1       5.495  11.394  -5.498  1.00  0.00    -0.237 OA
ATOM     80  O   UNL     1       5.540   9.233  -4.315  1.00  0.00    -0.744 OA
ENDBRANCH  73  77
ENDBRANCH  56  70
BRANCH  57  81
ATOM     81  C   UNL     1      -0.578   3.720  -1.370  1.00  0.00     0.023 A 
ATOM     82  C   UNL     1       0.578   3.077  -1.847  1.00  0.00     0.031 A 
ATOM     83  C   UNL     1      -1.789   3.411  -2.022  1.00  0.00     0.131 A 
ATOM     84  C   UNL     1       0.522   2.204  -2.943  1.00  0.00     0.055 A 
ATOM     85  C   UNL     1      -1.849   2.526  -3.114  1.00  0.00     0.041 A 
ATOM     86  F   UNL     1      -2.945   3.953  -1.607  1.00  0.00    -0.206 F 
ATOM     87  C   UNL     1      -0.685   1.924  -3.584  1.00  0.00     0.022 A 
BRANCH  84  88
ATOM     88  S   UNL     1       2.034   1.398  -3.540  1.00  0.00     0.124 S 
ATOM     89  O   UNL     1       1.568   0.043  -3.834  1.00  0.00    -0.237 OA
ATOM     90  O   UNL     1       2.362   2.216  -4.702  1.00  0.00    -0.237 OA
ATOM     91  O   UNL     1       2.950   1.494  -2.410  1.00  0.00    -0.744 OA
ENDBRANCH  84  88
ENDBRANCH  57  81
BRANCH  69  92
ATOM     92  C   UNL     1      -1.432   8.446   2.963  1.00  0.00     0.023 A 
ATOM     93  C   UNL     1      -2.301   9.398   3.500  1.00  0.00     0.031 A 
ATOM     94  C   UNL     1      -0.968   7.458   3.843  1.00  0.00     0.131 A 
ATOM     95  C   UNL     1      -2.623   9.357   4.866  1.00  0.00     0.055 A 
ATOM     96  C   UNL     1      -1.400   7.326   5.166  1.00  0.00     0.041 A 
ATOM     97  F   UNL     1       0.080   6.723   3.505  1.00  0.00    -0.206 F 
ATOM     98  C   UNL     1      -2.227   8.300   5.693  1.00  0.00     0.022 A 
BRANCH  95  99
ATOM     99  S   UNL     1      -3.283  10.836   5.672  1.00  0.00     0.124 S 
ATOM    100  O   UNL     1      -4.549  10.353   6.214  1.00  0.00    -0.237 OA
ATOM    101  O   UNL     1      -2.247  11.127   6.662  1.00  0.00    -0.237 OA
ATOM    102  O   UNL     1      -3.392  11.808   4.588  1.00  0.00    -0.744 OA
ENDBRANCH  95  99
ENDBRANCH  69  92
ENDBRANCH  43  44
ENDBRANCH  36  38
ENDBRANCH  35  36
ENDBRANCH  34  35
ENDBRANCH  33  34
ENDBRANCH  32  33
ENDBRANCH  31  32
ENDBRANCH   1  31
TORSDOF 25
