REMARK SMILES C[C@@H](C(=O)OCCOCCOCCOC(=O)c1ccc(-c2c3nc(c(-c4cc(S(=O)(=O)[O-])ccc4F)c4ccc([nH]4)c(-c4cc(S(=O)(=O)[O-])ccc4F)c4nc(c(-c5cc(S(=O)(=O)[O-])ccc5F)c5ccc2[nH]5)C=C4)C=C3)cc1)c1ccc(C[C@H]2CCC[C@@H]2O)cc1
REMARK SMILES IDX 9 1 8 2 7 3 6 4 5 5 3 6 4 7 2 8 1 9 80 10 81 11 92 12 82 13
REMARK SMILES IDX 91 14 83 15 84 16 85 17 86 18 89 19 87 20 88 21 90 22 10 24
REMARK SMILES IDX 11 25 12 26 13 27 14 28 15 29 16 30 17 31 18 32 79 33 19 34
REMARK SMILES IDX 78 35 20 36 21 37 22 38 72 39 23 40 77 41 71 42 73 43 24 44
REMARK SMILES IDX 76 45 70 46 69 47 25 49 57 50 37 51 56 52 38 53 41 54 55 55
REMARK SMILES IDX 74 56 39 57 40 58 54 60 75 61 42 62 26 63 27 64 35 65 28 66
REMARK SMILES IDX 34 67 36 68 33 69 29 70 30 71 31 72 32 73 58 74 59 75 67 76
REMARK SMILES IDX 60 77 66 78 68 79 65 80 61 81 62 82 63 83 64 84 43 85 44 86
REMARK SMILES IDX 52 87 45 88 51 89 53 90 50 91 46 92 47 93 48 94 49 95
REMARK H PARENT 90 23 73 48 41 59
REMARK Flexibility Score: inf
ROOT
ATOM      1  C   UNL     1       0.114  -1.843   3.116  1.00  0.00     0.188 C 
ENDROOT
BRANCH   1   2
ATOM      2  O   UNL     1       0.827  -2.752   3.951  1.00  0.00    -0.376 OA
BRANCH   2   3
ATOM      3  C   UNL     1       2.150  -3.126   3.564  1.00  0.00     0.202 C 
BRANCH   3   4
ATOM      4  C   UNL     1       2.423  -3.519   2.101  1.00  0.00     0.261 C 
BRANCH   4   5
ATOM      5  O   UNL     1       2.027  -2.518   1.142  1.00  0.00    -0.463 OA
BRANCH   5   6
ATOM      6  C   UNL     1       1.471  -2.980  -0.010  1.00  0.00     0.313 C 
ATOM      7  O   UNL     1       1.398  -4.172  -0.297  1.00  0.00    -0.252 OA
BRANCH   6   8
ATOM      8  C   UNL     1       0.927  -1.869  -0.920  1.00  0.00     0.126 C 
ATOM      9  C   UNL     1       1.711  -0.556  -0.790  1.00  0.00     0.025 C 
BRANCH   8  10
ATOM     10  C   UNL     1      -0.601  -1.731  -0.923  1.00  0.00    -0.034 A 
ATOM     11  C   UNL     1      -1.247  -0.496  -1.111  1.00  0.00     0.005 A 
ATOM     12  C   UNL     1      -1.414  -2.876  -0.888  1.00  0.00     0.005 A 
ATOM     13  C   UNL     1      -2.638  -0.413  -1.279  1.00  0.00     0.004 A 
ATOM     14  C   UNL     1      -2.802  -2.792  -1.045  1.00  0.00     0.004 A 
ATOM     15  C   UNL     1      -3.433  -1.560  -1.248  1.00  0.00    -0.048 A 
BRANCH  15  16
ATOM     16  C   UNL     1      -4.942  -1.500  -1.384  1.00  0.00     0.041 C 
BRANCH  16  17
ATOM     17  C   UNL     1      -5.717  -1.133  -0.110  1.00  0.00     0.022 C 
ATOM     18  C   UNL     1      -5.135  -1.753   1.171  1.00  0.00     0.007 C 
ATOM     19  C   UNL     1      -5.765   0.386   0.159  1.00  0.00     0.117 C 
ATOM     20  C   UNL     1      -4.571  -0.566   1.928  1.00  0.00     0.003 C 
ATOM     21  C   UNL     1      -5.623   0.496   1.665  1.00  0.00     0.032 C 
BRANCH  19  22
ATOM     22  O   UNL     1      -6.963   0.972  -0.309  1.00  0.00    -0.393 OA
ATOM     23  H   UNL     1      -7.721   0.544   0.118  1.00  0.00     0.210 HD
ENDBRANCH  19  22
ENDBRANCH  16  17
ENDBRANCH  15  16
ENDBRANCH   8  10
ENDBRANCH   6   8
ENDBRANCH   5   6
ENDBRANCH   4   5
ENDBRANCH   3   4
ENDBRANCH   2   3
ENDBRANCH   1   2
BRANCH   1  24
ATOM     24  C   UNL     1       0.729  -0.456   2.865  1.00  0.00     0.188 C 
BRANCH  24  25
ATOM     25  O   UNL     1       2.138  -0.436   2.959  1.00  0.00    -0.376 OA
BRANCH  25  26
ATOM     26  C   UNL     1       2.774   0.333   3.969  1.00  0.00     0.202 C 
BRANCH  26  27
ATOM     27  C   UNL     1       2.236   0.483   5.413  1.00  0.00     0.261 C 
BRANCH  27  28
ATOM     28  O   UNL     1       0.819   0.418   5.628  1.00  0.00    -0.460 OA
BRANCH  28  29
ATOM     29  C   UNL     1       0.136   1.582   5.475  1.00  0.00     0.338 C 
ATOM     30  O   UNL     1       0.615   2.659   5.176  1.00  0.00    -0.246 OA
BRANCH  29  31
ATOM     31  C   UNL     1      -1.321   1.283   5.476  1.00  0.00     0.060 A 
ATOM     32  C   UNL     1      -2.048   1.676   4.357  1.00  0.00     0.016 A 
ATOM     33  C   UNL     1      -1.979   0.635   6.529  1.00  0.00     0.016 A 
ATOM     34  C   UNL     1      -3.418   1.417   4.297  1.00  0.00     0.010 A 
ATOM     35  C   UNL     1      -3.371   0.386   6.462  1.00  0.00     0.010 A 
ATOM     36  C   UNL     1      -4.116   0.767   5.337  1.00  0.00    -0.014 A 
BRANCH  36  37
ATOM     37  C   UNL     1      -5.618   0.639   5.231  1.00  0.00     0.031 A 
ATOM     38  C   UNL     1      -6.434   1.910   5.209  1.00  0.00     0.074 A 
ATOM     39  C   UNL     1      -6.257  -0.531   4.985  1.00  0.00     0.049 A 
ATOM     40  N   UNL     1      -7.704   2.084   4.944  1.00  0.00    -0.248 NA
ATOM     41  C   UNL     1      -5.709   3.148   5.528  1.00  0.00     0.031 C 
ATOM     42  C   UNL     1      -5.611  -1.837   4.888  1.00  0.00     0.029 A 
ATOM     43  N   UNL     1      -7.571  -0.796   4.622  1.00  0.00    -0.354 N 
ATOM     44  C   UNL     1      -7.945   3.442   5.127  1.00  0.00     0.074 A 
ATOM     45  C   UNL     1      -6.669   4.053   5.436  1.00  0.00     0.031 C 
ATOM     46  C   UNL     1      -6.468  -2.709   4.326  1.00  0.00     0.029 A 
ATOM     47  C   UNL     1      -7.765  -2.068   4.100  1.00  0.00     0.049 A 
ATOM     48  H   UNL     1      -8.298  -0.141   4.726  1.00  0.00     0.167 HD
ATOM     49  C   UNL     1      -9.126   4.110   5.122  1.00  0.00     0.034 A 
ATOM     50  C   UNL     1      -8.840  -2.631   3.486  1.00  0.00     0.034 A 
ATOM     51  C   UNL     1     -10.409   3.502   4.879  1.00  0.00     0.049 A 
ATOM     52  C   UNL     1     -10.152  -1.860   3.478  1.00  0.00     0.074 A 
ATOM     53  C   UNL     1     -11.667   4.071   4.993  1.00  0.00     0.029 A 
ATOM     54  N   UNL     1     -10.607   2.187   4.486  1.00  0.00    -0.354 N 
ATOM     55  N   UNL     1     -10.381  -0.600   3.768  1.00  0.00    -0.248 NA
ATOM     56  C   UNL     1     -11.367  -2.616   3.126  1.00  0.00     0.031 C 
ATOM     57  C   UNL     1     -12.624   3.081   4.746  1.00  0.00     0.029 A 
ATOM     58  C   UNL     1     -11.964   1.919   4.386  1.00  0.00     0.049 A 
ATOM     59  H   UNL     1      -9.889   1.538   4.304  1.00  0.00     0.167 HD
ATOM     60  C   UNL     1     -11.764  -0.431   3.662  1.00  0.00     0.074 A 
ATOM     61  C   UNL     1     -12.307  -1.687   3.201  1.00  0.00     0.031 C 
ATOM     62  C   UNL     1     -12.520   0.657   3.961  1.00  0.00     0.034 A 
BRANCH  49  63
ATOM     63  C   UNL     1      -9.080   5.544   5.583  1.00  0.00     0.023 A 
ATOM     64  C   UNL     1      -8.453   6.554   4.839  1.00  0.00     0.031 A 
ATOM     65  C   UNL     1      -9.595   5.873   6.851  1.00  0.00     0.131 A 
ATOM     66  C   UNL     1      -8.284   7.826   5.407  1.00  0.00     0.055 A 
ATOM     67  C   UNL     1      -9.503   7.162   7.371  1.00  0.00     0.041 A 
ATOM     68  F   UNL     1     -10.170   4.934   7.620  1.00  0.00    -0.206 F 
ATOM     69  C   UNL     1      -8.827   8.145   6.655  1.00  0.00     0.022 A 
BRANCH  66  70
ATOM     70  S   UNL     1      -7.182   9.003   4.576  1.00  0.00     0.124 S 
ATOM     71  O   UNL     1      -5.930   8.251   4.530  1.00  0.00    -0.237 OA
ATOM     72  O   UNL     1      -7.849   9.210   3.296  1.00  0.00    -0.237 OA
ATOM     73  O   UNL     1      -7.174  10.157   5.472  1.00  0.00    -0.744 OA
ENDBRANCH  66  70
ENDBRANCH  49  63
BRANCH  50  74
ATOM     74  C   UNL     1      -8.817  -4.014   2.871  1.00  0.00     0.023 A 
ATOM     75  C   UNL     1      -9.320  -4.248   1.569  1.00  0.00     0.031 A 
ATOM     76  C   UNL     1      -8.431  -5.148   3.608  1.00  0.00     0.131 A 
ATOM     77  C   UNL     1      -9.471  -5.564   1.083  1.00  0.00     0.055 A 
ATOM     78  C   UNL     1      -8.487  -6.443   3.082  1.00  0.00     0.041 A 
ATOM     79  F   UNL     1      -8.017  -5.028   4.879  1.00  0.00    -0.206 F 
ATOM     80  C   UNL     1      -9.026  -6.659   1.820  1.00  0.00     0.022 A 
BRANCH  77  81
ATOM     81  S   UNL     1     -10.420  -5.854  -0.445  1.00  0.00     0.124 S 
ATOM     82  O   UNL     1     -11.696  -5.224  -0.125  1.00  0.00    -0.237 OA
ATOM     83  O   UNL     1      -9.601  -5.182  -1.448  1.00  0.00    -0.237 OA
ATOM     84  O   UNL     1     -10.458  -7.312  -0.551  1.00  0.00    -0.744 OA
ENDBRANCH  77  81
ENDBRANCH  50  74
BRANCH  62  85
ATOM     85  C   UNL     1     -14.024   0.531   3.838  1.00  0.00     0.023 A 
ATOM     86  C   UNL     1     -14.759  -0.355   4.649  1.00  0.00     0.031 A 
ATOM     87  C   UNL     1     -14.738   1.325   2.922  1.00  0.00     0.131 A 
ATOM     88  C   UNL     1     -16.152  -0.460   4.497  1.00  0.00     0.055 A 
ATOM     89  C   UNL     1     -16.130   1.257   2.815  1.00  0.00     0.041 A 
ATOM     90  F   UNL     1     -14.097   2.192   2.122  1.00  0.00    -0.206 F 
ATOM     91  C   UNL     1     -16.843   0.353   3.597  1.00  0.00     0.022 A 
BRANCH  88  92
ATOM     92  S   UNL     1     -17.045  -1.726   5.443  1.00  0.00     0.124 S 
ATOM     93  O   UNL     1     -16.383  -2.954   5.013  1.00  0.00    -0.237 OA
ATOM     94  O   UNL     1     -16.798  -1.319   6.823  1.00  0.00    -0.237 OA
ATOM     95  O   UNL     1     -18.429  -1.579   4.994  1.00  0.00    -0.744 OA
ENDBRANCH  88  92
ENDBRANCH  62  85
ENDBRANCH  36  37
ENDBRANCH  29  31
ENDBRANCH  28  29
ENDBRANCH  27  28
ENDBRANCH  26  27
ENDBRANCH  25  26
ENDBRANCH  24  25
ENDBRANCH   1  24
TORSDOF 24
