REMARK SMILES Cc1ccc(NC(=O)c2ccccc2NC(=O)[C@H]2CCCC[C@H]2C(=O)OCCOCCOCCOC(=O)c2ccc(-c3c4nc(c(-c5cc(S(=O)(=O)[O-])ccc5F)c5ccc([nH]5)c(-c5cc(S(=O)(=O)[O-])ccc5F)c5nc(c(-c6cc(S(=O)(=O)[O-])ccc6F)c6ccc3[nH]6)C=C5)C=C4)cc2)cc1
REMARK SMILES IDX 30 1 29 2 28 3 27 4 26 5 24 6 25 7 23 8 18 9 19 10 20 11
REMARK SMILES IDX 22 12 21 13 16 14 15 15 17 17 14 18 9 19 10 20 11 21 13 22
REMARK SMILES IDX 12 23 7 24 6 25 8 27 5 28 1 29 2 30 3 31 102 32 4 33 101 34
REMARK SMILES IDX 31 35 32 36 33 37 34 38 35 39 36 40 37 41 38 42 39 43 100 44
REMARK SMILES IDX 40 45 99 46 41 47 42 48 43 49 93 50 44 51 98 52 92 53 94 54
REMARK SMILES IDX 45 55 97 56 91 57 90 58 46 60 78 61 58 62 77 63 59 64 62 65
REMARK SMILES IDX 76 66 95 67 60 68 61 69 75 71 96 72 63 73 47 74 48 75 56 76
REMARK SMILES IDX 49 77 55 78 57 79 54 80 50 81 51 82 52 83 53 84 79 85 80 86
REMARK SMILES IDX 88 87 81 88 87 89 89 90 86 91 82 92 83 93 84 94 85 95 64 96
REMARK SMILES IDX 65 97 73 98 66 99 72 100 74 101 71 102 67 103 68 104 69 105
REMARK SMILES IDX 70 106
REMARK H PARENT 15 16 6 26 94 59 62 70
REMARK Flexibility Score: inf
ROOT
ATOM      1  C   UNL     1      -0.137   4.403   5.502  1.00  0.00     0.188 C 
ENDROOT
BRANCH   1   2
ATOM      2  O   UNL     1      -0.513   3.444   6.479  1.00  0.00    -0.376 OA
BRANCH   2   3
ATOM      3  C   UNL     1      -1.883   2.985   6.310  1.00  0.00     0.202 C 
BRANCH   3   4
ATOM      4  C   UNL     1      -2.006   1.887   5.162  1.00  0.00     0.261 C 
BRANCH   4   5
ATOM      5  O   UNL     1      -2.845   0.419   4.997  1.00  0.00    -0.463 OA
BRANCH   5   6
ATOM      6  C   UNL     1      -3.062  -0.953   4.771  1.00  0.00     0.309 C 
ATOM      7  O   UNL     1      -4.241  -1.310   4.937  1.00  0.00    -0.252 OA
BRANCH   6   8
ATOM      8  C   UNL     1      -2.063  -2.291   4.362  1.00  0.00     0.111 C 
ATOM      9  C   UNL     1      -0.993  -2.634   3.132  1.00  0.00     0.093 C 
ATOM     10  C   UNL     1      -1.151  -4.151   2.750  1.00  0.00     0.014 C 
ATOM     11  C   UNL     1      -1.085  -5.128   3.936  1.00  0.00     0.001 C 
ATOM     12  C   UNL     1      -1.940  -3.332   5.507  1.00  0.00     0.016 C 
ATOM     13  C   UNL     1      -2.099  -4.780   5.017  1.00  0.00     0.001 C 
BRANCH   9  14
ATOM     14  C   UNL     1       0.574  -2.488   3.319  1.00  0.00     0.228 C 
ATOM     15  N   UNL     1       1.468  -1.687   2.635  1.00  0.00    -0.325 N 
ATOM     16  H   UNL     1       2.349  -1.709   3.074  1.00  0.00     0.169 HD
ATOM     17  O   UNL     1       1.124  -3.179   4.189  1.00  0.00    -0.274 OA
BRANCH  15  18
ATOM     18  C   UNL     1       1.510  -0.837   1.490  1.00  0.00     0.054 A 
ATOM     19  C   UNL     1       2.522   0.180   1.268  1.00  0.00     0.063 A 
ATOM     20  C   UNL     1       2.334   1.077   0.182  1.00  0.00     0.016 A 
ATOM     21  C   UNL     1       1.221   1.016  -0.647  1.00  0.00     0.001 A 
ATOM     22  C   UNL     1       0.462  -0.930   0.560  1.00  0.00     0.027 A 
ATOM     23  C   UNL     1       0.292   0.010  -0.462  1.00  0.00     0.002 A 
BRANCH  19  24
ATOM     24  C   UNL     1       3.663   0.705   2.149  1.00  0.00     0.257 C 
ATOM     25  N   UNL     1       4.314   0.007   3.132  1.00  0.00    -0.322 N 
ATOM     26  H   UNL     1       4.640   0.549   3.885  1.00  0.00     0.170 HD
ATOM     27  O   UNL     1       3.988   1.898   2.068  1.00  0.00    -0.269 OA
BRANCH  25  28
ATOM     28  C   UNL     1       4.580  -1.346   3.222  1.00  0.00     0.041 A 
ATOM     29  C   UNL     1       4.084  -5.523   3.670  1.00  0.00     0.044 C 
ATOM     30  C   UNL     1       4.467  -4.085   3.514  1.00  0.00    -0.051 A 
ATOM     31  C   UNL     1       4.496  -3.521   2.235  1.00  0.00     0.005 A 
ATOM     32  C   UNL     1       4.643  -3.272   4.641  1.00  0.00     0.005 A 
ATOM     33  C   UNL     1       4.574  -2.147   2.087  1.00  0.00     0.026 A 
ATOM     34  C   UNL     1       4.730  -1.892   4.495  1.00  0.00     0.026 A 
ENDBRANCH  25  28
ENDBRANCH  19  24
ENDBRANCH  15  18
ENDBRANCH   9  14
ENDBRANCH   6   8
ENDBRANCH   5   6
ENDBRANCH   4   5
ENDBRANCH   3   4
ENDBRANCH   2   3
ENDBRANCH   1   2
BRANCH   1  35
ATOM     35  C   UNL     1       1.378   4.324   5.351  1.00  0.00     0.188 C 
BRANCH  35  36
ATOM     36  O   UNL     1       2.116   5.498   5.117  1.00  0.00    -0.376 OA
BRANCH  36  37
ATOM     37  C   UNL     1       1.538   6.350   4.138  1.00  0.00     0.202 C 
BRANCH  37  38
ATOM     38  C   UNL     1       0.849   5.829   2.796  1.00  0.00     0.261 C 
BRANCH  38  39
ATOM     39  O   UNL     1       0.926   4.337   2.612  1.00  0.00    -0.460 OA
BRANCH  39  40
ATOM     40  C   UNL     1       0.409   3.202   2.109  1.00  0.00     0.338 C 
ATOM     41  O   UNL     1      -0.119   2.989   0.999  1.00  0.00    -0.246 OA
BRANCH  40  42
ATOM     42  C   UNL     1       0.617   2.013   3.060  1.00  0.00     0.060 A 
ATOM     43  C   UNL     1      -0.341   1.054   2.969  1.00  0.00     0.016 A 
ATOM     44  C   UNL     1       1.611   1.707   4.025  1.00  0.00     0.016 A 
ATOM     45  C   UNL     1      -0.428   0.058   3.965  1.00  0.00     0.010 A 
ATOM     46  C   UNL     1       1.445   0.742   5.084  1.00  0.00     0.010 A 
ATOM     47  C   UNL     1       0.302  -0.038   5.175  1.00  0.00    -0.014 A 
BRANCH  47  48
ATOM     48  C   UNL     1      -0.159  -0.545   6.589  1.00  0.00     0.031 A 
ATOM     49  C   UNL     1       0.526  -1.675   7.274  1.00  0.00     0.074 A 
ATOM     50  C   UNL     1      -1.075   0.007   7.464  1.00  0.00     0.049 A 
ATOM     51  N   UNL     1       0.004  -2.364   8.247  1.00  0.00    -0.248 NA
ATOM     52  C   UNL     1       1.787  -2.218   6.814  1.00  0.00     0.031 C 
ATOM     53  C   UNL     1      -0.923   0.221   8.921  1.00  0.00     0.029 A 
ATOM     54  N   UNL     1      -2.338   0.520   7.282  1.00  0.00    -0.354 N 
ATOM     55  C   UNL     1       0.985  -3.193   8.729  1.00  0.00     0.074 A 
ATOM     56  C   UNL     1       1.968  -3.223   7.674  1.00  0.00     0.031 C 
ATOM     57  C   UNL     1      -2.005   0.859   9.428  1.00  0.00     0.029 A 
ATOM     58  C   UNL     1      -3.004   1.021   8.379  1.00  0.00     0.049 A 
ATOM     59  H   UNL     1      -2.756   0.528   6.391  1.00  0.00     0.167 HD
ATOM     60  C   UNL     1       0.992  -3.583  10.040  1.00  0.00     0.034 A 
ATOM     61  C   UNL     1      -4.360   1.203   8.426  1.00  0.00     0.034 A 
ATOM     62  C   UNL     1      -0.146  -3.022  10.789  1.00  0.00     0.049 A 
ATOM     63  C   UNL     1      -4.807   0.067   9.314  1.00  0.00     0.074 A 
ATOM     64  C   UNL     1      -0.229  -1.966  11.684  1.00  0.00     0.029 A 
ATOM     65  N   UNL     1      -1.465  -3.360  10.475  1.00  0.00    -0.354 N 
ATOM     66  N   UNL     1      -3.948  -0.815   9.746  1.00  0.00    -0.248 NA
ATOM     67  C   UNL     1      -6.154  -0.194   9.798  1.00  0.00     0.031 C 
ATOM     68  C   UNL     1      -1.598  -1.649  11.877  1.00  0.00     0.029 A 
ATOM     69  C   UNL     1      -2.365  -2.538  11.141  1.00  0.00     0.049 A 
ATOM     70  H   UNL     1      -1.723  -4.086   9.861  1.00  0.00     0.167 HD
ATOM     71  C   UNL     1      -4.551  -1.723  10.538  1.00  0.00     0.074 A 
ATOM     72  C   UNL     1      -5.944  -1.294  10.550  1.00  0.00     0.031 C 
ATOM     73  C   UNL     1      -3.816  -2.741  11.074  1.00  0.00     0.034 A 
BRANCH  60  74
ATOM     74  C   UNL     1       2.262  -4.111  10.707  1.00  0.00     0.023 A 
ATOM     75  C   UNL     1       2.512  -3.849  12.071  1.00  0.00     0.031 A 
ATOM     76  C   UNL     1       3.287  -4.824  10.048  1.00  0.00     0.131 A 
ATOM     77  C   UNL     1       3.754  -4.156  12.668  1.00  0.00     0.055 A 
ATOM     78  C   UNL     1       4.548  -5.063  10.615  1.00  0.00     0.041 A 
ATOM     79  F   UNL     1       3.094  -5.381   8.845  1.00  0.00    -0.206 F 
ATOM     80  C   UNL     1       4.793  -4.716  11.932  1.00  0.00     0.022 A 
BRANCH  77  81
ATOM     81  S   UNL     1       3.992  -3.850  14.442  1.00  0.00     0.124 S 
ATOM     82  O   UNL     1       3.928  -2.394  14.514  1.00  0.00    -0.237 OA
ATOM     83  O   UNL     1       2.877  -4.579  15.037  1.00  0.00    -0.237 OA
ATOM     84  O   UNL     1       5.311  -4.424  14.711  1.00  0.00    -0.744 OA
ENDBRANCH  77  81
ENDBRANCH  60  74
BRANCH  61  85
ATOM     85  C   UNL     1      -5.060   1.708   7.160  1.00  0.00     0.023 A 
ATOM     86  C   UNL     1      -4.827   3.037   6.687  1.00  0.00     0.031 A 
ATOM     87  C   UNL     1      -5.692   0.854   6.250  1.00  0.00     0.131 A 
ATOM     88  C   UNL     1      -4.975   3.376   5.311  1.00  0.00     0.055 A 
ATOM     89  C   UNL     1      -5.833   1.187   4.884  1.00  0.00     0.041 A 
ATOM     90  F   UNL     1      -6.091  -0.365   6.639  1.00  0.00    -0.206 F 
ATOM     91  C   UNL     1      -5.404   2.419   4.396  1.00  0.00     0.022 A 
BRANCH  88  92
ATOM     92  S   UNL     1      -4.394   4.979   4.599  1.00  0.00     0.124 S 
ATOM     93  O   UNL     1      -5.641   5.603   4.176  1.00  0.00    -0.237 OA
ATOM     94  O   UNL     1      -3.710   5.645   5.701  1.00  0.00    -0.237 OA
ATOM     95  O   UNL     1      -3.509   4.537   3.520  1.00  0.00    -0.744 OA
ENDBRANCH  88  92
ENDBRANCH  61  85
BRANCH  73  96
ATOM     96  C   UNL     1      -4.438  -3.937  11.714  1.00  0.00     0.023 A 
ATOM     97  C   UNL     1      -5.768  -4.292  11.469  1.00  0.00     0.031 A 
ATOM     98  C   UNL     1      -3.701  -4.799  12.551  1.00  0.00     0.131 A 
ATOM     99  C   UNL     1      -6.365  -5.354  12.152  1.00  0.00     0.055 A 
ATOM    100  C   UNL     1      -4.266  -5.933  13.136  1.00  0.00     0.041 A 
ATOM    101  F   UNL     1      -2.408  -4.581  12.832  1.00  0.00    -0.206 F 
ATOM    102  C   UNL     1      -5.617  -6.199  12.964  1.00  0.00     0.022 A 
BRANCH  99 103
ATOM    103  S   UNL     1      -8.164  -5.492  12.050  1.00  0.00     0.124 S 
ATOM    104  O   UNL     1      -8.593  -4.208  12.601  1.00  0.00    -0.237 OA
ATOM    105  O   UNL     1      -8.387  -5.671  10.620  1.00  0.00    -0.237 OA
ATOM    106  O   UNL     1      -8.464  -6.656  12.881  1.00  0.00    -0.744 OA
ENDBRANCH  99 103
ENDBRANCH  73  96
ENDBRANCH  47  48
ENDBRANCH  40  42
ENDBRANCH  39  40
ENDBRANCH  38  39
ENDBRANCH  37  38
ENDBRANCH  36  37
ENDBRANCH  35  36
ENDBRANCH   1  35
TORSDOF 24
