REMARK SMILES O=C(OCCOCCOCCOC(=O)[C@@H]1CN(c2nccc(N3CCC(O)CC3)n2)CC[NH2+]1)c1ccc(-c2c3nc(c(-c4cc(S(=O)(=O)[O-])ccc4F)c4ccc([nH]4)c(-c4cc(S(=O)(=O)[O-])ccc4F)c4nc(c(-c5cc(S(=O)(=O)[O-])ccc5F)c5ccc2[nH]5)C=C4)C=C3)cc1
REMARK SMILES IDX 7 1 6 2 5 3 4 4 3 5 2 6 1 7 34 8 35 9 96 10 36 11 95 12
REMARK SMILES IDX 37 13 38 14 39 15 89 16 40 17 94 18 88 19 90 20 41 21 93 22
REMARK SMILES IDX 87 23 86 24 42 26 74 27 54 28 73 29 55 30 58 31 72 32 91 33
REMARK SMILES IDX 56 34 57 35 71 37 92 38 59 39 43 40 44 41 52 42 45 43 51 44
REMARK SMILES IDX 53 45 50 46 46 47 47 48 48 49 49 50 75 51 76 52 84 53 77 54
REMARK SMILES IDX 83 55 85 56 82 57 78 58 79 59 80 60 81 61 60 62 61 63 69 64
REMARK SMILES IDX 62 65 68 66 70 67 67 68 63 69 64 70 65 71 66 72 8 73 9 74
REMARK SMILES IDX 10 75 11 76 12 77 13 78 14 79 15 80 16 81 33 82 17 83 32 84
REMARK SMILES IDX 31 87 18 88 19 89 30 90 20 91 22 92 21 93 23 94 24 95 29 96
REMARK SMILES IDX 25 97 28 98 26 99 27 100
REMARK H PARENT 90 25 58 36 33 85 33 86 27 101
REMARK Flexibility Score: inf
ROOT
ATOM      1  C   UNL     1       2.573  -0.345  -2.372  1.00  0.00     0.188 C 
ENDROOT
BRANCH   1   2
ATOM      2  O   UNL     1       3.837   0.098  -1.865  1.00  0.00    -0.376 OA
BRANCH   2   3
ATOM      3  C   UNL     1       4.741  -0.955  -1.523  1.00  0.00     0.202 C 
BRANCH   3   4
ATOM      4  C   UNL     1       4.518  -1.581  -0.141  1.00  0.00     0.261 C 
BRANCH   4   5
ATOM      5  O   UNL     1       3.129  -1.594   0.228  1.00  0.00    -0.460 OA
BRANCH   5   6
ATOM      6  C   UNL     1       2.526  -0.683   1.035  1.00  0.00     0.338 C 
ATOM      7  O   UNL     1       1.327  -0.781   1.287  1.00  0.00    -0.246 OA
BRANCH   6   8
ATOM      8  C   UNL     1       3.316   0.380   1.701  1.00  0.00     0.060 A 
ATOM      9  C   UNL     1       4.192   1.238   1.033  1.00  0.00     0.016 A 
ATOM     10  C   UNL     1       3.132   0.541   3.071  1.00  0.00     0.016 A 
ATOM     11  C   UNL     1       4.986   2.142   1.738  1.00  0.00     0.010 A 
ATOM     12  C   UNL     1       3.851   1.521   3.758  1.00  0.00     0.010 A 
ATOM     13  C   UNL     1       4.818   2.311   3.113  1.00  0.00    -0.014 A 
BRANCH  13  14
ATOM     14  C   UNL     1       5.701   3.221   3.901  1.00  0.00     0.031 A 
ATOM     15  C   UNL     1       6.375   2.679   5.138  1.00  0.00     0.074 A 
ATOM     16  C   UNL     1       5.902   4.506   3.541  1.00  0.00     0.049 A 
ATOM     17  N   UNL     1       6.941   3.315   6.129  1.00  0.00    -0.248 NA
ATOM     18  C   UNL     1       6.318   1.222   5.321  1.00  0.00     0.031 C 
ATOM     19  C   UNL     1       5.313   5.171   2.376  1.00  0.00     0.029 A 
ATOM     20  N   UNL     1       6.685   5.481   4.108  1.00  0.00    -0.354 N 
ATOM     21  C   UNL     1       7.182   2.349   7.104  1.00  0.00     0.074 A 
ATOM     22  C   UNL     1       6.650   1.104   6.595  1.00  0.00     0.031 C 
ATOM     23  C   UNL     1       5.830   6.405   2.262  1.00  0.00     0.029 A 
ATOM     24  C   UNL     1       6.709   6.659   3.396  1.00  0.00     0.049 A 
ATOM     25  H   UNL     1       7.185   5.349   4.946  1.00  0.00     0.167 HD
ATOM     26  C   UNL     1       7.807   2.489   8.300  1.00  0.00     0.034 A 
ATOM     27  C   UNL     1       7.358   7.815   3.643  1.00  0.00     0.034 A 
ATOM     28  C   UNL     1       8.459   3.712   8.699  1.00  0.00     0.049 A 
ATOM     29  C   UNL     1       8.177   7.909   4.907  1.00  0.00     0.074 A 
ATOM     30  C   UNL     1       9.162   3.989   9.858  1.00  0.00     0.029 A 
ATOM     31  N   UNL     1       8.533   4.853   7.907  1.00  0.00    -0.354 N 
ATOM     32  N   UNL     1       8.328   7.017   5.861  1.00  0.00    -0.248 NA
ATOM     33  C   UNL     1       8.909   9.161   5.131  1.00  0.00     0.031 C 
ATOM     34  C   UNL     1       9.652   5.299   9.768  1.00  0.00     0.029 A 
ATOM     35  C   UNL     1       9.294   5.823   8.536  1.00  0.00     0.049 A 
ATOM     36  H   UNL     1       8.106   4.955   7.026  1.00  0.00     0.167 HD
ATOM     37  C   UNL     1       9.191   7.594   6.786  1.00  0.00     0.074 A 
ATOM     38  C   UNL     1       9.547   8.898   6.262  1.00  0.00     0.031 C 
ATOM     39  C   UNL     1       9.644   7.102   7.968  1.00  0.00     0.034 A 
BRANCH  26  40
ATOM     40  C   UNL     1       7.773   1.304   9.241  1.00  0.00     0.023 A 
ATOM     41  C   UNL     1       8.298   0.050   8.879  1.00  0.00     0.031 A 
ATOM     42  C   UNL     1       7.091   1.393  10.468  1.00  0.00     0.131 A 
ATOM     43  C   UNL     1       7.995  -1.084   9.648  1.00  0.00     0.055 A 
ATOM     44  C   UNL     1       6.901   0.279  11.291  1.00  0.00     0.041 A 
ATOM     45  F   UNL     1       6.555   2.556  10.871  1.00  0.00    -0.206 F 
ATOM     46  C   UNL     1       7.326  -0.976  10.867  1.00  0.00     0.022 A 
BRANCH  43  47
ATOM     47  S   UNL     1       8.290  -2.716   8.908  1.00  0.00     0.124 S 
ATOM     48  O   UNL     1       7.418  -2.661   7.731  1.00  0.00    -0.237 OA
ATOM     49  O   UNL     1       9.714  -2.699   8.648  1.00  0.00    -0.237 OA
ATOM     50  O   UNL     1       7.847  -3.648   9.952  1.00  0.00    -0.744 OA
ENDBRANCH  43  47
ENDBRANCH  26  40
BRANCH  27  51
ATOM     51  C   UNL     1       7.272   8.966   2.695  1.00  0.00     0.023 A 
ATOM     52  C   UNL     1       8.416   9.432   2.025  1.00  0.00     0.031 A 
ATOM     53  C   UNL     1       6.061   9.643   2.469  1.00  0.00     0.131 A 
ATOM     54  C   UNL     1       8.338  10.567   1.202  1.00  0.00     0.055 A 
ATOM     55  C   UNL     1       5.977  10.740   1.607  1.00  0.00     0.041 A 
ATOM     56  F   UNL     1       4.933   9.241   3.075  1.00  0.00    -0.206 F 
ATOM     57  C   UNL     1       7.123  11.217   0.979  1.00  0.00     0.022 A 
BRANCH  54  58
ATOM     58  S   UNL     1       9.870  11.238   0.497  1.00  0.00     0.124 S 
ATOM     59  O   UNL     1      10.672  11.471   1.693  1.00  0.00    -0.237 OA
ATOM     60  O   UNL     1      10.309  10.147  -0.366  1.00  0.00    -0.237 OA
ATOM     61  O   UNL     1       9.425  12.443  -0.200  1.00  0.00    -0.744 OA
ENDBRANCH  54  58
ENDBRANCH  27  51
BRANCH  39  62
ATOM     62  C   UNL     1      10.625   7.959   8.722  1.00  0.00     0.023 A 
ATOM     63  C   UNL     1      10.234   9.160   9.335  1.00  0.00     0.031 A 
ATOM     64  C   UNL     1      11.972   7.569   8.811  1.00  0.00     0.131 A 
ATOM     65  C   UNL     1      11.195   9.962   9.966  1.00  0.00     0.055 A 
ATOM     66  C   UNL     1      12.914   8.346   9.484  1.00  0.00     0.041 A 
ATOM     67  F   UNL     1      12.392   6.428   8.241  1.00  0.00    -0.206 F 
ATOM     68  C   UNL     1      12.530   9.556  10.056  1.00  0.00     0.022 A 
BRANCH  65  69
ATOM     69  S   UNL     1      10.692  11.585  10.597  1.00  0.00     0.124 S 
ATOM     70  O   UNL     1      10.175  12.232   9.395  1.00  0.00    -0.237 OA
ATOM     71  O   UNL     1       9.701  11.233  11.608  1.00  0.00    -0.237 OA
ATOM     72  O   UNL     1      11.935  12.150  11.118  1.00  0.00    -0.744 OA
ENDBRANCH  65  69
ENDBRANCH  39  62
ENDBRANCH  13  14
ENDBRANCH   6   8
ENDBRANCH   5   6
ENDBRANCH   4   5
ENDBRANCH   3   4
ENDBRANCH   2   3
ENDBRANCH   1   2
BRANCH   1  73
ATOM     73  C   UNL     1       1.966   0.719  -3.289  1.00  0.00     0.188 C 
BRANCH  73  74
ATOM     74  O   UNL     1       2.584   0.831  -4.573  1.00  0.00    -0.376 OA
BRANCH  74  75
ATOM     75  C   UNL     1       3.972   1.158  -4.591  1.00  0.00     0.202 C 
BRANCH  75  76
ATOM     76  C   UNL     1       4.331   2.614  -4.277  1.00  0.00     0.261 C 
BRANCH  76  77
ATOM     77  O   UNL     1       3.962   3.063  -2.961  1.00  0.00    -0.459 OA
BRANCH  77  78
ATOM     78  C   UNL     1       2.972   4.000  -2.925  1.00  0.00     0.366 C 
ATOM     79  O   UNL     1       2.256   4.301  -3.878  1.00  0.00    -0.245 OA
BRANCH  78  80
ATOM     80  C   UNL     1       2.903   4.728  -1.576  1.00  0.00     0.313 C 
ATOM     81  C   UNL     1       1.496   4.477  -0.945  1.00  0.00     0.197 C 
ATOM     82  N   UNL     1       3.235   6.162  -1.871  1.00  0.00    -0.332 N 
ATOM     83  N   UNL     1       1.179   5.484   0.073  1.00  0.00    -0.328 N 
ATOM     84  C   UNL     1       2.892   7.015  -0.722  1.00  0.00     0.283 C 
ATOM     85  H   UNL     1       2.706   6.468  -2.687  1.00  0.00     0.347 HD
ATOM     86  H   UNL     1       4.236   6.238  -2.053  1.00  0.00     0.347 HD
ATOM     87  C   UNL     1       1.422   6.872  -0.300  1.00  0.00     0.181 C 
BRANCH  83  88
ATOM     88  C   UNL     1       0.037   5.286   0.826  1.00  0.00     0.227 A 
ATOM     89  N   UNL     1      -1.065   5.992   0.513  1.00  0.00    -0.221 NA
ATOM     90  N   UNL     1       0.132   4.507   1.914  1.00  0.00    -0.196 NA
ATOM     91  C   UNL     1      -2.106   5.896   1.354  1.00  0.00     0.119 A 
ATOM     92  C   UNL     1      -0.922   4.451   2.751  1.00  0.00     0.134 A 
ATOM     93  C   UNL     1      -2.090   5.133   2.490  1.00  0.00     0.067 A 
BRANCH  92  94
ATOM     94  N   UNL     1      -0.803   3.783   3.949  1.00  0.00    -0.356 N 
ATOM     95  C   UNL     1      -1.542   2.562   4.214  1.00  0.00     0.121 C 
ATOM     96  C   UNL     1       0.217   4.205   4.894  1.00  0.00     0.121 C 
ATOM     97  C   UNL     1      -0.568   1.407   4.437  1.00  0.00     0.053 C 
ATOM     98  C   UNL     1       1.198   3.071   5.131  1.00  0.00     0.053 C 
ATOM     99  C   UNL     1       0.490   1.762   5.480  1.00  0.00     0.118 C 
BRANCH  99 100
ATOM    100  O   UNL     1      -0.124   1.856   6.767  1.00  0.00    -0.393 OA
ATOM    101  H   UNL     1      -0.795   2.556   6.755  1.00  0.00     0.210 HD
ENDBRANCH  99 100
ENDBRANCH  92  94
ENDBRANCH  83  88
ENDBRANCH  78  80
ENDBRANCH  77  78
ENDBRANCH  76  77
ENDBRANCH  75  76
ENDBRANCH  74  75
ENDBRANCH  73  74
ENDBRANCH   1  73
TORSDOF 23
