REMARK SMILES O=C(Cc1ccccc1Nc1c(Cl)cccc1C(F)(F)F)OCCOCCOCCOC(=O)c1ccc(-c2c3nc(c(-c4cc(S(=O)(=O)[O-])ccc4F)c4ccc([nH]4)c(-c4cc(S(=O)(=O)[O-])ccc4F)c4nc(c(-c5cc(S(=O)(=O)[O-])ccc5F)c5ccc2[nH]5)C=C4)C=C3)cc1
REMARK SMILES IDX 26 1 25 2 24 3 23 4 22 5 2 6 1 7 3 8 4 9 5 10 9 11 6 12 8 13
REMARK SMILES IDX 7 14 10 15 11 17 12 18 17 19 13 20 14 21 16 22 15 23 18 24
REMARK SMILES IDX 19 25 20 26 21 27 27 28 28 29 29 30 30 31 31 32 32 33 33 34
REMARK SMILES IDX 34 35 35 36 96 37 36 38 95 39 37 40 38 41 39 42 89 43 40 44
REMARK SMILES IDX 94 45 88 46 90 47 41 48 93 49 87 50 86 51 42 53 74 54 54 55
REMARK SMILES IDX 73 56 55 57 58 58 72 59 91 60 56 61 57 62 71 64 92 65 59 66
REMARK SMILES IDX 43 67 44 68 52 69 45 70 51 71 53 72 50 73 46 74 47 75 48 76
REMARK SMILES IDX 49 77 75 78 76 79 84 80 77 81 83 82 85 83 82 84 78 85 79 86
REMARK SMILES IDX 80 87 81 88 60 89 61 90 69 91 62 92 68 93 70 94 67 95 63 96
REMARK SMILES IDX 64 97 65 98 66 99
REMARK H PARENT 10 16 90 52 58 63
REMARK Flexibility Score: inf
ROOT
ATOM      1  C   UNL     1       2.305   1.133   1.603  1.00  0.00     0.188 C 
ENDROOT
BRANCH   1   2
ATOM      2  O   UNL     1       3.681   0.802   1.531  1.00  0.00    -0.376 OA
BRANCH   2   3
ATOM      3  C   UNL     1       4.415   1.176   0.377  1.00  0.00     0.202 C 
BRANCH   3   4
ATOM      4  C   UNL     1       3.748   1.066  -0.995  1.00  0.00     0.261 C 
BRANCH   4   5
ATOM      5  O   UNL     1       2.594   0.222  -1.141  1.00  0.00    -0.463 OA
BRANCH   5   6
ATOM      6  C   UNL     1       2.587  -1.130  -1.139  1.00  0.00     0.310 C 
ATOM      7  O   UNL     1       1.750  -1.726  -1.817  1.00  0.00    -0.252 OA
BRANCH   6   8
ATOM      8  C   UNL     1       3.466  -1.861  -0.154  1.00  0.00     0.160 C 
BRANCH   8   9
ATOM      9  C   UNL     1       4.322  -2.930  -0.785  1.00  0.00    -0.013 A 
ATOM     10  C   UNL     1       3.801  -4.230  -0.882  1.00  0.00     0.006 A 
ATOM     11  C   UNL     1       5.606  -2.647  -1.298  1.00  0.00     0.042 A 
ATOM     12  C   UNL     1       4.555  -5.251  -1.448  1.00  0.00     0.000 A 
ATOM     13  C   UNL     1       6.354  -3.688  -1.858  1.00  0.00     0.026 A 
ATOM     14  C   UNL     1       5.830  -4.980  -1.937  1.00  0.00     0.002 A 
BRANCH  11  15
ATOM     15  N   UNL     1       6.209  -1.398  -1.051  1.00  0.00    -0.354 N 
ATOM     16  H   UNL     1       6.084  -1.074  -0.130  1.00  0.00     0.167 HD
BRANCH  15  17
ATOM     17  C   UNL     1       6.959  -0.516  -1.866  1.00  0.00     0.070 A 
ATOM     18  C   UNL     1       7.966   0.268  -1.240  1.00  0.00     0.065 A 
ATOM     19  C   UNL     1       6.707  -0.288  -3.235  1.00  0.00     0.080 A 
ATOM     20  Cl  UNL     1       8.317   0.072   0.448  1.00  0.00    -0.082 Cl
ATOM     21  C   UNL     1       8.704   1.229  -1.935  1.00  0.00     0.023 A 
ATOM     22  C   UNL     1       7.482   0.678  -3.925  1.00  0.00     0.015 A 
ATOM     23  C   UNL     1       8.463   1.432  -3.284  1.00  0.00     0.002 A 
BRANCH  19  24
ATOM     24  C   UNL     1       5.610  -0.973  -4.021  1.00  0.00     0.418 C 
ATOM     25  F   UNL     1       5.296  -0.286  -5.165  1.00  0.00    -0.166 F 
ATOM     26  F   UNL     1       5.960  -2.216  -4.445  1.00  0.00    -0.166 F 
ATOM     27  F   UNL     1       4.431  -1.082  -3.360  1.00  0.00    -0.166 F 
ENDBRANCH  19  24
ENDBRANCH  15  17
ENDBRANCH  11  15
ENDBRANCH   8   9
ENDBRANCH   6   8
ENDBRANCH   5   6
ENDBRANCH   4   5
ENDBRANCH   3   4
ENDBRANCH   2   3
ENDBRANCH   1   2
BRANCH   1  28
ATOM     28  C   UNL     1       1.911   2.604   1.453  1.00  0.00     0.188 C 
BRANCH  28  29
ATOM     29  O   UNL     1       2.974   3.455   1.040  1.00  0.00    -0.376 OA
BRANCH  29  30
ATOM     30  C   UNL     1       3.457   4.326   2.064  1.00  0.00     0.202 C 
BRANCH  30  31
ATOM     31  C   UNL     1       4.424   3.687   3.077  1.00  0.00     0.261 C 
BRANCH  31  32
ATOM     32  O   UNL     1       3.927   2.561   3.820  1.00  0.00    -0.460 OA
BRANCH  32  33
ATOM     33  C   UNL     1       2.897   2.796   4.662  1.00  0.00     0.338 C 
ATOM     34  O   UNL     1       2.332   3.860   4.830  1.00  0.00    -0.246 OA
BRANCH  33  35
ATOM     35  C   UNL     1       2.454   1.515   5.254  1.00  0.00     0.060 A 
ATOM     36  C   UNL     1       1.125   1.120   5.065  1.00  0.00     0.016 A 
ATOM     37  C   UNL     1       3.313   0.745   6.045  1.00  0.00     0.016 A 
ATOM     38  C   UNL     1       0.637  -0.022   5.699  1.00  0.00     0.010 A 
ATOM     39  C   UNL     1       2.813  -0.385   6.708  1.00  0.00     0.010 A 
ATOM     40  C   UNL     1       1.459  -0.744   6.575  1.00  0.00    -0.014 A 
BRANCH  40  41
ATOM     41  C   UNL     1       0.809  -1.657   7.554  1.00  0.00     0.031 A 
ATOM     42  C   UNL     1       0.397  -1.071   8.882  1.00  0.00     0.074 A 
ATOM     43  C   UNL     1       0.510  -2.935   7.260  1.00  0.00     0.049 A 
ATOM     44  N   UNL     1      -0.255  -1.621   9.874  1.00  0.00    -0.248 NA
ATOM     45  C   UNL     1       0.771   0.333   9.115  1.00  0.00     0.031 C 
ATOM     46  C   UNL     1       0.813  -3.608   5.999  1.00  0.00     0.029 A 
ATOM     47  N   UNL     1      -0.132  -3.894   8.007  1.00  0.00    -0.354 N 
ATOM     48  C   UNL     1      -0.377  -0.629  10.842  1.00  0.00     0.074 A 
ATOM     49  C   UNL     1       0.310   0.539  10.337  1.00  0.00     0.031 C 
ATOM     50  C   UNL     1       0.353  -4.872   6.059  1.00  0.00     0.029 A 
ATOM     51  C   UNL     1      -0.260  -5.105   7.367  1.00  0.00     0.049 A 
ATOM     52  H   UNL     1      -0.471  -3.728   8.916  1.00  0.00     0.167 HD
ATOM     53  C   UNL     1      -1.014  -0.677  12.037  1.00  0.00     0.034 A 
ATOM     54  C   UNL     1      -0.804  -6.265   7.793  1.00  0.00     0.034 A 
ATOM     55  C   UNL     1      -1.676  -1.853  12.545  1.00  0.00     0.049 A 
ATOM     56  C   UNL     1      -1.437  -6.322   9.166  1.00  0.00     0.074 A 
ATOM     57  C   UNL     1      -2.349  -2.014  13.743  1.00  0.00     0.029 A 
ATOM     58  N   UNL     1      -1.734  -3.076  11.890  1.00  0.00    -0.354 N 
ATOM     59  N   UNL     1      -1.566  -5.370  10.062  1.00  0.00    -0.248 NA
ATOM     60  C   UNL     1      -2.016  -7.610   9.575  1.00  0.00     0.031 C 
ATOM     61  C   UNL     1      -2.750  -3.350  13.845  1.00  0.00     0.029 A 
ATOM     62  C   UNL     1      -2.405  -4.004  12.673  1.00  0.00     0.049 A 
ATOM     63  H   UNL     1      -1.355  -3.259  11.000  1.00  0.00     0.167 HD
ATOM     64  C   UNL     1      -2.280  -5.934  11.119  1.00  0.00     0.074 A 
ATOM     65  C   UNL     1      -2.560  -7.304  10.743  1.00  0.00     0.031 C 
ATOM     66  C   UNL     1      -2.678  -5.370  12.289  1.00  0.00     0.034 A 
BRANCH  53  67
ATOM     67  C   UNL     1      -0.963   0.566  12.893  1.00  0.00     0.023 A 
ATOM     68  C   UNL     1      -1.554   1.775  12.483  1.00  0.00     0.031 A 
ATOM     69  C   UNL     1      -0.267   0.555  14.114  1.00  0.00     0.131 A 
ATOM     70  C   UNL     1      -1.372   2.938  13.247  1.00  0.00     0.055 A 
ATOM     71  C   UNL     1      -0.160   1.696  14.911  1.00  0.00     0.041 A 
ATOM     72  F   UNL     1       0.341  -0.562  14.544  1.00  0.00    -0.206 F 
ATOM     73  C   UNL     1      -0.700   2.901  14.471  1.00  0.00     0.022 A 
BRANCH  70  74
ATOM     74  S   UNL     1      -1.888   4.529  12.545  1.00  0.00     0.124 S 
ATOM     75  O   UNL     1      -1.108   4.574  11.311  1.00  0.00    -0.237 OA
ATOM     76  O   UNL     1      -3.327   4.352  12.386  1.00  0.00    -0.237 OA
ATOM     77  O   UNL     1      -1.487   5.499  13.562  1.00  0.00    -0.744 OA
ENDBRANCH  70  74
ENDBRANCH  53  67
BRANCH  54  78
ATOM     78  C   UNL     1      -0.765  -7.487   6.934  1.00  0.00     0.023 A 
ATOM     79  C   UNL     1      -1.946  -8.101   6.482  1.00  0.00     0.031 A 
ATOM     80  C   UNL     1       0.458  -8.107   6.623  1.00  0.00     0.131 A 
ATOM     81  C   UNL     1      -1.880  -9.323   5.792  1.00  0.00     0.055 A 
ATOM     82  C   UNL     1       0.521  -9.293   5.889  1.00  0.00     0.041 A 
ATOM     83  F   UNL     1       1.616  -7.567   7.035  1.00  0.00    -0.206 F 
ATOM     84  C   UNL     1      -0.654  -9.916   5.481  1.00  0.00     0.022 A 
BRANCH  81  85
ATOM     85  S   UNL     1      -3.428 -10.180   5.386  1.00  0.00     0.124 S 
ATOM     86  O   UNL     1      -4.019 -10.365   6.706  1.00  0.00    -0.237 OA
ATOM     87  O   UNL     1      -4.089  -9.214   4.515  1.00  0.00    -0.237 OA
ATOM     88  O   UNL     1      -2.977 -11.403   4.726  1.00  0.00    -0.744 OA
ENDBRANCH  81  85
ENDBRANCH  54  78
BRANCH  66  89
ATOM     89  C   UNL     1      -3.519  -6.218  13.217  1.00  0.00     0.023 A 
ATOM     90  C   UNL     1      -3.015  -7.375  13.835  1.00  0.00     0.031 A 
ATOM     91  C   UNL     1      -4.857  -5.865  13.471  1.00  0.00     0.131 A 
ATOM     92  C   UNL     1      -3.861  -8.175  14.620  1.00  0.00     0.055 A 
ATOM     93  C   UNL     1      -5.675  -6.627  14.306  1.00  0.00     0.041 A 
ATOM     94  F   UNL     1      -5.395  -4.770  12.910  1.00  0.00    -0.206 F 
ATOM     95  C   UNL     1      -5.183  -7.799  14.873  1.00  0.00     0.022 A 
BRANCH  92  96
ATOM     96  S   UNL     1      -3.246  -9.774  15.216  1.00  0.00     0.124 S 
ATOM     97  O   UNL     1      -2.826 -10.420  13.976  1.00  0.00    -0.237 OA
ATOM     98  O   UNL     1      -2.174  -9.377  16.123  1.00  0.00    -0.237 OA
ATOM     99  O   UNL     1      -4.413 -10.373  15.862  1.00  0.00    -0.744 OA
ENDBRANCH  92  96
ENDBRANCH  66  89
ENDBRANCH  40  41
ENDBRANCH  33  35
ENDBRANCH  32  33
ENDBRANCH  31  32
ENDBRANCH  30  31
ENDBRANCH  29  30
ENDBRANCH  28  29
ENDBRANCH   1  28
TORSDOF 24
