REMARK SMILES O=C(OCCOCCOCCOC(=O)[C@@H]1CCn2c(C(=O)c3ccccc3)ccc21)c1ccc(-c2c3nc(c(-c4cc(S(=O)(=O)[O-])ccc4F)c4ccc([nH]4)c(-c4cc(S(=O)(=O)[O-])ccc4F)c4nc(c(-c5cc(S(=O)(=O)[O-])ccc5F)c5ccc2[nH]5)C=C4)C=C3)cc1
REMARK SMILES IDX 7 1 6 2 5 3 4 4 3 5 2 6 1 7 31 8 32 9 93 10 33 11 92 12
REMARK SMILES IDX 34 13 35 14 36 15 86 16 37 17 91 18 85 19 87 20 38 21 90 22
REMARK SMILES IDX 84 23 83 24 39 26 71 27 51 28 70 29 52 30 55 31 69 32 88 33
REMARK SMILES IDX 53 34 54 35 68 37 89 38 56 39 40 40 41 41 49 42 42 43 48 44
REMARK SMILES IDX 50 45 47 46 43 47 44 48 45 49 46 50 72 51 73 52 81 53 74 54
REMARK SMILES IDX 80 55 82 56 79 57 75 58 76 59 77 60 78 61 57 62 58 63 66 64
REMARK SMILES IDX 59 65 65 66 67 67 64 68 60 69 61 70 62 71 63 72 8 73 9 74
REMARK SMILES IDX 10 75 11 76 12 77 13 78 14 79 15 80 16 81 30 82 17 83 18 84
REMARK SMILES IDX 29 85 19 86 28 87 20 88 21 89 22 90 23 91 27 92 24 93 26 94
REMARK SMILES IDX 25 95
REMARK H PARENT 87 25 55 36
REMARK Flexibility Score: inf
ROOT
ATOM      1  C   UNL     1       2.492   1.112   1.777  1.00  0.00     0.188 C 
ENDROOT
BRANCH   1   2
ATOM      2  O   UNL     1       3.749   0.483   1.492  1.00  0.00    -0.376 OA
BRANCH   2   3
ATOM      3  C   UNL     1       4.615   1.284   0.680  1.00  0.00     0.202 C 
BRANCH   3   4
ATOM      4  C   UNL     1       4.352   1.196  -0.831  1.00  0.00     0.261 C 
BRANCH   4   5
ATOM      5  O   UNL     1       2.973   0.925  -1.133  1.00  0.00    -0.460 OA
BRANCH   5   6
ATOM      6  C   UNL     1       2.399  -0.280  -1.388  1.00  0.00     0.338 C 
ATOM      7  O   UNL     1       1.194  -0.314  -1.640  1.00  0.00    -0.246 OA
BRANCH   6   8
ATOM      8  C   UNL     1       3.162  -1.565  -1.426  1.00  0.00     0.060 A 
ATOM      9  C   UNL     1       4.305  -1.833  -0.673  1.00  0.00     0.016 A 
ATOM     10  C   UNL     1       2.652  -2.596  -2.234  1.00  0.00     0.016 A 
ATOM     11  C   UNL     1       5.005  -3.027  -0.823  1.00  0.00     0.010 A 
ATOM     12  C   UNL     1       3.305  -3.833  -2.324  1.00  0.00     0.010 A 
ATOM     13  C   UNL     1       4.512  -4.041  -1.645  1.00  0.00    -0.014 A 
BRANCH  13  14
ATOM     14  C   UNL     1       5.312  -5.276  -1.817  1.00  0.00     0.031 A 
ATOM     15  C   UNL     1       5.981  -5.550  -3.130  1.00  0.00     0.074 A 
ATOM     16  C   UNL     1       5.536  -6.094  -0.772  1.00  0.00     0.049 A 
ATOM     17  N   UNL     1       6.699  -6.581  -3.490  1.00  0.00    -0.248 NA
ATOM     18  C   UNL     1       5.850  -4.512  -4.162  1.00  0.00     0.031 C 
ATOM     19  C   UNL     1       5.037  -5.883   0.587  1.00  0.00     0.029 A 
ATOM     20  N   UNL     1       6.245  -7.266  -0.688  1.00  0.00    -0.354 N 
ATOM     21  C   UNL     1       7.135  -6.304  -4.777  1.00  0.00     0.074 A 
ATOM     22  C   UNL     1       6.549  -5.035  -5.157  1.00  0.00     0.031 C 
ATOM     23  C   UNL     1       5.436  -6.906   1.356  1.00  0.00     0.029 A 
ATOM     24  C   UNL     1       6.160  -7.865   0.545  1.00  0.00     0.049 A 
ATOM     25  H   UNL     1       6.763  -7.641  -1.437  1.00  0.00     0.167 HD
ATOM     26  C   UNL     1       7.969  -7.030  -5.561  1.00  0.00     0.034 A 
ATOM     27  C   UNL     1       6.559  -9.076   0.973  1.00  0.00     0.034 A 
ATOM     28  C   UNL     1       8.516  -8.311  -5.189  1.00  0.00     0.049 A 
ATOM     29  C   UNL     1       7.278  -9.969   0.013  1.00  0.00     0.074 A 
ATOM     30  C   UNL     1       9.335  -9.151  -5.923  1.00  0.00     0.029 A 
ATOM     31  N   UNL     1       8.284  -8.950  -3.976  1.00  0.00    -0.354 N 
ATOM     32  N   UNL     1       7.626  -9.729  -1.228  1.00  0.00    -0.248 NA
ATOM     33  C   UNL     1       7.657 -11.295   0.511  1.00  0.00     0.031 C 
ATOM     34  C   UNL     1       9.547 -10.321  -5.181  1.00  0.00     0.029 A 
ATOM     35  C   UNL     1       8.912 -10.187  -3.958  1.00  0.00     0.049 A 
ATOM     36  H   UNL     1       7.751  -8.577  -3.237  1.00  0.00     0.167 HD
ATOM     37  C   UNL     1       8.298 -10.866  -1.651  1.00  0.00     0.074 A 
ATOM     38  C   UNL     1       8.299 -11.791  -0.534  1.00  0.00     0.031 C 
ATOM     39  C   UNL     1       8.880 -11.112  -2.851  1.00  0.00     0.034 A 
BRANCH  26  40
ATOM     40  C   UNL     1       8.267  -6.461  -6.922  1.00  0.00     0.023 A 
ATOM     41  C   UNL     1       9.013  -5.278  -7.077  1.00  0.00     0.031 A 
ATOM     42  C   UNL     1       7.721  -7.057  -8.071  1.00  0.00     0.131 A 
ATOM     43  C   UNL     1       9.129  -4.689  -8.345  1.00  0.00     0.055 A 
ATOM     44  C   UNL     1       7.900  -6.503  -9.339  1.00  0.00     0.041 A 
ATOM     45  F   UNL     1       6.976  -8.169  -7.973  1.00  0.00    -0.206 F 
ATOM     46  C   UNL     1       8.595  -5.305  -9.479  1.00  0.00     0.022 A 
BRANCH  43  47
ATOM     47  S   UNL     1       9.864  -3.035  -8.473  1.00  0.00     0.124 S 
ATOM     48  O   UNL     1       8.924  -2.233  -7.692  1.00  0.00    -0.237 OA
ATOM     49  O   UNL     1      11.183  -3.226  -7.882  1.00  0.00    -0.237 OA
ATOM     50  O   UNL     1       9.857  -2.767  -9.909  1.00  0.00    -0.744 OA
ENDBRANCH  43  47
ENDBRANCH  26  40
BRANCH  27  51
ATOM     51  C   UNL     1       6.154  -9.591   2.310  1.00  0.00     0.023 A 
ATOM     52  C   UNL     1       7.088  -9.842   3.327  1.00  0.00     0.031 A 
ATOM     53  C   UNL     1       4.814  -9.957   2.526  1.00  0.00     0.131 A 
ATOM     54  C   UNL     1       6.676 -10.501   4.497  1.00  0.00     0.055 A 
ATOM     55  C   UNL     1       4.406 -10.586   3.699  1.00  0.00     0.041 A 
ATOM     56  F   UNL     1       3.886  -9.723   1.583  1.00  0.00    -0.206 F 
ATOM     57  C   UNL     1       5.342 -10.874   4.687  1.00  0.00     0.022 A 
BRANCH  54  58
ATOM     58  S   UNL     1       7.922 -10.941   5.739  1.00  0.00     0.124 S 
ATOM     59  O   UNL     1       8.766 -11.871   4.995  1.00  0.00    -0.237 OA
ATOM     60  O   UNL     1       8.525  -9.648   6.049  1.00  0.00    -0.237 OA
ATOM     61  O   UNL     1       7.145 -11.540   6.822  1.00  0.00    -0.744 OA
ENDBRANCH  54  58
ENDBRANCH  27  51
BRANCH  39  62
ATOM     62  C   UNL     1       9.615 -12.418  -2.963  1.00  0.00     0.023 A 
ATOM     63  C   UNL     1       8.934 -13.648  -2.958  1.00  0.00     0.031 A 
ATOM     64  C   UNL     1      11.020 -12.431  -2.967  1.00  0.00     0.131 A 
ATOM     65  C   UNL     1       9.663 -14.842  -2.877  1.00  0.00     0.055 A 
ATOM     66  C   UNL     1      11.739 -13.624  -2.952  1.00  0.00     0.041 A 
ATOM     67  F   UNL     1      11.713 -11.281  -2.959  1.00  0.00    -0.206 F 
ATOM     68  C   UNL     1      11.061 -14.839  -2.889  1.00  0.00     0.022 A 
BRANCH  65  69
ATOM     69  S   UNL     1       8.759 -16.396  -2.639  1.00  0.00     0.124 S 
ATOM     70  O   UNL     1       8.140 -16.187  -1.334  1.00  0.00    -0.237 OA
ATOM     71  O   UNL     1       7.851 -16.410  -3.781  1.00  0.00    -0.237 OA
ATOM     72  O   UNL     1       9.810 -17.412  -2.673  1.00  0.00    -0.744 OA
ENDBRANCH  65  69
ENDBRANCH  39  62
ENDBRANCH  13  14
ENDBRANCH   6   8
ENDBRANCH   5   6
ENDBRANCH   4   5
ENDBRANCH   3   4
ENDBRANCH   2   3
ENDBRANCH   1   2
BRANCH   1  73
ATOM     73  C   UNL     1       1.968   0.704   3.155  1.00  0.00     0.188 C 
BRANCH  73  74
ATOM     74  O   UNL     1       2.639   1.277   4.282  1.00  0.00    -0.376 OA
BRANCH  74  75
ATOM     75  C   UNL     1       4.047   1.073   4.381  1.00  0.00     0.202 C 
BRANCH  75  76
ATOM     76  C   UNL     1       4.523  -0.310   4.842  1.00  0.00     0.261 C 
BRANCH  76  77
ATOM     77  O   UNL     1       3.870  -1.393   4.175  1.00  0.00    -0.463 OA
BRANCH  77  78
ATOM     78  C   UNL     1       2.887  -2.013   4.898  1.00  0.00     0.315 C 
ATOM     79  O   UNL     1       2.562  -1.717   6.040  1.00  0.00    -0.251 OA
BRANCH  78  80
ATOM     80  C   UNL     1       2.233  -3.103   4.059  1.00  0.00     0.148 C 
ATOM     81  C   UNL     1       0.838  -3.501   4.606  1.00  0.00     0.043 C 
ATOM     82  C   UNL     1       3.008  -4.353   4.198  1.00  0.00     0.033 A 
ATOM     83  C   UNL     1       0.856  -5.024   4.821  1.00  0.00     0.124 C 
ATOM     84  N   UNL     1       2.244  -5.396   4.641  1.00  0.00    -0.341 N 
ATOM     85  C   UNL     1       4.302  -4.768   4.078  1.00  0.00     0.025 A 
ATOM     86  C   UNL     1       3.015  -6.478   4.933  1.00  0.00     0.090 A 
ATOM     87  C   UNL     1       4.312  -6.090   4.585  1.00  0.00     0.032 A 
BRANCH  86  88
ATOM     88  C   UNL     1       2.703  -7.751   5.557  1.00  0.00     0.209 C 
ATOM     89  O   UNL     1       3.585  -8.521   5.930  1.00  0.00    -0.287 OA
BRANCH  88  90
ATOM     90  C   UNL     1       1.329  -8.187   5.876  1.00  0.00     0.024 A 
ATOM     91  C   UNL     1       1.119  -8.722   7.155  1.00  0.00     0.012 A 
ATOM     92  C   UNL     1       0.288  -8.173   4.947  1.00  0.00     0.012 A 
ATOM     93  C   UNL     1      -0.140  -9.185   7.526  1.00  0.00     0.001 A 
ATOM     94  C   UNL     1      -0.981  -8.620   5.329  1.00  0.00     0.001 A 
ATOM     95  C   UNL     1      -1.193  -9.119   6.617  1.00  0.00     0.000 A 
ENDBRANCH  88  90
ENDBRANCH  86  88
ENDBRANCH  78  80
ENDBRANCH  77  78
ENDBRANCH  76  77
ENDBRANCH  75  76
ENDBRANCH  74  75
ENDBRANCH  73  74
ENDBRANCH   1  73
TORSDOF 22
