REMARK SMILES O=C(OCCOCCOCCOC(=O)[C@H]1CCCCN1c1cc(-c2ccccc2)nc(-c2cccc(Cl)c2)n1)c1ccc(-c2c3nc(c(-c4cc(S(=O)(=O)[O-])ccc4F)c4ccc([nH]4)c(-c4cc(S(=O)(=O)[O-])ccc4F)c4nc(c(-c5cc(S(=O)(=O)[O-])ccc5F)c5ccc2[nH]5)C=C4)C=C3)cc1
REMARK SMILES IDX 7 1 6 2 5 3 4 4 3 5 2 6 1 7 40 8 41 9 102 10 42 11 101 12
REMARK SMILES IDX 43 13 44 14 45 15 95 16 46 17 100 18 94 19 96 20 47 21 99 22
REMARK SMILES IDX 93 23 92 24 48 26 80 27 60 28 79 29 61 30 64 31 78 32 97 33
REMARK SMILES IDX 62 34 63 35 77 37 98 38 65 39 49 40 50 41 58 42 51 43 57 44
REMARK SMILES IDX 59 45 56 46 52 47 53 48 54 49 55 50 81 51 82 52 90 53 83 54
REMARK SMILES IDX 89 55 91 56 88 57 84 58 85 59 86 60 87 61 66 62 67 63 75 64
REMARK SMILES IDX 68 65 74 66 76 67 73 68 69 69 70 70 71 71 72 72 8 73 9 74
REMARK SMILES IDX 10 75 11 76 12 77 13 78 14 79 15 80 16 81 20 82 17 83 19 84
REMARK SMILES IDX 18 85 21 86 22 87 39 88 23 89 31 90 30 91 24 92 25 93 29 94
REMARK SMILES IDX 26 95 28 96 27 97 32 98 33 99 38 100 34 101 36 102 35 103
REMARK SMILES IDX 37 104
REMARK H PARENT 96 25 64 36
REMARK Flexibility Score: inf
ROOT
ATOM      1  C   UNL     1      -1.453   0.343   2.510  1.00  0.00     0.188 C 
ENDROOT
BRANCH   1   2
ATOM      2  O   UNL     1      -1.330   1.734   2.807  1.00  0.00    -0.376 OA
BRANCH   2   3
ATOM      3  C   UNL     1      -2.333   2.557   2.199  1.00  0.00     0.202 C 
BRANCH   3   4
ATOM      4  C   UNL     1      -2.237   2.723   0.670  1.00  0.00     0.261 C 
BRANCH   4   5
ATOM      5  O   UNL     1      -1.618   1.608   0.002  1.00  0.00    -0.460 OA
BRANCH   5   6
ATOM      6  C   UNL     1      -0.331   1.486  -0.419  1.00  0.00     0.338 C 
ATOM      7  O   UNL     1      -0.060   0.568  -1.189  1.00  0.00    -0.246 OA
BRANCH   6   8
ATOM      8  C   UNL     1       0.781   2.382   0.034  1.00  0.00     0.060 A 
ATOM      9  C   UNL     1       0.678   3.267   1.099  1.00  0.00     0.016 A 
ATOM     10  C   UNL     1       2.016   2.316  -0.638  1.00  0.00     0.016 A 
ATOM     11  C   UNL     1       1.681   4.164   1.403  1.00  0.00     0.010 A 
ATOM     12  C   UNL     1       3.071   3.178  -0.295  1.00  0.00     0.010 A 
ATOM     13  C   UNL     1       2.880   4.139   0.701  1.00  0.00    -0.014 A 
BRANCH  13  14
ATOM     14  C   UNL     1       3.792   5.268   0.968  1.00  0.00     0.031 A 
ATOM     15  C   UNL     1       3.846   6.381  -0.036  1.00  0.00     0.074 A 
ATOM     16  C   UNL     1       4.311   5.401   2.204  1.00  0.00     0.049 A 
ATOM     17  N   UNL     1       4.475   7.522   0.026  1.00  0.00    -0.248 NA
ATOM     18  C   UNL     1       3.055   6.197  -1.266  1.00  0.00     0.031 C 
ATOM     19  C   UNL     1       4.154   4.423   3.288  1.00  0.00     0.029 A 
ATOM     20  N   UNL     1       5.002   6.428   2.786  1.00  0.00    -0.354 N 
ATOM     21  C   UNL     1       4.164   8.188  -1.155  1.00  0.00     0.074 A 
ATOM     22  C   UNL     1       3.309   7.315  -1.926  1.00  0.00     0.031 C 
ATOM     23  C   UNL     1       4.693   4.921   4.411  1.00  0.00     0.029 A 
ATOM     24  C   UNL     1       5.317   6.203   4.107  1.00  0.00     0.049 A 
ATOM     25  H   UNL     1       5.252   7.250   2.305  1.00  0.00     0.167 HD
ATOM     26  C   UNL     1       4.561   9.420  -1.550  1.00  0.00     0.034 A 
ATOM     27  C   UNL     1       6.067   6.935   4.953  1.00  0.00     0.034 A 
ATOM     28  C   UNL     1       5.437  10.245  -0.759  1.00  0.00     0.049 A 
ATOM     29  C   UNL     1       6.623   8.236   4.428  1.00  0.00     0.074 A 
ATOM     30  C   UNL     1       6.021  11.454  -1.084  1.00  0.00     0.029 A 
ATOM     31  N   UNL     1       5.857   9.931   0.531  1.00  0.00    -0.354 N 
ATOM     32  N   UNL     1       6.414   8.813   3.264  1.00  0.00    -0.248 NA
ATOM     33  C   UNL     1       7.516   8.981   5.319  1.00  0.00     0.031 C 
ATOM     34  C   UNL     1       6.844  11.837  -0.018  1.00  0.00     0.029 A 
ATOM     35  C   UNL     1       6.710  10.912   1.007  1.00  0.00     0.049 A 
ATOM     36  H   UNL     1       5.588   9.128   1.032  1.00  0.00     0.167 HD
ATOM     37  C   UNL     1       7.143   9.997   3.289  1.00  0.00     0.074 A 
ATOM     38  C   UNL     1       7.758  10.068   4.602  1.00  0.00     0.031 C 
ATOM     39  C   UNL     1       7.309  10.936   2.322  1.00  0.00     0.034 A 
BRANCH  26  40
ATOM     40  C   UNL     1       4.127   9.870  -2.922  1.00  0.00     0.023 A 
ATOM     41  C   UNL     1       2.775  10.107  -3.234  1.00  0.00     0.031 A 
ATOM     42  C   UNL     1       5.070   9.978  -3.959  1.00  0.00     0.131 A 
ATOM     43  C   UNL     1       2.399  10.368  -4.562  1.00  0.00     0.055 A 
ATOM     44  C   UNL     1       4.698  10.312  -5.262  1.00  0.00     0.041 A 
ATOM     45  F   UNL     1       6.369   9.729  -3.729  1.00  0.00    -0.206 F 
ATOM     46  C   UNL     1       3.354  10.495  -5.574  1.00  0.00     0.022 A 
BRANCH  43  47
ATOM     47  S   UNL     1       0.633  10.390  -4.979  1.00  0.00     0.124 S 
ATOM     48  O   UNL     1       0.229   9.031  -4.628  1.00  0.00    -0.237 OA
ATOM     49  O   UNL     1       0.117  11.450  -4.119  1.00  0.00    -0.237 OA
ATOM     50  O   UNL     1       0.620  10.687  -6.409  1.00  0.00    -0.744 OA
ENDBRANCH  43  47
ENDBRANCH  26  40
BRANCH  27  51
ATOM     51  C   UNL     1       6.425   6.421   6.312  1.00  0.00     0.023 A 
ATOM     52  C   UNL     1       6.174   7.163   7.477  1.00  0.00     0.031 A 
ATOM     53  C   UNL     1       7.114   5.200   6.455  1.00  0.00     0.131 A 
ATOM     54  C   UNL     1       6.661   6.710   8.716  1.00  0.00     0.055 A 
ATOM     55  C   UNL     1       7.532   4.720   7.697  1.00  0.00     0.041 A 
ATOM     56  F   UNL     1       7.400   4.448   5.380  1.00  0.00    -0.206 F 
ATOM     57  C   UNL     1       7.324   5.487   8.835  1.00  0.00     0.022 A 
BRANCH  54  58
ATOM     58  S   UNL     1       6.534   7.807  10.157  1.00  0.00     0.124 S 
ATOM     59  O   UNL     1       7.170   9.023   9.663  1.00  0.00    -0.237 OA
ATOM     60  O   UNL     1       5.091   7.874  10.358  1.00  0.00    -0.237 OA
ATOM     61  O   UNL     1       7.274   7.092  11.195  1.00  0.00    -0.744 OA
ENDBRANCH  54  58
ENDBRANCH  27  51
BRANCH  39  62
ATOM     62  C   UNL     1       8.163  12.124   2.683  1.00  0.00     0.023 A 
ATOM     63  C   UNL     1       9.533  11.985   2.959  1.00  0.00     0.031 A 
ATOM     64  C   UNL     1       7.591  13.404   2.780  1.00  0.00     0.131 A 
ATOM     65  C   UNL     1      10.269  13.092   3.399  1.00  0.00     0.055 A 
ATOM     66  C   UNL     1       8.347  14.518   3.142  1.00  0.00     0.041 A 
ATOM     67  F   UNL     1       6.285  13.592   2.529  1.00  0.00    -0.206 F 
ATOM     68  C   UNL     1       9.691  14.362   3.472  1.00  0.00     0.022 A 
BRANCH  65  69
ATOM     69  S   UNL     1      11.958  12.823   4.001  1.00  0.00     0.124 S 
ATOM     70  O   UNL     1      11.747  11.842   5.061  1.00  0.00    -0.237 OA
ATOM     71  O   UNL     1      12.640  12.335   2.807  1.00  0.00    -0.237 OA
ATOM     72  O   UNL     1      12.374  14.148   4.455  1.00  0.00    -0.744 OA
ENDBRANCH  65  69
ENDBRANCH  39  62
ENDBRANCH  13  14
ENDBRANCH   6   8
ENDBRANCH   5   6
ENDBRANCH   4   5
ENDBRANCH   3   4
ENDBRANCH   2   3
ENDBRANCH   1   2
BRANCH   1  73
ATOM     73  C   UNL     1      -1.169  -0.561   3.709  1.00  0.00     0.188 C 
BRANCH  73  74
ATOM     74  O   UNL     1      -2.011  -0.433   4.851  1.00  0.00    -0.376 OA
BRANCH  74  75
ATOM     75  C   UNL     1      -2.238   0.874   5.365  1.00  0.00     0.202 C 
BRANCH  75  76
ATOM     76  C   UNL     1      -1.067   1.654   5.993  1.00  0.00     0.261 C 
BRANCH  76  77
ATOM     77  O   UNL     1       0.176   1.626   5.273  1.00  0.00    -0.462 OA
BRANCH  77  78
ATOM     78  C   UNL     1       1.057   0.685   5.722  1.00  0.00     0.328 C 
ATOM     79  O   UNL     1       0.795  -0.091   6.638  1.00  0.00    -0.250 OA
BRANCH  78  80
ATOM     80  C   UNL     1       2.386   0.670   4.908  1.00  0.00     0.193 C 
ATOM     81  C   UNL     1       3.544   0.966   5.866  1.00  0.00     0.037 C 
ATOM     82  N   UNL     1       2.585  -0.655   4.271  1.00  0.00    -0.343 N 
ATOM     83  C   UNL     1       3.741  -0.156   6.889  1.00  0.00     0.005 C 
ATOM     84  C   UNL     1       2.735  -1.800   5.172  1.00  0.00     0.119 C 
ATOM     85  C   UNL     1       3.801  -1.540   6.239  1.00  0.00     0.022 C 
BRANCH  82  86
ATOM     86  C   UNL     1       3.239  -0.771   3.046  1.00  0.00     0.134 A 
ATOM     87  C   UNL     1       2.669  -1.602   2.095  1.00  0.00     0.076 A 
ATOM     88  N   UNL     1       4.416  -0.165   2.819  1.00  0.00    -0.211 NA
ATOM     89  C   UNL     1       3.349  -1.803   0.910  1.00  0.00     0.076 A 
ATOM     90  C   UNL     1       5.015  -0.418   1.631  1.00  0.00     0.162 A 
ATOM     91  N   UNL     1       4.534  -1.227   0.668  1.00  0.00    -0.228 NA
BRANCH  89  92
ATOM     92  C   UNL     1       2.809  -2.655  -0.156  1.00  0.00     0.000 A 
ATOM     93  C   UNL     1       3.479  -3.809  -0.590  1.00  0.00     0.010 A 
ATOM     94  C   UNL     1       1.590  -2.332  -0.771  1.00  0.00     0.010 A 
ATOM     95  C   UNL     1       2.935  -4.622  -1.591  1.00  0.00     0.001 A 
ATOM     96  C   UNL     1       1.052  -3.130  -1.783  1.00  0.00     0.001 A 
ATOM     97  C   UNL     1       1.722  -4.281  -2.187  1.00  0.00     0.000 A 
ENDBRANCH  89  92
BRANCH  90  98
ATOM     98  C   UNL     1       6.325   0.181   1.345  1.00  0.00     0.021 A 
ATOM     99  C   UNL     1       7.424  -0.002   2.203  1.00  0.00     0.012 A 
ATOM    100  C   UNL     1       6.535   0.896   0.151  1.00  0.00     0.032 A 
ATOM    101  C   UNL     1       8.687   0.510   1.878  1.00  0.00     0.002 A 
ATOM    102  C   UNL     1       7.790   1.420  -0.161  1.00  0.00     0.041 A 
ATOM    103  C   UNL     1       8.868   1.227   0.697  1.00  0.00     0.020 A 
ATOM    104  Cl  UNL     1       8.009   2.292  -1.629  1.00  0.00    -0.084 Cl
ENDBRANCH  90  98
ENDBRANCH  82  86
ENDBRANCH  78  80
ENDBRANCH  77  78
ENDBRANCH  76  77
ENDBRANCH  75  76
ENDBRANCH  74  75
ENDBRANCH  73  74
ENDBRANCH   1  73
TORSDOF 23
