REMARK SMILES O=C1NC(=S)/C(=C/c2ccc(-c3ccc(C(=O)OCCOCCOCCOC(=O)c4ccc(-c5c6nc(c(-c7cc(S(=O)(=O)[O-])ccc7F)c7ccc([nH]7)c(-c7cc(S(=O)(=O)[O-])ccc7F)c7nc(c(-c8cc(S(=O)(=O)[O-])ccc8F)c8ccc5[nH]8)C=C7)C=C6)cc4)cc3)o2)S1
REMARK SMILES IDX 23 1 22 2 21 3 20 4 19 5 18 6 16 7 17 8 15 9 12 10 13 11
REMARK SMILES IDX 94 12 14 13 93 14 11 15 8 16 9 17 95 18 10 19 7 20 1 21 2 22
REMARK SMILES IDX 3 23 96 24 4 25 6 27 5 28 24 29 25 30 26 31 27 32 28 33
REMARK SMILES IDX 29 34 30 35 31 36 92 37 32 38 91 39 33 40 34 41 35 42 85 43
REMARK SMILES IDX 36 44 90 45 84 46 86 47 37 48 89 49 83 50 82 51 38 53 70 54
REMARK SMILES IDX 50 55 69 56 51 57 54 58 68 59 87 60 52 61 53 62 67 64 88 65
REMARK SMILES IDX 55 66 39 67 40 68 48 69 41 70 47 71 49 72 46 73 42 74 43 75
REMARK SMILES IDX 44 76 45 77 71 78 72 79 80 80 73 81 79 82 81 83 78 84 74 85
REMARK SMILES IDX 75 86 76 87 77 88 56 89 57 90 65 91 58 92 64 93 66 94 63 95
REMARK SMILES IDX 59 96 60 97 61 98 62 99
REMARK H PARENT 3 26 86 52 54 63
REMARK Flexibility Score: inf
ROOT
ATOM      1  C   UNL     1      10.767  -8.229   3.398  1.00  0.00     0.188 C 
ENDROOT
BRANCH   1   2
ATOM      2  C   UNL     1      10.156  -8.564   4.774  1.00  0.00     0.188 C 
BRANCH   2   3
ATOM      3  O   UNL     1      10.470  -9.792   5.403  1.00  0.00    -0.376 OA
BRANCH   3   4
ATOM      4  C   UNL     1      10.212 -11.026   4.755  1.00  0.00     0.202 C 
BRANCH   4   5
ATOM      5  C   UNL     1       8.996 -11.269   3.844  1.00  0.00     0.261 C 
BRANCH   5   6
ATOM      6  O   UNL     1       8.630 -10.193   2.974  1.00  0.00    -0.460 OA
BRANCH   6   7
ATOM      7  C   UNL     1       7.460  -9.578   3.279  1.00  0.00     0.338 C 
ATOM      8  O   UNL     1       6.683  -9.887   4.166  1.00  0.00    -0.246 OA
BRANCH   7   9
ATOM      9  C   UNL     1       7.301  -8.352   2.464  1.00  0.00     0.060 A 
ATOM     10  C   UNL     1       6.714  -6.072   0.952  1.00  0.00     0.017 A 
ATOM     11  C   UNL     1       6.550  -6.049   2.341  1.00  0.00     0.013 A 
ATOM     12  C   UNL     1       7.282  -7.205   0.345  1.00  0.00     0.013 A 
ATOM     13  C   UNL     1       6.826  -7.194   3.094  1.00  0.00     0.016 A 
ATOM     14  C   UNL     1       7.584  -8.343   1.097  1.00  0.00     0.016 A 
BRANCH  10  15
ATOM     15  C   UNL     1       6.093  -5.056   0.120  1.00  0.00     0.134 A 
ATOM     16  C   UNL     1       5.589  -2.982  -0.481  1.00  0.00     0.128 A 
ATOM     17  C   UNL     1       4.838  -3.852  -1.264  1.00  0.00     0.051 A 
ATOM     18  O   UNL     1       6.381  -3.746   0.356  1.00  0.00    -0.457 OA
ATOM     19  C   UNL     1       5.156  -5.166  -0.879  1.00  0.00     0.051 A 
BRANCH  16  20
ATOM     20  C   UNL     1       5.605  -1.559  -0.510  1.00  0.00     0.065 C 
ATOM     21  O   UNL     1       1.101   0.497   0.477  1.00  0.00    -0.261 OA
ATOM     22  C   UNL     1       2.261   0.239   0.218  1.00  0.00     0.289 C 
ATOM     23  N   UNL     1       3.225   1.141  -0.110  1.00  0.00    -0.307 N 
ATOM     24  S   UNL     1       2.926  -1.372   0.126  1.00  0.00    -0.025 SA
ATOM     25  C   UNL     1       4.469   0.680  -0.459  1.00  0.00     0.120 C 
ATOM     26  H   UNL     1       3.034   2.106  -0.099  1.00  0.00     0.171 HD
ATOM     27  C   UNL     1       4.508  -0.808  -0.324  1.00  0.00     0.056 C 
ATOM     28  S   UNL     1       5.635   1.742  -1.001  1.00  0.00    -0.059 S 
ENDBRANCH  16  20
ENDBRANCH  10  15
ENDBRANCH   7   9
ENDBRANCH   6   7
ENDBRANCH   5   6
ENDBRANCH   4   5
ENDBRANCH   3   4
ENDBRANCH   2   3
ENDBRANCH   1   2
BRANCH   1  29
ATOM     29  O   UNL     1      11.475  -9.258   2.750  1.00  0.00    -0.376 OA
BRANCH  29  30
ATOM     30  C   UNL     1      12.824  -9.522   3.095  1.00  0.00     0.202 C 
BRANCH  30  31
ATOM     31  C   UNL     1      13.661  -8.798   4.171  1.00  0.00     0.261 C 
BRANCH  31  32
ATOM     32  O   UNL     1      13.019  -7.859   5.036  1.00  0.00    -0.460 OA
BRANCH  32  33
ATOM     33  C   UNL     1      13.209  -6.551   4.729  1.00  0.00     0.338 C 
ATOM     34  O   UNL     1      13.821  -6.104   3.776  1.00  0.00    -0.246 OA
BRANCH  33  35
ATOM     35  C   UNL     1      12.394  -5.732   5.648  1.00  0.00     0.060 A 
ATOM     36  C   UNL     1      11.286  -5.041   5.140  1.00  0.00     0.016 A 
ATOM     37  C   UNL     1      12.737  -5.630   6.997  1.00  0.00     0.016 A 
ATOM     38  C   UNL     1      10.523  -4.231   5.982  1.00  0.00     0.010 A 
ATOM     39  C   UNL     1      11.984  -4.799   7.833  1.00  0.00     0.010 A 
ATOM     40  C   UNL     1      10.888  -4.076   7.325  1.00  0.00    -0.014 A 
BRANCH  40  41
ATOM     41  C   UNL     1      10.237  -3.033   8.158  1.00  0.00     0.031 A 
ATOM     42  C   UNL     1      10.953  -1.724   8.357  1.00  0.00     0.074 A 
ATOM     43  C   UNL     1       9.031  -3.236   8.718  1.00  0.00     0.049 A 
ATOM     44  N   UNL     1      10.626  -0.702   9.104  1.00  0.00    -0.248 NA
ATOM     45  C   UNL     1      12.210  -1.553   7.614  1.00  0.00     0.031 C 
ATOM     46  C   UNL     1       8.214  -4.437   8.552  1.00  0.00     0.029 A 
ATOM     47  N   UNL     1       8.286  -2.435   9.549  1.00  0.00    -0.354 N 
ATOM     48  C   UNL     1      11.640   0.234   8.928  1.00  0.00     0.074 A 
ATOM     49  C   UNL     1      12.610  -0.362   8.033  1.00  0.00     0.031 C 
ATOM     50  C   UNL     1       7.084  -4.296   9.267  1.00  0.00     0.029 A 
ATOM     51  C   UNL     1       7.118  -3.020   9.980  1.00  0.00     0.049 A 
ATOM     52  H   UNL     1       8.563  -1.528   9.812  1.00  0.00     0.167 HD
ATOM     53  C   UNL     1      11.748   1.477   9.457  1.00  0.00     0.034 A 
ATOM     54  C   UNL     1       6.200  -2.587  10.870  1.00  0.00     0.034 A 
ATOM     55  C   UNL     1      10.780   2.051  10.361  1.00  0.00     0.049 A 
ATOM     56  C   UNL     1       6.398  -1.243  11.535  1.00  0.00     0.074 A 
ATOM     57  C   UNL     1      10.790   3.303  10.950  1.00  0.00     0.029 A 
ATOM     58  N   UNL     1       9.638   1.407  10.819  1.00  0.00    -0.354 N 
ATOM     59  N   UNL     1       7.362  -0.367  11.363  1.00  0.00    -0.248 NA
ATOM     60  C   UNL     1       5.380  -0.829  12.511  1.00  0.00     0.031 C 
ATOM     61  C   UNL     1       9.703   3.384  11.827  1.00  0.00     0.029 A 
ATOM     62  C   UNL     1       8.958   2.221  11.713  1.00  0.00     0.049 A 
ATOM     63  H   UNL     1       9.353   0.504  10.550  1.00  0.00     0.167 HD
ATOM     64  C   UNL     1       7.041   0.717  12.180  1.00  0.00     0.074 A 
ATOM     65  C   UNL     1       5.792   0.388  12.833  1.00  0.00     0.031 C 
ATOM     66  C   UNL     1       7.714   1.882  12.366  1.00  0.00     0.034 A 
BRANCH  53  67
ATOM     67  C   UNL     1      12.985   2.273   9.115  1.00  0.00     0.023 A 
ATOM     68  C   UNL     1      13.271   2.672   7.798  1.00  0.00     0.031 A 
ATOM     69  C   UNL     1      13.906   2.619  10.121  1.00  0.00     0.131 A 
ATOM     70  C   UNL     1      14.476   3.329   7.511  1.00  0.00     0.055 A 
ATOM     71  C   UNL     1      15.063   3.348   9.842  1.00  0.00     0.041 A 
ATOM     72  F   UNL     1      13.701   2.244  11.393  1.00  0.00    -0.206 F 
ATOM     73  C   UNL     1      15.361   3.695   8.528  1.00  0.00     0.022 A 
BRANCH  70  74
ATOM     74  S   UNL     1      14.941   3.569   5.774  1.00  0.00     0.124 S 
ATOM     75  O   UNL     1      14.946   2.195   5.278  1.00  0.00    -0.237 OA
ATOM     76  O   UNL     1      13.871   4.425   5.276  1.00  0.00    -0.237 OA
ATOM     77  O   UNL     1      16.258   4.199   5.855  1.00  0.00    -0.744 OA
ENDBRANCH  70  74
ENDBRANCH  53  67
BRANCH  54  78
ATOM     78  C   UNL     1       5.028  -3.440  11.229  1.00  0.00     0.023 A 
ATOM     79  C   UNL     1       3.715  -3.004  10.991  1.00  0.00     0.031 A 
ATOM     80  C   UNL     1       5.202  -4.673  11.882  1.00  0.00     0.131 A 
ATOM     81  C   UNL     1       2.629  -3.768  11.448  1.00  0.00     0.055 A 
ATOM     82  C   UNL     1       4.119  -5.460  12.279  1.00  0.00     0.041 A 
ATOM     83  F   UNL     1       6.436  -5.135  12.146  1.00  0.00    -0.206 F 
ATOM     84  C   UNL     1       2.822  -5.001  12.075  1.00  0.00     0.022 A 
BRANCH  81  85
ATOM     85  S   UNL     1       0.959  -3.075  11.305  1.00  0.00     0.124 S 
ATOM     86  O   UNL     1       1.087  -1.837  12.065  1.00  0.00    -0.237 OA
ATOM     87  O   UNL     1       0.814  -2.930   9.860  1.00  0.00    -0.237 OA
ATOM     88  O   UNL     1       0.112  -4.098  11.915  1.00  0.00    -0.744 OA
ENDBRANCH  81  85
ENDBRANCH  54  78
BRANCH  66  89
ATOM     89  C   UNL     1       7.081   2.914  13.271  1.00  0.00     0.023 A 
ATOM     90  C   UNL     1       6.901   2.692  14.648  1.00  0.00     0.031 A 
ATOM     91  C   UNL     1       6.647   4.144  12.741  1.00  0.00     0.131 A 
ATOM     92  C   UNL     1       6.253   3.658  15.434  1.00  0.00     0.055 A 
ATOM     93  C   UNL     1       6.066   5.129  13.540  1.00  0.00     0.041 A 
ATOM     94  F   UNL     1       6.788   4.412  11.432  1.00  0.00    -0.206 F 
ATOM     95  C   UNL     1       5.853   4.883  14.893  1.00  0.00     0.022 A 
BRANCH  92  96
ATOM     96  S   UNL     1       5.844   3.253  17.154  1.00  0.00     0.124 S 
ATOM     97  O   UNL     1       5.024   2.057  16.997  1.00  0.00    -0.237 OA
ATOM     98  O   UNL     1       7.162   3.049  17.748  1.00  0.00    -0.237 OA
ATOM     99  O   UNL     1       5.129   4.438  17.626  1.00  0.00    -0.744 OA
ENDBRANCH  92  96
ENDBRANCH  66  89
ENDBRANCH  40  41
ENDBRANCH  33  35
ENDBRANCH  32  33
ENDBRANCH  31  32
ENDBRANCH  30  31
ENDBRANCH  29  30
ENDBRANCH   1  29
TORSDOF 22
