REMARK SMILES O=C(OCCOCCOCCOC(=O)[C@H]1Cc2ccc(Cl)cc2C[N@@H+]1Cc1ccc(Cl)cc1)c1ccc(-c2c3nc(c(-c4cc(S(=O)(=O)[O-])ccc4F)c4ccc([nH]4)c(-c4cc(S(=O)(=O)[O-])ccc4F)c4nc(c(-c5cc(S(=O)(=O)[O-])ccc5F)c5ccc2[nH]5)C=C4)C=C3)cc1
REMARK SMILES IDX 7 1 6 2 5 3 4 4 3 5 2 6 1 7 34 8 35 9 96 10 36 11 95 12
REMARK SMILES IDX 37 13 38 14 39 15 89 16 40 17 94 18 88 19 90 20 41 21 93 22
REMARK SMILES IDX 87 23 86 24 42 26 74 27 54 28 73 29 55 30 58 31 72 32 91 33
REMARK SMILES IDX 56 34 57 35 71 37 92 38 59 39 43 40 44 41 52 42 45 43 51 44
REMARK SMILES IDX 53 45 50 46 46 47 47 48 48 49 49 50 75 51 76 52 84 53 77 54
REMARK SMILES IDX 83 55 85 56 82 57 78 58 79 59 80 60 81 61 60 62 61 63 69 64
REMARK SMILES IDX 62 65 68 66 70 67 67 68 63 69 64 70 65 71 66 72 8 73 9 74
REMARK SMILES IDX 10 75 11 76 12 77 13 78 14 79 15 80 16 81 25 82 17 83 24 84
REMARK SMILES IDX 18 86 23 87 19 88 22 89 20 90 21 91 26 92 27 93 28 94 33 95
REMARK SMILES IDX 29 96 32 97 30 98 31 99
REMARK H PARENT 90 25 58 36 25 85
REMARK Flexibility Score: inf
ROOT
ATOM      1  C   UNL     1       2.674  -0.228  -1.537  1.00  0.00     0.188 C 
ENDROOT
BRANCH   1   2
ATOM      2  O   UNL     1       4.059   0.043  -1.334  1.00  0.00    -0.376 OA
BRANCH   2   3
ATOM      3  C   UNL     1       4.842  -1.145  -1.175  1.00  0.00     0.202 C 
BRANCH   3   4
ATOM      4  C   UNL     1       4.830  -1.752   0.233  1.00  0.00     0.261 C 
BRANCH   4   5
ATOM      5  O   UNL     1       3.555  -1.690   0.880  1.00  0.00    -0.460 OA
BRANCH   5   6
ATOM      6  C   UNL     1       2.994  -0.663   1.562  1.00  0.00     0.338 C 
ATOM      7  O   UNL     1       1.854  -0.844   1.994  1.00  0.00    -0.246 OA
BRANCH   6   8
ATOM      8  C   UNL     1       3.619   0.692   1.779  1.00  0.00     0.060 A 
ATOM      9  C   UNL     1       2.856   1.585   2.541  1.00  0.00     0.016 A 
ATOM     10  C   UNL     1       4.841   1.169   1.288  1.00  0.00     0.016 A 
ATOM     11  C   UNL     1       3.293   2.893   2.772  1.00  0.00     0.010 A 
ATOM     12  C   UNL     1       5.282   2.485   1.515  1.00  0.00     0.010 A 
ATOM     13  C   UNL     1       4.503   3.373   2.243  1.00  0.00    -0.014 A 
BRANCH  13  14
ATOM     14  C   UNL     1       5.012   4.706   2.663  1.00  0.00     0.031 A 
ATOM     15  C   UNL     1       5.210   5.870   1.719  1.00  0.00     0.074 A 
ATOM     16  C   UNL     1       5.296   4.828   3.975  1.00  0.00     0.049 A 
ATOM     17  N   UNL     1       5.320   7.144   2.009  1.00  0.00    -0.248 NA
ATOM     18  C   UNL     1       5.301   5.596   0.276  1.00  0.00     0.031 C 
ATOM     19  C   UNL     1       5.226   3.728   4.946  1.00  0.00     0.029 A 
ATOM     20  N   UNL     1       5.691   5.902   4.725  1.00  0.00    -0.354 N 
ATOM     21  C   UNL     1       5.383   7.827   0.791  1.00  0.00     0.074 A 
ATOM     22  C   UNL     1       5.408   6.820  -0.241  1.00  0.00     0.031 C 
ATOM     23  C   UNL     1       5.526   4.191   6.163  1.00  0.00     0.029 A 
ATOM     24  C   UNL     1       5.866   5.603   6.056  1.00  0.00     0.049 A 
ATOM     25  H   UNL     1       5.835   6.800   4.349  1.00  0.00     0.167 HD
ATOM     26  C   UNL     1       5.394   9.169   0.586  1.00  0.00     0.034 A 
ATOM     27  C   UNL     1       6.264   6.380   7.081  1.00  0.00     0.034 A 
ATOM     28  C   UNL     1       5.572  10.104   1.668  1.00  0.00     0.049 A 
ATOM     29  C   UNL     1       6.457   7.843   6.799  1.00  0.00     0.074 A 
ATOM     30  C   UNL     1       5.660  11.480   1.592  1.00  0.00     0.029 A 
ATOM     31  N   UNL     1       5.785   9.755   2.995  1.00  0.00    -0.354 N 
ATOM     32  N   UNL     1       6.256   8.495   5.676  1.00  0.00    -0.248 NA
ATOM     33  C   UNL     1       6.906   8.683   7.911  1.00  0.00     0.031 C 
ATOM     34  C   UNL     1       6.061  11.948   2.843  1.00  0.00     0.029 A 
ATOM     35  C   UNL     1       6.112  10.881   3.729  1.00  0.00     0.049 A 
ATOM     36  H   UNL     1       5.715   8.843   3.359  1.00  0.00     0.167 HD
ATOM     37  C   UNL     1       6.513   9.830   5.956  1.00  0.00     0.074 A 
ATOM     38  C   UNL     1       6.872   9.889   7.361  1.00  0.00     0.031 C 
ATOM     39  C   UNL     1       6.454  10.908   5.134  1.00  0.00     0.034 A 
BRANCH  26  40
ATOM     40  C   UNL     1       5.264   9.771  -0.805  1.00  0.00     0.023 A 
ATOM     41  C   UNL     1       6.383  10.295  -1.475  1.00  0.00     0.031 A 
ATOM     42  C   UNL     1       4.000  10.094  -1.338  1.00  0.00     0.131 A 
ATOM     43  C   UNL     1       6.202  11.084  -2.629  1.00  0.00     0.055 A 
ATOM     44  C   UNL     1       3.828  10.796  -2.533  1.00  0.00     0.041 A 
ATOM     45  F   UNL     1       2.884   9.838  -0.655  1.00  0.00    -0.206 F 
ATOM     46  C   UNL     1       4.937  11.301  -3.185  1.00  0.00     0.022 A 
BRANCH  43  47
ATOM     47  S   UNL     1       7.577  12.011  -3.366  1.00  0.00     0.124 S 
ATOM     48  O   UNL     1       7.582  11.495  -4.736  1.00  0.00    -0.237 OA
ATOM     49  O   UNL     1       7.116  13.393  -3.227  1.00  0.00    -0.237 OA
ATOM     50  O   UNL     1       8.723  11.640  -2.555  1.00  0.00    -0.744 OA
ENDBRANCH  43  47
ENDBRANCH  26  40
BRANCH  27  51
ATOM     51  C   UNL     1       6.429   5.769   8.433  1.00  0.00     0.023 A 
ATOM     52  C   UNL     1       7.307   4.683   8.625  1.00  0.00     0.031 A 
ATOM     53  C   UNL     1       5.623   6.159   9.514  1.00  0.00     0.131 A 
ATOM     54  C   UNL     1       7.297   3.975   9.834  1.00  0.00     0.055 A 
ATOM     55  C   UNL     1       5.676   5.502  10.746  1.00  0.00     0.041 A 
ATOM     56  F   UNL     1       4.753   7.171   9.380  1.00  0.00    -0.206 F 
ATOM     57  C   UNL     1       6.500   4.391  10.903  1.00  0.00     0.022 A 
BRANCH  54  58
ATOM     58  S   UNL     1       8.189   2.402   9.995  1.00  0.00     0.124 S 
ATOM     59  O   UNL     1       9.182   2.719  11.016  1.00  0.00    -0.237 OA
ATOM     60  O   UNL     1       7.124   1.492  10.411  1.00  0.00    -0.237 OA
ATOM     61  O   UNL     1       8.713   2.163   8.654  1.00  0.00    -0.744 OA
ENDBRANCH  54  58
ENDBRANCH  27  51
BRANCH  39  62
ATOM     62  C   UNL     1       6.771  12.262   5.715  1.00  0.00     0.023 A 
ATOM     63  C   UNL     1       5.795  13.275   5.671  1.00  0.00     0.031 A 
ATOM     64  C   UNL     1       8.066  12.600   6.143  1.00  0.00     0.131 A 
ATOM     65  C   UNL     1       6.145  14.591   5.986  1.00  0.00     0.055 A 
ATOM     66  C   UNL     1       8.390  13.900   6.527  1.00  0.00     0.041 A 
ATOM     67  F   UNL     1       9.035  11.671   6.187  1.00  0.00    -0.206 F 
ATOM     68  C   UNL     1       7.433  14.906   6.429  1.00  0.00     0.022 A 
BRANCH  65  69
ATOM     69  S   UNL     1       4.982  15.953   5.704  1.00  0.00     0.124 S 
ATOM     70  O   UNL     1       4.796  16.475   7.056  1.00  0.00    -0.237 OA
ATOM     71  O   UNL     1       5.737  16.817   4.800  1.00  0.00    -0.237 OA
ATOM     72  O   UNL     1       3.813  15.306   5.120  1.00  0.00    -0.744 OA
ENDBRANCH  65  69
ENDBRANCH  39  62
ENDBRANCH  13  14
ENDBRANCH   6   8
ENDBRANCH   5   6
ENDBRANCH   4   5
ENDBRANCH   3   4
ENDBRANCH   2   3
ENDBRANCH   1   2
BRANCH   1  73
ATOM     73  C   UNL     1       2.128   0.067  -2.934  1.00  0.00     0.188 C 
BRANCH  73  74
ATOM     74  O   UNL     1       2.913  -0.199  -4.084  1.00  0.00    -0.376 OA
BRANCH  74  75
ATOM     75  C   UNL     1       4.233   0.318  -4.181  1.00  0.00     0.202 C 
BRANCH  75  76
ATOM     76  C   UNL     1       4.525   1.828  -4.143  1.00  0.00     0.261 C 
BRANCH  76  77
ATOM     77  O   UNL     1       3.928   2.611  -3.099  1.00  0.00    -0.459 OA
BRANCH  77  78
ATOM     78  C   UNL     1       2.729   3.149  -3.454  1.00  0.00     0.365 C 
ATOM     79  O   UNL     1       2.100   2.769  -4.439  1.00  0.00    -0.245 OA
BRANCH  78  80
ATOM     80  C   UNL     1       2.234   4.281  -2.551  1.00  0.00     0.300 C 
ATOM     81  C   UNL     1       2.204   3.816  -1.081  1.00  0.00     0.113 C 
ATOM     82  N   UNL     1       3.014   5.537  -2.741  1.00  0.00    -0.315 N 
ATOM     83  C   UNL     1       1.839   4.926  -0.128  1.00  0.00    -0.033 A 
ATOM     84  C   UNL     1       2.431   6.615  -1.914  1.00  0.00     0.300 C 
ATOM     85  H   UNL     1       3.965   5.324  -2.440  1.00  0.00     0.349 HD
ATOM     86  C   UNL     1       1.350   4.661   1.157  1.00  0.00     0.006 A 
ATOM     87  C   UNL     1       2.085   6.249  -0.493  1.00  0.00     0.011 A 
ATOM     88  C   UNL     1       1.221   5.679   2.110  1.00  0.00     0.021 A 
ATOM     89  C   UNL     1       1.879   7.266   0.453  1.00  0.00     0.030 A 
ATOM     90  C   UNL     1       1.508   6.984   1.757  1.00  0.00     0.041 A 
ATOM     91  Cl  UNL     1       1.372   8.253   2.907  1.00  0.00    -0.084 Cl
BRANCH  82  92
ATOM     92  C   UNL     1       3.146   5.984  -4.162  1.00  0.00     0.300 C 
BRANCH  92  93
ATOM     93  C   UNL     1       1.838   6.138  -4.929  1.00  0.00     0.006 A 
ATOM     94  C   UNL     1       0.980   7.216  -4.682  1.00  0.00     0.011 A 
ATOM     95  C   UNL     1       1.387   5.120  -5.780  1.00  0.00     0.011 A 
ATOM     96  C   UNL     1      -0.365   7.148  -5.052  1.00  0.00     0.021 A 
ATOM     97  C   UNL     1       0.044   5.042  -6.148  1.00  0.00     0.021 A 
ATOM     98  C   UNL     1      -0.837   6.035  -5.739  1.00  0.00     0.041 A 
ATOM     99  Cl  UNL     1      -2.519   5.873  -6.062  1.00  0.00    -0.084 Cl
ENDBRANCH  92  93
ENDBRANCH  82  92
ENDBRANCH  78  80
ENDBRANCH  77  78
ENDBRANCH  76  77
ENDBRANCH  75  76
ENDBRANCH  74  75
ENDBRANCH  73  74
ENDBRANCH   1  73
TORSDOF 22
