REMARK SMILES C=CC[N@@H+]1C[C@@H](C(=O)OCCOCCOCCOC(=O)c2ccc(-c3c4nc(c(-c5cc(S(=O)(=O)[O-])ccc5F)c5ccc([nH]5)c(-c5cc(S(=O)(=O)[O-])ccc5F)c5nc(c(-c6cc(S(=O)(=O)[O-])ccc6F)c6ccc3[nH]6)C=C5)C=C4)cc2)C2(CC[NH+](C)CC2)C1
REMARK SMILES IDX 14 1 13 2 12 3 11 4 10 5 9 6 7 7 8 8 6 9 4 10 5 11 91 12
REMARK SMILES IDX 84 14 85 15 90 16 86 17 89 18 87 19 88 20 3 22 2 23 1 24
REMARK SMILES IDX 15 25 16 26 17 27 18 28 19 29 20 30 21 31 22 32 83 33 23 34
REMARK SMILES IDX 82 35 24 36 25 37 26 38 76 39 27 40 81 41 75 42 77 43 28 44
REMARK SMILES IDX 80 45 74 46 73 47 29 49 61 50 41 51 60 52 42 53 45 54 59 55
REMARK SMILES IDX 78 56 43 57 44 58 58 60 79 61 46 62 30 63 31 64 39 65 32 66
REMARK SMILES IDX 38 67 40 68 37 69 33 70 34 71 35 72 36 73 62 74 63 75 71 76
REMARK SMILES IDX 64 77 70 78 72 79 69 80 65 81 66 82 67 83 68 84 47 85 48 86
REMARK SMILES IDX 56 87 49 88 55 89 57 90 54 91 50 92 51 93 52 94 53 95
REMARK H PARENT 4 13 87 21 77 48 45 59
REMARK Flexibility Score: inf
ROOT
ATOM      1  C   UNL     1      -3.034   2.923   6.681  1.00  0.00     0.188 C 
ENDROOT
BRANCH   1   2
ATOM      2  C   UNL     1      -4.534   3.038   6.429  1.00  0.00     0.188 C 
BRANCH   2   3
ATOM      3  O   UNL     1      -5.284   1.835   6.293  1.00  0.00    -0.376 OA
BRANCH   3   4
ATOM      4  C   UNL     1      -4.613   0.660   5.862  1.00  0.00     0.202 C 
BRANCH   4   5
ATOM      5  C   UNL     1      -4.348   0.546   4.355  1.00  0.00     0.261 C 
BRANCH   5   6
ATOM      6  O   UNL     1      -3.273   1.371   3.837  1.00  0.00    -0.463 OA
BRANCH   6   7
ATOM      7  C   UNL     1      -3.687   2.453   3.136  1.00  0.00     0.315 C 
ATOM      8  O   UNL     1      -4.849   2.855   3.140  1.00  0.00    -0.252 OA
BRANCH   7   9
ATOM      9  C   UNL     1      -2.679   3.075   2.183  1.00  0.00     0.166 C 
ATOM     10  N   UNL     1      -1.563   1.436   0.877  1.00  0.00    -0.330 N 
ATOM     11  C   UNL     1      -2.749   2.296   0.868  1.00  0.00     0.278 C 
ATOM     12  C   UNL     1      -0.513   2.103   1.634  1.00  0.00     0.271 C 
ATOM     13  H   UNL     1      -1.763   0.562   1.363  1.00  0.00     0.348 HD
ATOM     14  C   UNL     1      -1.157   3.275   2.392  1.00  0.00     0.049 C 
ATOM     15  C   UNL     1      -0.574   3.314   3.806  1.00  0.00     0.075 C 
ATOM     16  C   UNL     1      -0.735   4.614   1.691  1.00  0.00     0.075 C 
ATOM     17  C   UNL     1      -0.947   4.582   4.544  1.00  0.00     0.262 C 
ATOM     18  C   UNL     1      -1.122   5.862   2.494  1.00  0.00     0.262 C 
ATOM     19  N   UNL     1      -0.623   5.834   3.866  1.00  0.00    -0.337 N 
ATOM     20  C   UNL     1       0.784   6.207   3.967  1.00  0.00     0.332 C 
ATOM     21  H   UNL     1      -1.125   6.563   4.374  1.00  0.00     0.347 HD
BRANCH  10  22
ATOM     22  C   UNL     1      -1.197   0.954  -0.452  1.00  0.00     0.290 C 
BRANCH  22  23
ATOM     23  C   UNL     1       0.241   0.532  -0.600  1.00  0.00     0.025 C 
ATOM     24  C   UNL     1       0.730  -0.691  -0.360  1.00  0.00     0.010 C 
ENDBRANCH  22  23
ENDBRANCH  10  22
ENDBRANCH   7   9
ENDBRANCH   6   7
ENDBRANCH   5   6
ENDBRANCH   4   5
ENDBRANCH   3   4
ENDBRANCH   2   3
ENDBRANCH   1   2
BRANCH   1  25
ATOM     25  O   UNL     1      -2.735   2.172   7.855  1.00  0.00    -0.376 OA
BRANCH  25  26
ATOM     26  C   UNL     1      -1.467   2.538   8.408  1.00  0.00     0.202 C 
BRANCH  26  27
ATOM     27  C   UNL     1      -1.697   3.475   9.597  1.00  0.00     0.261 C 
BRANCH  27  28
ATOM     28  O   UNL     1      -2.342   4.712   9.229  1.00  0.00    -0.460 OA
BRANCH  28  29
ATOM     29  C   UNL     1      -1.552   5.598   8.576  1.00  0.00     0.338 C 
ATOM     30  O   UNL     1      -0.378   5.443   8.294  1.00  0.00    -0.246 OA
BRANCH  29  31
ATOM     31  C   UNL     1      -2.380   6.717   8.082  1.00  0.00     0.060 A 
ATOM     32  C   UNL     1      -2.527   6.855   6.704  1.00  0.00     0.016 A 
ATOM     33  C   UNL     1      -2.932   7.668   8.933  1.00  0.00     0.016 A 
ATOM     34  C   UNL     1      -3.186   7.943   6.147  1.00  0.00     0.010 A 
ATOM     35  C   UNL     1      -3.606   8.768   8.380  1.00  0.00     0.010 A 
ATOM     36  C   UNL     1      -3.718   8.925   6.982  1.00  0.00    -0.014 A 
BRANCH  36  37
ATOM     37  C   UNL     1      -4.250  10.180   6.392  1.00  0.00     0.031 A 
ATOM     38  C   UNL     1      -3.488  11.456   6.609  1.00  0.00     0.074 A 
ATOM     39  C   UNL     1      -5.363  10.185   5.634  1.00  0.00     0.049 A 
ATOM     40  N   UNL     1      -3.857  12.692   6.407  1.00  0.00    -0.248 NA
ATOM     41  C   UNL     1      -2.122  11.310   7.136  1.00  0.00     0.031 C 
ATOM     42  C   UNL     1      -6.126   9.001   5.237  1.00  0.00     0.029 A 
ATOM     43  N   UNL     1      -6.050  11.230   5.066  1.00  0.00    -0.354 N 
ATOM     44  C   UNL     1      -2.794  13.478   6.839  1.00  0.00     0.074 A 
ATOM     45  C   UNL     1      -1.767  12.573   7.312  1.00  0.00     0.031 C 
ATOM     46  C   UNL     1      -7.179   9.387   4.498  1.00  0.00     0.029 A 
ATOM     47  C   UNL     1      -7.214  10.846   4.443  1.00  0.00     0.049 A 
ATOM     48  H   UNL     1      -5.739  12.164   5.102  1.00  0.00     0.167 HD
ATOM     49  C   UNL     1      -2.696  14.830   6.848  1.00  0.00     0.034 A 
ATOM     50  C   UNL     1      -8.225  11.587   3.944  1.00  0.00     0.034 A 
ATOM     51  C   UNL     1      -3.723  15.707   6.337  1.00  0.00     0.049 A 
ATOM     52  C   UNL     1      -8.142  13.090   4.046  1.00  0.00     0.074 A 
ATOM     53  C   UNL     1      -3.739  17.090   6.300  1.00  0.00     0.029 A 
ATOM     54  N   UNL     1      -4.917  15.282   5.766  1.00  0.00    -0.354 N 
ATOM     55  N   UNL     1      -7.181  13.834   4.546  1.00  0.00    -0.248 NA
ATOM     56  C   UNL     1      -9.287  13.853   3.531  1.00  0.00     0.031 C 
ATOM     57  C   UNL     1      -4.966  17.500   5.766  1.00  0.00     0.029 A 
ATOM     58  C   UNL     1      -5.688  16.375   5.401  1.00  0.00     0.049 A 
ATOM     59  H   UNL     1      -5.178  14.341   5.640  1.00  0.00     0.167 HD
ATOM     60  C   UNL     1      -7.603  15.153   4.393  1.00  0.00     0.074 A 
ATOM     61  C   UNL     1      -8.893  15.101   3.736  1.00  0.00     0.031 C 
ATOM     62  C   UNL     1      -6.982  16.303   4.762  1.00  0.00     0.034 A 
BRANCH  49  63
ATOM     63  C   UNL     1      -1.480  15.429   7.511  1.00  0.00     0.023 A 
ATOM     64  C   UNL     1      -0.180  15.243   7.008  1.00  0.00     0.031 A 
ATOM     65  C   UNL     1      -1.625  16.153   8.709  1.00  0.00     0.131 A 
ATOM     66  C   UNL     1       0.924  15.706   7.741  1.00  0.00     0.055 A 
ATOM     67  C   UNL     1      -0.527  16.681   9.389  1.00  0.00     0.041 A 
ATOM     68  F   UNL     1      -2.839  16.340   9.251  1.00  0.00    -0.206 F 
ATOM     69  C   UNL     1       0.759  16.445   8.915  1.00  0.00     0.022 A 
BRANCH  66  70
ATOM     70  S   UNL     1       2.587  15.197   7.221  1.00  0.00     0.124 S 
ATOM     71  O   UNL     1       2.479  13.741   7.271  1.00  0.00    -0.237 OA
ATOM     72  O   UNL     1       2.695  15.784   5.890  1.00  0.00    -0.237 OA
ATOM     73  O   UNL     1       3.459  15.784   8.235  1.00  0.00    -0.744 OA
ENDBRANCH  66  70
ENDBRANCH  49  63
BRANCH  50  74
ATOM     74  C   UNL     1      -9.447  10.927   3.399  1.00  0.00     0.023 A 
ATOM     75  C   UNL     1      -9.824  11.080   2.056  1.00  0.00     0.031 A 
ATOM     76  C   UNL     1     -10.287  10.169   4.237  1.00  0.00     0.131 A 
ATOM     77  C   UNL     1     -11.023  10.511   1.597  1.00  0.00     0.055 A 
ATOM     78  C   UNL     1     -11.450   9.560   3.763  1.00  0.00     0.041 A 
ATOM     79  F   UNL     1      -9.981  10.000   5.533  1.00  0.00    -0.206 F 
ATOM     80  C   UNL     1     -11.830   9.739   2.437  1.00  0.00     0.022 A 
BRANCH  77  81
ATOM     81  S   UNL     1     -11.558  10.858  -0.102  1.00  0.00     0.124 S 
ATOM     82  O   UNL     1     -11.666  12.312  -0.088  1.00  0.00    -0.237 OA
ATOM     83  O   UNL     1     -10.460  10.303  -0.886  1.00  0.00    -0.237 OA
ATOM     84  O   UNL     1     -12.825  10.139  -0.214  1.00  0.00    -0.744 OA
ENDBRANCH  77  81
ENDBRANCH  50  74
BRANCH  62  85
ATOM     85  C   UNL     1      -7.682  17.595   4.422  1.00  0.00     0.023 A 
ATOM     86  C   UNL     1      -8.879  17.976   5.054  1.00  0.00     0.031 A 
ATOM     87  C   UNL     1      -7.148  18.450   3.441  1.00  0.00     0.131 A 
ATOM     88  C   UNL     1      -9.530  19.155   4.660  1.00  0.00     0.055 A 
ATOM     89  C   UNL     1      -7.771  19.649   3.095  1.00  0.00     0.041 A 
ATOM     90  F   UNL     1      -6.009  18.133   2.806  1.00  0.00    -0.206 F 
ATOM     91  C   UNL     1      -8.976  20.001   3.696  1.00  0.00     0.022 A 
BRANCH  88  92
ATOM     92  S   UNL     1     -11.160  19.528   5.365  1.00  0.00     0.124 S 
ATOM     93  O   UNL     1     -11.938  18.361   4.965  1.00  0.00    -0.237 OA
ATOM     94  O   UNL     1     -10.866  19.642   6.790  1.00  0.00    -0.237 OA
ATOM     95  O   UNL     1     -11.538  20.779   4.710  1.00  0.00    -0.744 OA
ENDBRANCH  88  92
ENDBRANCH  62  85
ENDBRANCH  36  37
ENDBRANCH  29  31
ENDBRANCH  28  29
ENDBRANCH  27  28
ENDBRANCH  26  27
ENDBRANCH  25  26
ENDBRANCH   1  25
TORSDOF 22
