REMARK SMILES Cc1cc(Cl)cc2c1O[C@H](C(F)(F)F)C(C(=O)OCCOCCOCCOC(=O)c1ccc(-c3c4nc(c(-c5cc(S(=O)(=O)[O-])ccc5F)c5ccc([nH]5)c(-c5cc(S(=O)(=O)[O-])ccc5F)c5nc(c(-c6cc(S(=O)(=O)[O-])ccc6F)c6ccc3[nH]6)C=C5)C=C4)cc1)=C2
REMARK SMILES IDX 23 1 22 2 21 3 20 4 19 5 18 6 16 7 17 8 15 9 1 10 2 11 3 12
REMARK SMILES IDX 8 13 4 14 7 15 9 16 5 17 6 18 93 19 10 20 11 21 12 22 13 23
REMARK SMILES IDX 14 24 24 25 25 26 26 27 27 28 28 29 29 30 30 31 31 32 92 33
REMARK SMILES IDX 32 34 91 35 33 36 34 37 35 38 85 39 36 40 90 41 84 42 86 43
REMARK SMILES IDX 37 44 89 45 83 46 82 47 38 49 70 50 50 51 69 52 51 53 54 54
REMARK SMILES IDX 68 55 87 56 52 57 53 58 67 60 88 61 55 62 39 63 40 64 48 65
REMARK SMILES IDX 41 66 47 67 49 68 46 69 42 70 43 71 44 72 45 73 71 74 72 75
REMARK SMILES IDX 80 76 73 77 79 78 81 79 78 80 74 81 75 82 76 83 77 84 56 85
REMARK SMILES IDX 57 86 65 87 58 88 64 89 66 90 63 91 59 92 60 93 61 94 62 95
REMARK H PARENT 86 48 54 59
REMARK Flexibility Score: inf
ROOT
ATOM      1  C   UNL     1      -0.993   0.335   6.988  1.00  0.00     0.188 C 
ENDROOT
BRANCH   1   2
ATOM      2  C   UNL     1      -1.969   1.450   7.422  1.00  0.00     0.188 C 
BRANCH   2   3
ATOM      3  O   UNL     1      -3.057   1.167   8.284  1.00  0.00    -0.376 OA
BRANCH   3   4
ATOM      4  C   UNL     1      -3.937   0.096   7.988  1.00  0.00     0.202 C 
BRANCH   4   5
ATOM      5  C   UNL     1      -4.586   0.005   6.607  1.00  0.00     0.261 C 
BRANCH   5   6
ATOM      6  O   UNL     1      -3.627  -0.012   5.539  1.00  0.00    -0.460 OA
BRANCH   6   7
ATOM      7  C   UNL     1      -3.797   0.949   4.601  1.00  0.00     0.338 C 
ATOM      8  O   UNL     1      -4.710   1.757   4.541  1.00  0.00    -0.246 OA
BRANCH   7   9
ATOM      9  C   UNL     1      -2.639   0.962   3.689  1.00  0.00     0.087 C 
ATOM     10  C   UNL     1       0.905  -0.087   0.099  1.00  0.00     0.048 C 
ATOM     11  C   UNL     1       0.447   1.120   0.869  1.00  0.00    -0.007 A 
ATOM     12  C   UNL     1       0.991   2.371   0.535  1.00  0.00     0.027 A 
ATOM     13  C   UNL     1      -0.552   1.052   1.854  1.00  0.00     0.131 A 
ATOM     14  C   UNL     1       0.562   3.525   1.187  1.00  0.00     0.042 A 
ATOM     15  C   UNL     1      -0.999   2.220   2.486  1.00  0.00     0.019 A 
ATOM     16  O   UNL     1      -1.054  -0.187   2.144  1.00  0.00    -0.475 OA
ATOM     17  Cl  UNL     1       1.240   5.045   0.760  1.00  0.00    -0.084 Cl
ATOM     18  C   UNL     1      -0.428   3.456   2.162  1.00  0.00     0.032 A 
ATOM     19  C   UNL     1      -2.097   2.159   3.435  1.00  0.00     0.027 C 
ATOM     20  C   UNL     1      -2.143  -0.325   3.094  1.00  0.00     0.316 C 
BRANCH  20  21
ATOM     21  C   UNL     1      -3.261  -1.131   2.416  1.00  0.00     0.430 C 
ATOM     22  F   UNL     1      -2.778  -2.271   1.862  1.00  0.00    -0.167 F 
ATOM     23  F   UNL     1      -4.216  -1.512   3.298  1.00  0.00    -0.167 F 
ATOM     24  F   UNL     1      -3.873  -0.432   1.434  1.00  0.00    -0.167 F 
ENDBRANCH  20  21
ENDBRANCH   7   9
ENDBRANCH   6   7
ENDBRANCH   5   6
ENDBRANCH   4   5
ENDBRANCH   3   4
ENDBRANCH   2   3
ENDBRANCH   1   2
BRANCH   1  25
ATOM     25  O   UNL     1      -1.058  -0.958   7.550  1.00  0.00    -0.376 OA
BRANCH  25  26
ATOM     26  C   UNL     1      -0.879  -1.160   8.942  1.00  0.00     0.202 C 
BRANCH  26  27
ATOM     27  C   UNL     1       0.100  -0.350   9.803  1.00  0.00     0.261 C 
BRANCH  27  28
ATOM     28  O   UNL     1       0.203   1.042   9.499  1.00  0.00    -0.460 OA
BRANCH  28  29
ATOM     29  C   UNL     1       1.398   1.421   8.979  1.00  0.00     0.338 C 
ATOM     30  O   UNL     1       2.360   0.711   8.749  1.00  0.00    -0.246 OA
BRANCH  29  31
ATOM     31  C   UNL     1       1.304   2.826   8.546  1.00  0.00     0.060 A 
ATOM     32  C   UNL     1       1.467   3.112   7.184  1.00  0.00     0.016 A 
ATOM     33  C   UNL     1       1.098   3.849   9.473  1.00  0.00     0.016 A 
ATOM     34  C   UNL     1       1.447   4.434   6.745  1.00  0.00     0.010 A 
ATOM     35  C   UNL     1       1.110   5.175   9.036  1.00  0.00     0.010 A 
ATOM     36  C   UNL     1       1.314   5.473   7.676  1.00  0.00    -0.014 A 
BRANCH  36  37
ATOM     37  C   UNL     1       1.619   6.862   7.262  1.00  0.00     0.031 A 
ATOM     38  C   UNL     1       3.035   7.347   7.410  1.00  0.00     0.074 A 
ATOM     39  C   UNL     1       0.676   7.662   6.737  1.00  0.00     0.049 A 
ATOM     40  N   UNL     1       3.535   8.531   7.179  1.00  0.00    -0.248 NA
ATOM     41  C   UNL     1       4.020   6.356   7.878  1.00  0.00     0.031 C 
ATOM     42  C   UNL     1      -0.711   7.281   6.477  1.00  0.00     0.029 A 
ATOM     43  N   UNL     1       0.749   8.969   6.324  1.00  0.00    -0.354 N 
ATOM     44  C   UNL     1       4.892   8.428   7.463  1.00  0.00     0.074 A 
ATOM     45  C   UNL     1       5.131   7.074   7.913  1.00  0.00     0.031 C 
ATOM     46  C   UNL     1      -1.360   8.335   5.949  1.00  0.00     0.029 A 
ATOM     47  C   UNL     1      -0.446   9.474   5.871  1.00  0.00     0.049 A 
ATOM     48  H   UNL     1       1.581   9.495   6.350  1.00  0.00     0.167 HD
ATOM     49  C   UNL     1       5.854   9.374   7.352  1.00  0.00     0.034 A 
ATOM     50  C   UNL     1      -0.767  10.720   5.467  1.00  0.00     0.034 A 
ATOM     51  C   UNL     1       5.604  10.726   6.928  1.00  0.00     0.049 A 
ATOM     52  C   UNL     1       0.294  11.794   5.478  1.00  0.00     0.074 A 
ATOM     53  C   UNL     1       6.504  11.769   6.803  1.00  0.00     0.029 A 
ATOM     54  N   UNL     1       4.361  11.226   6.567  1.00  0.00    -0.354 N 
ATOM     55  N   UNL     1       1.565  11.698   5.794  1.00  0.00    -0.248 NA
ATOM     56  C   UNL     1      -0.127  13.149   5.090  1.00  0.00     0.031 C 
ATOM     57  C   UNL     1       5.795  12.914   6.426  1.00  0.00     0.029 A 
ATOM     58  C   UNL     1       4.464  12.570   6.251  1.00  0.00     0.049 A 
ATOM     59  H   UNL     1       3.528  10.702   6.540  1.00  0.00     0.167 HD
ATOM     60  C   UNL     1       2.097  12.974   5.627  1.00  0.00     0.074 A 
ATOM     61  C   UNL     1       1.013  13.822   5.175  1.00  0.00     0.031 C 
ATOM     62  C   UNL     1       3.368  13.406   5.825  1.00  0.00     0.034 A 
BRANCH  49  63
ATOM     63  C   UNL     1       7.252   8.984   7.744  1.00  0.00     0.023 A 
ATOM     64  C   UNL     1       8.005   8.083   6.971  1.00  0.00     0.031 A 
ATOM     65  C   UNL     1       7.835   9.512   8.908  1.00  0.00     0.131 A 
ATOM     66  C   UNL     1       9.287   7.704   7.397  1.00  0.00     0.055 A 
ATOM     67  C   UNL     1       9.134   9.178   9.293  1.00  0.00     0.041 A 
ATOM     68  F   UNL     1       7.147  10.356   9.693  1.00  0.00    -0.206 F 
ATOM     69  C   UNL     1       9.865   8.264   8.540  1.00  0.00     0.022 A 
BRANCH  66  70
ATOM     70  S   UNL     1      10.159   6.405   6.482  1.00  0.00     0.124 S 
ATOM     71  O   UNL     1       9.298   5.249   6.719  1.00  0.00    -0.237 OA
ATOM     72  O   UNL     1      10.168   6.925   5.120  1.00  0.00    -0.237 OA
ATOM     73  O   UNL     1      11.466   6.346   7.134  1.00  0.00    -0.744 OA
ENDBRANCH  66  70
ENDBRANCH  49  63
BRANCH  50  74
ATOM     74  C   UNL     1      -2.164  11.045   5.065  1.00  0.00     0.023 A 
ATOM     75  C   UNL     1      -2.476  11.384   3.740  1.00  0.00     0.031 A 
ATOM     76  C   UNL     1      -3.201  11.056   6.014  1.00  0.00     0.131 A 
ATOM     77  C   UNL     1      -3.790  11.747   3.404  1.00  0.00     0.055 A 
ATOM     78  C   UNL     1      -4.514  11.379   5.667  1.00  0.00     0.041 A 
ATOM     79  F   UNL     1      -2.952  10.742   7.295  1.00  0.00    -0.206 F 
ATOM     80  C   UNL     1      -4.813  11.734   4.355  1.00  0.00     0.022 A 
BRANCH  77  81
ATOM     81  S   UNL     1      -4.143  12.274   1.704  1.00  0.00     0.124 S 
ATOM     82  O   UNL     1      -3.364  13.503   1.607  1.00  0.00    -0.237 OA
ATOM     83  O   UNL     1      -3.654  11.141   0.925  1.00  0.00    -0.237 OA
ATOM     84  O   UNL     1      -5.594  12.450   1.697  1.00  0.00    -0.744 OA
ENDBRANCH  77  81
ENDBRANCH  50  74
BRANCH  62  85
ATOM     85  C   UNL     1       3.663  14.856   5.540  1.00  0.00     0.023 A 
ATOM     86  C   UNL     1       3.189  15.878   6.379  1.00  0.00     0.031 A 
ATOM     87  C   UNL     1       4.464  15.213   4.441  1.00  0.00     0.131 A 
ATOM     88  C   UNL     1       3.497  17.216   6.088  1.00  0.00     0.055 A 
ATOM     89  C   UNL     1       4.806  16.541   4.184  1.00  0.00     0.041 A 
ATOM     90  F   UNL     1       4.946  14.273   3.613  1.00  0.00    -0.206 F 
ATOM     91  C   UNL     1       4.316  17.552   5.007  1.00  0.00     0.022 A 
BRANCH  88  92
ATOM     92  S   UNL     1       2.780  18.521   7.123  1.00  0.00     0.124 S 
ATOM     93  O   UNL     1       1.352  18.359   6.869  1.00  0.00    -0.237 OA
ATOM     94  O   UNL     1       3.235  18.150   8.460  1.00  0.00    -0.237 OA
ATOM     95  O   UNL     1       3.370  19.747   6.588  1.00  0.00    -0.744 OA
ENDBRANCH  88  92
ENDBRANCH  62  85
ENDBRANCH  36  37
ENDBRANCH  29  31
ENDBRANCH  28  29
ENDBRANCH  27  28
ENDBRANCH  26  27
ENDBRANCH  25  26
ENDBRANCH   1  25
TORSDOF 21
