REMARK SMILES COc1ccc(S(=O)(=O)N2CCCC[C@@H]2C(=O)OCCOCCOCCOC(=O)c2ccc(-c3c4nc(c(-c5cc(S(=O)(=O)[O-])ccc5F)c5ccc([nH]5)c(-c5cc(S(=O)(=O)[O-])ccc5F)c5nc(c(-c6cc(S(=O)(=O)[O-])ccc6F)c6ccc3[nH]6)C=C5)C=C4)cc2)cc1C
REMARK SMILES IDX 22 1 21 2 20 3 19 4 18 5 16 6 17 7 15 8 10 9 11 10 12 11
REMARK SMILES IDX 14 12 13 13 7 14 8 15 9 16 6 17 3 18 4 19 94 20 5 21 93 22
REMARK SMILES IDX 95 23 2 24 1 25 23 26 24 27 25 28 26 29 27 30 28 31 29 32
REMARK SMILES IDX 30 33 31 34 92 35 32 36 91 37 33 38 34 39 35 40 85 41 36 42
REMARK SMILES IDX 90 43 84 44 86 45 37 46 89 47 83 48 82 49 38 51 70 52 50 53
REMARK SMILES IDX 69 54 51 55 54 56 68 57 87 58 52 59 53 60 67 62 88 63 55 64
REMARK SMILES IDX 39 65 40 66 48 67 41 68 47 69 49 70 46 71 42 72 43 73 44 74
REMARK SMILES IDX 45 75 71 76 72 77 80 78 73 79 79 80 81 81 78 82 74 83 75 84
REMARK SMILES IDX 76 85 77 86 56 87 57 88 65 89 58 90 64 91 66 92 63 93 59 94
REMARK SMILES IDX 60 95 61 96 62 97
REMARK H PARENT 86 50 54 61
REMARK Flexibility Score: inf
ROOT
ATOM      1  C   UNL     1       5.838  -5.247   9.071  1.00  0.00     0.188 C 
ENDROOT
BRANCH   1   2
ATOM      2  O   UNL     1       5.498  -6.565   8.604  1.00  0.00    -0.376 OA
BRANCH   2   3
ATOM      3  C   UNL     1       6.331  -7.451   7.852  1.00  0.00     0.202 C 
BRANCH   3   4
ATOM      4  C   UNL     1       6.354  -7.955   6.211  1.00  0.00     0.261 C 
BRANCH   4   5
ATOM      5  O   UNL     1       6.133  -7.196   4.603  1.00  0.00    -0.462 OA
BRANCH   5   6
ATOM      6  C   UNL     1       5.152  -6.487   3.766  1.00  0.00     0.324 C 
ATOM      7  O   UNL     1       4.072  -5.993   4.092  1.00  0.00    -0.250 OA
BRANCH   6   8
ATOM      8  C   UNL     1       5.411  -6.168   2.323  1.00  0.00     0.183 C 
ATOM      9  N   UNL     1       4.306  -6.471   1.274  1.00  0.00    -0.184 NA
ATOM     10  C   UNL     1       4.676  -6.164  -0.133  1.00  0.00     0.103 C 
ATOM     11  C   UNL     1       6.063  -6.673  -0.475  1.00  0.00     0.017 C 
ATOM     12  C   UNL     1       6.757  -6.702   1.893  1.00  0.00     0.032 C 
ATOM     13  C   UNL     1       7.092  -6.163   0.515  1.00  0.00     0.004 C 
BRANCH   9  14
ATOM     14  S   UNL     1       2.573  -6.229   1.534  1.00  0.00     0.243 S 
ATOM     15  O   UNL     1       2.132  -6.964   2.698  1.00  0.00    -0.207 OA
ATOM     16  O   UNL     1       1.954  -6.549   0.259  1.00  0.00    -0.207 OA
BRANCH  14  17
ATOM     17  C   UNL     1       2.164  -4.488   1.749  1.00  0.00     0.083 A 
ATOM     18  C   UNL     1       1.296  -1.810   1.667  1.00  0.00     0.121 A 
ATOM     19  C   UNL     1       0.387  -2.826   1.961  1.00  0.00     0.048 A 
ATOM     20  C   UNL     1       2.655  -2.108   1.490  1.00  0.00    -0.008 A 
ATOM     21  C   UNL     1       0.817  -4.162   2.000  1.00  0.00     0.025 A 
ATOM     22  C   UNL     1       3.075  -3.458   1.507  1.00  0.00     0.029 A 
ATOM     23  C   UNL     1       3.664  -1.028   1.232  1.00  0.00     0.048 C 
BRANCH  18  24
ATOM     24  O   UNL     1       0.829  -0.519   1.639  1.00  0.00    -0.496 OA
ATOM     25  C   UNL     1       0.660  -0.054   0.299  1.00  0.00     0.278 C 
ENDBRANCH  18  24
ENDBRANCH  14  17
ENDBRANCH   9  14
ENDBRANCH   6   8
ENDBRANCH   5   6
ENDBRANCH   4   5
ENDBRANCH   3   4
ENDBRANCH   2   3
ENDBRANCH   1   2
BRANCH   1  26
ATOM     26  C   UNL     1       7.264  -4.827   9.390  1.00  0.00     0.188 C 
BRANCH  26  27
ATOM     27  O   UNL     1       8.180  -5.411   8.479  1.00  0.00    -0.376 OA
BRANCH  27  28
ATOM     28  C   UNL     1       9.535  -5.090   8.727  1.00  0.00     0.202 C 
BRANCH  28  29
ATOM     29  C   UNL     1       9.902  -3.646   8.338  1.00  0.00     0.261 C 
BRANCH  29  30
ATOM     30  O   UNL     1       9.653  -3.382   6.938  1.00  0.00    -0.460 OA
BRANCH  30  31
ATOM     31  C   UNL     1       8.667  -2.463   6.635  1.00  0.00     0.338 C 
ATOM     32  O   UNL     1       8.818  -1.261   6.737  1.00  0.00    -0.246 OA
BRANCH  31  33
ATOM     33  C   UNL     1       7.468  -3.174   6.079  1.00  0.00     0.060 A 
ATOM     34  C   UNL     1       6.122  -2.797   6.141  1.00  0.00     0.016 A 
ATOM     35  C   UNL     1       7.696  -4.442   5.688  1.00  0.00     0.016 A 
ATOM     36  C   UNL     1       5.033  -3.773   6.066  1.00  0.00     0.010 A 
ATOM     37  C   UNL     1       6.663  -5.335   5.925  1.00  0.00     0.010 A 
ATOM     38  C   UNL     1       5.255  -5.158   6.102  1.00  0.00    -0.014 A 
BRANCH  38  39
ATOM     39  C   UNL     1       4.027  -6.378   6.398  1.00  0.00     0.031 A 
ATOM     40  C   UNL     1       3.587  -7.869   5.579  1.00  0.00     0.074 A 
ATOM     41  C   UNL     1       3.077  -6.054   7.308  1.00  0.00     0.049 A 
ATOM     42  N   UNL     1       2.356  -8.337   5.470  1.00  0.00    -0.248 NA
ATOM     43  C   UNL     1       4.414  -8.825   4.756  1.00  0.00     0.031 C 
ATOM     44  C   UNL     1       1.974  -6.869   7.810  1.00  0.00     0.029 A 
ATOM     45  N   UNL     1       2.837  -4.800   7.866  1.00  0.00    -0.354 N 
ATOM     46  C   UNL     1       2.347  -9.521   4.702  1.00  0.00     0.074 A 
ATOM     47  C   UNL     1       3.622  -9.683   4.172  1.00  0.00     0.031 C 
ATOM     48  C   UNL     1       1.029  -6.052   8.300  1.00  0.00     0.029 A 
ATOM     49  C   UNL     1       1.454  -4.692   8.037  1.00  0.00     0.049 A 
ATOM     50  H   UNL     1       3.512  -4.120   8.095  1.00  0.00     0.167 HD
ATOM     51  C   UNL     1       1.327 -10.410   4.601  1.00  0.00     0.034 A 
ATOM     52  C   UNL     1       0.758  -3.708   7.406  1.00  0.00     0.034 A 
ATOM     53  C   UNL     1       0.167  -9.836   5.214  1.00  0.00     0.049 A 
ATOM     54  C   UNL     1      -0.343  -4.261   6.513  1.00  0.00     0.074 A 
ATOM     55  C   UNL     1      -0.412  -9.919   6.464  1.00  0.00     0.029 A 
ATOM     56  N   UNL     1      -0.310  -8.674   4.632  1.00  0.00    -0.354 N 
ATOM     57  N   UNL     1      -0.584  -5.531   6.310  1.00  0.00    -0.248 NA
ATOM     58  C   UNL     1      -1.234  -3.411   5.734  1.00  0.00     0.031 C 
ATOM     59  C   UNL     1      -1.267  -8.785   6.614  1.00  0.00     0.029 A 
ATOM     60  C   UNL     1      -1.248  -8.064   5.433  1.00  0.00     0.049 A 
ATOM     61  H   UNL     1      -0.016  -8.329   3.758  1.00  0.00     0.167 HD
ATOM     62  C   UNL     1      -1.560  -5.685   5.352  1.00  0.00     0.074 A 
ATOM     63  C   UNL     1      -1.933  -4.317   5.030  1.00  0.00     0.031 C 
ATOM     64  C   UNL     1      -1.945  -6.916   4.878  1.00  0.00     0.034 A 
BRANCH  51  65
ATOM     65  C   UNL     1       1.572 -11.877   4.204  1.00  0.00     0.023 A 
ATOM     66  C   UNL     1       0.874 -12.891   4.880  1.00  0.00     0.031 A 
ATOM     67  C   UNL     1       2.548 -12.357   3.288  1.00  0.00     0.131 A 
ATOM     68  C   UNL     1       1.248 -14.251   4.755  1.00  0.00     0.055 A 
ATOM     69  C   UNL     1       3.006 -13.686   3.261  1.00  0.00     0.041 A 
ATOM     70  F   UNL     1       3.063 -11.579   2.324  1.00  0.00    -0.206 F 
ATOM     71  C   UNL     1       2.360 -14.645   4.014  1.00  0.00     0.022 A 
BRANCH  68  72
ATOM     72  S   UNL     1       0.228 -15.529   5.539  1.00  0.00     0.124 S 
ATOM     73  O   UNL     1       0.309 -15.170   6.950  1.00  0.00    -0.237 OA
ATOM     74  O   UNL     1      -1.063 -15.331   4.889  1.00  0.00    -0.237 OA
ATOM     75  O   UNL     1       0.907 -16.776   5.182  1.00  0.00    -0.744 OA
ENDBRANCH  68  72
ENDBRANCH  51  65
BRANCH  52  76
ATOM     76  C   UNL     1       1.536  -2.425   7.245  1.00  0.00     0.023 A 
ATOM     77  C   UNL     1       2.247  -1.942   8.380  1.00  0.00     0.031 A 
ATOM     78  C   UNL     1       1.857  -1.843   6.012  1.00  0.00     0.131 A 
ATOM     79  C   UNL     1       3.326  -1.055   8.242  1.00  0.00     0.055 A 
ATOM     80  C   UNL     1       2.876  -0.880   5.888  1.00  0.00     0.041 A 
ATOM     81  F   UNL     1       1.283  -2.277   4.884  1.00  0.00    -0.206 F 
ATOM     82  C   UNL     1       3.632  -0.501   7.000  1.00  0.00     0.022 A 
BRANCH  79  83
ATOM     83  S   UNL     1       4.507  -0.835   9.614  1.00  0.00     0.124 S 
ATOM     84  O   UNL     1       4.340   0.577   9.943  1.00  0.00    -0.237 OA
ATOM     85  O   UNL     1       4.046  -1.780  10.628  1.00  0.00    -0.237 OA
ATOM     86  O   UNL     1       5.783  -1.196   9.001  1.00  0.00    -0.744 OA
ENDBRANCH  79  83
ENDBRANCH  52  76
BRANCH  64  87
ATOM     87  C   UNL     1      -2.959  -7.192   3.768  1.00  0.00     0.023 A 
ATOM     88  C   UNL     1      -3.913  -6.257   3.359  1.00  0.00     0.031 A 
ATOM     89  C   UNL     1      -3.034  -8.446   3.096  1.00  0.00     0.131 A 
ATOM     90  C   UNL     1      -4.776  -6.511   2.276  1.00  0.00     0.055 A 
ATOM     91  C   UNL     1      -3.905  -8.708   2.034  1.00  0.00     0.041 A 
ATOM     92  F   UNL     1      -2.286  -9.502   3.440  1.00  0.00    -0.206 F 
ATOM     93  C   UNL     1      -4.771  -7.726   1.599  1.00  0.00     0.022 A 
BRANCH  90  94
ATOM     94  S   UNL     1      -5.923  -5.204   1.784  1.00  0.00     0.124 S 
ATOM     95  O   UNL     1      -6.600  -4.894   3.040  1.00  0.00    -0.237 OA
ATOM     96  O   UNL     1      -5.014  -4.175   1.287  1.00  0.00    -0.237 OA
ATOM     97  O   UNL     1      -6.760  -5.840   0.769  1.00  0.00    -0.744 OA
ENDBRANCH  90  94
ENDBRANCH  64  87
ENDBRANCH  38  39
ENDBRANCH  31  33
ENDBRANCH  30  31
ENDBRANCH  29  30
ENDBRANCH  28  29
ENDBRANCH  27  28
ENDBRANCH  26  27
ENDBRANCH   1  26
TORSDOF 23
