REMARK SMILES COCCCNC(=O)/C(C#N)=C/c1ccc(C(=O)OCCOCCOCCOC(=O)c2ccc(-c3c4nc(c(-c5cc(S(=O)(=O)[O-])ccc5F)c5ccc([nH]5)c(-c5cc(S(=O)(=O)[O-])ccc5F)c5nc(c(-c6cc(S(=O)(=O)[O-])ccc6F)c6ccc3[nH]6)C=C5)C=C4)cc2)cc1
REMARK SMILES IDX 22 1 21 2 20 3 19 4 17 5 18 6 16 7 13 8 14 9 95 10 15 11
REMARK SMILES IDX 94 12 12 13 9 14 7 15 6 16 8 18 5 19 4 20 3 21 2 22 1 23
REMARK SMILES IDX 10 24 11 25 23 26 24 27 25 28 26 29 27 30 28 31 29 32 30 33
REMARK SMILES IDX 31 34 32 35 93 36 33 37 92 38 34 39 35 40 36 41 86 42 37 43
REMARK SMILES IDX 91 44 85 45 87 46 38 47 90 48 84 49 83 50 39 52 71 53 51 54
REMARK SMILES IDX 70 55 52 56 55 57 69 58 88 59 53 60 54 61 68 63 89 64 56 65
REMARK SMILES IDX 40 66 41 67 49 68 42 69 48 70 50 71 47 72 43 73 44 74 45 75
REMARK SMILES IDX 46 76 72 77 73 78 81 79 74 80 80 81 82 82 79 83 75 84 76 85
REMARK SMILES IDX 77 86 78 87 57 88 58 89 66 90 59 91 65 92 67 93 64 94 60 95
REMARK SMILES IDX 61 96 62 97 63 98
REMARK H PARENT 6 17 87 51 55 62
REMARK Flexibility Score: inf
ROOT
ATOM      1  O   UNL     1       0.269 -10.168   9.377  1.00  0.00    -0.376 OA
ENDROOT
BRANCH   1   2
ATOM      2  C   UNL     1      -1.127  -9.994   9.195  1.00  0.00     0.202 C 
BRANCH   2   3
ATOM      3  C   UNL     1      -1.807  -8.744   8.602  1.00  0.00     0.261 C 
BRANCH   3   4
ATOM      4  O   UNL     1      -1.046  -7.969   7.677  1.00  0.00    -0.460 OA
BRANCH   4   5
ATOM      5  C   UNL     1      -0.601  -6.774   8.139  1.00  0.00     0.338 C 
ATOM      6  O   UNL     1      -0.854  -6.269   9.219  1.00  0.00    -0.246 OA
BRANCH   5   7
ATOM      7  C   UNL     1       0.425  -6.245   7.209  1.00  0.00     0.060 A 
ATOM      8  C   UNL     1       2.312  -5.079   5.527  1.00  0.00    -0.024 A 
ATOM      9  C   UNL     1       2.493  -5.019   6.912  1.00  0.00     0.009 A 
ATOM     10  C   UNL     1       1.294  -5.882   4.989  1.00  0.00     0.009 A 
ATOM     11  C   UNL     1       1.548  -5.606   7.753  1.00  0.00     0.016 A 
ATOM     12  C   UNL     1       0.321  -6.424   5.827  1.00  0.00     0.016 A 
BRANCH   8  13
ATOM     13  C   UNL     1       2.960  -4.061   4.680  1.00  0.00     0.033 C 
ATOM     14  C   UNL     1       2.212  -3.079   4.118  1.00  0.00     0.117 C 
BRANCH  14  15
ATOM     15  C   UNL     1       2.912  -2.004   3.346  1.00  0.00     0.261 C 
ATOM     16  N   UNL     1       2.257  -0.957   2.758  1.00  0.00    -0.351 N 
ATOM     17  H   UNL     1       2.857  -0.277   2.373  1.00  0.00     0.163 HD
ATOM     18  O   UNL     1       4.138  -2.032   3.206  1.00  0.00    -0.268 OA
BRANCH  16  19
ATOM     19  C   UNL     1       0.842  -0.655   2.592  1.00  0.00     0.118 C 
BRANCH  19  20
ATOM     20  C   UNL     1       0.489   0.825   2.616  1.00  0.00     0.050 C 
BRANCH  20  21
ATOM     21  C   UNL     1       1.073   1.692   1.513  1.00  0.00     0.161 C 
BRANCH  21  22
ATOM     22  O   UNL     1       0.439   1.508   0.251  1.00  0.00    -0.385 OA
ATOM     23  C   UNL     1       0.922   0.404  -0.499  1.00  0.00     0.194 C 
ENDBRANCH  21  22
ENDBRANCH  20  21
ENDBRANCH  19  20
ENDBRANCH  16  19
ENDBRANCH  14  15
BRANCH  14  24
ATOM     24  C   UNL     1       0.797  -3.088   4.278  1.00  0.00     0.105 C 
ATOM     25  N   UNL     1      -0.362  -3.149   4.392  1.00  0.00    -0.192 NA
ENDBRANCH  14  24
ENDBRANCH   8  13
ENDBRANCH   5   7
ENDBRANCH   4   5
ENDBRANCH   3   4
ENDBRANCH   2   3
ENDBRANCH   1   2
BRANCH   1  26
ATOM     26  C   UNL     1       1.200  -9.374   8.673  1.00  0.00     0.188 C 
BRANCH  26  27
ATOM     27  C   UNL     1       1.330  -9.570   7.150  1.00  0.00     0.188 C 
BRANCH  27  28
ATOM     28  O   UNL     1       0.298 -10.269   6.496  1.00  0.00    -0.376 OA
BRANCH  28  29
ATOM     29  C   UNL     1       0.259 -11.683   6.586  1.00  0.00     0.202 C 
BRANCH  29  30
ATOM     30  C   UNL     1       1.331 -12.589   7.239  1.00  0.00     0.261 C 
BRANCH  30  31
ATOM     31  O   UNL     1       2.348 -12.000   8.058  1.00  0.00    -0.460 OA
BRANCH  31  32
ATOM     32  C   UNL     1       3.563 -11.834   7.472  1.00  0.00     0.338 C 
ATOM     33  O   UNL     1       3.862 -12.115   6.325  1.00  0.00    -0.246 OA
BRANCH  32  34
ATOM     34  C   UNL     1       4.436 -11.061   8.383  1.00  0.00     0.060 A 
ATOM     35  C   UNL     1       4.760  -9.733   8.064  1.00  0.00     0.016 A 
ATOM     36  C   UNL     1       4.960 -11.656   9.529  1.00  0.00     0.016 A 
ATOM     37  C   UNL     1       5.617  -9.001   8.886  1.00  0.00     0.010 A 
ATOM     38  C   UNL     1       5.842 -10.929  10.337  1.00  0.00     0.010 A 
ATOM     39  C   UNL     1       6.195  -9.606  10.008  1.00  0.00    -0.014 A 
BRANCH  39  40
ATOM     40  C   UNL     1       7.290  -8.921  10.744  1.00  0.00     0.031 A 
ATOM     41  C   UNL     1       8.709  -9.357  10.494  1.00  0.00     0.074 A 
ATOM     42  C   UNL     1       7.035  -7.922  11.609  1.00  0.00     0.049 A 
ATOM     43  N   UNL     1       9.814  -8.971  11.078  1.00  0.00    -0.248 NA
ATOM     44  C   UNL     1       8.902 -10.371   9.447  1.00  0.00     0.031 C 
ATOM     45  C   UNL     1       5.712  -7.371  11.895  1.00  0.00     0.029 A 
ATOM     46  N   UNL     1       7.881  -7.200  12.416  1.00  0.00    -0.354 N 
ATOM     47  C   UNL     1      10.834  -9.704  10.480  1.00  0.00     0.074 A 
ATOM     48  C   UNL     1      10.208 -10.584   9.515  1.00  0.00     0.031 C 
ATOM     49  C   UNL     1       5.833  -6.404  12.820  1.00  0.00     0.029 A 
ATOM     50  C   UNL     1       7.233  -6.301  13.232  1.00  0.00     0.049 A 
ATOM     51  H   UNL     1       8.859  -7.314  12.411  1.00  0.00     0.167 HD
ATOM     52  C   UNL     1      12.169  -9.644  10.711  1.00  0.00     0.034 A 
ATOM     53  C   UNL     1       7.708  -5.514  14.220  1.00  0.00     0.034 A 
ATOM     54  C   UNL     1      12.775  -8.772  11.688  1.00  0.00     0.049 A 
ATOM     55  C   UNL     1       9.187  -5.544  14.537  1.00  0.00     0.074 A 
ATOM     56  C   UNL     1      14.117  -8.622  11.990  1.00  0.00     0.029 A 
ATOM     57  N   UNL     1      12.082  -7.916  12.534  1.00  0.00    -0.354 N 
ATOM     58  N   UNL     1      10.144  -6.237  13.961  1.00  0.00    -0.248 NA
ATOM     59  C   UNL     1       9.650  -4.683  15.633  1.00  0.00     0.031 C 
ATOM     60  C   UNL     1      14.227  -7.752  13.079  1.00  0.00     0.029 A 
ATOM     61  C   UNL     1      12.965  -7.272  13.388  1.00  0.00     0.049 A 
ATOM     62  H   UNL     1      11.106  -7.786  12.529  1.00  0.00     0.167 HD
ATOM     63  C   UNL     1      11.324  -5.863  14.602  1.00  0.00     0.074 A 
ATOM     64  C   UNL     1      10.960  -4.876  15.596  1.00  0.00     0.031 C 
ATOM     65  C   UNL     1      12.594  -6.294  14.385  1.00  0.00     0.034 A 
BRANCH  52  66
ATOM     66  C   UNL     1      13.054 -10.591   9.936  1.00  0.00     0.023 A 
ATOM     67  C   UNL     1      13.155 -10.536   8.535  1.00  0.00     0.031 A 
ATOM     68  C   UNL     1      13.796 -11.579  10.609  1.00  0.00     0.131 A 
ATOM     69  C   UNL     1      13.917 -11.495   7.850  1.00  0.00     0.055 A 
ATOM     70  C   UNL     1      14.625 -12.472   9.928  1.00  0.00     0.041 A 
ATOM     71  F   UNL     1      13.721 -11.700  11.944  1.00  0.00    -0.206 F 
ATOM     72  C   UNL     1      14.677 -12.443   8.538  1.00  0.00     0.022 A 
BRANCH  69  73
ATOM     73  S   UNL     1      13.773 -11.585   6.044  1.00  0.00     0.124 S 
ATOM     74  O   UNL     1      12.336 -11.790   5.873  1.00  0.00    -0.237 OA
ATOM     75  O   UNL     1      14.287 -10.287   5.622  1.00  0.00    -0.237 OA
ATOM     76  O   UNL     1      14.605 -12.733   5.691  1.00  0.00    -0.744 OA
ENDBRANCH  69  73
ENDBRANCH  52  66
BRANCH  53  77
ATOM     77  C   UNL     1       6.782  -4.662  15.025  1.00  0.00     0.023 A 
ATOM     78  C   UNL     1       6.923  -3.266  15.060  1.00  0.00     0.031 A 
ATOM     79  C   UNL     1       5.784  -5.240  15.831  1.00  0.00     0.131 A 
ATOM     80  C   UNL     1       6.118  -2.501  15.918  1.00  0.00     0.055 A 
ATOM     81  C   UNL     1       4.939  -4.469  16.631  1.00  0.00     0.041 A 
ATOM     82  F   UNL     1       5.612  -6.572  15.850  1.00  0.00    -0.206 F 
ATOM     83  C   UNL     1       5.114  -3.090  16.689  1.00  0.00     0.022 A 
BRANCH  80  84
ATOM     84  S   UNL     1       6.479  -0.732  16.100  1.00  0.00     0.124 S 
ATOM     85  O   UNL     1       7.865  -0.759  16.552  1.00  0.00    -0.237 OA
ATOM     86  O   UNL     1       6.254  -0.236  14.746  1.00  0.00    -0.237 OA
ATOM     87  O   UNL     1       5.506  -0.286  17.095  1.00  0.00    -0.744 OA
ENDBRANCH  80  84
ENDBRANCH  53  77
BRANCH  65  88
ATOM     88  C   UNL     1      13.696  -5.655  15.201  1.00  0.00     0.023 A 
ATOM     89  C   UNL     1      13.769  -5.798  16.597  1.00  0.00     0.031 A 
ATOM     90  C   UNL     1      14.689  -4.886  14.566  1.00  0.00     0.131 A 
ATOM     91  C   UNL     1      14.772  -5.130  17.318  1.00  0.00     0.055 A 
ATOM     92  C   UNL     1      15.730  -4.290  15.280  1.00  0.00     0.041 A 
ATOM     93  F   UNL     1      14.670  -4.706  13.235  1.00  0.00    -0.206 F 
ATOM     94  C   UNL     1      15.767  -4.397  16.666  1.00  0.00     0.022 A 
BRANCH  91  95
ATOM     95  S   UNL     1      14.692  -5.134  19.130  1.00  0.00     0.124 S 
ATOM     96  O   UNL     1      13.374  -4.559  19.375  1.00  0.00    -0.237 OA
ATOM     97  O   UNL     1      14.838  -6.551  19.446  1.00  0.00    -0.237 OA
ATOM     98  O   UNL     1      15.820  -4.292  19.525  1.00  0.00    -0.744 OA
ENDBRANCH  91  95
ENDBRANCH  65  88
ENDBRANCH  39  40
ENDBRANCH  32  34
ENDBRANCH  31  32
ENDBRANCH  30  31
ENDBRANCH  29  30
ENDBRANCH  28  29
ENDBRANCH  27  28
ENDBRANCH  26  27
ENDBRANCH   1  26
TORSDOF 27
