REMARK SMILES C[C@H](NC(=O)c1ccc(C(C)(C)C)cc1)C(=O)N[C@@H](C(=O)OCCOCCOCCOC(=O)c1ccc(-c2c3nc(c(-c4cc(S(=O)(=O)[O-])ccc4F)c4ccc([nH]4)c(-c4cc(S(=O)(=O)[O-])ccc4F)c4nc(c(-c5cc(S(=O)(=O)[O-])ccc5F)c5ccc2[nH]5)C=C4)C=C3)cc1)[C@H](C)O
REMARK SMILES IDX 26 1 25 2 24 3 23 4 22 5 20 6 21 7 19 8 18 9 16 10 17 11
REMARK SMILES IDX 2 13 1 14 3 15 4 16 5 18 6 19 7 20 15 21 8 22 14 23 9 24
REMARK SMILES IDX 10 25 11 26 12 27 13 28 97 29 98 30 99 31 27 33 28 34 29 35
REMARK SMILES IDX 30 36 31 37 32 38 33 39 34 40 35 41 96 42 36 43 95 44 37 45
REMARK SMILES IDX 38 46 39 47 89 48 40 49 94 50 88 51 90 52 41 53 93 54 87 55
REMARK SMILES IDX 86 56 42 58 74 59 54 60 73 61 55 62 58 63 72 64 91 65 56 66
REMARK SMILES IDX 57 67 71 69 92 70 59 71 43 72 44 73 52 74 45 75 51 76 53 77
REMARK SMILES IDX 50 78 46 79 47 80 48 81 49 82 75 83 76 84 84 85 77 86 83 87
REMARK SMILES IDX 85 88 82 89 78 90 79 91 80 92 81 93 60 94 61 95 69 96 62 97
REMARK SMILES IDX 68 98 70 99 67 100 63 101 64 102 65 103 66 104
REMARK H PARENT 18 12 3 17 99 32 90 57 58 68
REMARK Flexibility Score: inf
ROOT
ATOM      1  C   UNL     1       1.674  -3.071   5.570  1.00  0.00     0.188 C 
ENDROOT
BRANCH   1   2
ATOM      2  O   UNL     1       2.058  -4.287   6.205  1.00  0.00    -0.376 OA
BRANCH   2   3
ATOM      3  C   UNL     1       1.716  -5.521   5.569  1.00  0.00     0.202 C 
BRANCH   3   4
ATOM      4  C   UNL     1       0.248  -5.712   5.164  1.00  0.00     0.261 C 
BRANCH   4   5
ATOM      5  O   UNL     1      -0.084  -5.008   3.946  1.00  0.00    -0.462 OA
BRANCH   5   6
ATOM      6  C   UNL     1      -1.299  -4.390   3.923  1.00  0.00     0.331 C 
ATOM      7  O   UNL     1      -2.142  -4.496   4.809  1.00  0.00    -0.250 OA
BRANCH   6   8
ATOM      8  C   UNL     1      -1.522  -3.514   2.667  1.00  0.00     0.221 C 
BRANCH   8   9
ATOM      9  N   UNL     1      -0.489  -3.559   1.608  1.00  0.00    -0.339 N 
ATOM     10  C   UNL     1      -0.574  -3.954   0.306  1.00  0.00     0.243 C 
ATOM     11  O   UNL     1       0.355  -3.676  -0.455  1.00  0.00    -0.273 OA
ATOM     12  H   UNL     1       0.404  -3.255   1.890  1.00  0.00     0.164 HD
BRANCH  10  13
ATOM     13  C   UNL     1      -1.822  -4.684  -0.210  1.00  0.00     0.168 C 
ATOM     14  C   UNL     1      -3.001  -3.716  -0.324  1.00  0.00     0.041 C 
BRANCH  13  15
ATOM     15  N   UNL     1      -2.003  -5.872   0.638  1.00  0.00    -0.341 N 
ATOM     16  C   UNL     1      -2.943  -6.864   0.601  1.00  0.00     0.251 C 
ATOM     17  H   UNL     1      -1.334  -5.969   1.354  1.00  0.00     0.164 HD
ATOM     18  O   UNL     1      -2.876  -7.828   1.355  1.00  0.00    -0.269 OA
BRANCH  16  19
ATOM     19  C   UNL     1      -4.086  -6.710  -0.305  1.00  0.00     0.039 A 
ATOM     20  C   UNL     1      -5.336  -6.478   0.261  1.00  0.00     0.014 A 
ATOM     21  C   UNL     1      -3.905  -6.668  -1.685  1.00  0.00     0.014 A 
ATOM     22  C   UNL     1      -6.388  -6.078  -0.560  1.00  0.00     0.005 A 
ATOM     23  C   UNL     1      -4.961  -6.252  -2.497  1.00  0.00     0.005 A 
ATOM     24  C   UNL     1      -6.204  -5.888  -1.945  1.00  0.00    -0.043 A 
BRANCH  24  25
ATOM     25  C   UNL     1      -7.334  -5.292  -2.802  1.00  0.00    -0.013 C 
ATOM     26  C   UNL     1      -8.365  -6.397  -3.082  1.00  0.00     0.016 C 
ATOM     27  C   UNL     1      -8.026  -4.116  -2.071  1.00  0.00     0.016 C 
ATOM     28  C   UNL     1      -6.837  -4.726  -4.152  1.00  0.00     0.016 C 
ENDBRANCH  24  25
ENDBRANCH  16  19
ENDBRANCH  13  15
ENDBRANCH  10  13
ENDBRANCH   8   9
BRANCH   8  29
ATOM     29  C   UNL     1      -1.825  -2.052   3.113  1.00  0.00     0.145 C 
ATOM     30  C   UNL     1      -1.835  -1.039   1.970  1.00  0.00     0.041 C 
BRANCH  29  31
ATOM     31  O   UNL     1      -0.853  -1.581   4.052  1.00  0.00    -0.391 OA
ATOM     32  H   UNL     1       0.017  -1.541   3.624  1.00  0.00     0.211 HD
ENDBRANCH  29  31
ENDBRANCH   8  29
ENDBRANCH   6   8
ENDBRANCH   5   6
ENDBRANCH   4   5
ENDBRANCH   3   4
ENDBRANCH   2   3
ENDBRANCH   1   2
BRANCH   1  33
ATOM     33  C   UNL     1       1.992  -2.925   4.081  1.00  0.00     0.188 C 
BRANCH  33  34
ATOM     34  O   UNL     1       2.907  -3.884   3.585  1.00  0.00    -0.376 OA
BRANCH  34  35
ATOM     35  C   UNL     1       4.138  -3.393   3.077  1.00  0.00     0.202 C 
BRANCH  35  36
ATOM     36  C   UNL     1       4.986  -2.646   4.116  1.00  0.00     0.261 C 
BRANCH  36  37
ATOM     37  O   UNL     1       4.430  -1.379   4.518  1.00  0.00    -0.460 OA
BRANCH  37  38
ATOM     38  C   UNL     1       4.260  -0.468   3.527  1.00  0.00     0.338 C 
ATOM     39  O   UNL     1       4.663  -0.555   2.383  1.00  0.00    -0.246 OA
BRANCH  38  40
ATOM     40  C   UNL     1       3.287   0.545   3.997  1.00  0.00     0.060 A 
ATOM     41  C   UNL     1       2.210   0.871   3.161  1.00  0.00     0.016 A 
ATOM     42  C   UNL     1       3.429   1.161   5.242  1.00  0.00     0.016 A 
ATOM     43  C   UNL     1       1.311   1.867   3.541  1.00  0.00     0.010 A 
ATOM     44  C   UNL     1       2.536   2.169   5.616  1.00  0.00     0.010 A 
ATOM     45  C   UNL     1       1.504   2.560   4.745  1.00  0.00    -0.014 A 
BRANCH  45  46
ATOM     46  C   UNL     1       0.816   3.860   4.942  1.00  0.00     0.031 A 
ATOM     47  C   UNL     1       1.532   5.102   4.476  1.00  0.00     0.074 A 
ATOM     48  C   UNL     1      -0.417   3.947   5.471  1.00  0.00     0.049 A 
ATOM     49  N   UNL     1       1.144   6.350   4.505  1.00  0.00    -0.248 NA
ATOM     50  C   UNL     1       2.872   4.900   3.902  1.00  0.00     0.031 C 
ATOM     51  C   UNL     1      -1.223   2.821   5.936  1.00  0.00     0.029 A 
ATOM     52  N   UNL     1      -1.207   5.046   5.703  1.00  0.00    -0.354 N 
ATOM     53  C   UNL     1       2.185   7.080   3.940  1.00  0.00     0.074 A 
ATOM     54  C   UNL     1       3.239   6.140   3.628  1.00  0.00     0.031 C 
ATOM     55  C   UNL     1      -2.396   3.289   6.402  1.00  0.00     0.029 A 
ATOM     56  C   UNL     1      -2.415   4.748   6.289  1.00  0.00     0.049 A 
ATOM     57  H   UNL     1      -0.934   5.963   5.471  1.00  0.00     0.167 HD
ATOM     58  C   UNL     1       2.256   8.410   3.689  1.00  0.00     0.034 A 
ATOM     59  C   UNL     1      -3.410   5.563   6.696  1.00  0.00     0.034 A 
ATOM     60  C   UNL     1       1.218   9.348   4.036  1.00  0.00     0.049 A 
ATOM     61  C   UNL     1      -3.278   7.054   6.480  1.00  0.00     0.074 A 
ATOM     62  C   UNL     1       1.195  10.718   3.850  1.00  0.00     0.029 A 
ATOM     63  N   UNL     1       0.022   9.011   4.657  1.00  0.00    -0.354 N 
ATOM     64  N   UNL     1      -2.296   7.730   5.928  1.00  0.00    -0.248 NA
ATOM     65  C   UNL     1      -4.402   7.889   6.928  1.00  0.00     0.031 C 
ATOM     66  C   UNL     1       0.014  11.217   4.412  1.00  0.00     0.029 A 
ATOM     67  C   UNL     1      -0.736  10.150   4.880  1.00  0.00     0.049 A 
ATOM     68  H   UNL     1      -0.248   8.097   4.902  1.00  0.00     0.167 HD
ATOM     69  C   UNL     1      -2.704   9.064   5.929  1.00  0.00     0.074 A 
ATOM     70  C   UNL     1      -4.024   9.093   6.524  1.00  0.00     0.031 C 
ATOM     71  C   UNL     1      -2.051  10.165   5.474  1.00  0.00     0.034 A 
BRANCH  58  72
ATOM     72  C   UNL     1       3.528   8.916   3.057  1.00  0.00     0.023 A 
ATOM     73  C   UNL     1       3.913   8.521   1.763  1.00  0.00     0.031 A 
ATOM     74  C   UNL     1       4.400   9.748   3.780  1.00  0.00     0.131 A 
ATOM     75  C   UNL     1       5.170   8.894   1.264  1.00  0.00     0.055 A 
ATOM     76  C   UNL     1       5.614  10.182   3.245  1.00  0.00     0.041 A 
ATOM     77  F   UNL     1       4.097  10.133   5.030  1.00  0.00    -0.206 F 
ATOM     78  C   UNL     1       6.013   9.741   1.986  1.00  0.00     0.022 A 
BRANCH  75  79
ATOM     79  S   UNL     1       5.753   8.128  -0.274  1.00  0.00     0.124 S 
ATOM     80  O   UNL     1       5.731   6.710   0.076  1.00  0.00    -0.237 OA
ATOM     81  O   UNL     1       4.752   8.563  -1.242  1.00  0.00    -0.237 OA
ATOM     82  O   UNL     1       7.086   8.697  -0.456  1.00  0.00    -0.744 OA
ENDBRANCH  75  79
ENDBRANCH  58  72
BRANCH  59  83
ATOM     83  C   UNL     1      -4.617   5.010   7.377  1.00  0.00     0.023 A 
ATOM     84  C   UNL     1      -5.895   5.129   6.806  1.00  0.00     0.031 A 
ATOM     85  C   UNL     1      -4.518   4.428   8.653  1.00  0.00     0.131 A 
ATOM     86  C   UNL     1      -7.027   4.724   7.532  1.00  0.00     0.055 A 
ATOM     87  C   UNL     1      -5.641   3.980   9.350  1.00  0.00     0.041 A 
ATOM     88  F   UNL     1      -3.320   4.291   9.244  1.00  0.00    -0.206 F 
ATOM     89  C   UNL     1      -6.907   4.141   8.796  1.00  0.00     0.022 A 
BRANCH  86  90
ATOM     90  S   UNL     1      -8.670   5.050   6.835  1.00  0.00     0.124 S 
ATOM     91  O   UNL     1      -8.648   6.501   6.689  1.00  0.00    -0.237 OA
ATOM     92  O   UNL     1      -8.629   4.280   5.596  1.00  0.00    -0.237 OA
ATOM     93  O   UNL     1      -9.581   4.537   7.856  1.00  0.00    -0.744 OA
ENDBRANCH  86  90
ENDBRANCH  59  83
BRANCH  71  94
ATOM     94  C   UNL     1      -2.788  11.483   5.544  1.00  0.00     0.023 A 
ATOM     95  C   UNL     1      -3.126  12.085   6.768  1.00  0.00     0.031 A 
ATOM     96  C   UNL     1      -3.172  12.137   4.359  1.00  0.00     0.131 A 
ATOM     97  C   UNL     1      -3.882  13.268   6.781  1.00  0.00     0.055 A 
ATOM     98  C   UNL     1      -3.870  13.345   4.377  1.00  0.00     0.041 A 
ATOM     99  F   UNL     1      -2.876  11.609   3.160  1.00  0.00    -0.206 F 
ATOM    100  C   UNL     1      -4.243  13.909   5.593  1.00  0.00     0.022 A 
BRANCH  97 101
ATOM    101  S   UNL     1      -4.484  13.901   8.371  1.00  0.00     0.124 S 
ATOM    102  O   UNL     1      -5.193  12.746   8.911  1.00  0.00    -0.237 OA
ATOM    103  O   UNL     1      -3.244  14.263   9.050  1.00  0.00    -0.237 OA
ATOM    104  O   UNL     1      -5.334  15.028   7.992  1.00  0.00    -0.744 OA
ENDBRANCH  97 101
ENDBRANCH  71  94
ENDBRANCH  45  46
ENDBRANCH  38  40
ENDBRANCH  37  38
ENDBRANCH  36  37
ENDBRANCH  35  36
ENDBRANCH  34  35
ENDBRANCH  33  34
ENDBRANCH   1  33
TORSDOF 27
