REMARK SMILES O=C(OCCOCCOCCOC(=O)c1ccc(-c2c3nc(c(-c4cc(S(=O)(=O)[O-])ccc4F)c4ccc([nH]4)c(-c4cc(S(=O)(=O)[O-])ccc4F)c4nc(c(-c5cc(S(=O)(=O)[O-])ccc5F)c5ccc2[nH]5)C=C4)C=C3)cc1)C1=Cc2cc(OC(F)(F)F)ccc2O[C@@H]1C(F)(F)F
REMARK SMILES IDX 8 1 7 2 6 3 5 4 4 5 3 6 2 7 1 8 78 9 79 10 92 11 80 12 91 13
REMARK SMILES IDX 81 14 90 15 82 16 89 17 88 18 93 19 94 20 95 21 96 22 83 23
REMARK SMILES IDX 84 24 85 25 86 26 87 27 9 28 10 29 11 30 12 31 13 32 14 33
REMARK SMILES IDX 15 34 16 35 77 36 17 37 76 38 18 39 19 40 20 41 70 42 21 43
REMARK SMILES IDX 75 44 69 45 71 46 22 47 74 48 68 49 67 50 23 52 55 53 35 54
REMARK SMILES IDX 54 55 36 56 39 57 53 58 72 59 37 60 38 61 52 63 73 64 40 65
REMARK SMILES IDX 24 66 25 67 33 68 26 69 32 70 34 71 31 72 27 73 28 74 29 75
REMARK SMILES IDX 30 76 56 77 57 78 65 79 58 80 64 81 66 82 63 83 59 84 60 85
REMARK SMILES IDX 61 86 62 87 41 88 42 89 50 90 43 91 49 92 51 93 48 94 44 95
REMARK SMILES IDX 45 96 46 97 47 98
REMARK H PARENT 71 51 39 62
REMARK Flexibility Score: inf
ROOT
ATOM      1  C   UNL     1       2.110  -3.312  -1.286  1.00  0.00     0.188 C 
ENDROOT
BRANCH   1   2
ATOM      2  C   UNL     1       2.389  -1.812  -1.472  1.00  0.00     0.188 C 
BRANCH   2   3
ATOM      3  O   UNL     1       3.784  -1.286  -1.614  1.00  0.00    -0.376 OA
BRANCH   3   4
ATOM      4  C   UNL     1       4.488   0.083  -0.808  1.00  0.00     0.202 C 
BRANCH   4   5
ATOM      5  C   UNL     1       3.821   0.809   1.132  1.00  0.00     0.261 C 
BRANCH   5   6
ATOM      6  O   UNL     1       2.798   1.899   1.380  1.00  0.00    -0.460 OA
BRANCH   6   7
ATOM      7  C   UNL     1       2.902   2.885   0.476  1.00  0.00     0.338 C 
ATOM      8  O   UNL     1       2.139   3.802   0.298  1.00  0.00    -0.246 OA
BRANCH   7   9
ATOM      9  C   UNL     1       3.808   2.202  -0.437  1.00  0.00     0.087 C 
ATOM     10  C   UNL     1       5.208   2.150  -0.046  1.00  0.00     0.027 C 
ATOM     11  C   UNL     1       2.657   0.676  -0.568  1.00  0.00     0.316 C 
ATOM     12  C   UNL     1       6.002   0.714   0.668  1.00  0.00     0.021 A 
ATOM     13  O   UNL     1       3.425  -0.854   0.381  1.00  0.00    -0.475 OA
ATOM     14  C   UNL     1       7.315   0.792   1.023  1.00  0.00     0.058 A 
ATOM     15  C   UNL     1       5.163  -0.761   0.958  1.00  0.00     0.128 A 
ATOM     16  C   UNL     1       7.885  -0.384   1.549  1.00  0.00     0.130 A 
ATOM     17  C   UNL     1       5.774  -1.872   1.467  1.00  0.00     0.051 A 
ATOM     18  C   UNL     1       7.158  -1.641   1.750  1.00  0.00     0.050 A 
BRANCH  11  19
ATOM     19  C   UNL     1       2.370   0.943  -2.220  1.00  0.00     0.430 C 
ATOM     20  F   UNL     1       2.695   0.022  -3.133  1.00  0.00    -0.167 F 
ATOM     21  F   UNL     1       1.066   1.256  -2.407  1.00  0.00    -0.167 F 
ATOM     22  F   UNL     1       3.065   2.043  -2.655  1.00  0.00    -0.167 F 
ENDBRANCH  11  19
BRANCH  16  23
ATOM     23  O   UNL     1       9.215  -0.162   1.824  1.00  0.00    -0.406 OA
BRANCH  23  24
ATOM     24  C   UNL     1      10.026  -1.210   2.301  1.00  0.00     0.573 C 
ATOM     25  F   UNL     1       9.601  -1.634   3.509  1.00  0.00    -0.132 F 
ATOM     26  F   UNL     1      10.050  -2.243   1.436  1.00  0.00    -0.132 F 
ATOM     27  F   UNL     1      11.288  -0.744   2.438  1.00  0.00    -0.132 F 
ENDBRANCH  23  24
ENDBRANCH  16  23
ENDBRANCH   7   9
ENDBRANCH   6   7
ENDBRANCH   5   6
ENDBRANCH   4   5
ENDBRANCH   3   4
ENDBRANCH   2   3
ENDBRANCH   1   2
BRANCH   1  28
ATOM     28  O   UNL     1       3.062  -4.088  -0.598  1.00  0.00    -0.376 OA
BRANCH  28  29
ATOM     29  C   UNL     1       4.363  -4.076  -1.171  1.00  0.00     0.202 C 
BRANCH  29  30
ATOM     30  C   UNL     1       4.492  -4.382  -2.677  1.00  0.00     0.261 C 
BRANCH  30  31
ATOM     31  O   UNL     1       3.995  -3.342  -3.554  1.00  0.00    -0.460 OA
BRANCH  31  32
ATOM     32  C   UNL     1       2.960  -3.647  -4.383  1.00  0.00     0.338 C 
ATOM     33  O   UNL     1       2.375  -4.714  -4.457  1.00  0.00    -0.246 OA
BRANCH  32  34
ATOM     34  C   UNL     1       2.537  -2.433  -5.120  1.00  0.00     0.060 A 
ATOM     35  C   UNL     1       1.282  -1.851  -4.878  1.00  0.00     0.016 A 
ATOM     36  C   UNL     1       3.381  -1.886  -6.084  1.00  0.00     0.016 A 
ATOM     37  C   UNL     1       0.907  -0.673  -5.541  1.00  0.00     0.010 A 
ATOM     38  C   UNL     1       2.981  -0.743  -6.787  1.00  0.00     0.010 A 
ATOM     39  C   UNL     1       1.749  -0.120  -6.515  1.00  0.00    -0.014 A 
BRANCH  39  40
ATOM     40  C   UNL     1       1.295   0.998  -7.387  1.00  0.00     0.031 A 
ATOM     41  C   UNL     1       0.608   0.648  -8.677  1.00  0.00     0.074 A 
ATOM     42  C   UNL     1       1.546   2.287  -7.082  1.00  0.00     0.049 A 
ATOM     43  N   UNL     1       0.275   1.423  -9.675  1.00  0.00    -0.248 NA
ATOM     44  C   UNL     1       0.265  -0.770  -8.872  1.00  0.00     0.031 C 
ATOM     45  C   UNL     1       2.163   2.749  -5.842  1.00  0.00     0.029 A 
ATOM     46  N   UNL     1       1.337   3.443  -7.799  1.00  0.00    -0.354 N 
ATOM     47  C   UNL     1      -0.289   0.584 -10.629  1.00  0.00     0.074 A 
ATOM     48  C   UNL     1      -0.257  -0.757 -10.089  1.00  0.00     0.031 C 
ATOM     49  C   UNL     1       2.299   4.087  -5.890  1.00  0.00     0.029 A 
ATOM     50  C   UNL     1       1.841   4.574  -7.191  1.00  0.00     0.049 A 
ATOM     51  H   UNL     1       0.870   3.462  -8.665  1.00  0.00     0.167 HD
ATOM     52  C   UNL     1      -0.768   0.907 -11.853  1.00  0.00     0.034 A 
ATOM     53  C   UNL     1       1.968   5.840  -7.651  1.00  0.00     0.034 A 
ATOM     54  C   UNL     1      -0.775   2.247 -12.382  1.00  0.00     0.049 A 
ATOM     55  C   UNL     1       1.499   6.152  -9.060  1.00  0.00     0.074 A 
ATOM     56  C   UNL     1      -1.278   2.683 -13.595  1.00  0.00     0.029 A 
ATOM     57  N   UNL     1      -0.229   3.357 -11.754  1.00  0.00    -0.354 N 
ATOM     58  N   UNL     1       0.928   5.355  -9.936  1.00  0.00    -0.248 NA
ATOM     59  C   UNL     1       1.700   7.525  -9.549  1.00  0.00     0.031 C 
ATOM     60  C   UNL     1      -0.941   4.030 -13.747  1.00  0.00     0.029 A 
ATOM     61  C   UNL     1      -0.328   4.463 -12.582  1.00  0.00     0.049 A 
ATOM     62  H   UNL     1       0.169   3.358 -10.853  1.00  0.00     0.167 HD
ATOM     63  C   UNL     1       0.684   6.140 -11.063  1.00  0.00     0.074 A 
ATOM     64  C   UNL     1       1.140   7.475 -10.748  1.00  0.00     0.031 C 
ATOM     65  C   UNL     1       0.136   5.789 -12.254  1.00  0.00     0.034 A 
BRANCH  52  66
ATOM     66  C   UNL     1      -1.252  -0.208 -12.742  1.00  0.00     0.023 A 
ATOM     67  C   UNL     1      -2.393  -0.968 -12.439  1.00  0.00     0.031 A 
ATOM     68  C   UNL     1      -0.567  -0.489 -13.938  1.00  0.00     0.131 A 
ATOM     69  C   UNL     1      -2.796  -1.994 -13.307  1.00  0.00     0.055 A 
ATOM     70  C   UNL     1      -1.017  -1.458 -14.834  1.00  0.00     0.041 A 
ATOM     71  F   UNL     1       0.550   0.183 -14.259  1.00  0.00    -0.206 F 
ATOM     72  C   UNL     1      -2.135  -2.221 -14.518  1.00  0.00     0.022 A 
BRANCH  69  73
ATOM     73  S   UNL     1      -4.132  -3.101 -12.784  1.00  0.00     0.124 S 
ATOM     74  O   UNL     1      -3.587  -3.660 -11.549  1.00  0.00    -0.237 OA
ATOM     75  O   UNL     1      -5.258  -2.188 -12.628  1.00  0.00    -0.237 OA
ATOM     76  O   UNL     1      -4.246  -4.049 -13.890  1.00  0.00    -0.744 OA
ENDBRANCH  69  73
ENDBRANCH  52  66
BRANCH  53  77
ATOM     77  C   UNL     1       2.647   6.903  -6.840  1.00  0.00     0.023 A 
ATOM     78  C   UNL     1       2.008   8.121  -6.545  1.00  0.00     0.031 A 
ATOM     79  C   UNL     1       3.994   6.769  -6.455  1.00  0.00     0.131 A 
ATOM     80  C   UNL     1       2.733   9.174  -5.960  1.00  0.00     0.055 A 
ATOM     81  C   UNL     1       4.686   7.789  -5.796  1.00  0.00     0.041 A 
ATOM     82  F   UNL     1       4.674   5.645  -6.731  1.00  0.00    -0.206 F 
ATOM     83  C   UNL     1       4.061   9.009  -5.563  1.00  0.00     0.022 A 
BRANCH  80  84
ATOM     84  S   UNL     1       1.971  10.822  -5.884  1.00  0.00     0.124 S 
ATOM     85  O   UNL     1       1.629  11.052  -7.283  1.00  0.00    -0.237 OA
ATOM     86  O   UNL     1       0.850  10.597  -4.978  1.00  0.00    -0.237 OA
ATOM     87  O   UNL     1       3.039  11.667  -5.355  1.00  0.00    -0.744 OA
ENDBRANCH  80  84
ENDBRANCH  53  77
BRANCH  65  88
ATOM     88  C   UNL     1      -0.038   6.872 -13.292  1.00  0.00     0.023 A 
ATOM     89  C   UNL     1       1.062   7.508 -13.892  1.00  0.00     0.031 A 
ATOM     90  C   UNL     1      -1.328   7.256 -13.704  1.00  0.00     0.131 A 
ATOM     91  C   UNL     1       0.852   8.524 -14.837  1.00  0.00     0.055 A 
ATOM     92  C   UNL     1      -1.529   8.214 -14.697  1.00  0.00     0.041 A 
ATOM     93  F   UNL     1      -2.417   6.688 -13.160  1.00  0.00    -0.206 F 
ATOM     94  C   UNL     1      -0.435   8.863 -15.262  1.00  0.00     0.022 A 
BRANCH  91  95
ATOM     95  S   UNL     1       2.282   9.464 -15.436  1.00  0.00     0.124 S 
ATOM     96  O   UNL     1       2.815  10.025 -14.199  1.00  0.00    -0.237 OA
ATOM     97  O   UNL     1       3.095   8.431 -16.070  1.00  0.00    -0.237 OA
ATOM     98  O   UNL     1       1.692  10.437 -16.354  1.00  0.00    -0.744 OA
ENDBRANCH  91  95
ENDBRANCH  65  88
ENDBRANCH  39  40
ENDBRANCH  32  34
ENDBRANCH  31  32
ENDBRANCH  30  31
ENDBRANCH  29  30
ENDBRANCH  28  29
ENDBRANCH   1  28
TORSDOF 23
