REMARK SMILES C[C@H](C(=O)OCCOCCOCCOC(=O)c1ccc(-c2c3nc(c(-c4cc(S(=O)(=O)[O-])ccc4F)c4ccc([nH]4)c(-c4cc(S(=O)(=O)[O-])ccc4F)c4nc(c(-c5cc(S(=O)(=O)[O-])ccc5F)c5ccc2[nH]5)C=C4)C=C3)cc1)c1ccc(C[C@H]2CCC[C@@H]2O)cc1
REMARK SMILES IDX 9 1 8 2 7 3 6 4 5 5 3 6 4 7 2 8 1 9 80 10 81 11 92 12 82 13
REMARK SMILES IDX 91 14 83 15 84 16 85 17 86 18 89 19 87 20 88 21 90 22 10 24
REMARK SMILES IDX 11 25 12 26 13 27 14 28 15 29 16 30 17 31 18 32 79 33 19 34
REMARK SMILES IDX 78 35 20 36 21 37 22 38 72 39 23 40 77 41 71 42 73 43 24 44
REMARK SMILES IDX 76 45 70 46 69 47 25 49 57 50 37 51 56 52 38 53 41 54 55 55
REMARK SMILES IDX 74 56 39 57 40 58 54 60 75 61 42 62 26 63 27 64 35 65 28 66
REMARK SMILES IDX 34 67 36 68 33 69 29 70 30 71 31 72 32 73 58 74 59 75 67 76
REMARK SMILES IDX 60 77 66 78 68 79 65 80 61 81 62 82 63 83 64 84 43 85 44 86
REMARK SMILES IDX 52 87 45 88 51 89 53 90 50 91 46 92 47 93 48 94 49 95
REMARK H PARENT 90 23 73 48 41 59
REMARK Flexibility Score: inf
ROOT
ATOM      1  C   UNL     1       3.444   0.033  -1.105  1.00  0.00     0.188 C 
ENDROOT
BRANCH   1   2
ATOM      2  O   UNL     1       3.840  -1.241  -0.598  1.00  0.00    -0.376 OA
BRANCH   2   3
ATOM      3  C   UNL     1       2.830  -2.244  -0.539  1.00  0.00     0.202 C 
BRANCH   3   4
ATOM      4  C   UNL     1       1.680  -1.977   0.440  1.00  0.00     0.261 C 
BRANCH   4   5
ATOM      5  O   UNL     1       0.942  -0.787   0.095  1.00  0.00    -0.463 OA
BRANCH   5   6
ATOM      6  C   UNL     1       0.512  -0.025   1.138  1.00  0.00     0.313 C 
ATOM      7  O   UNL     1       0.604  -0.364   2.313  1.00  0.00    -0.252 OA
BRANCH   6   8
ATOM      8  C   UNL     1      -0.151   1.277   0.693  1.00  0.00     0.126 C 
ATOM      9  C   UNL     1       0.528   1.958  -0.494  1.00  0.00     0.025 C 
BRANCH   8  10
ATOM     10  C   UNL     1      -1.645   1.199   0.439  1.00  0.00    -0.034 A 
ATOM     11  C   UNL     1      -2.320   2.401   0.171  1.00  0.00     0.005 A 
ATOM     12  C   UNL     1      -2.385   0.013   0.473  1.00  0.00     0.005 A 
ATOM     13  C   UNL     1      -3.690   2.430  -0.013  1.00  0.00     0.004 A 
ATOM     14  C   UNL     1      -3.778   0.054   0.367  1.00  0.00     0.004 A 
ATOM     15  C   UNL     1      -4.440   1.278   0.202  1.00  0.00    -0.048 A 
BRANCH  15  16
ATOM     16  C   UNL     1      -5.923   1.401   0.442  1.00  0.00     0.041 C 
BRANCH  16  17
ATOM     17  C   UNL     1      -6.271   1.996   1.826  1.00  0.00     0.022 C 
ATOM     18  C   UNL     1      -5.638   1.292   3.042  1.00  0.00     0.007 C 
ATOM     19  C   UNL     1      -5.929   3.478   2.040  1.00  0.00     0.117 C 
ATOM     20  C   UNL     1      -5.341   2.392   4.068  1.00  0.00     0.003 C 
ATOM     21  C   UNL     1      -6.041   3.637   3.547  1.00  0.00     0.032 C 
BRANCH  19  22
ATOM     22  O   UNL     1      -6.835   4.327   1.361  1.00  0.00    -0.393 OA
ATOM     23  H   UNL     1      -7.738   4.140   1.660  1.00  0.00     0.210 HD
ENDBRANCH  19  22
ENDBRANCH  16  17
ENDBRANCH  15  16
ENDBRANCH   8  10
ENDBRANCH   6   8
ENDBRANCH   5   6
ENDBRANCH   4   5
ENDBRANCH   3   4
ENDBRANCH   2   3
ENDBRANCH   1   2
BRANCH   1  24
ATOM     24  C   UNL     1       2.541   0.030  -2.357  1.00  0.00     0.188 C 
BRANCH  24  25
ATOM     25  O   UNL     1       2.972  -0.778  -3.447  1.00  0.00    -0.376 OA
BRANCH  25  26
ATOM     26  C   UNL     1       4.332  -0.643  -3.839  1.00  0.00     0.202 C 
BRANCH  26  27
ATOM     27  C   UNL     1       4.689   0.707  -4.468  1.00  0.00     0.261 C 
BRANCH  27  28
ATOM     28  O   UNL     1       4.838   1.748  -3.477  1.00  0.00    -0.460 OA
BRANCH  28  29
ATOM     29  C   UNL     1       3.994   2.805  -3.600  1.00  0.00     0.338 C 
ATOM     30  O   UNL     1       3.131   2.948  -4.447  1.00  0.00    -0.246 OA
BRANCH  29  31
ATOM     31  C   UNL     1       4.146   3.734  -2.455  1.00  0.00     0.060 A 
ATOM     32  C   UNL     1       2.979   4.226  -1.855  1.00  0.00     0.016 A 
ATOM     33  C   UNL     1       5.394   4.197  -2.032  1.00  0.00     0.016 A 
ATOM     34  C   UNL     1       3.051   5.198  -0.853  1.00  0.00     0.010 A 
ATOM     35  C   UNL     1       5.464   5.190  -1.043  1.00  0.00     0.010 A 
ATOM     36  C   UNL     1       4.293   5.717  -0.466  1.00  0.00    -0.014 A 
BRANCH  36  37
ATOM     37  C   UNL     1       4.356   6.924   0.403  1.00  0.00     0.031 A 
ATOM     38  C   UNL     1       4.533   8.274  -0.244  1.00  0.00     0.074 A 
ATOM     39  C   UNL     1       4.225   6.839   1.740  1.00  0.00     0.049 A 
ATOM     40  N   UNL     1       4.705   9.448   0.308  1.00  0.00    -0.248 NA
ATOM     41  C   UNL     1       4.510   8.296  -1.714  1.00  0.00     0.031 C 
ATOM     42  C   UNL     1       3.968   5.609   2.486  1.00  0.00     0.029 A 
ATOM     43  N   UNL     1       4.295   7.811   2.709  1.00  0.00    -0.354 N 
ATOM     44  C   UNL     1       4.824  10.349  -0.746  1.00  0.00     0.074 A 
ATOM     45  C   UNL     1       4.725   9.578  -1.968  1.00  0.00     0.031 C 
ATOM     46  C   UNL     1       3.911   5.900   3.798  1.00  0.00     0.029 A 
ATOM     47  C   UNL     1       4.178   7.325   3.991  1.00  0.00     0.049 A 
ATOM     48  H   UNL     1       4.417   8.767   2.505  1.00  0.00     0.167 HD
ATOM     49  C   UNL     1       5.000  11.694  -0.700  1.00  0.00     0.034 A 
ATOM     50  C   UNL     1       4.307   7.950   5.182  1.00  0.00     0.034 A 
ATOM     51  C   UNL     1       5.110  12.453   0.522  1.00  0.00     0.049 A 
ATOM     52  C   UNL     1       4.617   9.430   5.209  1.00  0.00     0.074 A 
ATOM     53  C   UNL     1       5.301  13.815   0.678  1.00  0.00     0.029 A 
ATOM     54  N   UNL     1       5.053  11.915   1.802  1.00  0.00    -0.354 N 
ATOM     55  N   UNL     1       4.757  10.267   4.206  1.00  0.00    -0.248 NA
ATOM     56  C   UNL     1       4.790  10.048   6.532  1.00  0.00     0.031 C 
ATOM     57  C   UNL     1       5.429  14.090   2.044  1.00  0.00     0.029 A 
ATOM     58  C   UNL     1       5.239  12.912   2.748  1.00  0.00     0.049 A 
ATOM     59  H   UNL     1       4.902  10.964   2.007  1.00  0.00     0.167 HD
ATOM     60  C   UNL     1       5.003  11.513   4.781  1.00  0.00     0.074 A 
ATOM     61  C   UNL     1       4.980  11.321   6.216  1.00  0.00     0.031 C 
ATOM     62  C   UNL     1       5.223  12.709   4.178  1.00  0.00     0.034 A 
BRANCH  49  63
ATOM     63  C   UNL     1       5.157  12.413  -2.018  1.00  0.00     0.023 A 
ATOM     64  C   UNL     1       4.113  12.481  -2.958  1.00  0.00     0.031 A 
ATOM     65  C   UNL     1       6.388  13.004  -2.356  1.00  0.00     0.131 A 
ATOM     66  C   UNL     1       4.342  13.062  -4.215  1.00  0.00     0.055 A 
ATOM     67  C   UNL     1       6.584  13.650  -3.578  1.00  0.00     0.041 A 
ATOM     68  F   UNL     1       7.427  12.950  -1.509  1.00  0.00    -0.206 F 
ATOM     69  C   UNL     1       5.562  13.668  -4.523  1.00  0.00     0.022 A 
BRANCH  66  70
ATOM     70  S   UNL     1       3.071  12.881  -5.498  1.00  0.00     0.124 S 
ATOM     71  O   UNL     1       2.947  11.428  -5.588  1.00  0.00    -0.237 OA
ATOM     72  O   UNL     1       1.935  13.585  -4.917  1.00  0.00    -0.237 OA
ATOM     73  O   UNL     1       3.671  13.521  -6.667  1.00  0.00    -0.744 OA
ENDBRANCH  66  70
ENDBRANCH  49  63
BRANCH  50  74
ATOM     74  C   UNL     1       4.213   7.181   6.459  1.00  0.00     0.023 A 
ATOM     75  C   UNL     1       3.222   7.468   7.413  1.00  0.00     0.031 A 
ATOM     76  C   UNL     1       5.167   6.198   6.779  1.00  0.00     0.131 A 
ATOM     77  C   UNL     1       3.236   6.815   8.656  1.00  0.00     0.055 A 
ATOM     78  C   UNL     1       5.142   5.511   7.994  1.00  0.00     0.041 A 
ATOM     79  F   UNL     1       6.143   5.891   5.910  1.00  0.00    -0.206 F 
ATOM     80  C   UNL     1       4.181   5.828   8.947  1.00  0.00     0.022 A 
BRANCH  77  81
ATOM     81  S   UNL     1       2.058   7.343   9.931  1.00  0.00     0.124 S 
ATOM     82  O   UNL     1       2.397   8.754  10.082  1.00  0.00    -0.237 OA
ATOM     83  O   UNL     1       0.776   7.056   9.296  1.00  0.00    -0.237 OA
ATOM     84  O   UNL     1       2.390   6.495  11.074  1.00  0.00    -0.744 OA
ENDBRANCH  77  81
ENDBRANCH  50  74
BRANCH  62  85
ATOM     85  C   UNL     1       5.404  13.913   5.073  1.00  0.00     0.023 A 
ATOM     86  C   UNL     1       6.528  14.060   5.906  1.00  0.00     0.031 A 
ATOM     87  C   UNL     1       4.431  14.928   5.094  1.00  0.00     0.131 A 
ATOM     88  C   UNL     1       6.626  15.169   6.761  1.00  0.00     0.055 A 
ATOM     89  C   UNL     1       4.561  16.057   5.905  1.00  0.00     0.041 A 
ATOM     90  F   UNL     1       3.336  14.842   4.321  1.00  0.00    -0.206 F 
ATOM     91  C   UNL     1       5.657  16.176   6.754  1.00  0.00     0.022 A 
BRANCH  88  92
ATOM     92  S   UNL     1       7.997  15.241   7.948  1.00  0.00     0.124 S 
ATOM     93  O   UNL     1       7.799  14.016   8.715  1.00  0.00    -0.237 OA
ATOM     94  O   UNL     1       9.165  15.264   7.074  1.00  0.00    -0.237 OA
ATOM     95  O   UNL     1       7.750  16.480   8.683  1.00  0.00    -0.744 OA
ENDBRANCH  88  92
ENDBRANCH  62  85
ENDBRANCH  36  37
ENDBRANCH  29  31
ENDBRANCH  28  29
ENDBRANCH  27  28
ENDBRANCH  26  27
ENDBRANCH  25  26
ENDBRANCH  24  25
ENDBRANCH   1  24
TORSDOF 24
