REMARK SMILES C[C@@H](C(=O)OCCOCCOCCOC(=O)c1ccc(-c2c3nc(c(-c4cc(S(=O)(=O)[O-])ccc4F)c4ccc([nH]4)c(-c4cc(S(=O)(=O)[O-])ccc4F)c4nc(c(-c5cc(S(=O)(=O)[O-])ccc5F)c5ccc2[nH]5)C=C4)C=C3)cc1)c1ccc(C[C@H]2CCCC2=O)c(-c2ccc(OC(F)(F)F)cc2)c1
REMARK SMILES IDX 9 1 8 2 7 3 6 4 5 5 3 6 4 7 2 8 1 9 80 10 81 11 103 12 82 13
REMARK SMILES IDX 91 14 83 15 92 16 93 17 102 18 94 19 101 20 95 21 96 22
REMARK SMILES IDX 97 23 98 24 99 25 100 26 84 27 85 28 86 29 89 30 87 31 88 32
REMARK SMILES IDX 90 33 10 34 11 35 12 36 13 37 14 38 15 39 16 40 17 41 18 42
REMARK SMILES IDX 79 43 19 44 78 45 20 46 21 47 22 48 72 49 23 50 77 51 71 52
REMARK SMILES IDX 73 53 24 54 76 55 70 56 69 57 25 59 57 60 37 61 56 62 38 63
REMARK SMILES IDX 41 64 55 65 74 66 39 67 40 68 54 70 75 71 42 72 26 73 27 74
REMARK SMILES IDX 35 75 28 76 34 77 36 78 33 79 29 80 30 81 31 82 32 83 58 84
REMARK SMILES IDX 59 85 67 86 60 87 66 88 68 89 65 90 61 91 62 92 63 93 64 94
REMARK SMILES IDX 43 95 44 96 52 97 45 98 51 99 53 100 50 101 46 102 47 103
REMARK SMILES IDX 48 104 49 105
REMARK H PARENT 73 58 41 69
REMARK Flexibility Score: inf
ROOT
ATOM      1  C   UNL     1       0.861   3.986   1.024  1.00  0.00     0.188 C 
ENDROOT
BRANCH   1   2
ATOM      2  O   UNL     1       1.872   4.751   1.639  1.00  0.00    -0.376 OA
BRANCH   2   3
ATOM      3  C   UNL     1       2.880   4.093   2.393  1.00  0.00     0.202 C 
BRANCH   3   4
ATOM      4  C   UNL     1       2.649   2.733   3.077  1.00  0.00     0.261 C 
BRANCH   4   5
ATOM      5  O   UNL     1       2.174   1.672   2.225  1.00  0.00    -0.463 OA
BRANCH   5   6
ATOM      6  C   UNL     1       1.292   0.803   2.805  1.00  0.00     0.313 C 
ATOM      7  O   UNL     1       0.948   0.881   3.982  1.00  0.00    -0.252 OA
BRANCH   6   8
ATOM      8  C   UNL     1       0.744  -0.290   1.866  1.00  0.00     0.126 C 
ATOM      9  C   UNL     1       1.485  -0.542   0.554  1.00  0.00     0.025 C 
BRANCH   8  10
ATOM     10  C   UNL     1      -0.760  -0.177   1.646  1.00  0.00    -0.033 A 
ATOM     11  C   UNL     1      -1.377   1.041   1.392  1.00  0.00     0.005 A 
ATOM     12  C   UNL     1      -1.584  -1.306   1.708  1.00  0.00     0.013 A 
ATOM     13  C   UNL     1      -2.758   1.158   1.345  1.00  0.00     0.004 A 
ATOM     14  C   UNL     1      -3.000  -1.214   1.698  1.00  0.00    -0.015 A 
ATOM     15  C   UNL     1      -3.587   0.063   1.602  1.00  0.00    -0.039 A 
BRANCH  14  16
ATOM     16  C   UNL     1      -3.770  -2.460   1.835  1.00  0.00    -0.018 A 
ATOM     17  C   UNL     1      -4.722  -2.859   0.887  1.00  0.00     0.012 A 
ATOM     18  C   UNL     1      -3.530  -3.312   2.923  1.00  0.00     0.012 A 
ATOM     19  C   UNL     1      -5.426  -4.059   1.043  1.00  0.00     0.047 A 
ATOM     20  C   UNL     1      -4.219  -4.516   3.071  1.00  0.00     0.047 A 
ATOM     21  C   UNL     1      -5.176  -4.896   2.132  1.00  0.00     0.129 A 
BRANCH  21  22
ATOM     22  O   UNL     1      -5.926  -6.037   2.167  1.00  0.00    -0.406 OA
BRANCH  22  23
ATOM     23  C   UNL     1      -5.627  -6.977   3.183  1.00  0.00     0.573 C 
ATOM     24  F   UNL     1      -4.347  -7.407   3.087  1.00  0.00    -0.132 F 
ATOM     25  F   UNL     1      -5.833  -6.466   4.416  1.00  0.00    -0.132 F 
ATOM     26  F   UNL     1      -6.432  -8.054   3.037  1.00  0.00    -0.132 F 
ENDBRANCH  22  23
ENDBRANCH  21  22
ENDBRANCH  14  16
BRANCH  15  27
ATOM     27  C   UNL     1      -5.048   0.380   1.853  1.00  0.00     0.047 C 
BRANCH  27  28
ATOM     28  C   UNL     1      -5.380   0.941   3.248  1.00  0.00     0.060 C 
ATOM     29  C   UNL     1      -5.352  -0.096   4.385  1.00  0.00     0.012 C 
ATOM     30  C   UNL     1      -4.481   2.037   3.816  1.00  0.00     0.136 C 
ATOM     31  C   UNL     1      -4.192   0.290   5.298  1.00  0.00     0.009 C 
ATOM     32  C   UNL     1      -4.155   1.803   5.258  1.00  0.00     0.076 C 
ATOM     33  O   UNL     1      -4.093   3.041   3.231  1.00  0.00    -0.299 OA
ENDBRANCH  27  28
ENDBRANCH  15  27
ENDBRANCH   8  10
ENDBRANCH   6   8
ENDBRANCH   5   6
ENDBRANCH   4   5
ENDBRANCH   3   4
ENDBRANCH   2   3
ENDBRANCH   1   2
BRANCH   1  34
ATOM     34  C   UNL     1       1.241   3.033  -0.126  1.00  0.00     0.188 C 
BRANCH  34  35
ATOM     35  O   UNL     1       2.488   3.121  -0.786  1.00  0.00    -0.376 OA
BRANCH  35  36
ATOM     36  C   UNL     1       2.977   4.397  -1.144  1.00  0.00     0.202 C 
BRANCH  36  37
ATOM     37  C   UNL     1       2.129   5.328  -2.023  1.00  0.00     0.261 C 
BRANCH  37  38
ATOM     38  O   UNL     1       0.712   5.296  -1.804  1.00  0.00    -0.460 OA
BRANCH  38  39
ATOM     39  C   UNL     1       0.011   4.563  -2.711  1.00  0.00     0.338 C 
ATOM     40  O   UNL     1       0.466   3.941  -3.652  1.00  0.00    -0.246 OA
BRANCH  39  41
ATOM     41  C   UNL     1      -1.411   4.495  -2.301  1.00  0.00     0.060 A 
ATOM     42  C   UNL     1      -2.001   3.235  -2.128  1.00  0.00     0.016 A 
ATOM     43  C   UNL     1      -2.175   5.654  -2.151  1.00  0.00     0.016 A 
ATOM     44  C   UNL     1      -3.362   3.132  -1.828  1.00  0.00     0.010 A 
ATOM     45  C   UNL     1      -3.545   5.548  -1.875  1.00  0.00     0.010 A 
ATOM     46  C   UNL     1      -4.152   4.287  -1.736  1.00  0.00    -0.014 A 
BRANCH  46  47
ATOM     47  C   UNL     1      -5.633   4.168  -1.653  1.00  0.00     0.031 A 
ATOM     48  C   UNL     1      -6.434   4.172  -2.919  1.00  0.00     0.074 A 
ATOM     49  C   UNL     1      -6.268   4.084  -0.471  1.00  0.00     0.049 A 
ATOM     50  N   UNL     1      -7.731   4.129  -3.076  1.00  0.00    -0.248 NA
ATOM     51  C   UNL     1      -5.670   4.282  -4.170  1.00  0.00     0.031 C 
ATOM     52  C   UNL     1      -5.606   4.145   0.821  1.00  0.00     0.029 A 
ATOM     53  N   UNL     1      -7.600   3.936  -0.160  1.00  0.00    -0.354 N 
ATOM     54  C   UNL     1      -7.947   4.252  -4.442  1.00  0.00     0.074 A 
ATOM     55  C   UNL     1      -6.643   4.371  -5.064  1.00  0.00     0.031 C 
ATOM     56  C   UNL     1      -6.527   3.996   1.786  1.00  0.00     0.029 A 
ATOM     57  C   UNL     1      -7.846   3.840   1.193  1.00  0.00     0.049 A 
ATOM     58  H   UNL     1      -8.311   3.901  -0.840  1.00  0.00     0.167 HD
ATOM     59  C   UNL     1      -9.127   4.287  -5.110  1.00  0.00     0.034 A 
ATOM     60  C   UNL     1      -8.994   3.653   1.879  1.00  0.00     0.034 A 
ATOM     61  C   UNL     1     -10.419   4.197  -4.473  1.00  0.00     0.049 A 
ATOM     62  C   UNL     1     -10.290   3.634   1.107  1.00  0.00     0.074 A 
ATOM     63  C   UNL     1     -11.672   4.234  -5.059  1.00  0.00     0.029 A 
ATOM     64  N   UNL     1     -10.629   4.065  -3.105  1.00  0.00    -0.354 N 
ATOM     65  N   UNL     1     -10.479   3.745  -0.188  1.00  0.00    -0.248 NA
ATOM     66  C   UNL     1     -11.528   3.503   1.887  1.00  0.00     0.031 C 
ATOM     67  C   UNL     1     -12.636   4.188  -4.046  1.00  0.00     0.029 A 
ATOM     68  C   UNL     1     -11.989   4.038  -2.830  1.00  0.00     0.049 A 
ATOM     69  H   UNL     1      -9.916   3.999  -2.429  1.00  0.00     0.167 HD
ATOM     70  C   UNL     1     -11.857   3.716  -0.373  1.00  0.00     0.074 A 
ATOM     71  C   UNL     1     -12.448   3.516   0.934  1.00  0.00     0.031 C 
ATOM     72  C   UNL     1     -12.570   3.867  -1.518  1.00  0.00     0.034 A 
BRANCH  59  73
ATOM     73  C   UNL     1      -9.056   4.511  -6.599  1.00  0.00     0.023 A 
ATOM     74  C   UNL     1      -8.444   3.581  -7.457  1.00  0.00     0.031 A 
ATOM     75  C   UNL     1      -9.549   5.702  -7.160  1.00  0.00     0.131 A 
ATOM     76  C   UNL     1      -8.268   3.894  -8.813  1.00  0.00     0.055 A 
ATOM     77  C   UNL     1      -9.449   5.968  -8.526  1.00  0.00     0.041 A 
ATOM     78  F   UNL     1     -10.118   6.639  -6.385  1.00  0.00    -0.206 F 
ATOM     79  C   UNL     1      -8.789   5.069  -9.359  1.00  0.00     0.022 A 
BRANCH  76  80
ATOM     80  S   UNL     1      -7.209   2.817  -9.816  1.00  0.00     0.124 S 
ATOM     81  O   UNL     1      -5.934   2.917  -9.109  1.00  0.00    -0.237 OA
ATOM     82  O   UNL     1      -7.890   1.531  -9.726  1.00  0.00    -0.237 OA
ATOM     83  O   UNL     1      -7.233   3.446 -11.135  1.00  0.00    -0.744 OA
ENDBRANCH  76  80
ENDBRANCH  59  73
BRANCH  60  84
ATOM     84  C   UNL     1      -8.995   3.491   3.369  1.00  0.00     0.023 A 
ATOM     85  C   UNL     1      -9.508   2.325   3.968  1.00  0.00     0.031 A 
ATOM     86  C   UNL     1      -8.534   4.508   4.223  1.00  0.00     0.131 A 
ATOM     87  C   UNL     1      -9.584   2.225   5.368  1.00  0.00     0.055 A 
ATOM     88  C   UNL     1      -8.542   4.372   5.613  1.00  0.00     0.041 A 
ATOM     89  F   UNL     1      -8.056   5.656   3.716  1.00  0.00    -0.206 F 
ATOM     90  C   UNL     1      -9.082   3.231   6.194  1.00  0.00     0.022 A 
BRANCH  87  91
ATOM     91  S   UNL     1     -10.445   0.803   6.097  1.00  0.00     0.124 S 
ATOM     92  O   UNL     1     -11.761   0.902   5.476  1.00  0.00    -0.237 OA
ATOM     93  O   UNL     1      -9.608  -0.308   5.659  1.00  0.00    -0.237 OA
ATOM     94  O   UNL     1     -10.408   1.082   7.531  1.00  0.00    -0.744 OA
ENDBRANCH  87  91
ENDBRANCH  60  84
BRANCH  72  95
ATOM     95  C   UNL     1     -14.074   3.808  -1.397  1.00  0.00     0.023 A 
ATOM     96  C   UNL     1     -14.798   4.790  -0.696  1.00  0.00     0.031 A 
ATOM     97  C   UNL     1     -14.791   2.745  -1.973  1.00  0.00     0.131 A 
ATOM     98  C   UNL     1     -16.186   4.657  -0.539  1.00  0.00     0.055 A 
ATOM     99  C   UNL     1     -16.179   2.651  -1.867  1.00  0.00     0.041 A 
ATOM    100  F   UNL     1     -14.151   1.777  -2.649  1.00  0.00    -0.206 F 
ATOM    101  C   UNL     1     -16.883   3.603  -1.135  1.00  0.00     0.022 A 
BRANCH  98 102
ATOM    102  S   UNL     1     -17.059   5.827   0.539  1.00  0.00     0.124 S 
ATOM    103  O   UNL     1     -16.378   5.630   1.815  1.00  0.00    -0.237 OA
ATOM    104  O   UNL     1     -16.817   7.104  -0.123  1.00  0.00    -0.237 OA
ATOM    105  O   UNL     1     -18.445   5.362   0.498  1.00  0.00    -0.744 OA
ENDBRANCH  98 102
ENDBRANCH  72  95
ENDBRANCH  46  47
ENDBRANCH  39  41
ENDBRANCH  38  39
ENDBRANCH  37  38
ENDBRANCH  36  37
ENDBRANCH  35  36
ENDBRANCH  34  35
ENDBRANCH   1  34
TORSDOF 26
