REMARK SMILES O=C(CC1(CC(=O)OCCOCCOCCOC(=O)c2ccc(-c3c4nc(c(-c5cc(S(=O)(=O)[O-])ccc5F)c5ccc([nH]5)c(-c5cc(S(=O)(=O)[O-])ccc5F)c5nc(c(-c6cc(S(=O)(=O)[O-])ccc6F)c6ccc3[nH]6)C=C5)C=C4)cc2)CCCC1)NNc1ccc([N+](=O)[O-])cc1
REMARK SMILES IDX 11 1 10 2 9 3 8 4 6 5 7 6 5 7 4 8 83 9 86 10 84 11 85 12
REMARK SMILES IDX 3 13 2 14 1 15 87 16 88 18 89 20 90 21 97 22 91 23 96 24
REMARK SMILES IDX 92 25 93 26 94 27 95 28 12 29 13 30 14 31 15 32 16 33 17 34
REMARK SMILES IDX 18 35 19 36 20 37 21 38 82 39 22 40 81 41 23 42 24 43 25 44
REMARK SMILES IDX 75 45 26 46 80 47 74 48 76 49 27 50 79 51 73 52 72 53 28 55
REMARK SMILES IDX 60 56 40 57 59 58 41 59 44 60 58 61 77 62 42 63 43 64 57 66
REMARK SMILES IDX 78 67 45 68 29 69 30 70 38 71 31 72 37 73 39 74 36 75 32 76
REMARK SMILES IDX 33 77 34 78 35 79 61 80 62 81 70 82 63 83 69 84 71 85 68 86
REMARK SMILES IDX 64 87 65 88 66 89 67 90 46 91 47 92 55 93 48 94 54 95 56 96
REMARK SMILES IDX 53 97 49 98 50 99 51 100 52 101
REMARK H PARENT 87 17 88 19 76 54 44 65
REMARK Flexibility Score: inf
ROOT
ATOM      1  O   UNL     1       6.903   2.498   1.450  1.00  0.00    -0.376 OA
ENDROOT
BRANCH   1   2
ATOM      2  C   UNL     1       7.069   2.318   0.046  1.00  0.00     0.202 C 
BRANCH   2   3
ATOM      3  C   UNL     1       7.221   0.870  -0.438  1.00  0.00     0.261 C 
BRANCH   3   4
ATOM      4  O   UNL     1       6.082   0.040  -0.122  1.00  0.00    -0.463 OA
BRANCH   4   5
ATOM      5  C   UNL     1       6.392  -1.194   0.365  1.00  0.00     0.306 C 
ATOM      6  O   UNL     1       7.526  -1.659   0.407  1.00  0.00    -0.252 OA
BRANCH   5   7
ATOM      7  C   UNL     1       5.200  -1.917   0.965  1.00  0.00     0.130 C 
BRANCH   7   8
ATOM      8  C   UNL     1       3.947  -2.165   0.074  1.00  0.00    -0.010 C 
ATOM      9  C   UNL     1       3.384  -3.574   0.389  1.00  0.00     0.008 C 
ATOM     10  C   UNL     1       4.279  -2.348  -1.421  1.00  0.00     0.008 C 
ATOM     11  C   UNL     1       4.279  -4.546  -0.379  1.00  0.00     0.001 C 
ATOM     12  C   UNL     1       4.869  -3.749  -1.538  1.00  0.00     0.001 C 
BRANCH   8  13
ATOM     13  C   UNL     1       2.866  -1.104   0.404  1.00  0.00     0.109 C 
BRANCH  13  14
ATOM     14  C   UNL     1       1.978  -0.709  -0.760  1.00  0.00     0.238 C 
ATOM     15  O   UNL     1       0.923  -1.280  -1.019  1.00  0.00    -0.273 OA
ATOM     16  N   UNL     1       2.539   0.307  -1.511  1.00  0.00    -0.270 N 
ATOM     17  H   UNL     1       3.429   0.664  -1.285  1.00  0.00     0.191 HD
BRANCH  16  18
ATOM     18  N   UNL     1       1.830   0.814  -2.587  1.00  0.00    -0.299 N 
ATOM     19  H   UNL     1       0.847   0.773  -2.626  1.00  0.00     0.188 HD
BRANCH  18  20
ATOM     20  C   UNL     1       2.583   1.386  -3.611  1.00  0.00     0.055 A 
ATOM     21  C   UNL     1       2.199   2.619  -4.152  1.00  0.00     0.034 A 
ATOM     22  C   UNL     1       3.783   0.805  -4.050  1.00  0.00     0.034 A 
ATOM     23  C   UNL     1       3.006   3.274  -5.089  1.00  0.00     0.088 A 
ATOM     24  C   UNL     1       4.590   1.435  -4.999  1.00  0.00     0.088 A 
ATOM     25  C   UNL     1       4.204   2.679  -5.504  1.00  0.00     0.269 A 
BRANCH  25  26
ATOM     26  N   UNL     1       5.071   3.374  -6.462  1.00  0.00     0.062 N 
ATOM     27  O   UNL     1       4.729   4.506  -6.833  1.00  0.00    -0.258 OA
ATOM     28  O   UNL     1       6.101   2.795  -6.836  1.00  0.00    -0.258 OA
ENDBRANCH  25  26
ENDBRANCH  18  20
ENDBRANCH  16  18
ENDBRANCH  13  14
ENDBRANCH   8  13
ENDBRANCH   7   8
ENDBRANCH   5   7
ENDBRANCH   4   5
ENDBRANCH   3   4
ENDBRANCH   2   3
ENDBRANCH   1   2
BRANCH   1  29
ATOM     29  C   UNL     1       5.728   1.944   2.032  1.00  0.00     0.188 C 
BRANCH  29  30
ATOM     30  C   UNL     1       4.404   2.516   1.525  1.00  0.00     0.188 C 
BRANCH  30  31
ATOM     31  O   UNL     1       4.125   2.291   0.132  1.00  0.00    -0.376 OA
BRANCH  31  32
ATOM     32  C   UNL     1       3.703   3.491  -0.540  1.00  0.00     0.202 C 
BRANCH  32  33
ATOM     33  C   UNL     1       2.221   3.844  -0.355  1.00  0.00     0.261 C 
BRANCH  33  34
ATOM     34  O   UNL     1       1.843   3.824   1.031  1.00  0.00    -0.460 OA
BRANCH  34  35
ATOM     35  C   UNL     1       1.158   2.714   1.412  1.00  0.00     0.338 C 
ATOM     36  O   UNL     1       0.704   1.857   0.671  1.00  0.00    -0.246 OA
BRANCH  35  37
ATOM     37  C   UNL     1       1.239   2.551   2.883  1.00  0.00     0.060 A 
ATOM     38  C   UNL     1       1.376   1.245   3.379  1.00  0.00     0.016 A 
ATOM     39  C   UNL     1       1.254   3.638   3.761  1.00  0.00     0.016 A 
ATOM     40  C   UNL     1       1.505   1.019   4.748  1.00  0.00     0.010 A 
ATOM     41  C   UNL     1       1.365   3.409   5.137  1.00  0.00     0.010 A 
ATOM     42  C   UNL     1       1.466   2.098   5.638  1.00  0.00    -0.014 A 
BRANCH  42  43
ATOM     43  C   UNL     1       1.324   1.842   7.092  1.00  0.00     0.031 A 
ATOM     44  C   UNL     1      -0.054   1.911   7.689  1.00  0.00     0.074 A 
ATOM     45  C   UNL     1       2.382   1.523   7.859  1.00  0.00     0.049 A 
ATOM     46  N   UNL     1      -0.428   1.815   8.938  1.00  0.00    -0.248 NA
ATOM     47  C   UNL     1      -1.159   2.123   6.741  1.00  0.00     0.031 C 
ATOM     48  C   UNL     1       3.753   1.353   7.382  1.00  0.00     0.029 A 
ATOM     49  N   UNL     1       2.465   1.290   9.210  1.00  0.00    -0.354 N 
ATOM     50  C   UNL     1      -1.811   1.966   8.929  1.00  0.00     0.074 A 
ATOM     51  C   UNL     1      -2.201   2.193   7.554  1.00  0.00     0.031 C 
ATOM     52  C   UNL     1       4.544   1.054   8.428  1.00  0.00     0.029 A 
ATOM     53  C   UNL     1       3.747   1.058   9.653  1.00  0.00     0.049 A 
ATOM     54  H   UNL     1       1.681   1.288   9.805  1.00  0.00     0.167 HD
ATOM     55  C   UNL     1      -2.675   1.915   9.972  1.00  0.00     0.034 A 
ATOM     56  C   UNL     1       4.221   0.902  10.907  1.00  0.00     0.034 A 
ATOM     57  C   UNL     1      -2.267   1.699  11.338  1.00  0.00     0.049 A 
ATOM     58  C   UNL     1       3.253   0.954  12.068  1.00  0.00     0.074 A 
ATOM     59  C   UNL     1      -3.055   1.635  12.473  1.00  0.00     0.029 A 
ATOM     60  N   UNL     1      -0.953   1.522  11.757  1.00  0.00    -0.354 N 
ATOM     61  N   UNL     1       1.949   1.117  12.052  1.00  0.00    -0.248 NA
ATOM     62  C   UNL     1       3.820   0.796  13.413  1.00  0.00     0.031 C 
ATOM     63  C   UNL     1      -2.214   1.496  13.583  1.00  0.00     0.029 A 
ATOM     64  C   UNL     1      -0.907   1.384  13.135  1.00  0.00     0.049 A 
ATOM     65  H   UNL     1      -0.170   1.499  11.161  1.00  0.00     0.167 HD
ATOM     66  C   UNL     1       1.540   1.048  13.383  1.00  0.00     0.074 A 
ATOM     67  C   UNL     1       2.733   0.814  14.170  1.00  0.00     0.031 C 
ATOM     68  C   UNL     1       0.292   1.160  13.908  1.00  0.00     0.034 A 
BRANCH  55  69
ATOM     69  C   UNL     1      -4.133   2.164   9.672  1.00  0.00     0.023 A 
ATOM     70  C   UNL     1      -4.882   1.303   8.850  1.00  0.00     0.031 A 
ATOM     71  C   UNL     1      -4.772   3.309  10.180  1.00  0.00     0.131 A 
ATOM     72  C   UNL     1      -6.199   1.639   8.501  1.00  0.00     0.055 A 
ATOM     73  C   UNL     1      -6.109   3.593   9.898  1.00  0.00     0.041 A 
ATOM     74  F   UNL     1      -4.101   4.183  10.946  1.00  0.00    -0.206 F 
ATOM     75  C   UNL     1      -6.826   2.764   9.041  1.00  0.00     0.022 A 
BRANCH  72  76
ATOM     76  S   UNL     1      -7.028   0.670   7.211  1.00  0.00     0.124 S 
ATOM     77  O   UNL     1      -6.117   0.844   6.082  1.00  0.00    -0.237 OA
ATOM     78  O   UNL     1      -7.071  -0.664   7.798  1.00  0.00    -0.237 OA
ATOM     79  O   UNL     1      -8.322   1.331   7.065  1.00  0.00    -0.744 OA
ENDBRANCH  72  76
ENDBRANCH  55  69
BRANCH  56  80
ATOM     80  C   UNL     1       5.686   0.742  11.152  1.00  0.00     0.023 A 
ATOM     81  C   UNL     1       6.202  -0.417  11.755  1.00  0.00     0.031 A 
ATOM     82  C   UNL     1       6.585   1.781  10.850  1.00  0.00     0.131 A 
ATOM     83  C   UNL     1       7.567  -0.489  12.079  1.00  0.00     0.055 A 
ATOM     84  C   UNL     1       7.950   1.681  11.122  1.00  0.00     0.041 A 
ATOM     85  F   UNL     1       6.145   2.915  10.280  1.00  0.00    -0.206 F 
ATOM     86  C   UNL     1       8.447   0.546  11.753  1.00  0.00     0.022 A 
BRANCH  83  87
ATOM     87  S   UNL     1       8.163  -1.920  13.023  1.00  0.00     0.124 S 
ATOM     88  O   UNL     1       7.343  -1.843  14.226  1.00  0.00    -0.237 OA
ATOM     89  O   UNL     1       7.869  -3.023  12.114  1.00  0.00    -0.237 OA
ATOM     90  O   UNL     1       9.583  -1.634  13.214  1.00  0.00    -0.744 OA
ENDBRANCH  83  87
ENDBRANCH  56  80
BRANCH  68  91
ATOM     91  C   UNL     1       0.152   0.976  15.402  1.00  0.00     0.023 A 
ATOM     92  C   UNL     1       0.708   1.884  16.320  1.00  0.00     0.031 A 
ATOM     93  C   UNL     1      -0.546  -0.134  15.912  1.00  0.00     0.131 A 
ATOM     94  C   UNL     1       0.607   1.635  17.697  1.00  0.00     0.055 A 
ATOM     95  C   UNL     1      -0.699  -0.341  17.283  1.00  0.00     0.041 A 
ATOM     96  F   UNL     1      -1.097  -1.036  15.083  1.00  0.00    -0.206 F 
ATOM     97  C   UNL     1      -0.109   0.539  18.185  1.00  0.00     0.022 A 
BRANCH  94  98
ATOM     98  S   UNL     1       1.508   2.712  18.846  1.00  0.00     0.124 S 
ATOM     99  O   UNL     1       2.883   2.572  18.378  1.00  0.00    -0.237 OA
ATOM    100  O   UNL     1       0.884   4.011  18.611  1.00  0.00    -0.237 OA
ATOM    101  O   UNL     1       1.235   2.123  20.155  1.00  0.00    -0.744 OA
ENDBRANCH  94  98
ENDBRANCH  68  91
ENDBRANCH  42  43
ENDBRANCH  35  37
ENDBRANCH  34  35
ENDBRANCH  33  34
ENDBRANCH  32  33
ENDBRANCH  31  32
ENDBRANCH  30  31
ENDBRANCH  29  30
ENDBRANCH   1  29
TORSDOF 26
