REMARK SMILES CCC[N@@H+]1CC2(CC[NH+](C(=O)Cn3nnnc3C)CC2)C[C@H]1C(=O)OCCOCCOCCOC(=O)c1ccc(-c2c3nc(c(-c4cc(S(=O)(=O)[O-])ccc4F)c4ccc([nH]4)c(-c4cc(S(=O)(=O)[O-])ccc4F)c4nc(c(-c5cc(S(=O)(=O)[O-])ccc5F)c5ccc2[nH]5)C=C4)C=C3)cc1
REMARK SMILES IDX 29 1 28 2 27 3 26 4 25 5 23 6 24 7 22 8 4 9 5 10 6 12 21 13
REMARK SMILES IDX 7 14 20 15 8 16 19 17 9 18 3 20 2 21 1 22 10 23 11 24 12 25
REMARK SMILES IDX 13 26 14 27 17 28 15 29 16 30 18 31 30 32 31 33 32 34 33 35
REMARK SMILES IDX 34 36 35 37 36 38 37 39 38 40 99 41 39 42 98 43 40 44 41 45
REMARK SMILES IDX 42 46 92 47 43 48 97 49 91 50 93 51 44 52 96 53 90 54 89 55
REMARK SMILES IDX 45 57 77 58 57 59 76 60 58 61 61 62 75 63 94 64 59 65 60 66
REMARK SMILES IDX 74 68 95 69 62 70 46 71 47 72 55 73 48 74 54 75 56 76 53 77
REMARK SMILES IDX 49 78 50 79 51 80 52 81 78 82 79 83 87 84 80 85 86 86 88 87
REMARK SMILES IDX 85 88 81 89 82 90 83 91 84 92 63 93 64 94 72 95 65 96 71 97
REMARK SMILES IDX 73 98 70 99 66 100 67 101 68 102 69 103
REMARK H PARENT 4 11 9 19 93 56 61 67
REMARK Flexibility Score: inf
ROOT
ATOM      1  C   UNL     1       0.094  -4.573  -4.691  1.00  0.00     0.188 C 
ENDROOT
BRANCH   1   2
ATOM      2  O   UNL     1      -0.291  -5.935  -4.633  1.00  0.00    -0.376 OA
BRANCH   2   3
ATOM      3  C   UNL     1      -0.736  -6.493  -3.408  1.00  0.00     0.202 C 
BRANCH   3   4
ATOM      4  C   UNL     1      -0.007  -6.222  -2.075  1.00  0.00     0.261 C 
BRANCH   4   5
ATOM      5  O   UNL     1       0.376  -4.860  -1.814  1.00  0.00    -0.459 OA
BRANCH   5   6
ATOM      6  C   UNL     1       1.696  -4.575  -1.877  1.00  0.00     0.365 C 
ATOM      7  O   UNL     1       2.567  -5.430  -2.033  1.00  0.00    -0.245 OA
BRANCH   6   8
ATOM      8  C   UNL     1       2.075  -3.095  -1.690  1.00  0.00     0.295 C 
ATOM      9  N   UNL     1       0.997  -2.063  -1.684  1.00  0.00    -0.323 N 
ATOM     10  C   UNL     1       0.435  -2.065  -0.347  1.00  0.00     0.270 C 
ATOM     11  H   UNL     1       0.242  -2.279  -2.336  1.00  0.00     0.348 HD
ATOM     12  C   UNL     1       1.577  -2.465   0.605  1.00  0.00     0.036 C 
ATOM     13  C   UNL     1       2.708  -2.962  -0.318  1.00  0.00     0.091 C 
ATOM     14  C   UNL     1       1.071  -3.564   1.564  1.00  0.00     0.075 C 
ATOM     15  C   UNL     1       2.132  -1.294   1.435  1.00  0.00     0.075 C 
ATOM     16  C   UNL     1       0.065  -3.004   2.573  1.00  0.00     0.271 C 
ATOM     17  C   UNL     1       1.125  -0.775   2.447  1.00  0.00     0.271 C 
ATOM     18  N   UNL     1       0.641  -1.860   3.290  1.00  0.00    -0.270 N 
ATOM     19  H   UNL     1       0.549  -2.332   2.431  1.00  0.00     0.356 HD
BRANCH   9  20
ATOM     20  C   UNL     1       1.471  -0.765  -2.203  1.00  0.00     0.262 C 
BRANCH  20  21
ATOM     21  C   UNL     1       0.598   0.493  -1.993  1.00  0.00     0.058 C 
ATOM     22  C   UNL     1       0.981   1.321  -0.771  1.00  0.00     0.010 C 
ENDBRANCH  20  21
ENDBRANCH   9  20
BRANCH  18  23
ATOM     23  C   UNL     1       0.732  -1.717   4.663  1.00  0.00     0.333 C 
ATOM     24  O   UNL     1       1.383  -0.806   5.184  1.00  0.00    -0.229 OA
BRANCH  23  25
ATOM     25  C   UNL     1       0.001  -2.687   5.550  1.00  0.00     0.293 C 
BRANCH  25  26
ATOM     26  N   UNL     1      -1.429  -2.672   5.348  1.00  0.00    -0.216 N 
ATOM     27  N   UNL     1      -2.087  -3.846   5.301  1.00  0.00    -0.044 NA
ATOM     28  C   UNL     1      -2.317  -1.641   5.176  1.00  0.00     0.149 A 
ATOM     29  N   UNL     1      -3.350  -3.531   5.067  1.00  0.00    -0.024 NA
ATOM     30  N   UNL     1      -3.509  -2.173   4.989  1.00  0.00    -0.114 NA
ATOM     31  C   UNL     1      -2.014  -0.193   5.178  1.00  0.00     0.091 C 
ENDBRANCH  25  26
ENDBRANCH  23  25
ENDBRANCH  18  23
ENDBRANCH   6   8
ENDBRANCH   5   6
ENDBRANCH   4   5
ENDBRANCH   3   4
ENDBRANCH   2   3
ENDBRANCH   1   2
BRANCH   1  32
ATOM     32  C   UNL     1      -0.764  -3.473  -4.037  1.00  0.00     0.188 C 
BRANCH  32  33
ATOM     33  O   UNL     1      -1.673  -3.867  -3.034  1.00  0.00    -0.376 OA
BRANCH  33  34
ATOM     34  C   UNL     1      -3.064  -4.024  -3.241  1.00  0.00     0.202 C 
BRANCH  34  35
ATOM     35  C   UNL     1      -3.722  -4.271  -4.594  1.00  0.00     0.261 C 
BRANCH  35  36
ATOM     36  O   UNL     1      -2.871  -4.151  -5.707  1.00  0.00    -0.460 OA
BRANCH  36  37
ATOM     37  C   UNL     1      -2.758  -2.890  -6.165  1.00  0.00     0.338 C 
ATOM     38  O   UNL     1      -3.157  -1.866  -5.620  1.00  0.00    -0.246 OA
BRANCH  37  39
ATOM     39  C   UNL     1      -2.058  -2.939  -7.444  1.00  0.00     0.060 A 
ATOM     40  C   UNL     1      -1.687  -1.715  -7.999  1.00  0.00     0.016 A 
ATOM     41  C   UNL     1      -2.156  -4.120  -8.194  1.00  0.00     0.016 A 
ATOM     42  C   UNL     1      -1.748  -1.604  -9.363  1.00  0.00     0.010 A 
ATOM     43  C   UNL     1      -2.252  -3.999  -9.550  1.00  0.00     0.010 A 
ATOM     44  C   UNL     1      -2.165  -2.721 -10.093  1.00  0.00    -0.014 A 
BRANCH  44  45
ATOM     45  C   UNL     1      -2.474  -2.550 -11.488  1.00  0.00     0.031 A 
ATOM     46  C   UNL     1      -1.258  -2.498 -12.310  1.00  0.00     0.074 A 
ATOM     47  C   UNL     1      -3.740  -2.532 -11.944  1.00  0.00     0.049 A 
ATOM     48  N   UNL     1      -0.741  -1.448 -12.848  1.00  0.00    -0.248 NA
ATOM     49  C   UNL     1      -0.383  -3.681 -12.329  1.00  0.00     0.031 C 
ATOM     50  C   UNL     1      -4.980  -2.799 -11.212  1.00  0.00     0.029 A 
ATOM     51  N   UNL     1      -4.172  -2.363 -13.219  1.00  0.00    -0.354 N 
ATOM     52  C   UNL     1       0.386  -1.904 -13.511  1.00  0.00     0.074 A 
ATOM     53  C   UNL     1       0.694  -3.187 -12.941  1.00  0.00     0.031 C 
ATOM     54  C   UNL     1      -5.982  -3.006 -12.099  1.00  0.00     0.029 A 
ATOM     55  C   UNL     1      -5.480  -2.777 -13.446  1.00  0.00     0.049 A 
ATOM     56  H   UNL     1      -3.606  -1.979 -13.926  1.00  0.00     0.167 HD
ATOM     57  C   UNL     1       0.779  -1.327 -14.675  1.00  0.00     0.034 A 
ATOM     58  C   UNL     1      -6.061  -2.989 -14.660  1.00  0.00     0.034 A 
ATOM     59  C   UNL     1       0.143  -0.040 -14.856  1.00  0.00     0.049 A 
ATOM     60  C   UNL     1      -5.274  -2.202 -15.649  1.00  0.00     0.074 A 
ATOM     61  C   UNL     1       0.115   1.130 -14.119  1.00  0.00     0.029 A 
ATOM     62  N   UNL     1      -0.937   0.031 -15.710  1.00  0.00    -0.354 N 
ATOM     63  N   UNL     1      -5.231  -0.896 -15.643  1.00  0.00    -0.248 NA
ATOM     64  C   UNL     1      -4.133  -2.844 -16.292  1.00  0.00     0.031 C 
ATOM     65  C   UNL     1      -1.227   1.601 -14.223  1.00  0.00     0.029 A 
ATOM     66  C   UNL     1      -1.927   0.753 -15.085  1.00  0.00     0.049 A 
ATOM     67  H   UNL     1      -0.990  -0.365 -16.610  1.00  0.00     0.167 HD
ATOM     68  C   UNL     1      -3.897  -0.576 -15.846  1.00  0.00     0.074 A 
ATOM     69  C   UNL     1      -3.286  -1.808 -16.344  1.00  0.00     0.031 C 
ATOM     70  C   UNL     1      -3.350   0.557 -15.307  1.00  0.00     0.034 A 
BRANCH  57  71
ATOM     71  C   UNL     1       1.421  -2.083 -15.809  1.00  0.00     0.023 A 
ATOM     72  C   UNL     1       1.847  -1.328 -16.914  1.00  0.00     0.031 A 
ATOM     73  C   UNL     1       1.387  -3.486 -15.994  1.00  0.00     0.131 A 
ATOM     74  C   UNL     1       2.126  -1.948 -18.141  1.00  0.00     0.055 A 
ATOM     75  C   UNL     1       1.739  -4.103 -17.194  1.00  0.00     0.041 A 
ATOM     76  F   UNL     1       0.920  -4.334 -15.071  1.00  0.00    -0.206 F 
ATOM     77  C   UNL     1       2.081  -3.332 -18.289  1.00  0.00     0.022 A 
BRANCH  74  78
ATOM     78  S   UNL     1       2.377  -0.895 -19.589  1.00  0.00     0.124 S 
ATOM     79  O   UNL     1       1.154  -0.100 -19.589  1.00  0.00    -0.237 OA
ATOM     80  O   UNL     1       3.605  -0.190 -19.236  1.00  0.00    -0.237 OA
ATOM     81  O   UNL     1       2.500  -1.853 -20.685  1.00  0.00    -0.744 OA
ENDBRANCH  74  78
ENDBRANCH  57  71
BRANCH  58  82
ATOM     82  C   UNL     1      -7.006  -4.086 -15.030  1.00  0.00     0.023 A 
ATOM     83  C   UNL     1      -7.776  -4.078 -16.216  1.00  0.00     0.031 A 
ATOM     84  C   UNL     1      -6.985  -5.303 -14.308  1.00  0.00     0.131 A 
ATOM     85  C   UNL     1      -8.474  -5.243 -16.627  1.00  0.00     0.055 A 
ATOM     86  C   UNL     1      -7.678  -6.445 -14.715  1.00  0.00     0.041 A 
ATOM     87  F   UNL     1      -6.213  -5.457 -13.221  1.00  0.00    -0.206 F 
ATOM     88  C   UNL     1      -8.418  -6.423 -15.883  1.00  0.00     0.022 A 
BRANCH  85  89
ATOM     89  S   UNL     1      -9.399  -5.276 -18.200  1.00  0.00     0.124 S 
ATOM     90  O   UNL     1     -10.532  -4.405 -17.913  1.00  0.00    -0.237 OA
ATOM     91  O   UNL     1      -8.418  -4.774 -19.154  1.00  0.00    -0.237 OA
ATOM     92  O   UNL     1      -9.741  -6.690 -18.365  1.00  0.00    -0.744 OA
ENDBRANCH  85  89
ENDBRANCH  58  82
BRANCH  70  93
ATOM     93  C   UNL     1      -4.290   1.595 -14.715  1.00  0.00     0.023 A 
ATOM     94  C   UNL     1      -5.227   1.347 -13.683  1.00  0.00     0.031 A 
ATOM     95  C   UNL     1      -4.142   2.924 -15.148  1.00  0.00     0.131 A 
ATOM     96  C   UNL     1      -5.984   2.408 -13.143  1.00  0.00     0.055 A 
ATOM     97  C   UNL     1      -4.873   3.974 -14.593  1.00  0.00     0.041 A 
ATOM     98  F   UNL     1      -3.251   3.233 -16.104  1.00  0.00    -0.206 F 
ATOM     99  C   UNL     1      -5.803   3.719 -13.593  1.00  0.00     0.022 A 
BRANCH  96 100
ATOM    100  S   UNL     1      -7.240   2.098 -11.859  1.00  0.00     0.124 S 
ATOM    101  O   UNL     1      -7.992   0.965 -12.383  1.00  0.00    -0.237 OA
ATOM    102  O   UNL     1      -6.425   1.834 -10.676  1.00  0.00    -0.237 OA
ATOM    103  O   UNL     1      -7.991   3.355 -11.809  1.00  0.00    -0.744 OA
ENDBRANCH  96 100
ENDBRANCH  70  93
ENDBRANCH  44  45
ENDBRANCH  37  39
ENDBRANCH  36  37
ENDBRANCH  35  36
ENDBRANCH  34  35
ENDBRANCH  33  34
ENDBRANCH  32  33
ENDBRANCH   1  32
TORSDOF 25
