REMARK SMILES CN1C(=O)[C@@H]2CC=CC[C@]2(C(=O)OCCOCCOCCOC(=O)c2ccc(-c3c4nc(c(-c5cc(S(=O)(=O)[O-])ccc5F)c5ccc([nH]5)c(-c5cc(S(=O)(=O)[O-])ccc5F)c5nc(c(-c6cc(S(=O)(=O)[O-])ccc6F)c6ccc3[nH]6)C=C5)C=C4)cc2)[C@H]1c1ccccc1
REMARK SMILES IDX 18 1 17 2 16 3 15 4 14 5 13 6 11 7 12 8 10 9 1 10 2 11 3 12
REMARK SMILES IDX 88 13 4 14 5 15 6 16 9 17 7 18 8 19 89 20 90 21 94 22 91 23
REMARK SMILES IDX 93 24 92 25 19 26 20 27 21 28 22 29 23 30 24 31 25 32 26 33
REMARK SMILES IDX 87 34 27 35 86 36 28 37 29 38 30 39 80 40 31 41 85 42 79 43
REMARK SMILES IDX 81 44 32 45 84 46 78 47 77 48 33 50 65 51 45 52 64 53 46 54
REMARK SMILES IDX 49 55 63 56 82 57 47 58 48 59 62 61 83 62 50 63 34 64 35 65
REMARK SMILES IDX 43 66 36 67 42 68 44 69 41 70 37 71 38 72 39 73 40 74 66 75
REMARK SMILES IDX 67 76 75 77 68 78 74 79 76 80 73 81 69 82 70 83 71 84 72 85
REMARK SMILES IDX 51 86 52 87 60 88 53 89 59 90 61 91 58 92 54 93 55 94 56 95
REMARK SMILES IDX 57 96
REMARK H PARENT 81 49 49 60
REMARK Flexibility Score: inf
ROOT
ATOM      1  C   UNL     1       2.451   5.603  -1.228  1.00  0.00     0.188 C 
ENDROOT
BRANCH   1   2
ATOM      2  C   UNL     1       2.368   7.033  -0.636  1.00  0.00     0.188 C 
BRANCH   2   3
ATOM      3  O   UNL     1       2.344   7.113   0.796  1.00  0.00    -0.376 OA
BRANCH   3   4
ATOM      4  C   UNL     1       3.496   6.604   1.461  1.00  0.00     0.202 C 
BRANCH   4   5
ATOM      5  C   UNL     1       3.087   5.552   2.508  1.00  0.00     0.261 C 
BRANCH   5   6
ATOM      6  O   UNL     1       2.121   4.671   1.914  1.00  0.00    -0.463 OA
BRANCH   6   7
ATOM      7  C   UNL     1       0.914   4.331   2.504  1.00  0.00     0.315 C 
ATOM      8  O   UNL     1       0.575   4.602   3.642  1.00  0.00    -0.251 OA
BRANCH   7   9
ATOM      9  C   UNL     1       0.053   3.692   1.375  1.00  0.00     0.108 C 
ATOM     10  C   UNL     1       0.804   0.311  -0.277  1.00  0.00     0.147 C 
ATOM     11  N   UNL     1       0.232   1.516   0.298  1.00  0.00    -0.337 N 
ATOM     12  C   UNL     1      -1.036   1.544   0.823  1.00  0.00     0.227 C 
ATOM     13  C   UNL     1       1.045   2.549   0.871  1.00  0.00     0.133 C 
ATOM     14  O   UNL     1      -1.830   0.616   0.764  1.00  0.00    -0.275 OA
ATOM     15  C   UNL     1      -1.289   2.890   1.513  1.00  0.00     0.102 C 
ATOM     16  C   UNL     1      -2.579   3.401   0.790  1.00  0.00     0.041 C 
ATOM     17  C   UNL     1      -0.293   5.064   0.732  1.00  0.00     0.049 C 
ATOM     18  C   UNL     1      -2.428   4.473  -0.239  1.00  0.00    -0.030 C 
ATOM     19  C   UNL     1      -1.334   5.222  -0.293  1.00  0.00    -0.030 C 
BRANCH  13  20
ATOM     20  C   UNL     1       1.861   1.902   2.046  1.00  0.00    -0.024 A 
ATOM     21  C   UNL     1       1.214   1.476   3.226  1.00  0.00     0.006 A 
ATOM     22  C   UNL     1       3.264   1.959   2.045  1.00  0.00     0.006 A 
ATOM     23  C   UNL     1       1.924   1.317   4.414  1.00  0.00     0.000 A 
ATOM     24  C   UNL     1       3.975   1.770   3.236  1.00  0.00     0.000 A 
ATOM     25  C   UNL     1       3.301   1.496   4.427  1.00  0.00     0.000 A 
ENDBRANCH  13  20
ENDBRANCH   7   9
ENDBRANCH   6   7
ENDBRANCH   5   6
ENDBRANCH   4   5
ENDBRANCH   3   4
ENDBRANCH   2   3
ENDBRANCH   1   2
BRANCH   1  26
ATOM     26  O   UNL     1       3.727   5.086  -1.585  1.00  0.00    -0.376 OA
BRANCH  26  27
ATOM     27  C   UNL     1       4.618   5.958  -2.257  1.00  0.00     0.202 C 
BRANCH  27  28
ATOM     28  C   UNL     1       4.171   6.587  -3.588  1.00  0.00     0.261 C 
BRANCH  28  29
ATOM     29  O   UNL     1       2.884   7.237  -3.549  1.00  0.00    -0.460 OA
BRANCH  29  30
ATOM     30  C   UNL     1       1.904   6.618  -4.276  1.00  0.00     0.338 C 
ATOM     31  O   UNL     1       2.034   5.622  -4.947  1.00  0.00    -0.246 OA
BRANCH  30  32
ATOM     32  C   UNL     1       0.577   7.222  -3.973  1.00  0.00     0.060 A 
ATOM     33  C   UNL     1      -0.496   6.353  -3.732  1.00  0.00     0.016 A 
ATOM     34  C   UNL     1       0.364   8.602  -3.968  1.00  0.00     0.016 A 
ATOM     35  C   UNL     1      -1.784   6.856  -3.518  1.00  0.00     0.010 A 
ATOM     36  C   UNL     1      -0.932   9.105  -3.761  1.00  0.00     0.010 A 
ATOM     37  C   UNL     1      -2.019   8.236  -3.557  1.00  0.00    -0.014 A 
BRANCH  37  38
ATOM     38  C   UNL     1      -3.419   8.746  -3.589  1.00  0.00     0.031 A 
ATOM     39  C   UNL     1      -4.057   8.988  -4.932  1.00  0.00     0.074 A 
ATOM     40  C   UNL     1      -4.132   8.967  -2.467  1.00  0.00     0.049 A 
ATOM     41  N   UNL     1      -5.240   9.467  -5.221  1.00  0.00    -0.248 NA
ATOM     42  C   UNL     1      -3.244   8.639  -6.106  1.00  0.00     0.031 C 
ATOM     43  C   UNL     1      -3.665   8.722  -1.105  1.00  0.00     0.029 A 
ATOM     44  N   UNL     1      -5.408   9.455  -2.301  1.00  0.00    -0.354 N 
ATOM     45  C   UNL     1      -5.315   9.476  -6.610  1.00  0.00     0.074 A 
ATOM     46  C   UNL     1      -4.043   8.989  -7.101  1.00  0.00     0.031 C 
ATOM     47  C   UNL     1      -4.638   9.071  -0.242  1.00  0.00     0.029 A 
ATOM     48  C   UNL     1      -5.782   9.602  -0.984  1.00  0.00     0.049 A 
ATOM     49  H   UNL     1      -6.000   9.679  -3.055  1.00  0.00     0.167 HD
ATOM     50  C   UNL     1      -6.349   9.848  -7.405  1.00  0.00     0.034 A 
ATOM     51  C   UNL     1      -6.901  10.129  -0.441  1.00  0.00     0.034 A 
ATOM     52  C   UNL     1      -7.605  10.358  -6.914  1.00  0.00     0.049 A 
ATOM     53  C   UNL     1      -7.995  10.651  -1.349  1.00  0.00     0.074 A 
ATOM     54  C   UNL     1      -8.712  10.763  -7.641  1.00  0.00     0.029 A 
ATOM     55  N   UNL     1      -7.920  10.553  -5.576  1.00  0.00    -0.354 N 
ATOM     56  N   UNL     1      -8.055  10.651  -2.661  1.00  0.00    -0.248 NA
ATOM     57  C   UNL     1      -9.176  11.242  -0.700  1.00  0.00     0.031 C 
ATOM     58  C   UNL     1      -9.660  11.277  -6.750  1.00  0.00     0.029 A 
ATOM     59  C   UNL     1      -9.186  11.109  -5.460  1.00  0.00     0.049 A 
ATOM     60  H   UNL     1      -7.331  10.329  -4.819  1.00  0.00     0.167 HD
ATOM     61  C   UNL     1      -9.294  11.204  -2.988  1.00  0.00     0.074 A 
ATOM     62  C   UNL     1      -9.952  11.517  -1.738  1.00  0.00     0.031 C 
ATOM     63  C   UNL     1      -9.840  11.426  -4.211  1.00  0.00     0.034 A 
BRANCH  50  64
ATOM     64  C   UNL     1      -6.131   9.771  -8.896  1.00  0.00     0.023 A 
ATOM     65  C   UNL     1      -5.915   8.546  -9.551  1.00  0.00     0.031 A 
ATOM     66  C   UNL     1      -6.109  10.945  -9.670  1.00  0.00     0.131 A 
ATOM     67  C   UNL     1      -5.616   8.530 -10.922  1.00  0.00     0.055 A 
ATOM     68  C   UNL     1      -5.894  10.915 -11.048  1.00  0.00     0.041 A 
ATOM     69  F   UNL     1      -6.283  12.146  -9.095  1.00  0.00    -0.206 F 
ATOM     70  C   UNL     1      -5.631   9.703 -11.680  1.00  0.00     0.022 A 
BRANCH  67  71
ATOM     71  S   UNL     1      -5.059   6.974 -11.669  1.00  0.00     0.124 S 
ATOM     72  O   UNL     1      -3.885   6.661 -10.858  1.00  0.00    -0.237 OA
ATOM     73  O   UNL     1      -6.215   6.104 -11.484  1.00  0.00    -0.237 OA
ATOM     74  O   UNL     1      -4.770   7.343 -13.053  1.00  0.00    -0.744 OA
ENDBRANCH  67  71
ENDBRANCH  50  64
BRANCH  51  75
ATOM     75  C   UNL     1      -7.044  10.257   1.042  1.00  0.00     0.023 A 
ATOM     76  C   UNL     1      -8.087   9.618   1.735  1.00  0.00     0.031 A 
ATOM     77  C   UNL     1      -6.192  11.103   1.776  1.00  0.00     0.131 A 
ATOM     78  C   UNL     1      -8.283   9.878   3.102  1.00  0.00     0.055 A 
ATOM     79  C   UNL     1      -6.354  11.309   3.147  1.00  0.00     0.041 A 
ATOM     80  F   UNL     1      -5.188  11.751   1.165  1.00  0.00    -0.206 F 
ATOM     81  C   UNL     1      -7.415  10.706   3.815  1.00  0.00     0.022 A 
BRANCH  78  82
ATOM     82  S   UNL     1      -9.761   9.204   3.914  1.00  0.00     0.124 S 
ATOM     83  O   UNL     1     -10.830   9.792   3.115  1.00  0.00    -0.237 OA
ATOM     84  O   UNL     1      -9.562   7.767   3.763  1.00  0.00    -0.237 OA
ATOM     85  O   UNL     1      -9.655   9.706   5.283  1.00  0.00    -0.744 OA
ENDBRANCH  78  82
ENDBRANCH  51  75
BRANCH  63  86
ATOM     86  C   UNL     1     -11.246  11.982  -4.261  1.00  0.00     0.023 A 
ATOM     87  C   UNL     1     -11.557  13.275  -3.803  1.00  0.00     0.031 A 
ATOM     88  C   UNL     1     -12.294  11.200  -4.783  1.00  0.00     0.131 A 
ATOM     89  C   UNL     1     -12.887  13.726  -3.829  1.00  0.00     0.055 A 
ATOM     90  C   UNL     1     -13.603  11.677  -4.864  1.00  0.00     0.041 A 
ATOM     91  F   UNL     1     -12.060   9.957  -5.234  1.00  0.00    -0.206 F 
ATOM     92  C   UNL     1     -13.908  12.943  -4.373  1.00  0.00     0.022 A 
BRANCH  89  93
ATOM     93  S   UNL     1     -13.286  15.320  -3.058  1.00  0.00     0.124 S 
ATOM     94  O   UNL     1     -12.823  15.121  -1.689  1.00  0.00    -0.237 OA
ATOM     95  O   UNL     1     -12.510  16.259  -3.863  1.00  0.00    -0.237 OA
ATOM     96  O   UNL     1     -14.736  15.425  -3.214  1.00  0.00    -0.744 OA
ENDBRANCH  89  93
ENDBRANCH  63  86
ENDBRANCH  37  38
ENDBRANCH  30  32
ENDBRANCH  29  30
ENDBRANCH  28  29
ENDBRANCH  27  28
ENDBRANCH  26  27
ENDBRANCH   1  26
TORSDOF 21
