REMARK SMILES CC1(C)S[C@H](c2ccc([N+](=O)[O-])cc2)[NH2+][C@@H]1C(=O)OCCOCCOCCOC(=O)c1ccc(-c2c3nc(c(-c4cc(S(=O)(=O)[O-])ccc4F)c4ccc([nH]4)c(-c4cc(S(=O)(=O)[O-])ccc4F)c4nc(c(-c5cc(S(=O)(=O)[O-])ccc5F)c5ccc2[nH]5)C=C4)C=C3)cc1
REMARK SMILES IDX 24 1 23 2 22 3 21 4 20 5 19 6 17 7 18 8 16 9 1 10 2 11 3 12
REMARK SMILES IDX 4 13 5 14 15 15 6 18 7 19 14 20 8 21 13 22 9 23 10 24 11 25
REMARK SMILES IDX 12 26 25 27 26 28 27 29 28 30 29 31 30 32 31 33 32 34 93 35
REMARK SMILES IDX 33 36 92 37 34 38 35 39 36 40 86 41 37 42 91 43 85 44 87 45
REMARK SMILES IDX 38 46 90 47 84 48 83 49 39 51 71 52 51 53 70 54 52 55 55 56
REMARK SMILES IDX 69 57 88 58 53 59 54 60 68 62 89 63 56 64 40 65 41 66 49 67
REMARK SMILES IDX 42 68 48 69 50 70 47 71 43 72 44 73 45 74 46 75 72 76 73 77
REMARK SMILES IDX 81 78 74 79 80 80 82 81 79 82 75 83 76 84 77 85 78 86 57 87
REMARK SMILES IDX 58 88 66 89 59 90 65 91 67 92 64 93 60 94 61 95 62 96 63 97
REMARK H PARENT 15 16 15 17 87 50 55 61
REMARK Flexibility Score: inf
ROOT
ATOM      1  C   UNL     1       0.290   3.686  -2.727  1.00  0.00     0.188 C 
ENDROOT
BRANCH   1   2
ATOM      2  C   UNL     1       1.092   2.676  -3.582  1.00  0.00     0.188 C 
BRANCH   2   3
ATOM      3  O   UNL     1       0.549   2.455  -4.872  1.00  0.00    -0.376 OA
BRANCH   3   4
ATOM      4  C   UNL     1      -0.131   1.226  -5.081  1.00  0.00     0.202 C 
BRANCH   4   5
ATOM      5  C   UNL     1      -1.365   0.980  -4.209  1.00  0.00     0.261 C 
BRANCH   5   6
ATOM      6  O   UNL     1      -1.127   1.123  -2.800  1.00  0.00    -0.459 OA
BRANCH   6   7
ATOM      7  C   UNL     1      -0.476   0.110  -2.158  1.00  0.00     0.366 C 
ATOM      8  O   UNL     1      -0.117  -0.916  -2.715  1.00  0.00    -0.245 OA
BRANCH   7   9
ATOM      9  C   UNL     1      -0.233   0.518  -0.669  1.00  0.00     0.310 C 
ATOM     10  C   UNL     1       1.024   0.208   1.519  1.00  0.00     0.030 C 
ATOM     11  C   UNL     1       0.558  -0.468   0.206  1.00  0.00     0.079 C 
ATOM     12  C   UNL     1       1.799  -1.055  -0.468  1.00  0.00     0.030 C 
ATOM     13  S   UNL     1      -0.733  -1.696   0.625  1.00  0.00    -0.081 SA
ATOM     14  C   UNL     1      -2.137  -0.568   0.263  1.00  0.00     0.274 C 
ATOM     15  N   UNL     1      -1.536   0.760   0.027  1.00  0.00    -0.319 N 
ATOM     16  H   UNL     1      -1.378   1.238   0.914  1.00  0.00     0.348 HD
ATOM     17  H   UNL     1      -2.150   1.349  -0.535  1.00  0.00     0.348 HD
BRANCH  14  18
ATOM     18  C   UNL     1      -3.037  -0.949  -0.917  1.00  0.00     0.021 A 
ATOM     19  C   UNL     1      -3.787   0.069  -1.554  1.00  0.00     0.018 A 
ATOM     20  C   UNL     1      -3.130  -2.251  -1.433  1.00  0.00     0.018 A 
ATOM     21  C   UNL     1      -4.481  -0.168  -2.740  1.00  0.00     0.086 A 
ATOM     22  C   UNL     1      -3.838  -2.505  -2.614  1.00  0.00     0.086 A 
ATOM     23  C   UNL     1      -4.477  -1.454  -3.280  1.00  0.00     0.269 A 
BRANCH  23  24
ATOM     24  N   UNL     1      -5.111  -1.689  -4.577  1.00  0.00     0.062 N 
ATOM     25  O   UNL     1      -5.309  -0.705  -5.307  1.00  0.00    -0.258 OA
ATOM     26  O   UNL     1      -5.409  -2.855  -4.873  1.00  0.00    -0.258 OA
ENDBRANCH  23  24
ENDBRANCH  14  18
ENDBRANCH   7   9
ENDBRANCH   6   7
ENDBRANCH   5   6
ENDBRANCH   4   5
ENDBRANCH   3   4
ENDBRANCH   2   3
ENDBRANCH   1   2
BRANCH   1  27
ATOM     27  O   UNL     1      -0.752   4.450  -3.320  1.00  0.00    -0.376 OA
BRANCH  27  28
ATOM     28  C   UNL     1      -0.538   5.031  -4.599  1.00  0.00     0.202 C 
BRANCH  28  29
ATOM     29  C   UNL     1       0.658   5.975  -4.786  1.00  0.00     0.261 C 
BRANCH  29  30
ATOM     30  O   UNL     1       1.935   5.414  -4.433  1.00  0.00    -0.460 OA
BRANCH  30  31
ATOM     31  C   UNL     1       2.534   5.963  -3.343  1.00  0.00     0.338 C 
ATOM     32  O   UNL     1       2.118   6.889  -2.671  1.00  0.00    -0.246 OA
BRANCH  31  33
ATOM     33  C   UNL     1       3.698   5.140  -2.940  1.00  0.00     0.060 A 
ATOM     34  C   UNL     1       3.740   4.650  -1.626  1.00  0.00     0.016 A 
ATOM     35  C   UNL     1       4.753   4.885  -3.818  1.00  0.00     0.016 A 
ATOM     36  C   UNL     1       4.848   3.929  -1.176  1.00  0.00     0.010 A 
ATOM     37  C   UNL     1       5.876   4.186  -3.357  1.00  0.00     0.010 A 
ATOM     38  C   UNL     1       5.942   3.731  -2.027  1.00  0.00    -0.014 A 
BRANCH  38  39
ATOM     39  C   UNL     1       7.232   3.242  -1.475  1.00  0.00     0.031 A 
ATOM     40  C   UNL     1       8.249   4.262  -1.036  1.00  0.00     0.074 A 
ATOM     41  C   UNL     1       7.503   1.929  -1.365  1.00  0.00     0.049 A 
ATOM     42  N   UNL     1       9.473   4.090  -0.611  1.00  0.00    -0.248 NA
ATOM     43  C   UNL     1       7.820   5.668  -1.091  1.00  0.00     0.031 C 
ATOM     44  C   UNL     1       6.585   0.844  -1.703  1.00  0.00     0.029 A 
ATOM     45  N   UNL     1       8.644   1.287  -0.948  1.00  0.00    -0.354 N 
ATOM     46  C   UNL     1       9.965   5.364  -0.351  1.00  0.00     0.074 A 
ATOM     47  C   UNL     1       8.915   6.299  -0.697  1.00  0.00     0.031 C 
ATOM     48  C   UNL     1       7.209  -0.331  -1.504  1.00  0.00     0.029 A 
ATOM     49  C   UNL     1       8.581  -0.082  -1.063  1.00  0.00     0.049 A 
ATOM     50  H   UNL     1       9.433   1.763  -0.601  1.00  0.00     0.167 HD
ATOM     51  C   UNL     1      11.180   5.724   0.132  1.00  0.00     0.034 A 
ATOM     52  C   UNL     1       9.532  -1.020  -0.869  1.00  0.00     0.034 A 
ATOM     53  C   UNL     1      12.229   4.788   0.447  1.00  0.00     0.049 A 
ATOM     54  C   UNL     1      10.915  -0.590  -0.432  1.00  0.00     0.074 A 
ATOM     55  C   UNL     1      13.494   5.045   0.946  1.00  0.00     0.029 A 
ATOM     56  N   UNL     1      12.143   3.412   0.276  1.00  0.00    -0.354 N 
ATOM     57  N   UNL     1      11.368   0.618  -0.186  1.00  0.00    -0.248 NA
ATOM     58  C   UNL     1      11.914  -1.653  -0.246  1.00  0.00     0.031 C 
ATOM     59  C   UNL     1      14.195   3.836   1.008  1.00  0.00     0.029 A 
ATOM     60  C   UNL     1      13.343   2.812   0.626  1.00  0.00     0.049 A 
ATOM     61  H   UNL     1      11.346   2.933  -0.046  1.00  0.00     0.167 HD
ATOM     62  C   UNL     1      12.693   0.454   0.217  1.00  0.00     0.074 A 
ATOM     63  C   UNL     1      12.962  -0.968   0.188  1.00  0.00     0.031 C 
ATOM     64  C   UNL     1      13.602   1.392   0.586  1.00  0.00     0.034 A 
BRANCH  51  65
ATOM     65  C   UNL     1      11.447   7.201   0.287  1.00  0.00     0.023 A 
ATOM     66  C   UNL     1      10.724   7.991   1.198  1.00  0.00     0.031 A 
ATOM     67  C   UNL     1      12.409   7.836  -0.518  1.00  0.00     0.131 A 
ATOM     68  C   UNL     1      10.922   9.380   1.229  1.00  0.00     0.055 A 
ATOM     69  C   UNL     1      12.657   9.206  -0.426  1.00  0.00     0.041 A 
ATOM     70  F   UNL     1      13.112   7.136  -1.422  1.00  0.00    -0.206 F 
ATOM     71  C   UNL     1      11.901   9.990   0.441  1.00  0.00     0.022 A 
BRANCH  68  72
ATOM     72  S   UNL     1       9.782  10.395   2.208  1.00  0.00     0.124 S 
ATOM     73  O   UNL     1       8.494  10.055   1.609  1.00  0.00    -0.237 OA
ATOM     74  O   UNL     1      10.005   9.904   3.563  1.00  0.00    -0.237 OA
ATOM     75  O   UNL     1      10.236  11.761   1.956  1.00  0.00    -0.744 OA
ENDBRANCH  68  72
ENDBRANCH  51  65
BRANCH  52  76
ATOM     76  C   UNL     1       9.245  -2.459  -1.137  1.00  0.00     0.023 A 
ATOM     77  C   UNL     1       9.298  -3.415  -0.110  1.00  0.00     0.031 A 
ATOM     78  C   UNL     1       8.983  -2.910  -2.444  1.00  0.00     0.131 A 
ATOM     79  C   UNL     1       9.140  -4.777  -0.413  1.00  0.00     0.055 A 
ATOM     80  C   UNL     1       8.774  -4.260  -2.732  1.00  0.00     0.041 A 
ATOM     81  F   UNL     1       8.926  -2.039  -3.464  1.00  0.00    -0.206 F 
ATOM     82  C   UNL     1       8.866  -5.205  -1.714  1.00  0.00     0.022 A 
BRANCH  79  83
ATOM     83  S   UNL     1       9.384  -5.995   0.909  1.00  0.00     0.124 S 
ATOM     84  O   UNL     1      10.757  -5.719   1.316  1.00  0.00    -0.237 OA
ATOM     85  O   UNL     1       8.344  -5.620   1.861  1.00  0.00    -0.237 OA
ATOM     86  O   UNL     1       9.177  -7.275   0.235  1.00  0.00    -0.744 OA
ENDBRANCH  79  83
ENDBRANCH  52  76
BRANCH  64  87
ATOM     87  C   UNL     1      14.957   0.904   1.042  1.00  0.00     0.023 A 
ATOM     88  C   UNL     1      15.867   0.298   0.159  1.00  0.00     0.031 A 
ATOM     89  C   UNL     1      15.341   1.054   2.387  1.00  0.00     0.131 A 
ATOM     90  C   UNL     1      17.097  -0.178   0.640  1.00  0.00     0.055 A 
ATOM     91  C   UNL     1      16.588   0.629   2.848  1.00  0.00     0.041 A 
ATOM     92  F   UNL     1      14.512   1.625   3.275  1.00  0.00    -0.206 F 
ATOM     93  C   UNL     1      17.470  -0.001   1.976  1.00  0.00     0.022 A 
BRANCH  90  94
ATOM     94  S   UNL     1      18.177  -1.105  -0.485  1.00  0.00     0.124 S 
ATOM     95  O   UNL     1      17.319  -2.218  -0.880  1.00  0.00    -0.237 OA
ATOM     96  O   UNL     1      18.464  -0.122  -1.524  1.00  0.00    -0.237 OA
ATOM     97  O   UNL     1      19.317  -1.469   0.355  1.00  0.00    -0.744 OA
ENDBRANCH  90  94
ENDBRANCH  64  87
ENDBRANCH  38  39
ENDBRANCH  31  33
ENDBRANCH  30  31
ENDBRANCH  29  30
ENDBRANCH  28  29
ENDBRANCH  27  28
ENDBRANCH   1  27
TORSDOF 22
