REMARK SMILES O=C(C[C@H]1S/C(=[NH+]/N=C/c2cccc(Cl)c2)NC1=O)OCCOCCOCCOC(=O)c1ccc(-c2c3nc(c(-c4cc(S(=O)(=O)[O-])ccc4F)c4ccc([nH]4)c(-c4cc(S(=O)(=O)[O-])ccc4F)c4nc(c(-c5cc(S(=O)(=O)[O-])ccc5F)c5ccc2[nH]5)C=C4)C=C3)cc1
REMARK SMILES IDX 24 1 23 2 22 3 21 4 20 5 2 6 1 7 3 8 4 9 5 10 18 11 6 12
REMARK SMILES IDX 17 13 19 14 7 15 8 18 9 19 10 20 11 21 16 22 12 23 14 24
REMARK SMILES IDX 13 25 15 26 25 27 26 28 27 29 28 30 29 31 30 32 31 33 32 34
REMARK SMILES IDX 33 35 94 36 34 37 93 38 35 39 36 40 37 41 87 42 38 43 92 44
REMARK SMILES IDX 86 45 88 46 39 47 91 48 85 49 84 50 40 52 72 53 52 54 71 55
REMARK SMILES IDX 53 56 56 57 70 58 89 59 54 60 55 61 69 63 90 64 57 65 41 66
REMARK SMILES IDX 42 67 50 68 43 69 49 70 51 71 48 72 44 73 45 74 46 75 47 76
REMARK SMILES IDX 73 77 74 78 82 79 75 80 81 81 83 82 80 83 76 84 77 85 78 86
REMARK SMILES IDX 79 87 58 88 59 89 67 90 60 91 66 92 68 93 65 94 61 95 62 96
REMARK SMILES IDX 63 97 64 98
REMARK H PARENT 17 16 7 17 88 51 56 62
REMARK Flexibility Score: inf
ROOT
ATOM      1  C   UNL     1       3.000  -0.832   1.727  1.00  0.00     0.188 C 
ENDROOT
BRANCH   1   2
ATOM      2  O   UNL     1       4.407  -0.704   1.744  1.00  0.00    -0.376 OA
BRANCH   2   3
ATOM      3  C   UNL     1       5.084  -0.167   0.626  1.00  0.00     0.202 C 
BRANCH   3   4
ATOM      4  C   UNL     1       4.570   1.159   0.078  1.00  0.00     0.261 C 
BRANCH   4   5
ATOM      5  O   UNL     1       3.210   1.226  -0.407  1.00  0.00    -0.463 OA
BRANCH   5   6
ATOM      6  C   UNL     1       2.552   0.455  -1.289  1.00  0.00     0.307 C 
ATOM      7  O   UNL     1       1.459   0.822  -1.719  1.00  0.00    -0.252 OA
BRANCH   6   8
ATOM      8  C   UNL     1       3.102  -0.890  -1.698  1.00  0.00     0.150 C 
BRANCH   8   9
ATOM      9  C   UNL     1       4.189  -0.852  -2.758  1.00  0.00     0.184 C 
ATOM     10  S   UNL     1       3.753  -2.061  -4.067  1.00  0.00    -0.020 SA
ATOM     11  C   UNL     1       4.206   0.475  -3.478  1.00  0.00     0.322 C 
ATOM     12  C   UNL     1       2.997  -0.807  -4.990  1.00  0.00     0.337 C 
ATOM     13  N   UNL     1       3.387   0.417  -4.552  1.00  0.00    -0.202 N 
ATOM     14  O   UNL     1       4.805   1.471  -3.105  1.00  0.00    -0.246 OA
ATOM     15  N   UNL     1       2.195  -0.971  -5.985  1.00  0.00    -0.142 N 
ATOM     16  H   UNL     1       3.083   1.237  -5.003  1.00  0.00     0.316 HD
ATOM     17  H   UNL     1       1.850  -1.833  -6.312  1.00  0.00     0.343 HD
BRANCH  15  18
ATOM     18  N   UNL     1       1.902   0.277  -6.515  1.00  0.00    -0.093 NA
ATOM     19  C   UNL     1       0.995   0.276  -7.428  1.00  0.00     0.166 C 
BRANCH  19  20
ATOM     20  C   UNL     1       0.701   1.562  -8.079  1.00  0.00    -0.002 A 
ATOM     21  C   UNL     1       1.621   2.616  -7.954  1.00  0.00     0.010 A 
ATOM     22  C   UNL     1      -0.474   1.724  -8.804  1.00  0.00     0.030 A 
ATOM     23  C   UNL     1       1.371   3.841  -8.561  1.00  0.00     0.002 A 
ATOM     24  C   UNL     1      -0.719   2.959  -9.402  1.00  0.00     0.041 A 
ATOM     25  C   UNL     1       0.196   4.011  -9.288  1.00  0.00     0.020 A 
ATOM     26  Cl  UNL     1      -2.171   3.198 -10.293  1.00  0.00    -0.084 Cl
ENDBRANCH  19  20
ENDBRANCH  15  18
ENDBRANCH   8   9
ENDBRANCH   6   8
ENDBRANCH   5   6
ENDBRANCH   4   5
ENDBRANCH   3   4
ENDBRANCH   2   3
ENDBRANCH   1   2
BRANCH   1  27
ATOM     27  C   UNL     1       2.251  -0.009   2.784  1.00  0.00     0.188 C 
BRANCH  27  28
ATOM     28  O   UNL     1       2.955   0.992   3.500  1.00  0.00    -0.376 OA
BRANCH  28  29
ATOM     29  C   UNL     1       4.218   0.665   4.067  1.00  0.00     0.202 C 
BRANCH  29  30
ATOM     30  C   UNL     1       4.388  -0.623   4.900  1.00  0.00     0.261 C 
BRANCH  30  31
ATOM     31  O   UNL     1       4.058  -1.867   4.245  1.00  0.00    -0.460 OA
BRANCH  31  32
ATOM     32  C   UNL     1       2.953  -2.508   4.708  1.00  0.00     0.338 C 
ATOM     33  O   UNL     1       2.215  -2.128   5.598  1.00  0.00    -0.246 OA
BRANCH  32  34
ATOM     34  C   UNL     1       2.642  -3.693   3.871  1.00  0.00     0.060 A 
ATOM     35  C   UNL     1       1.422  -3.731   3.176  1.00  0.00     0.016 A 
ATOM     36  C   UNL     1       3.488  -4.801   3.854  1.00  0.00     0.016 A 
ATOM     37  C   UNL     1       1.031  -4.883   2.487  1.00  0.00     0.010 A 
ATOM     38  C   UNL     1       3.080  -5.967   3.190  1.00  0.00     0.010 A 
ATOM     39  C   UNL     1       1.834  -6.029   2.535  1.00  0.00    -0.014 A 
BRANCH  39  40
ATOM     40  C   UNL     1       1.285  -7.350   2.120  1.00  0.00     0.031 A 
ATOM     41  C   UNL     1       0.745  -8.259   3.194  1.00  0.00     0.074 A 
ATOM     42  C   UNL     1       1.263  -7.748   0.835  1.00  0.00     0.049 A 
ATOM     43  N   UNL     1       0.341  -9.501   3.114  1.00  0.00    -0.248 NA
ATOM     44  C   UNL     1       0.663  -7.683   4.545  1.00  0.00     0.031 C 
ATOM     45  C   UNL     1       1.685  -6.943  -0.308  1.00  0.00     0.029 A 
ATOM     46  N   UNL     1       0.881  -8.947   0.280  1.00  0.00    -0.354 N 
ATOM     47  C   UNL     1      -0.025  -9.863   4.407  1.00  0.00     0.074 A 
ATOM     48  C   UNL     1       0.238  -8.717   5.253  1.00  0.00     0.031 C 
ATOM     49  C   UNL     1       1.560  -7.678  -1.428  1.00  0.00     0.029 A 
ATOM     50  C   UNL     1       1.097  -9.022  -1.078  1.00  0.00     0.049 A 
ATOM     51  H   UNL     1       0.489  -9.683   0.804  1.00  0.00     0.167 HD
ATOM     52  C   UNL     1      -0.536 -11.039   4.849  1.00  0.00     0.034 A 
ATOM     53  C   UNL     1       0.973 -10.062  -1.930  1.00  0.00     0.034 A 
ATOM     54  C   UNL     1      -0.779 -12.178   3.997  1.00  0.00     0.049 A 
ATOM     55  C   UNL     1       0.505 -11.401  -1.401  1.00  0.00     0.074 A 
ATOM     56  C   UNL     1      -1.300 -13.414   4.340  1.00  0.00     0.029 A 
ATOM     57  N   UNL     1      -0.503 -12.229   2.637  1.00  0.00    -0.354 N 
ATOM     58  N   UNL     1       0.174 -11.738  -0.175  1.00  0.00    -0.248 NA
ATOM     59  C   UNL     1       0.393 -12.498  -2.372  1.00  0.00     0.031 C 
ATOM     60  C   UNL     1      -1.257 -14.237   3.210  1.00  0.00     0.029 A 
ATOM     61  C   UNL     1      -0.806 -13.487   2.136  1.00  0.00     0.049 A 
ATOM     62  H   UNL     1      -0.145 -11.482   2.105  1.00  0.00     0.167 HD
ATOM     63  C   UNL     1      -0.227 -13.073  -0.240  1.00  0.00     0.074 A 
ATOM     64  C   UNL     1      -0.098 -13.476  -1.624  1.00  0.00     0.031 C 
ATOM     65  C   UNL     1      -0.672 -13.886   0.753  1.00  0.00     0.034 A 
BRANCH  52  66
ATOM     66  C   UNL     1      -0.799 -11.166   6.332  1.00  0.00     0.023 A 
ATOM     67  C   UNL     1      -1.726 -10.345   6.997  1.00  0.00     0.031 A 
ATOM     68  C   UNL     1      -0.078 -12.097   7.101  1.00  0.00     0.131 A 
ATOM     69  C   UNL     1      -1.845 -10.411   8.393  1.00  0.00     0.055 A 
ATOM     70  C   UNL     1      -0.269 -12.222   8.479  1.00  0.00     0.041 A 
ATOM     71  F   UNL     1       0.840 -12.892   6.530  1.00  0.00    -0.206 F 
ATOM     72  C   UNL     1      -1.144 -11.363   9.136  1.00  0.00     0.022 A 
BRANCH  69  73
ATOM     73  S   UNL     1      -2.799  -9.122   9.242  1.00  0.00     0.124 S 
ATOM     74  O   UNL     1      -2.118  -7.909   8.795  1.00  0.00    -0.237 OA
ATOM     75  O   UNL     1      -4.144  -9.329   8.719  1.00  0.00    -0.237 OA
ATOM     76  O   UNL     1      -2.622  -9.440  10.657  1.00  0.00    -0.744 OA
ENDBRANCH  69  73
ENDBRANCH  52  66
BRANCH  53  77
ATOM     77  C   UNL     1       1.344  -9.910  -3.369  1.00  0.00     0.023 A 
ATOM     78  C   UNL     1       0.395 -10.080  -4.389  1.00  0.00     0.031 A 
ATOM     79  C   UNL     1       2.674  -9.650  -3.747  1.00  0.00     0.131 A 
ATOM     80  C   UNL     1       0.795 -10.031  -5.735  1.00  0.00     0.055 A 
ATOM     81  C   UNL     1       3.056  -9.543  -5.086  1.00  0.00     0.041 A 
ATOM     82  F   UNL     1       3.627  -9.489  -2.814  1.00  0.00    -0.206 F 
ATOM     83  C   UNL     1       2.115  -9.746  -6.090  1.00  0.00     0.022 A 
BRANCH  80  84
ATOM     84  S   UNL     1      -0.420 -10.438  -7.020  1.00  0.00     0.124 S 
ATOM     85  O   UNL     1      -0.795 -11.798  -6.653  1.00  0.00    -0.237 OA
ATOM     86  O   UNL     1      -1.437  -9.413  -6.812  1.00  0.00    -0.237 OA
ATOM     87  O   UNL     1       0.343 -10.313  -8.261  1.00  0.00    -0.744 OA
ENDBRANCH  80  84
ENDBRANCH  53  77
BRANCH  65  88
ATOM     88  C   UNL     1      -1.121 -15.279   0.370  1.00  0.00     0.023 A 
ATOM     89  C   UNL     1      -0.230 -16.246  -0.127  1.00  0.00     0.031 A 
ATOM     90  C   UNL     1      -2.473 -15.644   0.518  1.00  0.00     0.131 A 
ATOM     91  C   UNL     1      -0.710 -17.510  -0.507  1.00  0.00     0.055 A 
ATOM     92  C   UNL     1      -2.931 -16.924   0.202  1.00  0.00     0.041 A 
ATOM     93  F   UNL     1      -3.372 -14.762   0.983  1.00  0.00    -0.206 F 
ATOM     94  C   UNL     1      -2.050 -17.862  -0.326  1.00  0.00     0.022 A 
BRANCH  91  95
ATOM     95  S   UNL     1       0.421 -18.663  -1.335  1.00  0.00     0.124 S 
ATOM     96  O   UNL     1       0.852 -17.886  -2.492  1.00  0.00    -0.237 OA
ATOM     97  O   UNL     1       1.434 -18.897  -0.310  1.00  0.00    -0.237 OA
ATOM     98  O   UNL     1      -0.426 -19.814  -1.642  1.00  0.00    -0.744 OA
ENDBRANCH  91  95
ENDBRANCH  65  88
ENDBRANCH  39  40
ENDBRANCH  32  34
ENDBRANCH  31  32
ENDBRANCH  30  31
ENDBRANCH  29  30
ENDBRANCH  28  29
ENDBRANCH  27  28
ENDBRANCH   1  27
TORSDOF 23
