REMARK SMILES C[C@H](NC(=O)N(CC(=O)OCCOCCOCCOC(=O)c1ccc(-c2c3nc(c(-c4cc(S(=O)(=O)[O-])ccc4F)c4ccc([nH]4)c(-c4cc(S(=O)(=O)[O-])ccc4F)c4nc(c(-c5cc(S(=O)(=O)[O-])ccc5F)c5ccc2[nH]5)C=C4)C=C3)cc1)C(C)(C)C)c1ccccc1
REMARK SMILES IDX 14 1 13 2 12 3 11 4 10 5 8 6 9 7 7 8 6 9 4 10 3 11 5 13 2 14
REMARK SMILES IDX 1 15 89 16 90 17 94 18 91 19 93 20 92 21 85 22 86 23 87 24
REMARK SMILES IDX 88 25 15 26 16 27 17 28 18 29 19 30 20 31 21 32 22 33 23 34
REMARK SMILES IDX 84 35 24 36 83 37 25 38 26 39 27 40 77 41 28 42 82 43 76 44
REMARK SMILES IDX 78 45 29 46 81 47 75 48 74 49 30 51 62 52 42 53 61 54 43 55
REMARK SMILES IDX 46 56 60 57 79 58 44 59 45 60 59 62 80 63 47 64 31 65 32 66
REMARK SMILES IDX 40 67 33 68 39 69 41 70 38 71 34 72 35 73 36 74 37 75 63 76
REMARK SMILES IDX 64 77 72 78 65 79 71 80 73 81 70 82 66 83 67 84 68 85 69 86
REMARK SMILES IDX 48 87 49 88 57 89 50 90 56 91 58 92 55 93 51 94 52 95 53 96
REMARK SMILES IDX 54 97
REMARK H PARENT 3 12 78 50 46 61
REMARK Flexibility Score: inf
ROOT
ATOM      1  C   UNL     1       4.673   5.260   0.127  1.00  0.00     0.188 C 
ENDROOT
BRANCH   1   2
ATOM      2  O   UNL     1       5.247   5.039   1.414  1.00  0.00    -0.376 OA
BRANCH   2   3
ATOM      3  C   UNL     1       5.300   3.700   1.895  1.00  0.00     0.202 C 
BRANCH   3   4
ATOM      4  C   UNL     1       3.959   3.093   2.313  1.00  0.00     0.261 C 
BRANCH   4   5
ATOM      5  O   UNL     1       3.129   2.696   1.198  1.00  0.00    -0.462 OA
BRANCH   5   6
ATOM      6  C   UNL     1       1.948   3.356   1.066  1.00  0.00     0.325 C 
ATOM      7  O   UNL     1       1.630   4.333   1.738  1.00  0.00    -0.250 OA
BRANCH   6   8
ATOM      8  C   UNL     1       0.956   2.694   0.104  1.00  0.00     0.244 C 
BRANCH   8   9
ATOM      9  N   UNL     1       1.393   1.644  -0.820  1.00  0.00    -0.309 N 
BRANCH   9  10
ATOM     10  C   UNL     1       1.476   0.325  -0.474  1.00  0.00     0.318 C 
ATOM     11  N   UNL     1       1.024  -0.223   0.658  1.00  0.00    -0.331 N 
ATOM     12  H   UNL     1       1.326  -1.160   0.673  1.00  0.00     0.165 HD
ATOM     13  O   UNL     1       1.982  -0.519  -1.225  1.00  0.00    -0.249 OA
BRANCH  11  14
ATOM     14  C   UNL     1       0.257   0.011   1.890  1.00  0.00     0.111 C 
ATOM     15  C   UNL     1       0.939   0.889   2.935  1.00  0.00     0.036 C 
BRANCH  14  16
ATOM     16  C   UNL     1      -1.238   0.190   1.675  1.00  0.00    -0.026 A 
ATOM     17  C   UNL     1      -1.909   1.407   1.872  1.00  0.00     0.006 A 
ATOM     18  C   UNL     1      -2.008  -0.926   1.298  1.00  0.00     0.006 A 
ATOM     19  C   UNL     1      -3.289   1.512   1.674  1.00  0.00     0.000 A 
ATOM     20  C   UNL     1      -3.392  -0.830   1.135  1.00  0.00     0.000 A 
ATOM     21  C   UNL     1      -4.031   0.392   1.315  1.00  0.00     0.000 A 
ENDBRANCH  14  16
ENDBRANCH  11  14
ENDBRANCH   9  10
BRANCH   9  22
ATOM     22  C   UNL     1       1.675   2.028  -2.266  1.00  0.00     0.037 C 
ATOM     23  C   UNL     1       3.079   1.570  -2.735  1.00  0.00     0.034 C 
ATOM     24  C   UNL     1       0.607   1.401  -3.191  1.00  0.00     0.034 C 
ATOM     25  C   UNL     1       1.606   3.549  -2.519  1.00  0.00     0.034 C 
ENDBRANCH   9  22
ENDBRANCH   8   9
ENDBRANCH   6   8
ENDBRANCH   5   6
ENDBRANCH   4   5
ENDBRANCH   3   4
ENDBRANCH   2   3
ENDBRANCH   1   2
BRANCH   1  26
ATOM     26  C   UNL     1       4.976   4.204  -0.944  1.00  0.00     0.188 C 
BRANCH  26  27
ATOM     27  O   UNL     1       6.347   3.846  -1.095  1.00  0.00    -0.376 OA
BRANCH  27  28
ATOM     28  C   UNL     1       7.236   4.906  -1.443  1.00  0.00     0.202 C 
BRANCH  28  29
ATOM     29  C   UNL     1       6.929   5.532  -2.802  1.00  0.00     0.261 C 
BRANCH  29  30
ATOM     30  O   UNL     1       5.848   6.478  -2.670  1.00  0.00    -0.460 OA
BRANCH  30  31
ATOM     31  C   UNL     1       5.057   6.580  -3.763  1.00  0.00     0.338 C 
ATOM     32  O   UNL     1       5.189   5.999  -4.824  1.00  0.00    -0.246 OA
BRANCH  31  33
ATOM     33  C   UNL     1       3.924   7.474  -3.475  1.00  0.00     0.060 A 
ATOM     34  C   UNL     1       2.779   6.944  -2.879  1.00  0.00     0.016 A 
ATOM     35  C   UNL     1       3.924   8.778  -3.958  1.00  0.00     0.016 A 
ATOM     36  C   UNL     1       1.596   7.681  -2.840  1.00  0.00     0.010 A 
ATOM     37  C   UNL     1       2.752   9.537  -3.873  1.00  0.00     0.010 A 
ATOM     38  C   UNL     1       1.563   8.980  -3.359  1.00  0.00    -0.014 A 
BRANCH  38  39
ATOM     39  C   UNL     1       0.276   9.716  -3.518  1.00  0.00     0.031 A 
ATOM     40  C   UNL     1      -0.191  10.060  -4.908  1.00  0.00     0.074 A 
ATOM     41  C   UNL     1      -0.484  10.063  -2.462  1.00  0.00     0.049 A 
ATOM     42  N   UNL     1      -1.083  10.932  -5.298  1.00  0.00    -0.248 NA
ATOM     43  C   UNL     1       0.455   9.326  -6.007  1.00  0.00     0.031 C 
ATOM     44  C   UNL     1      -0.226   9.697  -1.070  1.00  0.00     0.029 A 
ATOM     45  N   UNL     1      -1.632  10.816  -2.401  1.00  0.00    -0.354 N 
ATOM     46  C   UNL     1      -1.057  10.904  -6.689  1.00  0.00     0.074 A 
ATOM     47  C   UNL     1      -0.065   9.920  -7.070  1.00  0.00     0.031 C 
ATOM     48  C   UNL     1      -1.188  10.223  -0.294  1.00  0.00     0.029 A 
ATOM     49  C   UNL     1      -2.073  11.042  -1.117  1.00  0.00     0.049 A 
ATOM     50  H   UNL     1      -2.094  11.162  -3.199  1.00  0.00     0.167 HD
ATOM     51  C   UNL     1      -1.786  11.643  -7.563  1.00  0.00     0.034 A 
ATOM     52  C   UNL     1      -3.034  11.866  -0.652  1.00  0.00     0.034 A 
ATOM     53  C   UNL     1      -2.799  12.587  -7.159  1.00  0.00     0.049 A 
ATOM     54  C   UNL     1      -3.788  12.734  -1.629  1.00  0.00     0.074 A 
ATOM     55  C   UNL     1      -3.576  13.418  -7.948  1.00  0.00     0.029 A 
ATOM     56  N   UNL     1      -3.188  12.813  -5.845  1.00  0.00    -0.354 N 
ATOM     57  N   UNL     1      -3.666  12.806  -2.935  1.00  0.00    -0.248 NA
ATOM     58  C   UNL     1      -4.791  13.648  -1.067  1.00  0.00     0.031 C 
ATOM     59  C   UNL     1      -4.401  14.177  -7.108  1.00  0.00     0.029 A 
ATOM     60  C   UNL     1      -4.183  13.777  -5.800  1.00  0.00     0.049 A 
ATOM     61  H   UNL     1      -2.812  12.355  -5.059  1.00  0.00     0.167 HD
ATOM     62  C   UNL     1      -4.583  13.769  -3.348  1.00  0.00     0.074 A 
ATOM     63  C   UNL     1      -5.264  14.233  -2.157  1.00  0.00     0.031 C 
ATOM     64  C   UNL     1      -4.839  14.233  -4.598  1.00  0.00     0.034 A 
BRANCH  51  65
ATOM     65  C   UNL     1      -1.443  11.515  -9.027  1.00  0.00     0.023 A 
ATOM     66  C   UNL     1      -1.648  10.324  -9.745  1.00  0.00     0.031 A 
ATOM     67  C   UNL     1      -0.844  12.595  -9.702  1.00  0.00     0.131 A 
ATOM     68  C   UNL     1      -1.188  10.218 -11.068  1.00  0.00     0.055 A 
ATOM     69  C   UNL     1      -0.461  12.508 -11.041  1.00  0.00     0.041 A 
ATOM     70  F   UNL     1      -0.602  13.750  -9.061  1.00  0.00    -0.206 F 
ATOM     71  C   UNL     1      -0.617  11.309 -11.727  1.00  0.00     0.022 A 
BRANCH  68  72
ATOM     72  S   UNL     1      -1.213   8.589 -11.867  1.00  0.00     0.124 S 
ATOM     73  O   UNL     1      -0.382   7.803 -10.958  1.00  0.00    -0.237 OA
ATOM     74  O   UNL     1      -2.634   8.265 -11.877  1.00  0.00    -0.237 OA
ATOM     75  O   UNL     1      -0.620   8.842 -13.179  1.00  0.00    -0.744 OA
ENDBRANCH  68  72
ENDBRANCH  51  65
BRANCH  52  76
ATOM     76  C   UNL     1      -3.272  11.995   0.815  1.00  0.00     0.023 A 
ATOM     77  C   UNL     1      -4.498  11.628   1.390  1.00  0.00     0.031 A 
ATOM     78  C   UNL     1      -2.283  12.534   1.659  1.00  0.00     0.131 A 
ATOM     79  C   UNL     1      -4.716  11.832   2.762  1.00  0.00     0.055 A 
ATOM     80  C   UNL     1      -2.486  12.687   3.031  1.00  0.00     0.041 A 
ATOM     81  F   UNL     1      -1.095  12.910   1.160  1.00  0.00    -0.206 F 
ATOM     82  C   UNL     1      -3.713  12.345   3.588  1.00  0.00     0.022 A 
BRANCH  79  83
ATOM     83  S   UNL     1      -6.361  11.487   3.444  1.00  0.00     0.124 S 
ATOM     84  O   UNL     1      -7.205  12.373   2.650  1.00  0.00    -0.237 OA
ATOM     85  O   UNL     1      -6.504  10.059   3.180  1.00  0.00    -0.237 OA
ATOM     86  O   UNL     1      -6.229  11.848   4.854  1.00  0.00    -0.744 OA
ENDBRANCH  79  83
ENDBRANCH  52  76
BRANCH  64  87
ATOM     87  C   UNL     1      -5.928  15.266  -4.729  1.00  0.00     0.023 A 
ATOM     88  C   UNL     1      -5.758  16.581  -4.263  1.00  0.00     0.031 A 
ATOM     89  C   UNL     1      -7.159  14.921  -5.315  1.00  0.00     0.131 A 
ATOM     90  C   UNL     1      -6.820  17.493  -4.348  1.00  0.00     0.055 A 
ATOM     91  C   UNL     1      -8.196  15.846  -5.438  1.00  0.00     0.041 A 
ATOM     92  F   UNL     1      -7.371  13.678  -5.775  1.00  0.00    -0.206 F 
ATOM     93  C   UNL     1      -8.034  17.137  -4.944  1.00  0.00     0.022 A 
BRANCH  90  94
ATOM     94  S   UNL     1      -6.622  19.135  -3.603  1.00  0.00     0.124 S 
ATOM     95  O   UNL     1      -6.373  18.806  -2.203  1.00  0.00    -0.237 OA
ATOM     96  O   UNL     1      -5.487  19.679  -4.342  1.00  0.00    -0.237 OA
ATOM     97  O   UNL     1      -7.902  19.789  -3.868  1.00  0.00    -0.744 OA
ENDBRANCH  90  94
ENDBRANCH  64  87
ENDBRANCH  38  39
ENDBRANCH  31  33
ENDBRANCH  30  31
ENDBRANCH  29  30
ENDBRANCH  28  29
ENDBRANCH  27  28
ENDBRANCH  26  27
ENDBRANCH   1  26
TORSDOF 25
