REMARK SMILES O=C(OCCOCCOCCOC(=O)[C@@H]1[C@H](C(=O)Nc2ccc(Cn3cncn3)cc2)[C@@H]2C=C[C@H]1CC2)c1ccc(-c2c3nc(c(-c4cc(S(=O)(=O)[O-])ccc4F)c4ccc([nH]4)c(-c4cc(S(=O)(=O)[O-])ccc4F)c4nc(c(-c5cc(S(=O)(=O)[O-])ccc5F)c5ccc2[nH]5)C=C4)C=C3)cc1
REMARK SMILES IDX 8 1 7 2 6 3 5 4 4 5 3 6 2 7 1 8 38 9 39 10 100 11 40 12
REMARK SMILES IDX 99 13 41 14 42 15 43 16 93 17 44 18 98 19 92 20 94 21 45 22
REMARK SMILES IDX 97 23 91 24 90 25 46 27 78 28 58 29 77 30 59 31 62 32 76 33
REMARK SMILES IDX 95 34 60 35 61 36 75 38 96 39 63 40 47 41 48 42 56 43 49 44
REMARK SMILES IDX 55 45 57 46 54 47 50 48 51 49 52 50 53 51 79 52 80 53 88 54
REMARK SMILES IDX 81 55 87 56 89 57 86 58 82 59 83 60 84 61 85 62 64 63 65 64
REMARK SMILES IDX 73 65 66 66 72 67 74 68 71 69 67 70 68 71 69 72 70 73 9 74
REMARK SMILES IDX 10 75 11 76 12 77 13 78 14 79 15 80 16 81 35 82 32 83 34 84
REMARK SMILES IDX 36 85 33 86 37 87 17 88 18 89 19 90 20 92 21 93 31 94 22 95
REMARK SMILES IDX 30 96 23 97 24 98 25 99 26 100 29 101 27 102 28 103
REMARK H PARENT 94 26 62 37 19 91
REMARK Flexibility Score: inf
ROOT
ATOM      1  C   UNL     1       1.958  -0.112  -2.232  1.00  0.00     0.188 C 
ENDROOT
BRANCH   1   2
ATOM      2  C   UNL     1       2.890   0.705  -1.316  1.00  0.00     0.188 C 
BRANCH   2   3
ATOM      3  O   UNL     1       4.272   0.448  -1.486  1.00  0.00    -0.376 OA
BRANCH   3   4
ATOM      4  C   UNL     1       4.963  -0.102  -0.377  1.00  0.00     0.202 C 
BRANCH   4   5
ATOM      5  C   UNL     1       4.567  -1.515   0.064  1.00  0.00     0.261 C 
BRANCH   5   6
ATOM      6  O   UNL     1       3.169  -1.847   0.027  1.00  0.00    -0.460 OA
BRANCH   6   7
ATOM      7  C   UNL     1       2.122  -1.553   0.817  1.00  0.00     0.338 C 
ATOM      8  O   UNL     1       1.031  -2.062   0.561  1.00  0.00    -0.246 OA
BRANCH   7   9
ATOM      9  C   UNL     1       2.162  -0.538   1.899  1.00  0.00     0.060 A 
ATOM     10  C   UNL     1       3.284  -0.216   2.660  1.00  0.00     0.016 A 
ATOM     11  C   UNL     1       0.918   0.051   2.213  1.00  0.00     0.016 A 
ATOM     12  C   UNL     1       3.139   0.561   3.800  1.00  0.00     0.010 A 
ATOM     13  C   UNL     1       0.767   0.817   3.355  1.00  0.00     0.010 A 
ATOM     14  C   UNL     1       1.869   0.993   4.183  1.00  0.00    -0.014 A 
BRANCH  14  15
ATOM     15  C   UNL     1       1.721   1.594   5.498  1.00  0.00     0.031 A 
ATOM     16  C   UNL     1       2.274   2.957   5.633  1.00  0.00     0.074 A 
ATOM     17  C   UNL     1       1.053   0.970   6.488  1.00  0.00     0.049 A 
ATOM     18  N   UNL     1       3.283   3.337   6.344  1.00  0.00    -0.248 NA
ATOM     19  C   UNL     1       1.737   4.002   4.750  1.00  0.00     0.031 C 
ATOM     20  C   UNL     1       0.263  -0.260   6.378  1.00  0.00     0.029 A 
ATOM     21  N   UNL     1       0.835   1.363   7.774  1.00  0.00    -0.354 N 
ATOM     22  C   UNL     1       3.332   4.720   6.210  1.00  0.00     0.074 A 
ATOM     23  C   UNL     1       2.529   5.028   5.059  1.00  0.00     0.031 C 
ATOM     24  C   UNL     1      -0.527  -0.378   7.466  1.00  0.00     0.029 A 
ATOM     25  C   UNL     1      -0.220   0.699   8.394  1.00  0.00     0.049 A 
ATOM     26  H   UNL     1       1.374   2.054   8.224  1.00  0.00     0.167 HD
ATOM     27  C   UNL     1       3.781   5.504   7.230  1.00  0.00     0.034 A 
ATOM     28  C   UNL     1      -0.860   1.057   9.538  1.00  0.00     0.034 A 
ATOM     29  C   UNL     1       4.588   4.733   8.161  1.00  0.00     0.049 A 
ATOM     30  C   UNL     1       0.066   1.928  10.305  1.00  0.00     0.074 A 
ATOM     31  C   UNL     1       5.700   3.919   8.027  1.00  0.00     0.029 A 
ATOM     32  N   UNL     1       4.076   4.437   9.408  1.00  0.00    -0.354 N 
ATOM     33  N   UNL     1       1.185   1.503  10.825  1.00  0.00    -0.248 NA
ATOM     34  C   UNL     1      -0.007   3.368  10.100  1.00  0.00     0.031 C 
ATOM     35  C   UNL     1       5.492   2.849   8.948  1.00  0.00     0.029 A 
ATOM     36  C   UNL     1       4.314   3.108   9.649  1.00  0.00     0.049 A 
ATOM     37  H   UNL     1       3.622   5.066  10.014  1.00  0.00     0.167 HD
ATOM     38  C   UNL     1       2.097   2.522  10.596  1.00  0.00     0.074 A 
ATOM     39  C   UNL     1       1.282   3.686  10.256  1.00  0.00     0.031 C 
ATOM     40  C   UNL     1       3.426   2.255  10.416  1.00  0.00     0.034 A 
BRANCH  27  41
ATOM     41  C   UNL     1       3.129   6.823   7.625  1.00  0.00     0.023 A 
ATOM     42  C   UNL     1       3.595   7.410   8.813  1.00  0.00     0.031 A 
ATOM     43  C   UNL     1       1.902   7.334   7.140  1.00  0.00     0.131 A 
ATOM     44  C   UNL     1       2.767   8.251   9.573  1.00  0.00     0.055 A 
ATOM     45  C   UNL     1       1.117   8.239   7.862  1.00  0.00     0.041 A 
ATOM     46  F   UNL     1       1.352   6.954   5.983  1.00  0.00    -0.206 F 
ATOM     47  C   UNL     1       1.521   8.659   9.115  1.00  0.00     0.022 A 
BRANCH  44  48
ATOM     48  S   UNL     1       3.259   8.574  11.283  1.00  0.00     0.124 S 
ATOM     49  O   UNL     1       3.429   7.213  11.781  1.00  0.00    -0.237 OA
ATOM     50  O   UNL     1       4.480   9.351  11.098  1.00  0.00    -0.237 OA
ATOM     51  O   UNL     1       2.123   9.310  11.828  1.00  0.00    -0.744 OA
ENDBRANCH  44  48
ENDBRANCH  27  41
BRANCH  28  52
ATOM     52  C   UNL     1      -2.316   0.916   9.825  1.00  0.00     0.023 A 
ATOM     53  C   UNL     1      -2.854   0.999  11.126  1.00  0.00     0.031 A 
ATOM     54  C   UNL     1      -3.248   0.908   8.759  1.00  0.00     0.131 A 
ATOM     55  C   UNL     1      -4.256   1.056  11.316  1.00  0.00     0.055 A 
ATOM     56  C   UNL     1      -4.630   0.944   8.953  1.00  0.00     0.041 A 
ATOM     57  F   UNL     1      -2.848   0.953   7.479  1.00  0.00    -0.206 F 
ATOM     58  C   UNL     1      -5.141   1.026  10.235  1.00  0.00     0.022 A 
BRANCH  55  59
ATOM     59  S   UNL     1      -4.959   1.279  12.983  1.00  0.00     0.124 S 
ATOM     60  O   UNL     1      -4.706  -0.013  13.604  1.00  0.00    -0.237 OA
ATOM     61  O   UNL     1      -4.191   2.412  13.498  1.00  0.00    -0.237 OA
ATOM     62  O   UNL     1      -6.368   1.572  12.722  1.00  0.00    -0.744 OA
ENDBRANCH  55  59
ENDBRANCH  28  52
BRANCH  40  63
ATOM     63  C   UNL     1       3.959   0.900  10.829  1.00  0.00     0.023 A 
ATOM     64  C   UNL     1       3.464  -0.338  10.364  1.00  0.00     0.031 A 
ATOM     65  C   UNL     1       5.098   0.876  11.655  1.00  0.00     0.131 A 
ATOM     66  C   UNL     1       4.094  -1.538  10.747  1.00  0.00     0.055 A 
ATOM     67  C   UNL     1       5.730  -0.312  12.018  1.00  0.00     0.041 A 
ATOM     68  F   UNL     1       5.641   2.021  12.102  1.00  0.00    -0.206 F 
ATOM     69  C   UNL     1       5.224  -1.526  11.571  1.00  0.00     0.022 A 
BRANCH  66  70
ATOM     70  S   UNL     1       3.445  -3.146  10.191  1.00  0.00     0.124 S 
ATOM     71  O   UNL     1       2.005  -3.023  10.384  1.00  0.00    -0.237 OA
ATOM     72  O   UNL     1       3.903  -3.204   8.805  1.00  0.00    -0.237 OA
ATOM     73  O   UNL     1       4.100  -4.103  11.086  1.00  0.00    -0.744 OA
ENDBRANCH  66  70
ENDBRANCH  40  63
ENDBRANCH  14  15
ENDBRANCH   7   9
ENDBRANCH   6   7
ENDBRANCH   5   6
ENDBRANCH   4   5
ENDBRANCH   3   4
ENDBRANCH   2   3
ENDBRANCH   1   2
BRANCH   1  74
ATOM     74  O   UNL     1       2.540  -1.060  -3.118  1.00  0.00    -0.376 OA
BRANCH  74  75
ATOM     75  C   UNL     1       3.615  -0.637  -3.949  1.00  0.00     0.202 C 
BRANCH  75  76
ATOM     76  C   UNL     1       3.407   0.651  -4.752  1.00  0.00     0.261 C 
BRANCH  76  77
ATOM     77  O   UNL     1       3.320   1.841  -3.934  1.00  0.00    -0.463 OA
BRANCH  77  78
ATOM     78  C   UNL     1       2.276   2.669  -4.114  1.00  0.00     0.310 C 
ATOM     79  O   UNL     1       1.326   2.400  -4.847  1.00  0.00    -0.252 OA
BRANCH  78  80
ATOM     80  C   UNL     1       2.382   4.054  -3.462  1.00  0.00     0.119 C 
ATOM     81  C   UNL     1       2.928   5.074  -4.468  1.00  0.00     0.100 C 
ATOM     82  C   UNL     1       2.798   4.498  -2.008  1.00  0.00     0.026 C 
ATOM     83  C   UNL     1       3.275   6.397  -3.737  1.00  0.00     0.025 C 
ATOM     84  C   UNL     1       4.161   5.175  -1.899  1.00  0.00    -0.027 C 
ATOM     85  C   UNL     1       1.887   5.719  -1.677  1.00  0.00     0.009 C 
ATOM     86  C   UNL     1       4.414   6.142  -2.796  1.00  0.00    -0.027 C 
ATOM     87  C   UNL     1       2.077   6.790  -2.802  1.00  0.00     0.009 C 
BRANCH  81  88
ATOM     88  C   UNL     1       3.934   4.576  -5.522  1.00  0.00     0.228 C 
ATOM     89  O   UNL     1       3.569   4.632  -6.711  1.00  0.00    -0.274 OA
ATOM     90  N   UNL     1       5.223   4.175  -5.369  1.00  0.00    -0.326 N 
ATOM     91  H   UNL     1       5.663   4.067  -6.243  1.00  0.00     0.169 HD
BRANCH  90  92
ATOM     92  C   UNL     1       6.110   3.869  -4.323  1.00  0.00     0.041 A 
ATOM     93  C   UNL     1       7.448   4.230  -4.500  1.00  0.00     0.026 A 
ATOM     94  C   UNL     1       5.790   3.213  -3.146  1.00  0.00     0.026 A 
ATOM     95  C   UNL     1       8.367   4.131  -3.443  1.00  0.00     0.008 A 
ATOM     96  C   UNL     1       6.702   3.068  -2.099  1.00  0.00     0.008 A 
ATOM     97  C   UNL     1       7.976   3.605  -2.207  1.00  0.00    -0.026 A 
BRANCH  97  98
ATOM     98  C   UNL     1       8.866   3.623  -0.994  1.00  0.00     0.181 C 
BRANCH  98  99
ATOM     99  N   UNL     1       9.641   2.408  -0.885  1.00  0.00    -0.249 N 
ATOM    100  C   UNL     1      10.735   2.063  -1.615  1.00  0.00     0.220 A 
ATOM    101  N   UNL     1       9.372   1.481   0.054  1.00  0.00    -0.160 NA
ATOM    102  N   UNL     1      11.208   0.918  -1.183  1.00  0.00    -0.224 NA
ATOM    103  C   UNL     1      10.351   0.600  -0.165  1.00  0.00     0.246 A 
ENDBRANCH  98  99
ENDBRANCH  97  98
ENDBRANCH  90  92
ENDBRANCH  81  88
ENDBRANCH  78  80
ENDBRANCH  77  78
ENDBRANCH  76  77
ENDBRANCH  75  76
ENDBRANCH  74  75
ENDBRANCH   1  74
TORSDOF 24
