REMARK SMILES O=C1NC(=O)/C(=C/c2ccc(OCc3cn(-c4ccc(C(=O)OCCOCCOCCOC(=O)c5ccc(-c6c7nc(c(-c8cc(S(=O)(=O)[O-])ccc8F)c8ccc([nH]8)c(-c8cc(S(=O)(=O)[O-])ccc8F)c8nc(c(-c9cc(S(=O)(=O)[O-])ccc9F)c9ccc6[nH]9)C=C8)C=C7)cc5)cc4)nn3)cc2)S1
REMARK SMILES IDX 27 1 26 2 25 3 24 4 23 5 21 6 22 7 20 8 17 9 18 10 99 11
REMARK SMILES IDX 19 12 98 13 16 14 14 15 15 16 101 17 100 18 13 19 12 20
REMARK SMILES IDX 11 21 8 22 9 23 103 24 10 25 102 26 7 27 1 28 2 29 3 30
REMARK SMILES IDX 104 31 4 32 6 34 5 35 28 36 29 37 30 38 31 39 32 40 33 41
REMARK SMILES IDX 34 42 35 43 36 44 97 45 37 46 96 47 38 48 39 49 40 50 90 51
REMARK SMILES IDX 41 52 95 53 89 54 91 55 42 56 94 57 88 58 87 59 43 61 75 62
REMARK SMILES IDX 55 63 74 64 56 65 59 66 73 67 92 68 57 69 58 70 72 72 93 73
REMARK SMILES IDX 60 74 44 75 45 76 53 77 46 78 52 79 54 80 51 81 47 82 48 83
REMARK SMILES IDX 49 84 50 85 76 86 77 87 85 88 78 89 84 90 86 91 83 92 79 93
REMARK SMILES IDX 80 94 81 95 82 96 61 97 62 98 70 99 63 100 69 101 71 102
REMARK SMILES IDX 68 103 64 104 65 105 66 106 67 107
REMARK H PARENT 3 33 91 60 59 71
REMARK Flexibility Score: inf
ROOT
ATOM      1  C   UNL     1      -9.337   7.278   0.738  1.00  0.00     0.188 C 
ENDROOT
BRANCH   1   2
ATOM      2  O   UNL     1     -10.593   7.923   0.714  1.00  0.00    -0.376 OA
BRANCH   2   3
ATOM      3  C   UNL     1     -10.731   9.274   0.312  1.00  0.00     0.202 C 
BRANCH   3   4
ATOM      4  C   UNL     1      -9.630  10.351   0.399  1.00  0.00     0.261 C 
BRANCH   4   5
ATOM      5  O   UNL     1      -8.275   9.921   0.261  1.00  0.00    -0.460 OA
BRANCH   5   6
ATOM      6  C   UNL     1      -7.546   9.923   1.399  1.00  0.00     0.338 C 
ATOM      7  O   UNL     1      -7.902  10.301   2.503  1.00  0.00    -0.246 OA
BRANCH   6   8
ATOM      8  C   UNL     1      -6.264   9.231   1.168  1.00  0.00     0.060 A 
ATOM      9  C   UNL     1      -3.783   7.994   0.946  1.00  0.00     0.066 A 
ATOM     10  C   UNL     1      -4.690   7.561   1.924  1.00  0.00     0.029 A 
ATOM     11  C   UNL     1      -4.156   8.975   0.016  1.00  0.00     0.029 A 
ATOM     12  C   UNL     1      -5.912   8.210   2.059  1.00  0.00     0.018 A 
ATOM     13  C   UNL     1      -5.416   9.575   0.110  1.00  0.00     0.018 A 
BRANCH   9  14
ATOM     14  N   UNL     1      -2.458   7.507   1.000  1.00  0.00    -0.220 N 
ATOM     15  C   UNL     1      -0.283   7.393   1.153  1.00  0.00     0.120 A 
ATOM     16  C   UNL     1      -1.303   8.162   0.629  1.00  0.00     0.144 A 
ATOM     17  N   UNL     1      -0.832   6.293   1.754  1.00  0.00    -0.131 NA
ATOM     18  N   UNL     1      -2.146   6.372   1.661  1.00  0.00    -0.062 NA
BRANCH  15  19
ATOM     19  C   UNL     1       1.182   7.660   1.261  1.00  0.00     0.289 C 
BRANCH  19  20
ATOM     20  O   UNL     1       2.002   7.000   0.285  1.00  0.00    -0.487 OA
BRANCH  20  21
ATOM     21  C   UNL     1       2.116   5.638   0.356  1.00  0.00     0.119 A 
ATOM     22  C   UNL     1       2.188   2.837   0.138  1.00  0.00    -0.024 A 
ATOM     23  C   UNL     1       2.685   3.635  -0.895  1.00  0.00     0.012 A 
ATOM     24  C   UNL     1       1.743   3.448   1.313  1.00  0.00     0.012 A 
ATOM     25  C   UNL     1       2.644   5.029  -0.785  1.00  0.00     0.047 A 
ATOM     26  C   UNL     1       1.729   4.839   1.429  1.00  0.00     0.047 A 
BRANCH  22  27
ATOM     27  C   UNL     1       2.133   1.380   0.001  1.00  0.00     0.029 C 
ATOM     28  O   UNL     1      -2.448  -0.711   0.061  1.00  0.00    -0.261 OA
ATOM     29  C   UNL     1      -1.260  -0.432   0.005  1.00  0.00     0.290 C 
ATOM     30  N   UNL     1      -0.239  -1.321  -0.059  1.00  0.00    -0.282 N 
ATOM     31  S   UNL     1      -0.627   1.199   0.014  1.00  0.00    -0.022 SA
ATOM     32  C   UNL     1       1.035  -0.836  -0.084  1.00  0.00     0.265 C 
ATOM     33  H   UNL     1      -0.412  -2.290  -0.086  1.00  0.00     0.174 HD
ATOM     34  C   UNL     1       1.008   0.650  -0.029  1.00  0.00     0.083 C 
ATOM     35  O   UNL     1       2.046  -1.519  -0.123  1.00  0.00    -0.268 OA
ENDBRANCH  22  27
ENDBRANCH  20  21
ENDBRANCH  19  20
ENDBRANCH  15  19
ENDBRANCH   9  14
ENDBRANCH   6   8
ENDBRANCH   5   6
ENDBRANCH   4   5
ENDBRANCH   3   4
ENDBRANCH   2   3
ENDBRANCH   1   2
BRANCH   1  36
ATOM     36  C   UNL     1      -8.522   7.117  -0.559  1.00  0.00     0.188 C 
BRANCH  36  37
ATOM     37  O   UNL     1      -8.813   7.992  -1.624  1.00  0.00    -0.376 OA
BRANCH  37  38
ATOM     38  C   UNL     1      -9.867   7.747  -2.537  1.00  0.00     0.202 C 
BRANCH  38  39
ATOM     39  C   UNL     1     -10.887   6.610  -2.470  1.00  0.00     0.261 C 
BRANCH  39  40
ATOM     40  O   UNL     1     -10.844   5.736  -1.361  1.00  0.00    -0.460 OA
BRANCH  40  41
ATOM     41  C   UNL     1     -10.111   4.626  -1.595  1.00  0.00     0.338 C 
ATOM     42  O   UNL     1      -9.213   4.505  -2.412  1.00  0.00    -0.246 OA
BRANCH  41  43
ATOM     43  C   UNL     1     -10.646   3.523  -0.800  1.00  0.00     0.060 A 
ATOM     44  C   UNL     1      -9.822   2.416  -0.600  1.00  0.00     0.016 A 
ATOM     45  C   UNL     1     -12.024   3.489  -0.542  1.00  0.00     0.016 A 
ATOM     46  C   UNL     1     -10.418   1.208  -0.309  1.00  0.00     0.010 A 
ATOM     47  C   UNL     1     -12.616   2.277  -0.277  1.00  0.00     0.010 A 
ATOM     48  C   UNL     1     -11.816   1.137  -0.239  1.00  0.00    -0.014 A 
BRANCH  48  49
ATOM     49  C   UNL     1     -12.424  -0.145   0.060  1.00  0.00     0.031 A 
ATOM     50  C   UNL     1     -12.194  -0.535   1.466  1.00  0.00     0.074 A 
ATOM     51  C   UNL     1     -13.190  -0.832  -0.811  1.00  0.00     0.049 A 
ATOM     52  N   UNL     1     -11.407  -1.462   1.895  1.00  0.00    -0.248 NA
ATOM     53  C   UNL     1     -12.704   0.353   2.527  1.00  0.00     0.031 C 
ATOM     54  C   UNL     1     -13.640  -0.402  -2.136  1.00  0.00     0.029 A 
ATOM     55  N   UNL     1     -13.814  -2.036  -0.658  1.00  0.00    -0.354 N 
ATOM     56  C   UNL     1     -11.575  -1.466   3.272  1.00  0.00     0.074 A 
ATOM     57  C   UNL     1     -12.140  -0.190   3.607  1.00  0.00     0.031 C 
ATOM     58  C   UNL     1     -14.634  -1.217  -2.558  1.00  0.00     0.029 A 
ATOM     59  C   UNL     1     -14.821  -2.289  -1.592  1.00  0.00     0.049 A 
ATOM     60  H   UNL     1     -13.574  -2.673   0.052  1.00  0.00     0.167 HD
ATOM     61  C   UNL     1     -11.569  -2.644   3.951  1.00  0.00     0.034 A 
ATOM     62  C   UNL     1     -15.773  -3.266  -1.540  1.00  0.00     0.034 A 
ATOM     63  C   UNL     1     -10.905  -3.678   3.180  1.00  0.00     0.049 A 
ATOM     64  C   UNL     1     -15.254  -4.326  -0.639  1.00  0.00     0.074 A 
ATOM     65  C   UNL     1      -9.666  -3.779   2.572  1.00  0.00     0.029 A 
ATOM     66  N   UNL     1     -11.680  -4.657   2.597  1.00  0.00    -0.354 N 
ATOM     67  N   UNL     1     -14.220  -5.066  -0.930  1.00  0.00    -0.248 NA
ATOM     68  C   UNL     1     -15.558  -4.226   0.780  1.00  0.00     0.031 C 
ATOM     69  C   UNL     1      -9.911  -4.452   1.339  1.00  0.00     0.029 A 
ATOM     70  C   UNL     1     -11.256  -4.822   1.300  1.00  0.00     0.049 A 
ATOM     71  H   UNL     1     -12.411  -5.152   3.033  1.00  0.00     0.167 HD
ATOM     72  C   UNL     1     -13.485  -5.125   0.243  1.00  0.00     0.074 A 
ATOM     73  C   UNL     1     -14.407  -4.678   1.287  1.00  0.00     0.031 C 
ATOM     74  C   UNL     1     -12.123  -5.246   0.214  1.00  0.00     0.034 A 
BRANCH  61  75
ATOM     75  C   UNL     1     -12.541  -2.958   5.072  1.00  0.00     0.023 A 
ATOM     76  C   UNL     1     -12.441  -4.232   5.655  1.00  0.00     0.031 A 
ATOM     77  C   UNL     1     -13.719  -2.234   5.384  1.00  0.00     0.131 A 
ATOM     78  C   UNL     1     -13.512  -4.778   6.381  1.00  0.00     0.055 A 
ATOM     79  C   UNL     1     -14.751  -2.756   6.167  1.00  0.00     0.041 A 
ATOM     80  F   UNL     1     -13.994  -1.023   4.889  1.00  0.00    -0.206 F 
ATOM     81  C   UNL     1     -14.668  -4.051   6.640  1.00  0.00     0.022 A 
BRANCH  78  82
ATOM     82  S   UNL     1     -13.435  -6.531   6.816  1.00  0.00     0.124 S 
ATOM     83  O   UNL     1     -13.256  -7.143   5.504  1.00  0.00    -0.237 OA
ATOM     84  O   UNL     1     -12.281  -6.567   7.707  1.00  0.00    -0.237 OA
ATOM     85  O   UNL     1     -14.725  -6.777   7.455  1.00  0.00    -0.744 OA
ENDBRANCH  78  82
ENDBRANCH  61  75
BRANCH  62  86
ATOM     86  C   UNL     1     -17.211  -3.183  -1.949  1.00  0.00     0.023 A 
ATOM     87  C   UNL     1     -18.049  -4.319  -2.080  1.00  0.00     0.031 A 
ATOM     88  C   UNL     1     -17.860  -1.927  -1.964  1.00  0.00     0.131 A 
ATOM     89  C   UNL     1     -19.454  -4.167  -2.209  1.00  0.00     0.055 A 
ATOM     90  C   UNL     1     -19.243  -1.784  -2.092  1.00  0.00     0.041 A 
ATOM     91  F   UNL     1     -17.181  -0.788  -1.762  1.00  0.00    -0.206 F 
ATOM     92  C   UNL     1     -20.049  -2.904  -2.203  1.00  0.00     0.022 A 
BRANCH  89  93
ATOM     93  S   UNL     1     -20.562  -5.618  -2.292  1.00  0.00     0.124 S 
ATOM     94  O   UNL     1     -20.267  -6.162  -3.612  1.00  0.00    -0.237 OA
ATOM     95  O   UNL     1     -20.130  -6.413  -1.148  1.00  0.00    -0.237 OA
ATOM     96  O   UNL     1     -21.899  -5.036  -2.156  1.00  0.00    -0.744 OA
ENDBRANCH  89  93
ENDBRANCH  62  86
BRANCH  74  97
ATOM     97  C   UNL     1     -11.461  -5.678  -1.084  1.00  0.00     0.023 A 
ATOM     98  C   UNL     1     -11.648  -5.069  -2.348  1.00  0.00     0.031 A 
ATOM     99  C   UNL     1     -10.535  -6.735  -1.008  1.00  0.00     0.131 A 
ATOM    100  C   UNL     1     -10.944  -5.545  -3.474  1.00  0.00     0.055 A 
ATOM    101  C   UNL     1      -9.820  -7.183  -2.117  1.00  0.00     0.041 A 
ATOM    102  F   UNL     1     -10.293  -7.347   0.163  1.00  0.00    -0.206 F 
ATOM    103  C   UNL     1     -10.030  -6.597  -3.358  1.00  0.00     0.022 A 
BRANCH 100 104
ATOM    104  S   UNL     1     -11.238  -4.845  -5.132  1.00  0.00     0.124 S 
ATOM    105  O   UNL     1     -12.687  -4.699  -5.194  1.00  0.00    -0.237 OA
ATOM    106  O   UNL     1     -10.472  -3.602  -5.089  1.00  0.00    -0.237 OA
ATOM    107  O   UNL     1     -10.690  -5.863  -6.031  1.00  0.00    -0.744 OA
ENDBRANCH 100 104
ENDBRANCH  74  97
ENDBRANCH  48  49
ENDBRANCH  41  43
ENDBRANCH  40  41
ENDBRANCH  39  40
ENDBRANCH  38  39
ENDBRANCH  37  38
ENDBRANCH  36  37
ENDBRANCH   1  36
TORSDOF 25
