REMARK SMILES C[C@@H]1CC[N@@H+]1CC1(CC(=O)OCCOCCOCCOC(=O)c2ccc(-c3c4nc(c(-c5cc(S(=O)(=O)[O-])ccc5F)c5ccc([nH]5)c(-c5cc(S(=O)(=O)[O-])ccc5F)c5nc(c(-c6cc(S(=O)(=O)[O-])ccc6F)c6ccc3[nH]6)C=C5)C=C4)cc2)CCCCC1
REMARK SMILES IDX 15 1 14 2 13 3 12 4 11 5 9 6 10 7 8 8 7 9 86 10 90 11 87 12
REMARK SMILES IDX 89 13 88 14 6 15 5 16 1 17 2 18 3 19 4 20 16 22 17 23 18 24
REMARK SMILES IDX 19 25 20 26 21 27 22 28 23 29 24 30 85 31 25 32 84 33 26 34
REMARK SMILES IDX 27 35 28 36 78 37 29 38 83 39 77 40 79 41 30 42 82 43 76 44
REMARK SMILES IDX 75 45 31 47 63 48 43 49 62 50 44 51 47 52 61 53 80 54 45 55
REMARK SMILES IDX 46 56 60 58 81 59 48 60 32 61 33 62 41 63 34 64 40 65 42 66
REMARK SMILES IDX 39 67 35 68 36 69 37 70 38 71 64 72 65 73 73 74 66 75 72 76
REMARK SMILES IDX 74 77 71 78 67 79 68 80 69 81 70 82 49 83 50 84 58 85 51 86
REMARK SMILES IDX 57 87 59 88 56 89 52 90 53 91 54 92 55 93
REMARK H PARENT 5 21 79 46 47 57
REMARK Flexibility Score: inf
ROOT
ATOM      1  C   UNL     1       3.889  -4.933   3.989  1.00  0.00     0.188 C 
ENDROOT
BRANCH   1   2
ATOM      2  O   UNL     1       3.498  -5.908   4.944  1.00  0.00    -0.376 OA
BRANCH   2   3
ATOM      3  C   UNL     1       2.121  -5.942   5.322  1.00  0.00     0.202 C 
BRANCH   3   4
ATOM      4  C   UNL     1       1.441  -4.598   5.646  1.00  0.00     0.261 C 
BRANCH   4   5
ATOM      5  O   UNL     1       1.321  -3.694   4.512  1.00  0.00    -0.463 OA
BRANCH   5   6
ATOM      6  C   UNL     1       1.570  -2.383   4.766  1.00  0.00     0.306 C 
ATOM      7  O   UNL     1       1.805  -1.948   5.890  1.00  0.00    -0.252 OA
BRANCH   6   8
ATOM      8  C   UNL     1       1.716  -1.485   3.531  1.00  0.00     0.135 C 
BRANCH   8   9
ATOM      9  C   UNL     1       0.688  -1.386   2.321  1.00  0.00     0.030 C 
ATOM     10  C   UNL     1       0.480   0.123   2.035  1.00  0.00     0.013 C 
ATOM     11  C   UNL     1      -0.664  -2.047   2.664  1.00  0.00     0.013 C 
ATOM     12  C   UNL     1      -0.370   0.875   3.050  1.00  0.00     0.001 C 
ATOM     13  C   UNL     1      -1.497  -1.268   3.682  1.00  0.00     0.001 C 
ATOM     14  C   UNL     1      -1.707   0.172   3.229  1.00  0.00     0.000 C 
BRANCH   9  15
ATOM     15  C   UNL     1       1.369  -2.022   1.031  1.00  0.00     0.269 C 
BRANCH  15  16
ATOM     16  N   UNL     1       0.946  -2.187  -0.363  1.00  0.00    -0.332 N 
ATOM     17  C   UNL     1       1.111   0.283  -1.160  1.00  0.00     0.075 C 
ATOM     18  C   UNL     1       0.518  -1.104  -1.271  1.00  0.00     0.186 C 
ATOM     19  C   UNL     1      -0.950  -1.469  -0.924  1.00  0.00     0.126 C 
ATOM     20  C   UNL     1      -0.351  -2.854  -0.571  1.00  0.00     0.268 C 
ATOM     21  H   UNL     1       1.859  -2.595  -0.564  1.00  0.00     0.348 HD
ENDBRANCH  15  16
ENDBRANCH   9  15
ENDBRANCH   8   9
ENDBRANCH   6   8
ENDBRANCH   5   6
ENDBRANCH   4   5
ENDBRANCH   3   4
ENDBRANCH   2   3
ENDBRANCH   1   2
BRANCH   1  22
ATOM     22  C   UNL     1       3.105  -4.875   2.674  1.00  0.00     0.188 C 
BRANCH  22  23
ATOM     23  O   UNL     1       1.968  -5.719   2.641  1.00  0.00    -0.376 OA
BRANCH  23  24
ATOM     24  C   UNL     1       1.488  -6.147   1.374  1.00  0.00     0.202 C 
BRANCH  24  25
ATOM     25  C   UNL     1       2.409  -7.188   0.720  1.00  0.00     0.261 C 
BRANCH  25  26
ATOM     26  O   UNL     1       3.695  -6.675   0.326  1.00  0.00    -0.460 OA
BRANCH  26  27
ATOM     27  C   UNL     1       3.684  -5.641  -0.553  1.00  0.00     0.338 C 
ATOM     28  O   UNL     1       2.723  -5.255  -1.197  1.00  0.00    -0.246 OA
BRANCH  27  29
ATOM     29  C   UNL     1       4.963  -4.902  -0.407  1.00  0.00     0.060 A 
ATOM     30  C   UNL     1       4.924  -3.512  -0.227  1.00  0.00     0.016 A 
ATOM     31  C   UNL     1       6.186  -5.576  -0.378  1.00  0.00     0.016 A 
ATOM     32  C   UNL     1       6.110  -2.788  -0.061  1.00  0.00     0.010 A 
ATOM     33  C   UNL     1       7.372  -4.849  -0.228  1.00  0.00     0.010 A 
ATOM     34  C   UNL     1       7.346  -3.448  -0.102  1.00  0.00    -0.014 A 
BRANCH  34  35
ATOM     35  C   UNL     1       8.613  -2.677  -0.226  1.00  0.00     0.031 A 
ATOM     36  C   UNL     1       9.242  -2.566  -1.591  1.00  0.00     0.074 A 
ATOM     37  C   UNL     1       9.200  -2.085   0.832  1.00  0.00     0.049 A 
ATOM     38  N   UNL     1      10.393  -2.055  -1.942  1.00  0.00    -0.248 NA
ATOM     39  C   UNL     1       8.463  -3.119  -2.710  1.00  0.00     0.031 C 
ATOM     40  C   UNL     1       8.668  -2.060   2.192  1.00  0.00     0.029 A 
ATOM     41  N   UNL     1      10.387  -1.397   0.925  1.00  0.00    -0.354 N 
ATOM     42  C   UNL     1      10.486  -2.240  -3.318  1.00  0.00     0.074 A 
ATOM     43  C   UNL     1       9.287  -2.939  -3.730  1.00  0.00     0.031 C 
ATOM     44  C   UNL     1       9.529  -1.398   2.986  1.00  0.00     0.029 A 
ATOM     45  C   UNL     1      10.699  -0.997   2.205  1.00  0.00     0.049 A 
ATOM     46  H   UNL     1      10.962  -1.208   0.148  1.00  0.00     0.167 HD
ATOM     47  C   UNL     1      11.476  -1.858  -4.162  1.00  0.00     0.034 A 
ATOM     48  C   UNL     1      11.812  -0.408   2.694  1.00  0.00     0.034 A 
ATOM     49  C   UNL     1      12.666  -1.163  -3.740  1.00  0.00     0.049 A 
ATOM     50  C   UNL     1      12.951  -0.084   1.749  1.00  0.00     0.074 A 
ATOM     51  C   UNL     1      13.722  -0.718  -4.517  1.00  0.00     0.029 A 
ATOM     52  N   UNL     1      12.969  -0.822  -2.428  1.00  0.00    -0.354 N 
ATOM     53  N   UNL     1      13.028  -0.268   0.450  1.00  0.00    -0.248 NA
ATOM     54  C   UNL     1      14.150   0.530   2.337  1.00  0.00     0.031 C 
ATOM     55  C   UNL     1      14.698  -0.186  -3.668  1.00  0.00     0.029 A 
ATOM     56  C   UNL     1      14.211  -0.208  -2.371  1.00  0.00     0.049 A 
ATOM     57  H   UNL     1      12.386  -0.991  -1.653  1.00  0.00     0.167 HD
ATOM     58  C   UNL     1      14.267   0.247   0.065  1.00  0.00     0.074 A 
ATOM     59  C   UNL     1      14.894   0.757   1.265  1.00  0.00     0.031 C 
ATOM     60  C   UNL     1      14.831   0.299  -1.169  1.00  0.00     0.034 A 
BRANCH  47  61
ATOM     61  C   UNL     1      11.339  -2.241  -5.616  1.00  0.00     0.023 A 
ATOM     62  C   UNL     1      10.306  -1.737  -6.426  1.00  0.00     0.031 A 
ATOM     63  C   UNL     1      12.253  -3.138  -6.197  1.00  0.00     0.131 A 
ATOM     64  C   UNL     1      10.177  -2.183  -7.751  1.00  0.00     0.055 A 
ATOM     65  C   UNL     1      12.167  -3.513  -7.538  1.00  0.00     0.041 A 
ATOM     66  F   UNL     1      13.243  -3.674  -5.465  1.00  0.00    -0.206 F 
ATOM     67  C   UNL     1      11.117  -3.045  -8.321  1.00  0.00     0.022 A 
BRANCH  64  68
ATOM     68  S   UNL     1       8.685  -1.728  -8.678  1.00  0.00     0.124 S 
ATOM     69  O   UNL     1       7.631  -2.280  -7.830  1.00  0.00    -0.237 OA
ATOM     70  O   UNL     1       8.772  -0.273  -8.722  1.00  0.00    -0.237 OA
ATOM     71  O   UNL     1       8.860  -2.404  -9.962  1.00  0.00    -0.744 OA
ENDBRANCH  64  68
ENDBRANCH  47  61
BRANCH  48  72
ATOM     72  C   UNL     1      11.953  -0.125   4.156  1.00  0.00     0.023 A 
ATOM     73  C   UNL     1      12.147   1.184   4.628  1.00  0.00     0.031 A 
ATOM     74  C   UNL     1      11.986  -1.171   5.096  1.00  0.00     0.131 A 
ATOM     75  C   UNL     1      12.424   1.407   5.987  1.00  0.00     0.055 A 
ATOM     76  C   UNL     1      12.196  -0.937   6.457  1.00  0.00     0.041 A 
ATOM     77  F   UNL     1      11.821  -2.444   4.703  1.00  0.00    -0.206 F 
ATOM     78  C   UNL     1      12.433   0.357   6.907  1.00  0.00     0.022 A 
BRANCH  75  79
ATOM     79  S   UNL     1      12.893   3.079   6.516  1.00  0.00     0.124 S 
ATOM     80  O   UNL     1      14.058   3.338   5.678  1.00  0.00    -0.237 OA
ATOM     81  O   UNL     1      11.692   3.844   6.200  1.00  0.00    -0.237 OA
ATOM     82  O   UNL     1      13.171   2.919   7.942  1.00  0.00    -0.744 OA
ENDBRANCH  75  79
ENDBRANCH  48  72
BRANCH  60  83
ATOM     83  C   UNL     1      16.169   0.991  -1.296  1.00  0.00     0.023 A 
ATOM     84  C   UNL     1      17.333   0.487  -0.690  1.00  0.00     0.031 A 
ATOM     85  C   UNL     1      16.278   2.180  -2.042  1.00  0.00     0.131 A 
ATOM     86  C   UNL     1      18.540   1.198  -0.792  1.00  0.00     0.055 A 
ATOM     87  C   UNL     1      17.494   2.846  -2.197  1.00  0.00     0.041 A 
ATOM     88  F   UNL     1      15.200   2.712  -2.641  1.00  0.00    -0.206 F 
ATOM     89  C   UNL     1      18.632   2.363  -1.558  1.00  0.00     0.022 A 
BRANCH  86  90
ATOM     90  S   UNL     1      19.969   0.637   0.175  1.00  0.00     0.124 S 
ATOM     91  O   UNL     1      19.445   0.667   1.536  1.00  0.00    -0.237 OA
ATOM     92  O   UNL     1      20.221  -0.689  -0.381  1.00  0.00    -0.237 OA
ATOM     93  O   UNL     1      20.995   1.636  -0.117  1.00  0.00    -0.744 OA
ENDBRANCH  86  90
ENDBRANCH  60  83
ENDBRANCH  34  35
ENDBRANCH  27  29
ENDBRANCH  26  27
ENDBRANCH  25  26
ENDBRANCH  24  25
ENDBRANCH  23  24
ENDBRANCH  22  23
ENDBRANCH   1  22
TORSDOF 23
