REMARK SMILES O=C(CNC(=O)[C@H]1CC[C@@H](Cn2cnc3ccccc3c2=O)CC1)OCCOCCOCCOC(=O)c1ccc(-c2c3nc(c(-c4cc(S(=O)(=O)[O-])ccc4F)c4ccc([nH]4)c(-c4cc(S(=O)(=O)[O-])ccc4F)c4nc(c(-c5cc(S(=O)(=O)[O-])ccc5F)c5ccc2[nH]5)C=C4)C=C3)cc1
REMARK SMILES IDX 29 1 28 2 27 3 26 4 25 5 2 6 1 7 3 8 4 9 5 10 6 12 7 13
REMARK SMILES IDX 24 14 8 15 23 16 9 17 10 18 11 19 12 20 13 21 21 22 14 23
REMARK SMILES IDX 20 24 22 25 15 26 19 27 16 28 18 29 17 30 30 31 31 32 32 33
REMARK SMILES IDX 33 34 34 35 35 36 36 37 37 38 38 39 99 40 39 41 98 42 40 43
REMARK SMILES IDX 41 44 42 45 92 46 43 47 97 48 91 49 93 50 44 51 96 52 90 53
REMARK SMILES IDX 89 54 45 56 77 57 57 58 76 59 58 60 61 61 75 62 94 63 59 64
REMARK SMILES IDX 60 65 74 67 95 68 62 69 46 70 47 71 55 72 48 73 54 74 56 75
REMARK SMILES IDX 53 76 49 77 50 78 51 79 52 80 78 81 79 82 87 83 80 84 86 85
REMARK SMILES IDX 88 86 85 87 81 88 82 89 83 90 84 91 63 92 64 93 72 94 65 95
REMARK SMILES IDX 71 96 73 97 70 98 66 99 67 100 68 101 69 102
REMARK H PARENT 4 11 93 55 61 66
REMARK Flexibility Score: inf
ROOT
ATOM      1  C   UNL     1       2.468   1.768  -0.127  1.00  0.00     0.188 C 
ENDROOT
BRANCH   1   2
ATOM      2  O   UNL     1       3.647   1.047  -0.457  1.00  0.00    -0.376 OA
BRANCH   2   3
ATOM      3  C   UNL     1       3.682   0.443  -1.741  1.00  0.00     0.202 C 
BRANCH   3   4
ATOM      4  C   UNL     1       4.062  -1.029  -1.572  1.00  0.00     0.261 C 
BRANCH   4   5
ATOM      5  O   UNL     1       3.015  -1.812  -0.956  1.00  0.00    -0.462 OA
BRANCH   5   6
ATOM      6  C   UNL     1       2.543  -1.498   0.279  1.00  0.00     0.325 C 
ATOM      7  O   UNL     1       1.335  -1.332   0.444  1.00  0.00    -0.250 OA
BRANCH   6   8
ATOM      8  C   UNL     1       3.540  -1.364   1.443  1.00  0.00     0.238 C 
BRANCH   8   9
ATOM      9  N   UNL     1       4.810  -2.048   1.252  1.00  0.00    -0.345 N 
ATOM     10  C   UNL     1       6.109  -1.705   1.378  1.00  0.00     0.223 C 
ATOM     11  H   UNL     1       4.695  -2.982   0.961  1.00  0.00     0.164 HD
ATOM     12  O   UNL     1       6.918  -2.598   1.091  1.00  0.00    -0.275 OA
BRANCH  10  13
ATOM     13  C   UNL     1       6.649  -0.360   1.861  1.00  0.00     0.078 C 
ATOM     14  C   UNL     1       6.117   0.911   1.209  1.00  0.00     0.014 C 
ATOM     15  C   UNL     1       6.630  -0.236   3.381  1.00  0.00     0.014 C 
ATOM     16  C   UNL     1       6.916   2.145   1.647  1.00  0.00     0.006 C 
ATOM     17  C   UNL     1       7.450   0.983   3.822  1.00  0.00     0.006 C 
ATOM     18  C   UNL     1       6.986   2.300   3.178  1.00  0.00     0.009 C 
BRANCH  18  19
ATOM     19  C   UNL     1       5.647   2.816   3.738  1.00  0.00     0.130 C 
BRANCH  19  20
ATOM     20  N   UNL     1       5.669   3.014   5.183  1.00  0.00    -0.298 N 
ATOM     21  C   UNL     1       6.125   4.198   5.709  1.00  0.00     0.203 A 
ATOM     22  C   UNL     1       5.126   2.030   6.002  1.00  0.00     0.261 A 
ATOM     23  N   UNL     1       6.096   4.518   6.957  1.00  0.00    -0.238 NA
ATOM     24  C   UNL     1       5.132   2.314   7.446  1.00  0.00     0.066 A 
ATOM     25  O   UNL     1       4.619   0.996   5.574  1.00  0.00    -0.269 OA
ATOM     26  C   UNL     1       5.568   3.575   7.857  1.00  0.00     0.077 A 
ATOM     27  C   UNL     1       4.647   1.378   8.361  1.00  0.00     0.016 A 
ATOM     28  C   UNL     1       5.453   3.910   9.207  1.00  0.00     0.029 A 
ATOM     29  C   UNL     1       4.535   1.726   9.704  1.00  0.00     0.001 A 
ATOM     30  C   UNL     1       4.927   2.995  10.125  1.00  0.00     0.002 A 
ENDBRANCH  19  20
ENDBRANCH  18  19
ENDBRANCH  10  13
ENDBRANCH   8   9
ENDBRANCH   6   8
ENDBRANCH   5   6
ENDBRANCH   4   5
ENDBRANCH   3   4
ENDBRANCH   2   3
ENDBRANCH   1   2
BRANCH   1  31
ATOM     31  C   UNL     1       2.152   2.982  -1.002  1.00  0.00     0.188 C 
BRANCH  31  32
ATOM     32  O   UNL     1       3.243   3.598  -1.676  1.00  0.00    -0.376 OA
BRANCH  32  33
ATOM     33  C   UNL     1       4.372   3.984  -0.897  1.00  0.00     0.202 C 
BRANCH  33  34
ATOM     34  C   UNL     1       4.119   5.080   0.138  1.00  0.00     0.261 C 
BRANCH  34  35
ATOM     35  O   UNL     1       3.640   4.519   1.376  1.00  0.00    -0.460 OA
BRANCH  35  36
ATOM     36  C   UNL     1       2.428   4.944   1.809  1.00  0.00     0.338 C 
ATOM     37  O   UNL     1       1.658   5.698   1.238  1.00  0.00    -0.246 OA
BRANCH  36  38
ATOM     38  C   UNL     1       2.155   4.299   3.102  1.00  0.00     0.060 A 
ATOM     39  C   UNL     1       2.872   4.713   4.216  1.00  0.00     0.016 A 
ATOM     40  C   UNL     1       1.173   3.310   3.223  1.00  0.00     0.016 A 
ATOM     41  C   UNL     1       2.632   4.096   5.444  1.00  0.00     0.010 A 
ATOM     42  C   UNL     1       0.909   2.726   4.475  1.00  0.00     0.010 A 
ATOM     43  C   UNL     1       1.636   3.107   5.610  1.00  0.00    -0.014 A 
BRANCH  43  44
ATOM     44  C   UNL     1       1.336   2.607   6.995  1.00  0.00     0.031 A 
ATOM     45  C   UNL     1       1.415   1.150   7.394  1.00  0.00     0.074 A 
ATOM     46  C   UNL     1       1.060   3.521   7.952  1.00  0.00     0.049 A 
ATOM     47  N   UNL     1       1.317   0.626   8.595  1.00  0.00    -0.248 NA
ATOM     48  C   UNL     1       1.636   0.154   6.337  1.00  0.00     0.031 C 
ATOM     49  C   UNL     1       0.907   4.956   7.705  1.00  0.00     0.029 A 
ATOM     50  N   UNL     1       0.914   3.408   9.315  1.00  0.00    -0.354 N 
ATOM     51  C   UNL     1       1.489  -0.747   8.442  1.00  0.00     0.074 A 
ATOM     52  C   UNL     1       1.637  -0.985   7.022  1.00  0.00     0.031 C 
ATOM     53  C   UNL     1       0.811   5.597   8.874  1.00  0.00     0.029 A 
ATOM     54  C   UNL     1       0.775   4.619   9.957  1.00  0.00     0.049 A 
ATOM     55  H   UNL     1       0.908   2.543   9.787  1.00  0.00     0.167 HD
ATOM     56  C   UNL     1       1.564  -1.708   9.397  1.00  0.00     0.034 A 
ATOM     57  C   UNL     1       0.622   4.933  11.260  1.00  0.00     0.034 A 
ATOM     58  C   UNL     1       1.454  -1.463  10.818  1.00  0.00     0.049 A 
ATOM     59  C   UNL     1       0.625   3.833  12.285  1.00  0.00     0.074 A 
ATOM     60  C   UNL     1       1.558  -2.385  11.847  1.00  0.00     0.029 A 
ATOM     61  N   UNL     1       1.215  -0.234  11.415  1.00  0.00    -0.354 N 
ATOM     62  N   UNL     1       0.856   2.553  12.120  1.00  0.00    -0.248 NA
ATOM     63  C   UNL     1       0.346   4.216  13.676  1.00  0.00     0.031 C 
ATOM     64  C   UNL     1       1.300  -1.735  13.053  1.00  0.00     0.029 A 
ATOM     65  C   UNL     1       1.134  -0.386  12.793  1.00  0.00     0.049 A 
ATOM     66  H   UNL     1       1.118   0.619  10.933  1.00  0.00     0.167 HD
ATOM     67  C   UNL     1       0.770   1.983  13.386  1.00  0.00     0.074 A 
ATOM     68  C   UNL     1       0.504   3.063  14.312  1.00  0.00     0.031 C 
ATOM     69  C   UNL     1       0.891   0.679  13.738  1.00  0.00     0.034 A 
BRANCH  56  70
ATOM     70  C   UNL     1       1.813  -3.143   8.988  1.00  0.00     0.023 A 
ATOM     71  C   UNL     1       0.856  -4.134   9.285  1.00  0.00     0.031 A 
ATOM     72  C   UNL     1       3.071  -3.556   8.516  1.00  0.00     0.131 A 
ATOM     73  C   UNL     1       1.192  -5.489   9.163  1.00  0.00     0.055 A 
ATOM     74  C   UNL     1       3.385  -4.907   8.352  1.00  0.00     0.041 A 
ATOM     75  F   UNL     1       4.024  -2.652   8.236  1.00  0.00    -0.206 F 
ATOM     76  C   UNL     1       2.450  -5.881   8.693  1.00  0.00     0.022 A 
BRANCH  73  77
ATOM     77  S   UNL     1       0.052  -6.792   9.708  1.00  0.00     0.124 S 
ATOM     78  O   UNL     1      -0.135  -7.561   8.480  1.00  0.00    -0.237 OA
ATOM     79  O   UNL     1       0.826  -7.460  10.751  1.00  0.00    -0.237 OA
ATOM     80  O   UNL     1      -1.124  -6.060  10.166  1.00  0.00    -0.744 OA
ENDBRANCH  73  77
ENDBRANCH  56  70
BRANCH  57  81
ATOM     81  C   UNL     1       0.478   6.368  11.653  1.00  0.00     0.023 A 
ATOM     82  C   UNL     1      -0.556   7.159  11.120  1.00  0.00     0.031 A 
ATOM     83  C   UNL     1       1.425   6.994  12.480  1.00  0.00     0.131 A 
ATOM     84  C   UNL     1      -0.561   8.541  11.335  1.00  0.00     0.055 A 
ATOM     85  C   UNL     1       1.360   8.358  12.772  1.00  0.00     0.041 A 
ATOM     86  F   UNL     1       2.436   6.287  13.009  1.00  0.00    -0.206 F 
ATOM     87  C   UNL     1       0.377   9.144  12.178  1.00  0.00     0.022 A 
BRANCH  84  88
ATOM     88  S   UNL     1      -1.681   9.617  10.397  1.00  0.00     0.124 S 
ATOM     89  O   UNL     1      -2.469  10.237  11.457  1.00  0.00    -0.237 OA
ATOM     90  O   UNL     1      -0.740  10.499   9.710  1.00  0.00    -0.237 OA
ATOM     91  O   UNL     1      -2.404   8.691   9.531  1.00  0.00    -0.744 OA
ENDBRANCH  84  88
ENDBRANCH  57  81
BRANCH  69  92
ATOM     92  C   UNL     1       0.769   0.302  15.198  1.00  0.00     0.023 A 
ATOM     93  C   UNL     1       1.843  -0.331  15.854  1.00  0.00     0.031 A 
ATOM     94  C   UNL     1      -0.442   0.439  15.899  1.00  0.00     0.131 A 
ATOM     95  C   UNL     1       1.673  -0.843  17.146  1.00  0.00     0.055 A 
ATOM     96  C   UNL     1      -0.588  -0.019  17.211  1.00  0.00     0.041 A 
ATOM     97  F   UNL     1      -1.503   1.024  15.321  1.00  0.00    -0.206 F 
ATOM     98  C   UNL     1       0.467  -0.678  17.834  1.00  0.00     0.022 A 
BRANCH  95  99
ATOM     99  S   UNL     1       2.973  -1.825  17.944  1.00  0.00     0.124 S 
ATOM    100  O   UNL     1       3.274  -1.024  19.128  1.00  0.00    -0.237 OA
ATOM    101  O   UNL     1       2.288  -3.088  18.204  1.00  0.00    -0.237 OA
ATOM    102  O   UNL     1       4.035  -1.881  16.945  1.00  0.00    -0.744 OA
ENDBRANCH  95  99
ENDBRANCH  69  92
ENDBRANCH  43  44
ENDBRANCH  36  38
ENDBRANCH  35  36
ENDBRANCH  34  35
ENDBRANCH  33  34
ENDBRANCH  32  33
ENDBRANCH  31  32
ENDBRANCH   1  31
TORSDOF 24
