REMARK SMILES O=C(OCCOCCOCCOC(=O)c1cn([C@H]2CCc3ccccc3C2)c(=O)[nH]c1=O)c1ccc(-c2c3nc(c(-c4cc(S(=O)(=O)[O-])ccc4F)c4ccc([nH]4)c(-c4cc(S(=O)(=O)[O-])ccc4F)c4nc(c(-c5cc(S(=O)(=O)[O-])ccc5F)c5ccc2[nH]5)C=C4)C=C3)cc1
REMARK SMILES IDX 7 1 6 2 5 3 4 4 3 5 2 6 1 7 33 8 34 9 95 10 35 11 94 12
REMARK SMILES IDX 36 13 37 14 38 15 88 16 39 17 93 18 87 19 89 20 40 21 92 22
REMARK SMILES IDX 86 23 85 24 41 26 73 27 53 28 72 29 54 30 57 31 71 32 90 33
REMARK SMILES IDX 55 34 56 35 70 37 91 38 58 39 42 40 43 41 51 42 44 43 50 44
REMARK SMILES IDX 52 45 49 46 45 47 46 48 47 49 48 50 74 51 75 52 83 53 76 54
REMARK SMILES IDX 82 55 84 56 81 57 77 58 78 59 79 60 80 61 59 62 60 63 68 64
REMARK SMILES IDX 61 65 67 66 69 67 66 68 62 69 63 70 64 71 65 72 8 73 9 74
REMARK SMILES IDX 10 75 11 76 12 77 13 78 14 79 15 80 16 81 31 82 17 83 30 84
REMARK SMILES IDX 32 85 28 86 29 88 18 89 19 90 27 91 20 92 26 93 21 94 25 95
REMARK SMILES IDX 22 96 24 97 23 98
REMARK H PARENT 89 25 57 36 30 87
REMARK Flexibility Score: inf
ROOT
ATOM      1  C   UNL     1       5.675  -5.309  10.821  1.00  0.00     0.188 C 
ENDROOT
BRANCH   1   2
ATOM      2  O   UNL     1       4.686  -6.282  10.462  1.00  0.00    -0.376 OA
BRANCH   2   3
ATOM      3  C   UNL     1       4.224  -7.051  11.574  1.00  0.00     0.202 C 
BRANCH   3   4
ATOM      4  C   UNL     1       5.207  -8.092  12.129  1.00  0.00     0.261 C 
BRANCH   4   5
ATOM      5  O   UNL     1       6.581  -7.886  11.768  1.00  0.00    -0.460 OA
BRANCH   5   6
ATOM      6  C   UNL     1       7.260  -8.253  10.654  1.00  0.00     0.338 C 
ATOM      7  O   UNL     1       8.483  -8.105  10.667  1.00  0.00    -0.246 OA
BRANCH   6   8
ATOM      8  C   UNL     1       6.631  -8.764   9.386  1.00  0.00     0.060 A 
ATOM      9  C   UNL     1       7.487  -8.961   8.284  1.00  0.00     0.016 A 
ATOM     10  C   UNL     1       5.285  -9.078   9.201  1.00  0.00     0.016 A 
ATOM     11  C   UNL     1       7.007  -9.450   7.056  1.00  0.00     0.010 A 
ATOM     12  C   UNL     1       4.800  -9.571   7.985  1.00  0.00     0.010 A 
ATOM     13  C   UNL     1       5.651  -9.772   6.900  1.00  0.00    -0.014 A 
BRANCH  13  14
ATOM     14  C   UNL     1       5.167 -10.592   5.761  1.00  0.00     0.031 A 
ATOM     15  C   UNL     1       4.186 -10.108   4.727  1.00  0.00     0.074 A 
ATOM     16  C   UNL     1       5.462 -11.906   5.802  1.00  0.00     0.049 A 
ATOM     17  N   UNL     1       3.930 -10.613   3.547  1.00  0.00    -0.248 NA
ATOM     18  C   UNL     1       3.350  -8.943   5.052  1.00  0.00     0.031 C 
ATOM     19  C   UNL     1       6.185 -12.574   6.889  1.00  0.00     0.029 A 
ATOM     20  N   UNL     1       5.119 -12.924   4.956  1.00  0.00    -0.354 N 
ATOM     21  C   UNL     1       3.035  -9.739   2.929  1.00  0.00     0.074 A 
ATOM     22  C   UNL     1       2.637  -8.790   3.936  1.00  0.00     0.031 C 
ATOM     23  C   UNL     1       6.178 -13.896   6.670  1.00  0.00     0.029 A 
ATOM     24  C   UNL     1       5.485 -14.164   5.414  1.00  0.00     0.049 A 
ATOM     25  H   UNL     1       4.654 -12.780   4.100  1.00  0.00     0.167 HD
ATOM     26  C   UNL     1       2.687  -9.728   1.617  1.00  0.00     0.034 A 
ATOM     27  C   UNL     1       5.290 -15.381   4.872  1.00  0.00     0.034 A 
ATOM     28  C   UNL     1       2.894 -10.876   0.780  1.00  0.00     0.049 A 
ATOM     29  C   UNL     1       4.718 -15.448   3.483  1.00  0.00     0.074 A 
ATOM     30  C   UNL     1       2.575 -11.021  -0.555  1.00  0.00     0.029 A 
ATOM     31  N   UNL     1       3.363 -12.096   1.229  1.00  0.00    -0.354 N 
ATOM     32  N   UNL     1       4.325 -14.460   2.712  1.00  0.00    -0.248 NA
ATOM     33  C   UNL     1       4.603 -16.773   2.864  1.00  0.00     0.031 C 
ATOM     34  C   UNL     1       2.762 -12.357  -0.888  1.00  0.00     0.029 A 
ATOM     35  C   UNL     1       3.236 -13.033   0.228  1.00  0.00     0.049 A 
ATOM     36  H   UNL     1       3.731 -12.269   2.126  1.00  0.00     0.167 HD
ATOM     37  C   UNL     1       3.962 -15.038   1.502  1.00  0.00     0.074 A 
ATOM     38  C   UNL     1       4.180 -16.462   1.643  1.00  0.00     0.031 C 
ATOM     39  C   UNL     1       3.495 -14.443   0.377  1.00  0.00     0.034 A 
BRANCH  26  40
ATOM     40  C   UNL     1       2.159  -8.498   0.906  1.00  0.00     0.023 A 
ATOM     41  C   UNL     1       0.819  -8.097   0.889  1.00  0.00     0.031 A 
ATOM     42  C   UNL     1       3.024  -7.879  -0.031  1.00  0.00     0.131 A 
ATOM     43  C   UNL     1       0.418  -7.066   0.008  1.00  0.00     0.055 A 
ATOM     44  C   UNL     1       2.648  -6.801  -0.830  1.00  0.00     0.041 A 
ATOM     45  F   UNL     1       4.259  -8.371  -0.231  1.00  0.00    -0.206 F 
ATOM     46  C   UNL     1       1.331  -6.385  -0.809  1.00  0.00     0.022 A 
BRANCH  43  47
ATOM     47  S   UNL     1      -1.343  -6.715  -0.280  1.00  0.00     0.124 S 
ATOM     48  O   UNL     1      -1.527  -5.486   0.486  1.00  0.00    -0.237 OA
ATOM     49  O   UNL     1      -1.406  -6.562  -1.732  1.00  0.00    -0.237 OA
ATOM     50  O   UNL     1      -2.015  -7.896   0.250  1.00  0.00    -0.744 OA
ENDBRANCH  43  47
ENDBRANCH  26  40
BRANCH  27  51
ATOM     51  C   UNL     1       5.766 -16.573   5.626  1.00  0.00     0.023 A 
ATOM     52  C   UNL     1       5.218 -16.888   6.885  1.00  0.00     0.031 A 
ATOM     53  C   UNL     1       6.888 -17.293   5.192  1.00  0.00     0.131 A 
ATOM     54  C   UNL     1       5.844 -17.842   7.697  1.00  0.00     0.055 A 
ATOM     55  C   UNL     1       7.470 -18.289   5.977  1.00  0.00     0.041 A 
ATOM     56  F   UNL     1       7.458 -17.008   4.011  1.00  0.00    -0.206 F 
ATOM     57  C   UNL     1       6.960 -18.554   7.245  1.00  0.00     0.022 A 
BRANCH  54  58
ATOM     58  S   UNL     1       5.331 -18.076   9.423  1.00  0.00     0.124 S 
ATOM     59  O   UNL     1       4.946 -19.484   9.439  1.00  0.00    -0.237 OA
ATOM     60  O   UNL     1       6.558 -17.749  10.146  1.00  0.00    -0.237 OA
ATOM     61  O   UNL     1       4.240 -17.122   9.593  1.00  0.00    -0.744 OA
ENDBRANCH  54  58
ENDBRANCH  27  51
BRANCH  39  62
ATOM     62  C   UNL     1       3.150 -15.289  -0.816  1.00  0.00     0.023 A 
ATOM     63  C   UNL     1       3.798 -15.044  -2.041  1.00  0.00     0.031 A 
ATOM     64  C   UNL     1       2.014 -16.111  -0.805  1.00  0.00     0.131 A 
ATOM     65  C   UNL     1       3.244 -15.539  -3.224  1.00  0.00     0.055 A 
ATOM     66  C   UNL     1       1.509 -16.665  -1.979  1.00  0.00     0.041 A 
ATOM     67  F   UNL     1       1.352 -16.345   0.340  1.00  0.00    -0.206 F 
ATOM     68  C   UNL     1       2.109 -16.356  -3.199  1.00  0.00     0.022 A 
BRANCH  65  69
ATOM     69  S   UNL     1       3.862 -14.984  -4.837  1.00  0.00     0.124 S 
ATOM     70  O   UNL     1       4.379 -16.228  -5.402  1.00  0.00    -0.237 OA
ATOM     71  O   UNL     1       2.652 -14.464  -5.469  1.00  0.00    -0.237 OA
ATOM     72  O   UNL     1       4.870 -13.983  -4.503  1.00  0.00    -0.744 OA
ENDBRANCH  65  69
ENDBRANCH  39  62
ENDBRANCH  13  14
ENDBRANCH   6   8
ENDBRANCH   5   6
ENDBRANCH   4   5
ENDBRANCH   3   4
ENDBRANCH   2   3
ENDBRANCH   1   2
BRANCH   1  73
ATOM     73  C   UNL     1       5.351  -3.886  10.353  1.00  0.00     0.188 C 
BRANCH  73  74
ATOM     74  O   UNL     1       4.186  -3.266  10.893  1.00  0.00    -0.376 OA
BRANCH  74  75
ATOM     75  C   UNL     1       2.932  -3.895  10.646  1.00  0.00     0.202 C 
BRANCH  75  76
ATOM     76  C   UNL     1       2.444  -4.048   9.197  1.00  0.00     0.261 C 
BRANCH  76  77
ATOM     77  O   UNL     1       3.349  -4.769   8.348  1.00  0.00    -0.459 OA
BRANCH  77  78
ATOM     78  C   UNL     1       3.911  -4.038   7.352  1.00  0.00     0.345 C 
ATOM     79  O   UNL     1       3.678  -2.872   7.080  1.00  0.00    -0.246 OA
BRANCH  78  80
ATOM     80  C   UNL     1       4.815  -4.872   6.564  1.00  0.00     0.141 A 
ATOM     81  C   UNL     1       4.337  -5.297   5.395  1.00  0.00     0.112 A 
ATOM     82  C   UNL     1       6.236  -5.089   6.852  1.00  0.00     0.268 A 
ATOM     83  N   UNL     1       5.133  -5.917   4.443  1.00  0.00    -0.296 N 
ATOM     84  N   UNL     1       6.871  -5.946   6.006  1.00  0.00    -0.273 N 
ATOM     85  O   UNL     1       6.843  -4.532   7.762  1.00  0.00    -0.268 OA
ATOM     86  C   UNL     1       6.411  -6.366   4.787  1.00  0.00     0.328 A 
ATOM     87  H   UNL     1       7.744  -6.296   6.298  1.00  0.00     0.175 HD
ATOM     88  O   UNL     1       7.163  -7.067   4.121  1.00  0.00    -0.248 OA
BRANCH  83  89
ATOM     89  C   UNL     1       4.532  -6.141   3.102  1.00  0.00     0.096 C 
ATOM     90  C   UNL     1       3.739  -4.933   2.550  1.00  0.00     0.031 C 
ATOM     91  C   UNL     1       5.462  -6.636   1.995  1.00  0.00     0.061 C 
ATOM     92  C   UNL     1       4.677  -3.778   2.230  1.00  0.00     0.038 C 
ATOM     93  C   UNL     1       6.207  -5.557   1.262  1.00  0.00    -0.043 A 
ATOM     94  C   UNL     1       5.810  -4.211   1.338  1.00  0.00    -0.045 A 
ATOM     95  C   UNL     1       7.211  -5.941   0.365  1.00  0.00     0.004 A 
ATOM     96  C   UNL     1       6.478  -3.259   0.563  1.00  0.00     0.004 A 
ATOM     97  C   UNL     1       7.847  -4.990  -0.424  1.00  0.00     0.000 A 
ATOM     98  C   UNL     1       7.488  -3.648  -0.317  1.00  0.00     0.000 A 
ENDBRANCH  83  89
ENDBRANCH  78  80
ENDBRANCH  77  78
ENDBRANCH  76  77
ENDBRANCH  75  76
ENDBRANCH  74  75
ENDBRANCH  73  74
ENDBRANCH   1  73
TORSDOF 21
