REMARK SMILES O=C(OCCOCCOCCOC(=O)c1ccc(-c2c3nc(c(-c4cc(S(=O)(=O)[O-])ccc4F)c4ccc([nH]4)c(-c4cc(S(=O)(=O)[O-])ccc4F)c4nc(c(-c5cc(S(=O)(=O)[O-])ccc5F)c5ccc2[nH]5)C=C4)C=C3)cc1)C1=Cc2cc(C(F)(F)F)ccc2O[C@@H]1C(F)(F)F
REMARK SMILES IDX 8 1 7 2 6 3 5 4 4 5 3 6 2 7 1 8 78 9 79 10 91 11 80 12 90 13
REMARK SMILES IDX 81 14 89 15 82 16 88 17 87 18 92 19 93 20 94 21 95 22 83 23
REMARK SMILES IDX 84 24 85 25 86 26 9 27 10 28 11 29 12 30 13 31 14 32 15 33
REMARK SMILES IDX 16 34 77 35 17 36 76 37 18 38 19 39 20 40 70 41 21 42 75 43
REMARK SMILES IDX 69 44 71 45 22 46 74 47 68 48 67 49 23 51 55 52 35 53 54 54
REMARK SMILES IDX 36 55 39 56 53 57 72 58 37 59 38 60 52 62 73 63 40 64 24 65
REMARK SMILES IDX 25 66 33 67 26 68 32 69 34 70 31 71 27 72 28 73 29 74 30 75
REMARK SMILES IDX 56 76 57 77 65 78 58 79 64 80 66 81 63 82 59 83 60 84 61 85
REMARK SMILES IDX 62 86 41 87 42 88 50 89 43 90 49 91 51 92 48 93 44 94 45 95
REMARK SMILES IDX 46 96 47 97
REMARK H PARENT 71 50 39 61
REMARK Flexibility Score: inf
ROOT
ATOM      1  C   UNL     1       2.111  -3.081  -1.426  1.00  0.00     0.188 C 
ENDROOT
BRANCH   1   2
ATOM      2  C   UNL     1       2.391  -1.572  -1.511  1.00  0.00     0.188 C 
BRANCH   2   3
ATOM      3  O   UNL     1       3.786  -1.030  -1.622  1.00  0.00    -0.376 OA
BRANCH   3   4
ATOM      4  C   UNL     1       4.486   0.288  -0.724  1.00  0.00     0.202 C 
BRANCH   4   5
ATOM      5  C   UNL     1       3.804   0.878   1.256  1.00  0.00     0.261 C 
BRANCH   5   6
ATOM      6  O   UNL     1       2.760   1.927   1.571  1.00  0.00    -0.460 OA
BRANCH   6   7
ATOM      7  C   UNL     1       2.849   2.973   0.737  1.00  0.00     0.338 C 
ATOM      8  O   UNL     1       2.068   3.884   0.617  1.00  0.00    -0.246 OA
BRANCH   7   9
ATOM      9  C   UNL     1       3.772   2.374  -0.219  1.00  0.00     0.087 C 
ATOM     10  C   UNL     1       5.170   2.317   0.174  1.00  0.00     0.027 C 
ATOM     11  C   UNL     1       2.649   0.844  -0.457  1.00  0.00     0.316 C 
ATOM     12  C   UNL     1       5.988   0.853   0.788  1.00  0.00     0.018 A 
ATOM     13  O   UNL     1       3.435  -0.734   0.396  1.00  0.00    -0.475 OA
ATOM     14  C   UNL     1       7.310   0.928   1.112  1.00  0.00     0.025 A 
ATOM     15  C   UNL     1       5.171  -0.655   0.985  1.00  0.00     0.128 A 
ATOM     16  C   UNL     1       7.909  -0.282   1.528  1.00  0.00     0.056 A 
ATOM     17  C   UNL     1       5.801  -1.796   1.390  1.00  0.00     0.048 A 
ATOM     18  C   UNL     1       7.185  -1.567   1.649  1.00  0.00     0.017 A 
BRANCH  11  19
ATOM     19  C   UNL     1       2.382   1.220  -2.098  1.00  0.00     0.430 C 
ATOM     20  F   UNL     1       2.701   0.354  -3.065  1.00  0.00    -0.167 F 
ATOM     21  F   UNL     1       1.084   1.562  -2.273  1.00  0.00    -0.167 F 
ATOM     22  F   UNL     1       3.094   2.336  -2.458  1.00  0.00    -0.167 F 
ENDBRANCH  11  19
BRANCH  16  23
ATOM     23  C   UNL     1       9.405  -0.194   1.807  1.00  0.00     0.416 C 
ATOM     24  F   UNL     1      10.120   0.081   0.679  1.00  0.00    -0.166 F 
ATOM     25  F   UNL     1       9.707   0.808   2.683  1.00  0.00    -0.166 F 
ATOM     26  F   UNL     1       9.944  -1.325   2.331  1.00  0.00    -0.166 F 
ENDBRANCH  16  23
ENDBRANCH   7   9
ENDBRANCH   6   7
ENDBRANCH   5   6
ENDBRANCH   4   5
ENDBRANCH   3   4
ENDBRANCH   2   3
ENDBRANCH   1   2
BRANCH   1  27
ATOM     27  O   UNL     1       3.059  -3.900  -0.786  1.00  0.00    -0.376 OA
BRANCH  27  28
ATOM     28  C   UNL     1       4.363  -3.846  -1.350  1.00  0.00     0.202 C 
BRANCH  28  29
ATOM     29  C   UNL     1       4.500  -4.048  -2.873  1.00  0.00     0.261 C 
BRANCH  29  30
ATOM     30  O   UNL     1       3.997  -2.956  -3.683  1.00  0.00    -0.460 OA
BRANCH  30  31
ATOM     31  C   UNL     1       2.965  -3.213  -4.532  1.00  0.00     0.338 C 
ATOM     32  O   UNL     1       2.386  -4.276  -4.676  1.00  0.00    -0.246 OA
BRANCH  31  33
ATOM     33  C   UNL     1       2.537  -1.956  -5.192  1.00  0.00     0.060 A 
ATOM     34  C   UNL     1       1.282  -1.391  -4.910  1.00  0.00     0.016 A 
ATOM     35  C   UNL     1       3.377  -1.349  -6.124  1.00  0.00     0.016 A 
ATOM     36  C   UNL     1       0.906  -0.172  -5.496  1.00  0.00     0.010 A 
ATOM     37  C   UNL     1       2.974  -0.165  -6.752  1.00  0.00     0.010 A 
ATOM     38  C   UNL     1       1.744   0.441  -6.437  1.00  0.00    -0.014 A 
BRANCH  38  39
ATOM     39  C   UNL     1       1.290   1.616  -7.230  1.00  0.00     0.031 A 
ATOM     40  C   UNL     1       0.596   1.356  -8.538  1.00  0.00     0.074 A 
ATOM     41  C   UNL     1       1.543   2.881  -6.839  1.00  0.00     0.049 A 
ATOM     42  N   UNL     1       0.260   2.197  -9.479  1.00  0.00    -0.248 NA
ATOM     43  C   UNL     1       0.251  -0.045  -8.828  1.00  0.00     0.031 C 
ATOM     44  C   UNL     1       2.167   3.258  -5.574  1.00  0.00     0.029 A 
ATOM     45  N   UNL     1       1.330   4.084  -7.474  1.00  0.00    -0.354 N 
ATOM     46  C   UNL     1      -0.310   1.427 -10.485  1.00  0.00     0.074 A 
ATOM     47  C   UNL     1      -0.277   0.052 -10.039  1.00  0.00     0.031 C 
ATOM     48  C   UNL     1       2.301   4.596  -5.530  1.00  0.00     0.029 A 
ATOM     49  C   UNL     1       1.836   5.172  -6.791  1.00  0.00     0.049 A 
ATOM     50  H   UNL     1       0.860   4.162  -8.336  1.00  0.00     0.167 HD
ATOM     51  C   UNL     1      -0.796   1.835 -11.681  1.00  0.00     0.034 A 
ATOM     52  C   UNL     1       1.959   6.467  -7.163  1.00  0.00     0.034 A 
ATOM     53  C   UNL     1      -0.804   3.208 -12.118  1.00  0.00     0.049 A 
ATOM     54  C   UNL     1       1.483   6.875  -8.545  1.00  0.00     0.074 A 
ATOM     55  C   UNL     1      -1.312   3.726 -13.296  1.00  0.00     0.029 A 
ATOM     56  N   UNL     1      -0.256   4.272 -11.417  1.00  0.00    -0.354 N 
ATOM     57  N   UNL     1       0.908   6.141  -9.471  1.00  0.00    -0.248 NA
ATOM     58  C   UNL     1       1.683   8.278  -8.939  1.00  0.00     0.031 C 
ATOM     59  C   UNL     1      -0.976   5.079 -13.356  1.00  0.00     0.029 A 
ATOM     60  C   UNL     1      -0.358   5.432 -12.167  1.00  0.00     0.049 A 
ATOM     61  H   UNL     1       0.147   4.211 -10.520  1.00  0.00     0.167 HD
ATOM     62  C   UNL     1       0.659   7.000 -10.540  1.00  0.00     0.074 A 
ATOM     63  C   UNL     1       1.117   8.311 -10.136  1.00  0.00     0.031 C 
ATOM     64  C   UNL     1       0.107   6.732 -11.751  1.00  0.00     0.034 A 
BRANCH  51  65
ATOM     65  C   UNL     1      -1.288   0.784 -12.642  1.00  0.00     0.023 A 
ATOM     66  C   UNL     1      -2.430   0.010 -12.386  1.00  0.00     0.031 A 
ATOM     67  C   UNL     1      -0.610   0.585 -13.859  1.00  0.00     0.131 A 
ATOM     68  C   UNL     1      -2.844  -0.950 -13.322  1.00  0.00     0.055 A 
ATOM     69  C   UNL     1      -1.070  -0.316 -14.819  1.00  0.00     0.041 A 
ATOM     70  F   UNL     1       0.508   1.274 -14.138  1.00  0.00    -0.206 F 
ATOM     71  C   UNL     1      -2.191  -1.094 -14.550  1.00  0.00     0.022 A 
BRANCH  68  72
ATOM     72  S   UNL     1      -4.183  -2.085 -12.871  1.00  0.00     0.124 S 
ATOM     73  O   UNL     1      -3.633  -2.733 -11.682  1.00  0.00    -0.237 OA
ATOM     74  O   UNL     1      -5.303  -1.180 -12.644  1.00  0.00    -0.237 OA
ATOM     75  O   UNL     1      -4.308  -2.951 -14.042  1.00  0.00    -0.744 OA
ENDBRANCH  68  72
ENDBRANCH  51  65
BRANCH  52  76
ATOM     76  C   UNL     1       2.640   7.473  -6.284  1.00  0.00     0.023 A 
ATOM     77  C   UNL     1       2.003   8.668  -5.905  1.00  0.00     0.031 A 
ATOM     78  C   UNL     1       3.989   7.314  -5.913  1.00  0.00     0.131 A 
ATOM     79  C   UNL     1       2.731   9.680  -5.256  1.00  0.00     0.055 A 
ATOM     80  C   UNL     1       4.683   8.287  -5.190  1.00  0.00     0.041 A 
ATOM     81  F   UNL     1       4.668   6.210  -6.266  1.00  0.00    -0.206 F 
ATOM     82  C   UNL     1       4.059   9.489  -4.875  1.00  0.00     0.022 A 
BRANCH  79  83
ATOM     83  S   UNL     1       1.970  11.320  -5.071  1.00  0.00     0.124 S 
ATOM     84  O   UNL     1       1.624  11.640  -6.451  1.00  0.00    -0.237 OA
ATOM     85  O   UNL     1       0.852  11.038  -4.177  1.00  0.00    -0.237 OA
ATOM     86  O   UNL     1       3.041  12.129  -4.492  1.00  0.00    -0.744 OA
ENDBRANCH  79  83
ENDBRANCH  52  76
BRANCH  64  87
ATOM     87  C   UNL     1      -0.069   7.884 -12.711  1.00  0.00     0.023 A 
ATOM     88  C   UNL     1       1.030   8.559 -13.267  1.00  0.00     0.031 A 
ATOM     89  C   UNL     1      -1.359   8.296 -13.093  1.00  0.00     0.131 A 
ATOM     90  C   UNL     1       0.820   9.640 -14.136  1.00  0.00     0.055 A 
ATOM     91  C   UNL     1      -1.562   9.322 -14.016  1.00  0.00     0.041 A 
ATOM     92  F   UNL     1      -2.447   7.692 -12.589  1.00  0.00    -0.206 F 
ATOM     93  C   UNL     1      -0.468  10.009 -14.535  1.00  0.00     0.022 A 
BRANCH  90  94
ATOM     94  S   UNL     1       2.249  10.622 -14.667  1.00  0.00     0.124 S 
ATOM     95  O   UNL     1       2.782  11.092 -13.392  1.00  0.00    -0.237 OA
ATOM     96  O   UNL     1       3.061   9.638 -15.374  1.00  0.00    -0.237 OA
ATOM     97  O   UNL     1       1.658  11.659 -15.511  1.00  0.00    -0.744 OA
ENDBRANCH  90  94
ENDBRANCH  64  87
ENDBRANCH  38  39
ENDBRANCH  31  33
ENDBRANCH  30  31
ENDBRANCH  29  30
ENDBRANCH  28  29
ENDBRANCH  27  28
ENDBRANCH   1  27
TORSDOF 22
