REMARK SMILES Cc1noc(C)c1CNc1ccc(Cl)c(C(=O)OCCOCCOCCOC(=O)c2ccc(-c3c4nc(c(-c5cc(S(=O)(=O)[O-])ccc5F)c5ccc([nH]5)c(-c5cc(S(=O)(=O)[O-])ccc5F)c5nc(c(-c6cc(S(=O)(=O)[O-])ccc6F)c6ccc3[nH]6)C=C5)C=C4)cc2)n1
REMARK SMILES IDX 22 1 21 2 20 3 19 4 18 5 16 6 17 7 15 8 10 9 11 10 93 11
REMARK SMILES IDX 12 12 13 13 14 14 9 15 8 17 7 18 1 19 2 20 3 21 4 22 5 23
REMARK SMILES IDX 6 24 23 25 24 26 25 27 26 28 27 29 28 30 29 31 30 32 31 33
REMARK SMILES IDX 92 34 32 35 91 36 33 37 34 38 35 39 85 40 36 41 90 42 84 43
REMARK SMILES IDX 86 44 37 45 89 46 83 47 82 48 38 50 70 51 50 52 69 53 51 54
REMARK SMILES IDX 54 55 68 56 87 57 52 58 53 59 67 61 88 62 55 63 39 64 40 65
REMARK SMILES IDX 48 66 41 67 47 68 49 69 46 70 42 71 43 72 44 73 45 74 71 75
REMARK SMILES IDX 72 76 80 77 73 78 79 79 81 80 78 81 74 82 75 83 76 84 77 85
REMARK SMILES IDX 56 86 57 87 65 88 58 89 64 90 66 91 63 92 59 93 60 94 61 95
REMARK SMILES IDX 62 96
REMARK H PARENT 9 16 86 49 54 60
REMARK Flexibility Score: inf
ROOT
ATOM      1  C   UNL     1      -5.176   4.043  -4.402  1.00  0.00     0.188 C 
ENDROOT
BRANCH   1   2
ATOM      2  O   UNL     1      -6.463   3.680  -4.887  1.00  0.00    -0.376 OA
BRANCH   2   3
ATOM      3  C   UNL     1      -7.613   3.959  -4.096  1.00  0.00     0.202 C 
BRANCH   3   4
ATOM      4  C   UNL     1      -7.603   3.688  -2.584  1.00  0.00     0.261 C 
BRANCH   4   5
ATOM      5  O   UNL     1      -6.500   4.297  -1.896  1.00  0.00    -0.458 OA
BRANCH   5   6
ATOM      6  C   UNL     1      -5.779   3.476  -1.089  1.00  0.00     0.358 C 
ATOM      7  O   UNL     1      -6.055   2.324  -0.792  1.00  0.00    -0.244 OA
BRANCH   6   8
ATOM      8  C   UNL     1      -4.492   4.124  -0.730  1.00  0.00     0.169 A 
ATOM      9  C   UNL     1      -2.177   3.881  -0.790  1.00  0.00     0.127 A 
ATOM     10  C   UNL     1      -2.025   5.051  -0.059  1.00  0.00     0.048 A 
ATOM     11  N   UNL     1      -3.389   3.431  -1.146  1.00  0.00    -0.222 NA
ATOM     12  C   UNL     1      -3.156   5.782   0.315  1.00  0.00     0.027 A 
ATOM     13  C   UNL     1      -4.425   5.310  -0.015  1.00  0.00     0.074 A 
ATOM     14  Cl  UNL     1      -5.801   6.200   0.507  1.00  0.00    -0.082 Cl
BRANCH   9  15
ATOM     15  N   UNL     1      -1.111   3.104  -1.185  1.00  0.00    -0.366 N 
ATOM     16  H   UNL     1      -0.982   2.889  -2.137  1.00  0.00     0.162 HD
BRANCH  15  17
ATOM     17  C   UNL     1      -0.175   2.602  -0.186  1.00  0.00     0.156 C 
BRANCH  17  18
ATOM     18  C   UNL     1      -0.097   1.116  -0.062  1.00  0.00     0.037 A 
ATOM     19  C   UNL     1      -2.628   0.411   0.022  1.00  0.00     0.071 C 
ATOM     20  C   UNL     1      -1.165   0.177   0.048  1.00  0.00     0.086 A 
ATOM     21  N   UNL     1      -0.707  -1.070   0.191  1.00  0.00    -0.085 NA
ATOM     22  O   UNL     1       0.666  -0.978   0.143  1.00  0.00    -0.361 OA
ATOM     23  C   UNL     1       1.032   0.321  -0.007  1.00  0.00     0.138 A 
ATOM     24  C   UNL     1       2.484   0.575  -0.066  1.00  0.00     0.091 C 
ENDBRANCH  17  18
ENDBRANCH  15  17
ENDBRANCH   9  15
ENDBRANCH   6   8
ENDBRANCH   5   6
ENDBRANCH   4   5
ENDBRANCH   3   4
ENDBRANCH   2   3
ENDBRANCH   1   2
BRANCH   1  25
ATOM     25  C   UNL     1      -4.905   5.514  -4.020  1.00  0.00     0.188 C 
BRANCH  25  26
ATOM     26  O   UNL     1      -6.038   6.349  -3.984  1.00  0.00    -0.376 OA
BRANCH  26  27
ATOM     27  C   UNL     1      -6.425   7.069  -5.142  1.00  0.00     0.202 C 
BRANCH  27  28
ATOM     28  C   UNL     1      -5.947   6.802  -6.586  1.00  0.00     0.261 C 
BRANCH  28  29
ATOM     29  O   UNL     1      -4.924   5.829  -6.809  1.00  0.00    -0.460 OA
BRANCH  29  30
ATOM     30  C   UNL     1      -3.662   6.301  -6.934  1.00  0.00     0.338 C 
ATOM     31  O   UNL     1      -3.299   7.466  -6.822  1.00  0.00    -0.246 OA
BRANCH  30  32
ATOM     32  C   UNL     1      -2.745   5.153  -7.049  1.00  0.00     0.060 A 
ATOM     33  C   UNL     1      -1.872   4.873  -5.989  1.00  0.00     0.016 A 
ATOM     34  C   UNL     1      -2.741   4.361  -8.199  1.00  0.00     0.016 A 
ATOM     35  C   UNL     1      -0.982   3.803  -6.082  1.00  0.00     0.010 A 
ATOM     36  C   UNL     1      -1.832   3.303  -8.298  1.00  0.00     0.010 A 
ATOM     37  C   UNL     1      -0.933   3.030  -7.249  1.00  0.00    -0.014 A 
BRANCH  37  38
ATOM     38  C   UNL     1       0.152   2.034  -7.436  1.00  0.00     0.031 A 
ATOM     39  C   UNL     1       1.344   2.416  -8.273  1.00  0.00     0.074 A 
ATOM     40  C   UNL     1       0.082   0.814  -6.870  1.00  0.00     0.049 A 
ATOM     41  N   UNL     1       2.370   1.693  -8.637  1.00  0.00    -0.248 NA
ATOM     42  C   UNL     1       1.379   3.803  -8.766  1.00  0.00     0.031 C 
ATOM     43  C   UNL     1      -1.000   0.346  -6.004  1.00  0.00     0.029 A 
ATOM     44  N   UNL     1       0.933  -0.262  -6.955  1.00  0.00    -0.354 N 
ATOM     45  C   UNL     1       3.164   2.527  -9.417  1.00  0.00     0.074 A 
ATOM     46  C   UNL     1       2.491   3.806  -9.486  1.00  0.00     0.031 C 
ATOM     47  C   UNL     1      -0.759  -0.930  -5.657  1.00  0.00     0.029 A 
ATOM     48  C   UNL     1       0.466  -1.387  -6.312  1.00  0.00     0.049 A 
ATOM     49  H   UNL     1       1.794  -0.231  -7.430  1.00  0.00     0.167 HD
ATOM     50  C   UNL     1       4.344   2.246 -10.021  1.00  0.00     0.034 A 
ATOM     51  C   UNL     1       0.950  -2.647  -6.291  1.00  0.00     0.034 A 
ATOM     52  C   UNL     1       5.000   0.964  -9.942  1.00  0.00     0.049 A 
ATOM     53  C   UNL     1       2.230  -2.952  -7.040  1.00  0.00     0.074 A 
ATOM     54  C   UNL     1       6.221   0.592 -10.477  1.00  0.00     0.029 A 
ATOM     55  N   UNL     1       4.485  -0.160  -9.311  1.00  0.00    -0.354 N 
ATOM     56  N   UNL     1       2.992  -2.143  -7.743  1.00  0.00    -0.248 NA
ATOM     57  C   UNL     1       2.719  -4.337  -6.988  1.00  0.00     0.031 C 
ATOM     58  C   UNL     1       6.402  -0.775 -10.247  1.00  0.00     0.029 A 
ATOM     59  C   UNL     1       5.341  -1.236  -9.484  1.00  0.00     0.049 A 
ATOM     60  H   UNL     1       3.636  -0.188  -8.813  1.00  0.00     0.167 HD
ATOM     61  C   UNL     1       4.065  -2.917  -8.182  1.00  0.00     0.074 A 
ATOM     62  C   UNL     1       3.862  -4.248  -7.652  1.00  0.00     0.031 C 
ATOM     63  C   UNL     1       5.126  -2.561  -8.952  1.00  0.00     0.034 A 
BRANCH  50  64
ATOM     64  C   UNL     1       4.974   3.321 -10.871  1.00  0.00     0.023 A 
ATOM     65  C   UNL     1       5.465   4.519 -10.323  1.00  0.00     0.031 A 
ATOM     66  C   UNL     1       5.099   3.130 -12.259  1.00  0.00     0.131 A 
ATOM     67  C   UNL     1       6.019   5.496 -11.166  1.00  0.00     0.055 A 
ATOM     68  C   UNL     1       5.715   4.074 -13.081  1.00  0.00     0.041 A 
ATOM     69  F   UNL     1       4.625   2.016 -12.840  1.00  0.00    -0.206 F 
ATOM     70  C   UNL     1       6.172   5.270 -12.536  1.00  0.00     0.022 A 
BRANCH  67  71
ATOM     71  S   UNL     1       6.443   7.113 -10.462  1.00  0.00     0.124 S 
ATOM     72  O   UNL     1       5.151   7.561  -9.948  1.00  0.00    -0.237 OA
ATOM     73  O   UNL     1       7.444   6.769  -9.459  1.00  0.00    -0.237 OA
ATOM     74  O   UNL     1       6.944   7.866 -11.610  1.00  0.00    -0.744 OA
ENDBRANCH  67  71
ENDBRANCH  50  64
BRANCH  51  75
ATOM     75  C   UNL     1       0.200  -3.744  -5.606  1.00  0.00     0.023 A 
ATOM     76  C   UNL     1       0.781  -4.491  -4.567  1.00  0.00     0.031 A 
ATOM     77  C   UNL     1      -1.077  -4.130  -6.054  1.00  0.00     0.131 A 
ATOM     78  C   UNL     1       0.119  -5.623  -4.063  1.00  0.00     0.055 A 
ATOM     79  C   UNL     1      -1.763  -5.210  -5.497  1.00  0.00     0.041 A 
ATOM     80  F   UNL     1      -1.676  -3.465  -7.055  1.00  0.00    -0.206 F 
ATOM     81  C   UNL     1      -1.157  -5.976  -4.507  1.00  0.00     0.022 A 
BRANCH  78  82
ATOM     82  S   UNL     1       1.017  -6.720  -2.928  1.00  0.00     0.124 S 
ATOM     83  O   UNL     1       2.199  -7.053  -3.716  1.00  0.00    -0.237 OA
ATOM     84  O   UNL     1       1.241  -5.855  -1.775  1.00  0.00    -0.237 OA
ATOM     85  O   UNL     1       0.083  -7.822  -2.709  1.00  0.00    -0.744 OA
ENDBRANCH  78  82
ENDBRANCH  51  75
BRANCH  63  86
ATOM     86  C   UNL     1       6.177  -3.615  -9.216  1.00  0.00     0.023 A 
ATOM     87  C   UNL     1       5.904  -4.769  -9.972  1.00  0.00     0.031 A 
ATOM     88  C   UNL     1       7.476  -3.459  -8.698  1.00  0.00     0.131 A 
ATOM     89  C   UNL     1       6.897  -5.747 -10.139  1.00  0.00     0.055 A 
ATOM     90  C   UNL     1       8.479  -4.402  -8.926  1.00  0.00     0.041 A 
ATOM     91  F   UNL     1       7.796  -2.379  -7.967  1.00  0.00    -0.206 F 
ATOM     92  C   UNL     1       8.188  -5.561  -9.638  1.00  0.00     0.022 A 
BRANCH  89  93
ATOM     93  S   UNL     1       6.454  -7.313 -10.940  1.00  0.00     0.124 S 
ATOM     94  O   UNL     1       5.377  -7.798 -10.083  1.00  0.00    -0.237 OA
ATOM     95  O   UNL     1       6.059  -6.880 -12.276  1.00  0.00    -0.237 OA
ATOM     96  O   UNL     1       7.691  -8.090 -10.881  1.00  0.00    -0.744 OA
ENDBRANCH  89  93
ENDBRANCH  63  86
ENDBRANCH  37  38
ENDBRANCH  30  32
ENDBRANCH  29  30
ENDBRANCH  28  29
ENDBRANCH  27  28
ENDBRANCH  26  27
ENDBRANCH  25  26
ENDBRANCH   1  25
TORSDOF 23
