REMARK SMILES COc1ccccc1-c1nnc(S[C@@H](C)C(=O)OCCOCCOCCOC(=O)c2ccc(-c3c4nc(c(-c5cc(S(=O)(=O)[O-])ccc5F)c5ccc([nH]5)c(-c5cc(S(=O)(=O)[O-])ccc5F)c5nc(c(-c6cc(S(=O)(=O)[O-])ccc6F)c6ccc3[nH]6)C=C5)C=C4)cc2)n1-c1ccccc1
REMARK SMILES IDX 22 1 21 2 20 3 19 4 18 5 16 6 17 7 14 8 15 9 13 10 12 11
REMARK SMILES IDX 9 12 10 13 93 14 11 15 8 16 3 17 4 18 5 19 7 20 6 21 2 22
REMARK SMILES IDX 1 23 94 24 95 25 99 26 96 27 98 28 97 29 23 30 24 31 25 32
REMARK SMILES IDX 26 33 27 34 28 35 29 36 30 37 31 38 92 39 32 40 91 41 33 42
REMARK SMILES IDX 34 43 35 44 85 45 36 46 90 47 84 48 86 49 37 50 89 51 83 52
REMARK SMILES IDX 82 53 38 55 70 56 50 57 69 58 51 59 54 60 68 61 87 62 52 63
REMARK SMILES IDX 53 64 67 66 88 67 55 68 39 69 40 70 48 71 41 72 47 73 49 74
REMARK SMILES IDX 46 75 42 76 43 77 44 78 45 79 71 80 72 81 80 82 73 83 79 84
REMARK SMILES IDX 81 85 78 86 74 87 75 88 76 89 77 90 56 91 57 92 65 93 58 94
REMARK SMILES IDX 64 95 66 96 63 97 59 98 60 99 61 100 62 101
REMARK H PARENT 86 54 54 65
REMARK Flexibility Score: inf
ROOT
ATOM      1  C   UNL     1       7.229   0.273  -4.261  1.00  0.00     0.188 C 
ENDROOT
BRANCH   1   2
ATOM      2  O   UNL     1       7.223   1.592  -4.790  1.00  0.00    -0.376 OA
BRANCH   2   3
ATOM      3  C   UNL     1       6.144   2.443  -4.423  1.00  0.00     0.202 C 
BRANCH   3   4
ATOM      4  C   UNL     1       4.711   1.876  -4.415  1.00  0.00     0.261 C 
BRANCH   4   5
ATOM      5  O   UNL     1       4.486   0.733  -3.548  1.00  0.00    -0.462 OA
BRANCH   5   6
ATOM      6  C   UNL     1       3.914  -0.382  -4.065  1.00  0.00     0.319 C 
ATOM      7  O   UNL     1       3.523  -0.448  -5.229  1.00  0.00    -0.251 OA
BRANCH   6   8
ATOM      8  C   UNL     1       3.946  -1.618  -3.163  1.00  0.00     0.161 C 
ATOM      9  C   UNL     1       2.864  -2.660  -3.477  1.00  0.00     0.032 C 
BRANCH   8  10
ATOM     10  S   UNL     1       4.123  -1.581  -1.378  1.00  0.00    -0.071 SA
BRANCH  10  11
ATOM     11  C   UNL     1       3.655  -0.139  -0.570  1.00  0.00     0.196 A 
ATOM     12  C   UNL     1       2.703   1.665   0.229  1.00  0.00     0.173 A 
ATOM     13  N   UNL     1       3.612   1.276   1.096  1.00  0.00    -0.129 NA
ATOM     14  N   UNL     1       2.733   0.837  -0.892  1.00  0.00    -0.270 N 
ATOM     15  N   UNL     1       4.180   0.134   0.610  1.00  0.00    -0.122 NA
BRANCH  12  16
ATOM     16  C   UNL     1       1.742   2.738   0.436  1.00  0.00     0.062 A 
ATOM     17  C   UNL     1       0.357   2.563   0.254  1.00  0.00     0.129 A 
ATOM     18  C   UNL     1      -0.456   3.691   0.128  1.00  0.00     0.047 A 
ATOM     19  C   UNL     1       0.078   4.974   0.259  1.00  0.00     0.004 A 
ATOM     20  C   UNL     1       2.258   4.028   0.645  1.00  0.00     0.016 A 
ATOM     21  C   UNL     1       1.430   5.143   0.546  1.00  0.00     0.001 A 
BRANCH  17  22
ATOM     22  O   UNL     1      -0.277   1.373  -0.008  1.00  0.00    -0.496 OA
ATOM     23  C   UNL     1      -0.042   0.305   0.908  1.00  0.00     0.278 C 
ENDBRANCH  17  22
ENDBRANCH  12  16
BRANCH  14  24
ATOM     24  C   UNL     1       1.940   1.015  -2.050  1.00  0.00     0.050 A 
ATOM     25  C   UNL     1       1.196  -0.038  -2.573  1.00  0.00     0.027 A 
ATOM     26  C   UNL     1       1.940   2.262  -2.688  1.00  0.00     0.027 A 
ATOM     27  C   UNL     1       0.598   0.102  -3.825  1.00  0.00     0.002 A 
ATOM     28  C   UNL     1       1.342   2.396  -3.940  1.00  0.00     0.002 A 
ATOM     29  C   UNL     1       0.709   1.303  -4.525  1.00  0.00     0.000 A 
ENDBRANCH  14  24
ENDBRANCH  10  11
ENDBRANCH   8  10
ENDBRANCH   6   8
ENDBRANCH   5   6
ENDBRANCH   4   5
ENDBRANCH   3   4
ENDBRANCH   2   3
ENDBRANCH   1   2
BRANCH   1  30
ATOM     30  C   UNL     1       7.059   0.086  -2.737  1.00  0.00     0.188 C 
BRANCH  30  31
ATOM     31  O   UNL     1       6.454   1.185  -2.080  1.00  0.00    -0.376 OA
BRANCH  31  32
ATOM     32  C   UNL     1       7.112   1.897  -1.047  1.00  0.00     0.202 C 
BRANCH  32  33
ATOM     33  C   UNL     1       8.496   2.495  -1.303  1.00  0.00     0.261 C 
BRANCH  33  34
ATOM     34  O   UNL     1       9.303   1.734  -2.175  1.00  0.00    -0.460 OA
BRANCH  34  35
ATOM     35  C   UNL     1       9.805   0.606  -1.643  1.00  0.00     0.338 C 
ATOM     36  O   UNL     1       9.576   0.143  -0.532  1.00  0.00    -0.246 OA
BRANCH  35  37
ATOM     37  C   UNL     1      10.618  -0.033  -2.673  1.00  0.00     0.060 A 
ATOM     38  C   UNL     1      10.940  -1.383  -2.517  1.00  0.00     0.016 A 
ATOM     39  C   UNL     1      11.239   0.791  -3.619  1.00  0.00     0.016 A 
ATOM     40  C   UNL     1      12.100  -1.830  -3.102  1.00  0.00     0.010 A 
ATOM     41  C   UNL     1      12.410   0.359  -4.166  1.00  0.00     0.010 A 
ATOM     42  C   UNL     1      12.875  -0.901  -3.798  1.00  0.00    -0.014 A 
BRANCH  42  43
ATOM     43  C   UNL     1      14.218  -1.253  -4.184  1.00  0.00     0.031 A 
ATOM     44  C   UNL     1      14.236  -2.040  -5.427  1.00  0.00     0.074 A 
ATOM     45  C   UNL     1      15.280  -0.758  -3.518  1.00  0.00     0.049 A 
ATOM     46  N   UNL     1      14.446  -3.308  -5.535  1.00  0.00    -0.248 NA
ATOM     47  C   UNL     1      13.695  -1.419  -6.650  1.00  0.00     0.031 C 
ATOM     48  C   UNL     1      15.285   0.217  -2.422  1.00  0.00     0.029 A 
ATOM     49  N   UNL     1      16.604  -0.943  -3.752  1.00  0.00    -0.354 N 
ATOM     50  C   UNL     1      14.381  -3.556  -6.897  1.00  0.00     0.074 A 
ATOM     51  C   UNL     1      13.617  -2.478  -7.455  1.00  0.00     0.031 C 
ATOM     52  C   UNL     1      16.537   0.706  -2.264  1.00  0.00     0.029 A 
ATOM     53  C   UNL     1      17.438   0.009  -3.168  1.00  0.00     0.049 A 
ATOM     54  H   UNL     1      16.948  -1.691  -4.292  1.00  0.00     0.167 HD
ATOM     55  C   UNL     1      15.279  -4.395  -7.479  1.00  0.00     0.034 A 
ATOM     56  C   UNL     1      18.744   0.248  -3.484  1.00  0.00     0.034 A 
ATOM     57  C   UNL     1      15.913  -5.235  -6.480  1.00  0.00     0.049 A 
ATOM     58  C   UNL     1      19.246  -0.986  -4.151  1.00  0.00     0.074 A 
ATOM     59  C   UNL     1      15.438  -6.093  -5.504  1.00  0.00     0.029 A 
ATOM     60  N   UNL     1      17.210  -4.942  -6.114  1.00  0.00    -0.354 N 
ATOM     61  N   UNL     1      19.365  -2.130  -3.533  1.00  0.00    -0.248 NA
ATOM     62  C   UNL     1      19.102  -1.085  -5.598  1.00  0.00     0.031 C 
ATOM     63  C   UNL     1      16.281  -5.875  -4.375  1.00  0.00     0.029 A 
ATOM     64  C   UNL     1      17.292  -4.984  -4.743  1.00  0.00     0.049 A 
ATOM     65  H   UNL     1      17.951  -4.738  -6.730  1.00  0.00     0.167 HD
ATOM     66  C   UNL     1      18.855  -3.072  -4.415  1.00  0.00     0.074 A 
ATOM     67  C   UNL     1      18.795  -2.383  -5.705  1.00  0.00     0.031 C 
ATOM     68  C   UNL     1      18.237  -4.205  -3.960  1.00  0.00     0.034 A 
BRANCH  55  69
ATOM     69  C   UNL     1      15.889  -4.155  -8.845  1.00  0.00     0.023 A 
ATOM     70  C   UNL     1      16.817  -5.112  -9.287  1.00  0.00     0.031 A 
ATOM     71  C   UNL     1      15.850  -2.953  -9.594  1.00  0.00     0.131 A 
ATOM     72  C   UNL     1      17.725  -4.815 -10.316  1.00  0.00     0.055 A 
ATOM     73  C   UNL     1      16.710  -2.690 -10.662  1.00  0.00     0.041 A 
ATOM     74  F   UNL     1      15.049  -1.924  -9.301  1.00  0.00    -0.206 F 
ATOM     75  C   UNL     1      17.682  -3.608 -11.005  1.00  0.00     0.022 A 
BRANCH  72  76
ATOM     76  S   UNL     1      19.083  -5.972 -10.603  1.00  0.00     0.124 S 
ATOM     77  O   UNL     1      19.684  -6.045  -9.276  1.00  0.00    -0.237 OA
ATOM     78  O   UNL     1      18.368  -7.162 -11.055  1.00  0.00    -0.237 OA
ATOM     79  O   UNL     1      19.886  -5.302 -11.622  1.00  0.00    -0.744 OA
ENDBRANCH  72  76
ENDBRANCH  55  69
BRANCH  56  80
ATOM     80  C   UNL     1      19.431   1.575  -3.586  1.00  0.00     0.023 A 
ATOM     81  C   UNL     1      20.836   1.711  -3.701  1.00  0.00     0.031 A 
ATOM     82  C   UNL     1      18.673   2.745  -3.826  1.00  0.00     0.131 A 
ATOM     83  C   UNL     1      21.413   2.961  -4.045  1.00  0.00     0.055 A 
ATOM     84  C   UNL     1      19.247   3.973  -4.165  1.00  0.00     0.041 A 
ATOM     85  F   UNL     1      17.332   2.722  -3.831  1.00  0.00    -0.206 F 
ATOM     86  C   UNL     1      20.620   4.084  -4.289  1.00  0.00     0.022 A 
BRANCH  83  87
ATOM     87  S   UNL     1      23.216   3.137  -4.284  1.00  0.00     0.124 S 
ATOM     88  O   UNL     1      23.719   3.056  -2.918  1.00  0.00    -0.237 OA
ATOM     89  O   UNL     1      23.532   2.016  -5.161  1.00  0.00    -0.237 OA
ATOM     90  O   UNL     1      23.351   4.454  -4.908  1.00  0.00    -0.744 OA
ENDBRANCH  83  87
ENDBRANCH  56  80
BRANCH  68  91
ATOM     91  C   UNL     1      18.398  -4.576  -2.494  1.00  0.00     0.023 A 
ATOM     92  C   UNL     1      18.086  -3.741  -1.394  1.00  0.00     0.031 A 
ATOM     93  C   UNL     1      18.807  -5.892  -2.210  1.00  0.00     0.131 A 
ATOM     94  C   UNL     1      18.215  -4.229  -0.076  1.00  0.00     0.055 A 
ATOM     95  C   UNL     1      18.907  -6.378  -0.907  1.00  0.00     0.041 A 
ATOM     96  F   UNL     1      19.096  -6.746  -3.206  1.00  0.00    -0.206 F 
ATOM     97  C   UNL     1      18.621  -5.545   0.166  1.00  0.00     0.022 A 
BRANCH  94  98
ATOM     98  S   UNL     1      17.902  -3.149   1.360  1.00  0.00     0.124 S 
ATOM     99  O   UNL     1      18.557  -1.898   0.999  1.00  0.00    -0.237 OA
ATOM    100  O   UNL     1      16.443  -3.116   1.415  1.00  0.00    -0.237 OA
ATOM    101  O   UNL     1      18.535  -3.870   2.468  1.00  0.00    -0.744 OA
ENDBRANCH  94  98
ENDBRANCH  68  91
ENDBRANCH  42  43
ENDBRANCH  35  37
ENDBRANCH  34  35
ENDBRANCH  33  34
ENDBRANCH  32  33
ENDBRANCH  31  32
ENDBRANCH  30  31
ENDBRANCH   1  30
TORSDOF 25
