REMARK SMILES C#CCOc1ccccc1/C=C(\C#N)C(=O)OCCOCCOCCOC(=O)c1ccc(-c2c3nc(c(-c4cc(S(=O)(=O)[O-])ccc4F)c4ccc([nH]4)c(-c4cc(S(=O)(=O)[O-])ccc4F)c4nc(c(-c5cc(S(=O)(=O)[O-])ccc5F)c5ccc2[nH]5)C=C4)C=C3)cc1
REMARK SMILES IDX 21 1 20 2 19 3 18 4 17 5 15 6 16 7 12 8 11 9 10 10 5 11 6 12
REMARK SMILES IDX 7 13 9 14 8 15 4 16 3 17 2 18 1 19 13 20 14 21 22 22 23 23
REMARK SMILES IDX 24 24 25 25 26 26 27 27 28 28 29 29 30 30 91 31 31 32 90 33
REMARK SMILES IDX 32 34 33 35 34 36 84 37 35 38 89 39 83 40 85 41 36 42 88 43
REMARK SMILES IDX 82 44 81 45 37 47 69 48 49 49 68 50 50 51 53 52 67 53 86 54
REMARK SMILES IDX 51 55 52 56 66 58 87 59 54 60 38 61 39 62 47 63 40 64 46 65
REMARK SMILES IDX 48 66 45 67 41 68 42 69 43 70 44 71 70 72 71 73 79 74 72 75
REMARK SMILES IDX 78 76 80 77 77 78 73 79 74 80 75 81 76 82 55 83 56 84 64 85
REMARK SMILES IDX 57 86 63 87 65 88 62 89 58 90 59 91 60 92 61 93
REMARK H PARENT 85 46 53 57
REMARK Flexibility Score: inf
ROOT
ATOM      1  C   UNL     1       2.844  -0.630   2.344  1.00  0.00     0.188 C 
ENDROOT
BRANCH   1   2
ATOM      2  O   UNL     1       4.221  -0.920   2.462  1.00  0.00    -0.376 OA
BRANCH   2   3
ATOM      3  C   UNL     1       4.942  -0.952   1.245  1.00  0.00     0.202 C 
BRANCH   3   4
ATOM      4  C   UNL     1       5.025   0.327   0.363  1.00  0.00     0.261 C 
BRANCH   4   5
ATOM      5  O   UNL     1       3.924   1.272   0.433  1.00  0.00    -0.459 OA
BRANCH   5   6
ATOM      6  C   UNL     1       3.385   1.784  -0.723  1.00  0.00     0.348 C 
ATOM      7  O   UNL     1       3.709   1.439  -1.849  1.00  0.00    -0.245 OA
BRANCH   6   8
ATOM      8  C   UNL     1       2.228   2.711  -0.418  1.00  0.00     0.138 C 
ATOM      9  C   UNL     1       1.027   2.528  -1.048  1.00  0.00     0.039 C 
BRANCH   9  10
ATOM     10  C   UNL     1      -0.340   3.100  -0.754  1.00  0.00     0.018 A 
ATOM     11  C   UNL     1      -1.630   2.431  -0.772  1.00  0.00     0.128 A 
ATOM     12  C   UNL     1      -2.792   3.217  -0.673  1.00  0.00     0.047 A 
ATOM     13  C   UNL     1      -2.733   4.601  -0.501  1.00  0.00     0.004 A 
ATOM     14  C   UNL     1      -0.332   4.502  -0.560  1.00  0.00     0.012 A 
ATOM     15  C   UNL     1      -1.505   5.239  -0.423  1.00  0.00     0.001 A 
BRANCH  11  16
ATOM     16  O   UNL     1      -1.973   1.109  -1.098  1.00  0.00    -0.480 OA
BRANCH  16  17
ATOM     17  C   UNL     1      -1.804   0.009  -0.098  1.00  0.00     0.318 C 
BRANCH  17  18
ATOM     18  C   UNL     1      -0.284   0.009  -0.098  1.00  0.00    -0.065 C 
ATOM     19  C   UNL     1       1.020   0.009  -0.098  1.00  0.00     0.007 C 
ENDBRANCH  17  18
ENDBRANCH  16  17
ENDBRANCH  11  16
ENDBRANCH   9  10
BRANCH   8  20
ATOM     20  C   UNL     1       2.481   3.670   0.594  1.00  0.00     0.107 C 
ATOM     21  N   UNL     1       2.740   4.508   1.369  1.00  0.00    -0.192 NA
ENDBRANCH   8  20
ENDBRANCH   6   8
ENDBRANCH   5   6
ENDBRANCH   4   5
ENDBRANCH   3   4
ENDBRANCH   2   3
ENDBRANCH   1   2
BRANCH   1  22
ATOM     22  C   UNL     1       2.449   0.725   2.952  1.00  0.00     0.188 C 
BRANCH  22  23
ATOM     23  O   UNL     1       3.335   1.348   3.871  1.00  0.00    -0.376 OA
BRANCH  23  24
ATOM     24  C   UNL     1       4.063   0.524   4.766  1.00  0.00     0.202 C 
BRANCH  24  25
ATOM     25  C   UNL     1       3.307  -0.473   5.666  1.00  0.00     0.261 C 
BRANCH  25  26
ATOM     26  O   UNL     1       2.152  -1.133   5.111  1.00  0.00    -0.460 OA
BRANCH  26  27
ATOM     27  C   UNL     1       0.950  -0.617   5.480  1.00  0.00     0.338 C 
ATOM     28  O   UNL     1       0.770   0.333   6.223  1.00  0.00    -0.246 OA
BRANCH  27  29
ATOM     29  C   UNL     1      -0.160  -1.268   4.739  1.00  0.00     0.060 A 
ATOM     30  C   UNL     1      -1.002  -0.461   3.963  1.00  0.00     0.016 A 
ATOM     31  C   UNL     1      -0.458  -2.624   4.901  1.00  0.00     0.016 A 
ATOM     32  C   UNL     1      -2.151  -0.999   3.375  1.00  0.00     0.010 A 
ATOM     33  C   UNL     1      -1.617  -3.160   4.310  1.00  0.00     0.010 A 
ATOM     34  C   UNL     1      -2.480  -2.348   3.554  1.00  0.00    -0.014 A 
BRANCH  34  35
ATOM     35  C   UNL     1      -3.809  -2.842   3.092  1.00  0.00     0.031 A 
ATOM     36  C   UNL     1      -4.966  -2.807   4.054  1.00  0.00     0.074 A 
ATOM     37  C   UNL     1      -4.010  -3.256   1.826  1.00  0.00     0.049 A 
ATOM     38  N   UNL     1      -6.194  -3.227   3.892  1.00  0.00    -0.248 NA
ATOM     39  C   UNL     1      -4.698  -2.217   5.374  1.00  0.00     0.031 C 
ATOM     40  C   UNL     1      -2.994  -3.277   0.777  1.00  0.00     0.029 A 
ATOM     41  N   UNL     1      -5.140  -3.734   1.201  1.00  0.00    -0.354 N 
ATOM     42  C   UNL     1      -6.847  -2.959   5.091  1.00  0.00     0.074 A 
ATOM     43  C   UNL     1      -5.869  -2.359   5.975  1.00  0.00     0.031 C 
ATOM     44  C   UNL     1      -3.548  -3.728  -0.362  1.00  0.00     0.029 A 
ATOM     45  C   UNL     1      -4.940  -4.101  -0.112  1.00  0.00     0.049 A 
ATOM     46  H   UNL     1      -6.012  -3.808   1.653  1.00  0.00     0.167 HD
ATOM     47  C   UNL     1      -8.140  -3.195   5.426  1.00  0.00     0.034 A 
ATOM     48  C   UNL     1      -5.768  -4.704  -0.995  1.00  0.00     0.034 A 
ATOM     49  C   UNL     1      -9.101  -3.817   4.549  1.00  0.00     0.049 A 
ATOM     50  C   UNL     1      -7.172  -5.069  -0.553  1.00  0.00     0.074 A 
ATOM     51  C   UNL     1     -10.427  -4.122   4.805  1.00  0.00     0.029 A 
ATOM     52  N   UNL     1      -8.842  -4.242   3.252  1.00  0.00    -0.354 N 
ATOM     53  N   UNL     1      -7.767  -4.834   0.595  1.00  0.00    -0.248 NA
ATOM     54  C   UNL     1      -8.013  -5.786  -1.523  1.00  0.00     0.031 C 
ATOM     55  C   UNL     1     -10.944  -4.801   3.698  1.00  0.00     0.029 A 
ATOM     56  C   UNL     1      -9.973  -4.835   2.711  1.00  0.00     0.049 A 
ATOM     57  H   UNL     1      -7.981  -4.137   2.786  1.00  0.00     0.167 HD
ATOM     58  C   UNL     1      -9.060  -5.342   0.465  1.00  0.00     0.074 A 
ATOM     59  C   UNL     1      -9.164  -5.877  -0.875  1.00  0.00     0.031 C 
ATOM     60  C   UNL     1     -10.071  -5.363   1.371  1.00  0.00     0.034 A 
BRANCH  47  61
ATOM     61  C   UNL     1      -8.569  -2.838   6.827  1.00  0.00     0.023 A 
ATOM     62  C   UNL     1      -8.601  -1.506   7.275  1.00  0.00     0.031 A 
ATOM     63  C   UNL     1      -8.941  -3.848   7.732  1.00  0.00     0.131 A 
ATOM     64  C   UNL     1      -8.939  -1.226   8.607  1.00  0.00     0.055 A 
ATOM     65  C   UNL     1      -9.354  -3.556   9.032  1.00  0.00     0.041 A 
ATOM     66  F   UNL     1      -8.904  -5.140   7.367  1.00  0.00    -0.206 F 
ATOM     67  C   UNL     1      -9.342  -2.239   9.481  1.00  0.00     0.022 A 
BRANCH  64  68
ATOM     68  S   UNL     1      -8.716   0.465   9.220  1.00  0.00     0.124 S 
ATOM     69  O   UNL     1      -7.288   0.673   8.995  1.00  0.00    -0.237 OA
ATOM     70  O   UNL     1      -9.616   1.232   8.366  1.00  0.00    -0.237 OA
ATOM     71  O   UNL     1      -9.113   0.376  10.624  1.00  0.00    -0.744 OA
ENDBRANCH  64  68
ENDBRANCH  47  61
BRANCH  48  72
ATOM     72  C   UNL     1      -5.296  -5.089  -2.363  1.00  0.00     0.023 A 
ATOM     73  C   UNL     1      -5.955  -4.635  -3.519  1.00  0.00     0.031 A 
ATOM     74  C   UNL     1      -4.249  -6.014  -2.532  1.00  0.00     0.131 A 
ATOM     75  C   UNL     1      -5.608  -5.157  -4.777  1.00  0.00     0.055 A 
ATOM     76  C   UNL     1      -3.859  -6.473  -3.792  1.00  0.00     0.041 A 
ATOM     77  F   UNL     1      -3.592  -6.500  -1.467  1.00  0.00    -0.206 F 
ATOM     78  C   UNL     1      -4.553  -6.059  -4.923  1.00  0.00     0.022 A 
BRANCH  75  79
ATOM     79  S   UNL     1      -6.651  -4.749  -6.207  1.00  0.00     0.124 S 
ATOM     80  O   UNL     1      -7.960  -5.208  -5.756  1.00  0.00    -0.237 OA
ATOM     81  O   UNL     1      -6.474  -3.305  -6.308  1.00  0.00    -0.237 OA
ATOM     82  O   UNL     1      -6.056  -5.526  -7.293  1.00  0.00    -0.744 OA
ENDBRANCH  75  79
ENDBRANCH  48  72
BRANCH  60  83
ATOM     83  C   UNL     1     -11.402  -5.925   0.922  1.00  0.00     0.023 A 
ATOM     84  C   UNL     1     -11.566  -7.278   0.576  1.00  0.00     0.031 A 
ATOM     85  C   UNL     1     -12.528  -5.084   0.841  1.00  0.00     0.131 A 
ATOM     86  C   UNL     1     -12.809  -7.737   0.113  1.00  0.00     0.055 A 
ATOM     87  C   UNL     1     -13.779  -5.562   0.447  1.00  0.00     0.041 A 
ATOM     88  F   UNL     1     -12.433  -3.782   1.154  1.00  0.00    -0.206 F 
ATOM     89  C   UNL     1     -13.921  -6.892   0.066  1.00  0.00     0.022 A 
BRANCH  86  90
ATOM     90  S   UNL     1     -12.933  -9.431  -0.524  1.00  0.00     0.124 S 
ATOM     91  O   UNL     1     -11.935  -9.429  -1.588  1.00  0.00    -0.237 OA
ATOM     92  O   UNL     1     -12.608 -10.231   0.653  1.00  0.00    -0.237 OA
ATOM     93  O   UNL     1     -14.320  -9.528  -0.974  1.00  0.00    -0.744 OA
ENDBRANCH  86  90
ENDBRANCH  60  83
ENDBRANCH  34  35
ENDBRANCH  27  29
ENDBRANCH  26  27
ENDBRANCH  25  26
ENDBRANCH  24  25
ENDBRANCH  23  24
ENDBRANCH  22  23
ENDBRANCH   1  22
TORSDOF 25
