REMARK SMILES O=C(OCCOCCOCCOC(=O)[C@@H]1[C@H](C(=O)NCc2ccncc2)[C@H]2C=C[C@@H]1O2)c1ccc(-c2c3nc(c(-c4cc(S(=O)(=O)[O-])ccc4F)c4ccc([nH]4)c(-c4cc(S(=O)(=O)[O-])ccc4F)c4nc(c(-c5cc(S(=O)(=O)[O-])ccc5F)c5ccc2[nH]5)C=C4)C=C3)cc1
REMARK SMILES IDX 7 1 6 2 5 3 4 4 3 5 2 6 1 7 32 8 33 9 94 10 34 11 93 12
REMARK SMILES IDX 35 13 36 14 37 15 87 16 38 17 92 18 86 19 88 20 39 21 91 22
REMARK SMILES IDX 85 23 84 24 40 26 72 27 52 28 71 29 53 30 56 31 70 32 89 33
REMARK SMILES IDX 54 34 55 35 69 37 90 38 57 39 41 40 42 41 50 42 43 43 49 44
REMARK SMILES IDX 51 45 48 46 44 47 45 48 46 49 47 50 73 51 74 52 82 53 75 54
REMARK SMILES IDX 81 55 83 56 80 57 76 58 77 59 78 60 79 61 58 62 59 63 67 64
REMARK SMILES IDX 60 65 66 66 68 67 65 68 61 69 62 70 63 71 64 72 8 73 9 74
REMARK SMILES IDX 10 75 11 76 12 77 13 78 14 79 15 80 16 81 30 82 27 83 29 84
REMARK SMILES IDX 31 85 28 86 17 87 18 88 19 89 20 91 21 92 22 93 26 94 23 95
REMARK SMILES IDX 25 96 24 97
REMARK H PARENT 88 25 56 36 19 90
REMARK Flexibility Score: inf
ROOT
ATOM      1  C   UNL     1       1.776  -0.992   0.551  1.00  0.00     0.188 C 
ENDROOT
BRANCH   1   2
ATOM      2  O   UNL     1       2.733  -0.011   0.143  1.00  0.00    -0.376 OA
BRANCH   2   3
ATOM      3  C   UNL     1       4.105   0.052   0.516  1.00  0.00     0.202 C 
BRANCH   3   4
ATOM      4  C   UNL     1       4.393   0.475   1.943  1.00  0.00     0.261 C 
BRANCH   4   5
ATOM      5  O   UNL     1       3.923   1.780   2.337  1.00  0.00    -0.460 OA
BRANCH   5   6
ATOM      6  C   UNL     1       2.973   2.411   1.603  1.00  0.00     0.338 C 
ATOM      7  O   UNL     1       1.838   2.590   2.022  1.00  0.00    -0.246 OA
BRANCH   6   8
ATOM      8  C   UNL     1       3.444   2.939   0.283  1.00  0.00     0.060 A 
ATOM      9  C   UNL     1       4.797   2.892  -0.102  1.00  0.00     0.016 A 
ATOM     10  C   UNL     1       2.490   3.418  -0.622  1.00  0.00     0.016 A 
ATOM     11  C   UNL     1       5.176   3.184  -1.409  1.00  0.00     0.010 A 
ATOM     12  C   UNL     1       2.894   3.885  -1.875  1.00  0.00     0.010 A 
ATOM     13  C   UNL     1       4.246   3.797  -2.254  1.00  0.00    -0.014 A 
BRANCH  13  14
ATOM     14  C   UNL     1       4.790   4.793  -3.208  1.00  0.00     0.031 A 
ATOM     15  C   UNL     1       5.326   6.037  -2.577  1.00  0.00     0.074 A 
ATOM     16  C   UNL     1       4.883   4.600  -4.532  1.00  0.00     0.049 A 
ATOM     17  N   UNL     1       5.988   7.008  -3.129  1.00  0.00    -0.248 NA
ATOM     18  C   UNL     1       5.188   6.151  -1.114  1.00  0.00     0.031 C 
ATOM     19  C   UNL     1       4.622   3.336  -5.180  1.00  0.00     0.029 A 
ATOM     20  N   UNL     1       5.223   5.421  -5.569  1.00  0.00    -0.354 N 
ATOM     21  C   UNL     1       6.415   7.795  -2.073  1.00  0.00     0.074 A 
ATOM     22  C   UNL     1       5.934   7.202  -0.852  1.00  0.00     0.031 C 
ATOM     23  C   UNL     1       4.671   3.471  -6.513  1.00  0.00     0.029 A 
ATOM     24  C   UNL     1       5.019   4.850  -6.809  1.00  0.00     0.049 A 
ATOM     25  H   UNL     1       5.578   6.331  -5.445  1.00  0.00     0.167 HD
ATOM     26  C   UNL     1       7.129   8.937  -2.133  1.00  0.00     0.034 A 
ATOM     27  C   UNL     1       5.107   5.391  -8.039  1.00  0.00     0.034 A 
ATOM     28  C   UNL     1       7.388   9.587  -3.385  1.00  0.00     0.049 A 
ATOM     29  C   UNL     1       5.654   6.789  -8.097  1.00  0.00     0.074 A 
ATOM     30  C   UNL     1       7.934  10.830  -3.614  1.00  0.00     0.029 A 
ATOM     31  N   UNL     1       7.035   9.059  -4.628  1.00  0.00    -0.354 N 
ATOM     32  N   UNL     1       6.033   7.549  -7.092  1.00  0.00    -0.248 NA
ATOM     33  C   UNL     1       5.837   7.391  -9.418  1.00  0.00     0.031 C 
ATOM     34  C   UNL     1       7.817  11.096  -4.982  1.00  0.00     0.029 A 
ATOM     35  C   UNL     1       7.307   9.973  -5.625  1.00  0.00     0.049 A 
ATOM     36  H   UNL     1       6.649   8.165  -4.772  1.00  0.00     0.167 HD
ATOM     37  C   UNL     1       6.557   8.699  -7.657  1.00  0.00     0.074 A 
ATOM     38  C   UNL     1       6.419   8.541  -9.096  1.00  0.00     0.031 C 
ATOM     39  C   UNL     1       7.127   9.770  -7.048  1.00  0.00     0.034 A 
BRANCH  26  40
ATOM     40  C   UNL     1       7.441   9.570  -0.804  1.00  0.00     0.023 A 
ATOM     41  C   UNL     1       8.228   8.899   0.155  1.00  0.00     0.031 A 
ATOM     42  C   UNL     1       6.755  10.728  -0.406  1.00  0.00     0.131 A 
ATOM     43  C   UNL     1       8.207   9.328   1.491  1.00  0.00     0.055 A 
ATOM     44  C   UNL     1       6.827  11.208   0.901  1.00  0.00     0.041 A 
ATOM     45  F   UNL     1       5.938  11.366  -1.259  1.00  0.00    -0.206 F 
ATOM     46  C   UNL     1       7.536  10.494   1.865  1.00  0.00     0.022 A 
BRANCH  43  47
ATOM     47  S   UNL     1       8.853   8.208   2.769  1.00  0.00     0.124 S 
ATOM     48  O   UNL     1       7.997   7.037   2.595  1.00  0.00    -0.237 OA
ATOM     49  O   UNL     1      10.247   8.043   2.373  1.00  0.00    -0.237 OA
ATOM     50  O   UNL     1       8.640   8.947   4.012  1.00  0.00    -0.744 OA
ENDBRANCH  43  47
ENDBRANCH  26  40
BRANCH  27  51
ATOM     51  C   UNL     1       4.662   4.633  -9.247  1.00  0.00     0.023 A 
ATOM     52  C   UNL     1       5.543   4.259 -10.274  1.00  0.00     0.031 A 
ATOM     53  C   UNL     1       3.307   4.267  -9.388  1.00  0.00     0.131 A 
ATOM     54  C   UNL     1       5.059   3.566 -11.401  1.00  0.00     0.055 A 
ATOM     55  C   UNL     1       2.837   3.551 -10.493  1.00  0.00     0.041 A 
ATOM     56  F   UNL     1       2.414   4.591  -8.439  1.00  0.00    -0.206 F 
ATOM     57  C   UNL     1       3.714   3.202 -11.512  1.00  0.00     0.022 A 
BRANCH  54  58
ATOM     58  S   UNL     1       6.200   3.190 -12.764  1.00  0.00     0.124 S 
ATOM     59  O   UNL     1       6.708   4.514 -13.103  1.00  0.00    -0.237 OA
ATOM     60  O   UNL     1       7.145   2.281 -12.124  1.00  0.00    -0.237 OA
ATOM     61  O   UNL     1       5.337   2.577 -13.773  1.00  0.00    -0.744 OA
ENDBRANCH  54  58
ENDBRANCH  27  51
BRANCH  39  62
ATOM     62  C   UNL     1       7.688  10.834  -7.944  1.00  0.00     0.023 A 
ATOM     63  C   UNL     1       6.860  11.657  -8.720  1.00  0.00     0.031 A 
ATOM     64  C   UNL     1       9.075  11.062  -7.960  1.00  0.00     0.131 A 
ATOM     65  C   UNL     1       7.435  12.658  -9.511  1.00  0.00     0.055 A 
ATOM     66  C   UNL     1       9.633  12.105  -8.691  1.00  0.00     0.041 A 
ATOM     67  F   UNL     1       9.903  10.291  -7.234  1.00  0.00    -0.206 F 
ATOM     68  C   UNL     1       8.811  12.906  -9.479  1.00  0.00     0.022 A 
BRANCH  65  69
ATOM     69  S   UNL     1       6.366  13.584 -10.640  1.00  0.00     0.124 S 
ATOM     70  O   UNL     1       5.849  12.524 -11.500  1.00  0.00    -0.237 OA
ATOM     71  O   UNL     1       5.401  14.194  -9.730  1.00  0.00    -0.237 OA
ATOM     72  O   UNL     1       7.283  14.518 -11.289  1.00  0.00    -0.744 OA
ENDBRANCH  65  69
ENDBRANCH  39  62
ENDBRANCH  13  14
ENDBRANCH   6   8
ENDBRANCH   5   6
ENDBRANCH   4   5
ENDBRANCH   3   4
ENDBRANCH   2   3
ENDBRANCH   1   2
BRANCH   1  73
ATOM     73  C   UNL     1       1.335  -2.193  -0.425  1.00  0.00     0.188 C 
BRANCH  73  74
ATOM     74  O   UNL     1       2.210  -3.498  -0.735  1.00  0.00    -0.376 OA
BRANCH  74  75
ATOM     75  C   UNL     1       3.832  -4.166  -1.711  1.00  0.00     0.202 C 
BRANCH  75  76
ATOM     76  C   UNL     1       4.457  -3.832  -3.348  1.00  0.00     0.261 C 
BRANCH  76  77
ATOM     77  O   UNL     1       4.164  -2.627  -4.138  1.00  0.00    -0.463 OA
BRANCH  77  78
ATOM     78  C   UNL     1       3.300  -2.576  -5.187  1.00  0.00     0.312 C 
ATOM     79  O   UNL     1       2.806  -3.584  -5.684  1.00  0.00    -0.252 OA
BRANCH  78  80
ATOM     80  C   UNL     1       2.867  -1.154  -5.636  1.00  0.00     0.147 C 
ATOM     81  C   UNL     1       3.588   0.116  -5.122  1.00  0.00     0.128 C 
ATOM     82  C   UNL     1       1.375  -0.786  -5.327  1.00  0.00     0.157 C 
ATOM     83  C   UNL     1       2.409   0.991  -4.604  1.00  0.00     0.155 C 
ATOM     84  C   UNL     1       0.887   0.366  -6.166  1.00  0.00     0.004 C 
ATOM     85  O   UNL     1       1.481  -0.012  -4.105  1.00  0.00    -0.365 OA
ATOM     86  C   UNL     1       1.537   1.458  -5.730  1.00  0.00     0.004 C 
BRANCH  81  87
ATOM     87  C   UNL     1       4.789  -0.031  -4.168  1.00  0.00     0.227 C 
ATOM     88  O   UNL     1       5.931   0.188  -4.578  1.00  0.00    -0.275 OA
ATOM     89  N   UNL     1       4.658  -0.430  -2.869  1.00  0.00    -0.352 N 
ATOM     90  H   UNL     1       5.468  -0.449  -2.309  1.00  0.00     0.163 HD
BRANCH  89  91
ATOM     91  C   UNL     1       3.425  -0.819  -2.272  1.00  0.00     0.151 C 
BRANCH  91  92
ATOM     92  C   UNL     1       3.291  -2.182  -1.658  1.00  0.00    -0.026 A 
ATOM     93  C   UNL     1       3.854  -2.802  -0.033  1.00  0.00     0.025 A 
ATOM     94  C   UNL     1       2.146  -3.268  -2.623  1.00  0.00     0.025 A 
ATOM     95  C   UNL     1       3.349  -4.426   0.476  1.00  0.00     0.111 A 
ATOM     96  C   UNL     1       1.758  -4.870  -1.999  1.00  0.00     0.111 A 
ATOM     97  N   UNL     1       2.348  -5.452  -0.480  1.00  0.00    -0.265 NA
ENDBRANCH  91  92
ENDBRANCH  89  91
ENDBRANCH  81  87
ENDBRANCH  78  80
ENDBRANCH  77  78
ENDBRANCH  76  77
ENDBRANCH  75  76
ENDBRANCH  74  75
ENDBRANCH  73  74
ENDBRANCH   1  73
TORSDOF 23
