REMARK SMILES CCCCCCNC(=O)Oc1cccc(-c2ccc(CC(=O)OCCOCCOCCOC(=O)c3ccc(-c4c5nc(c(-c6cc(S(=O)(=O)[O-])ccc6F)c6ccc([nH]6)c(-c6cc(S(=O)(=O)[O-])ccc6F)c6nc(c(-c7cc(S(=O)(=O)[O-])ccc7F)c7ccc4[nH]7)C=C6)C=C5)cc3)cc2F)c1
REMARK SMILES IDX 24 1 23 2 21 3 22 4 20 5 19 6 16 7 17 8 99 9 18 10 98 11
REMARK SMILES IDX 100 12 15 13 11 14 12 15 101 16 13 17 14 18 10 19 8 20 7 21
REMARK SMILES IDX 9 23 6 24 5 25 4 26 3 27 2 28 1 29 25 30 26 31 27 32 28 33
REMARK SMILES IDX 29 34 30 35 31 36 32 37 33 38 34 39 35 40 36 41 97 42 37 43
REMARK SMILES IDX 96 44 38 45 39 46 40 47 90 48 41 49 95 50 89 51 91 52 42 53
REMARK SMILES IDX 94 54 88 55 87 56 43 58 75 59 55 60 74 61 56 62 59 63 73 64
REMARK SMILES IDX 92 65 57 66 58 67 72 69 93 70 60 71 44 72 45 73 53 74 46 75
REMARK SMILES IDX 52 76 54 77 51 78 47 79 48 80 49 81 50 82 76 83 77 84 85 85
REMARK SMILES IDX 78 86 84 87 86 88 83 89 79 90 80 91 81 92 82 93 61 94 62 95
REMARK SMILES IDX 70 96 63 97 69 98 71 99 68 100 64 101 65 102 66 103 67 104
REMARK H PARENT 7 22 91 57 59 68
REMARK Flexibility Score: inf
ROOT
ATOM      1  C   UNL     1      -7.093 -11.966 -10.116  1.00  0.00     0.261 C 
ENDROOT
BRANCH   1   2
ATOM      2  O   UNL     1      -6.189 -11.033  -9.485  1.00  0.00    -0.463 OA
BRANCH   2   3
ATOM      3  C   UNL     1      -4.921 -11.474  -9.292  1.00  0.00     0.310 C 
ATOM      4  O   UNL     1      -4.553 -12.619  -9.542  1.00  0.00    -0.252 OA
BRANCH   3   5
ATOM      5  C   UNL     1      -3.953 -10.466  -8.713  1.00  0.00     0.158 C 
BRANCH   5   6
ATOM      6  C   UNL     1      -4.346  -9.020  -8.483  1.00  0.00    -0.034 A 
ATOM      7  C   UNL     1      -4.812  -6.260  -7.920  1.00  0.00     0.018 A 
ATOM      8  C   UNL     1      -4.153  -6.657  -9.091  1.00  0.00     0.012 A 
ATOM      9  C   UNL     1      -5.237  -7.269  -7.046  1.00  0.00     0.131 A 
ATOM     10  C   UNL     1      -3.914  -8.014  -9.363  1.00  0.00     0.005 A 
ATOM     11  C   UNL     1      -5.022  -8.627  -7.321  1.00  0.00     0.044 A 
ATOM     12  F   UNL     1      -5.845  -6.946  -5.893  1.00  0.00    -0.206 F 
BRANCH   7  13
ATOM     13  C   UNL     1      -5.007  -4.836  -7.615  1.00  0.00    -0.012 A 
ATOM     14  C   UNL     1      -4.283  -2.787  -6.527  1.00  0.00     0.133 A 
ATOM     15  C   UNL     1      -5.367  -2.090  -7.054  1.00  0.00     0.047 A 
ATOM     16  C   UNL     1      -4.108  -4.150  -6.784  1.00  0.00     0.056 A 
ATOM     17  C   UNL     1      -6.267  -2.759  -7.881  1.00  0.00     0.004 A 
ATOM     18  C   UNL     1      -6.085  -4.119  -8.164  1.00  0.00     0.009 A 
BRANCH  14  19
ATOM     19  O   UNL     1      -3.430  -2.098  -5.651  1.00  0.00    -0.410 OA
BRANCH  19  20
ATOM     20  C   UNL     1      -2.086  -2.071  -5.997  1.00  0.00     0.412 C 
ATOM     21  N   UNL     1      -1.296  -1.452  -5.067  1.00  0.00    -0.321 N 
ATOM     22  H   UNL     1      -0.337  -1.390  -5.281  1.00  0.00     0.167 HD
ATOM     23  O   UNL     1      -1.593  -2.538  -7.015  1.00  0.00    -0.224 OA
BRANCH  21  24
ATOM     24  C   UNL     1      -1.708  -0.878  -3.804  1.00  0.00     0.119 C 
BRANCH  24  25
ATOM     25  C   UNL     1      -1.094  -1.615  -2.613  1.00  0.00     0.021 C 
BRANCH  25  26
ATOM     26  C   UNL     1       0.438  -1.553  -2.533  1.00  0.00     0.002 C 
BRANCH  26  27
ATOM     27  C   UNL     1       1.041  -0.147  -2.451  1.00  0.00    -0.000 C 
BRANCH  27  28
ATOM     28  C   UNL     1       0.574   0.702  -1.266  1.00  0.00    -0.003 C 
ATOM     29  C   UNL     1       0.957   0.116   0.084  1.00  0.00     0.004 C 
ENDBRANCH  27  28
ENDBRANCH  26  27
ENDBRANCH  25  26
ENDBRANCH  24  25
ENDBRANCH  21  24
ENDBRANCH  19  20
ENDBRANCH  14  19
ENDBRANCH   7  13
ENDBRANCH   5   6
ENDBRANCH   3   5
ENDBRANCH   2   3
ENDBRANCH   1   2
BRANCH   1  30
ATOM     30  C   UNL     1      -7.700 -11.447 -11.421  1.00  0.00     0.202 C 
BRANCH  30  31
ATOM     31  O   UNL     1      -6.772 -11.014 -12.402  1.00  0.00    -0.376 OA
BRANCH  31  32
ATOM     32  C   UNL     1      -6.050  -9.805 -12.174  1.00  0.00     0.188 C 
BRANCH  32  33
ATOM     33  C   UNL     1      -6.674  -8.708 -11.296  1.00  0.00     0.188 C 
BRANCH  33  34
ATOM     34  O   UNL     1      -8.061  -8.531 -11.559  1.00  0.00    -0.376 OA
BRANCH  34  35
ATOM     35  C   UNL     1      -8.442  -7.181 -11.773  1.00  0.00     0.202 C 
BRANCH  35  36
ATOM     36  C   UNL     1      -8.402  -6.869 -13.270  1.00  0.00     0.261 C 
BRANCH  36  37
ATOM     37  O   UNL     1      -7.111  -7.049 -13.885  1.00  0.00    -0.460 OA
BRANCH  37  38
ATOM     38  C   UNL     1      -6.125  -6.218 -13.472  1.00  0.00     0.338 C 
ATOM     39  O   UNL     1      -6.217  -5.345 -12.629  1.00  0.00    -0.246 OA
BRANCH  38  40
ATOM     40  C   UNL     1      -4.855  -6.652 -14.094  1.00  0.00     0.060 A 
ATOM     41  C   UNL     1      -3.750  -6.904 -13.272  1.00  0.00     0.016 A 
ATOM     42  C   UNL     1      -4.742  -6.772 -15.480  1.00  0.00     0.016 A 
ATOM     43  C   UNL     1      -2.519  -7.252 -13.836  1.00  0.00     0.010 A 
ATOM     44  C   UNL     1      -3.506  -7.106 -16.044  1.00  0.00     0.010 A 
ATOM     45  C   UNL     1      -2.379  -7.321 -15.229  1.00  0.00    -0.014 A 
BRANCH  45  46
ATOM     46  C   UNL     1      -1.032  -7.447 -15.849  1.00  0.00     0.031 A 
ATOM     47  C   UNL     1      -0.381  -6.212 -16.413  1.00  0.00     0.074 A 
ATOM     48  C   UNL     1      -0.392  -8.629 -15.914  1.00  0.00     0.049 A 
ATOM     49  N   UNL     1       0.725  -6.091 -17.100  1.00  0.00    -0.248 NA
ATOM     50  C   UNL     1      -1.083  -4.942 -16.170  1.00  0.00     0.031 C 
ATOM     51  C   UNL     1      -0.883  -9.888 -15.357  1.00  0.00     0.029 A 
ATOM     52  N   UNL     1       0.809  -8.964 -16.492  1.00  0.00    -0.354 N 
ATOM     53  C   UNL     1       0.848  -4.734 -17.385  1.00  0.00     0.074 A 
ATOM     54  C   UNL     1      -0.317  -4.082 -16.824  1.00  0.00     0.031 C 
ATOM     55  C   UNL     1       0.004 -10.861 -15.632  1.00  0.00     0.029 A 
ATOM     56  C   UNL     1       1.100 -10.308 -16.428  1.00  0.00     0.049 A 
ATOM     57  H   UNL     1       1.406  -8.304 -16.913  1.00  0.00     0.167 HD
ATOM     58  C   UNL     1       1.841  -4.091 -18.049  1.00  0.00     0.034 A 
ATOM     59  C   UNL     1       2.110 -11.014 -16.978  1.00  0.00     0.034 A 
ATOM     60  C   UNL     1       2.993  -4.753 -18.612  1.00  0.00     0.049 A 
ATOM     61  C   UNL     1       3.154 -10.292 -17.801  1.00  0.00     0.074 A 
ATOM     62  C   UNL     1       4.057  -4.194 -19.299  1.00  0.00     0.029 A 
ATOM     63  N   UNL     1       3.228  -6.121 -18.566  1.00  0.00    -0.354 N 
ATOM     64  N   UNL     1       3.253  -9.011 -18.076  1.00  0.00    -0.248 NA
ATOM     65  C   UNL     1       4.223 -11.113 -18.387  1.00  0.00     0.031 C 
ATOM     66  C   UNL     1       4.894  -5.229 -19.732  1.00  0.00     0.029 A 
ATOM     67  C   UNL     1       4.401  -6.427 -19.242  1.00  0.00     0.049 A 
ATOM     68  H   UNL     1       2.647  -6.779 -18.119  1.00  0.00     0.167 HD
ATOM     69  C   UNL     1       4.414  -8.873 -18.836  1.00  0.00     0.074 A 
ATOM     70  C   UNL     1       4.985 -10.197 -18.966  1.00  0.00     0.031 C 
ATOM     71  C   UNL     1       4.961  -7.752 -19.373  1.00  0.00     0.034 A 
BRANCH  58  72
ATOM     72  C   UNL     1       1.687  -2.602 -18.249  1.00  0.00     0.023 A 
ATOM     73  C   UNL     1       1.663  -1.704 -17.167  1.00  0.00     0.031 A 
ATOM     74  C   UNL     1       1.529  -2.075 -19.544  1.00  0.00     0.131 A 
ATOM     75  C   UNL     1       1.411  -0.343 -17.393  1.00  0.00     0.055 A 
ATOM     76  C   UNL     1       1.362  -0.708 -19.768  1.00  0.00     0.041 A 
ATOM     77  F   UNL     1       1.519  -2.885 -20.615  1.00  0.00    -0.206 F 
ATOM     78  C   UNL     1       1.286   0.166 -18.688  1.00  0.00     0.022 A 
BRANCH  75  79
ATOM     79  S   UNL     1       1.097   0.730 -15.965  1.00  0.00     0.124 S 
ATOM     80  O   UNL     1      -0.049   0.068 -15.345  1.00  0.00    -0.237 OA
ATOM     81  O   UNL     1       2.354   0.655 -15.231  1.00  0.00    -0.237 OA
ATOM     82  O   UNL     1       0.803   2.028 -16.569  1.00  0.00    -0.744 OA
ENDBRANCH  75  79
ENDBRANCH  58  72
BRANCH  59  83
ATOM     83  C   UNL     1       2.167 -12.499 -16.829  1.00  0.00     0.023 A 
ATOM     84  C   UNL     1       3.244 -13.128 -16.183  1.00  0.00     0.031 A 
ATOM     85  C   UNL     1       1.175 -13.318 -17.399  1.00  0.00     0.131 A 
ATOM     86  C   UNL     1       3.329 -14.530 -16.165  1.00  0.00     0.055 A 
ATOM     87  C   UNL     1       1.234 -14.711 -17.326  1.00  0.00     0.041 A 
ATOM     88  F   UNL     1       0.128 -12.773 -18.039  1.00  0.00    -0.206 F 
ATOM     89  C   UNL     1       2.324 -15.325 -16.718  1.00  0.00     0.022 A 
BRANCH  86  90
ATOM     90  S   UNL     1       4.827 -15.302 -15.492  1.00  0.00     0.124 S 
ATOM     91  O   UNL     1       5.864 -14.729 -16.341  1.00  0.00    -0.237 OA
ATOM     92  O   UNL     1       4.807 -14.846 -14.106  1.00  0.00    -0.237 OA
ATOM     93  O   UNL     1       4.586 -16.732 -15.678  1.00  0.00    -0.744 OA
ENDBRANCH  86  90
ENDBRANCH  59  83
BRANCH  71  94
ATOM     94  C   UNL     1       6.276  -7.903 -20.104  1.00  0.00     0.023 A 
ATOM     95  C   UNL     1       6.385  -8.622 -21.307  1.00  0.00     0.031 A 
ATOM     96  C   UNL     1       7.443  -7.316 -19.580  1.00  0.00     0.131 A 
ATOM     97  C   UNL     1       7.639  -8.781 -21.918  1.00  0.00     0.055 A 
ATOM     98  C   UNL     1       8.677  -7.425 -20.224  1.00  0.00     0.041 A 
ATOM     99  F   UNL     1       7.403  -6.619 -18.433  1.00  0.00    -0.206 F 
ATOM    100  C   UNL     1       8.782  -8.172 -21.393  1.00  0.00     0.022 A 
BRANCH  97 101
ATOM    101  S   UNL     1       7.778  -9.873 -23.360  1.00  0.00     0.124 S 
ATOM    102  O   UNL     1       7.289 -11.141 -22.829  1.00  0.00    -0.237 OA
ATOM    103  O   UNL     1       6.915  -9.214 -24.335  1.00  0.00    -0.237 OA
ATOM    104  O   UNL     1       9.205  -9.843 -23.678  1.00  0.00    -0.744 OA
ENDBRANCH  97 101
ENDBRANCH  71  94
ENDBRANCH  45  46
ENDBRANCH  38  40
ENDBRANCH  37  38
ENDBRANCH  36  37
ENDBRANCH  35  36
ENDBRANCH  34  35
ENDBRANCH  33  34
ENDBRANCH  32  33
ENDBRANCH  31  32
ENDBRANCH  30  31
ENDBRANCH   1  30
TORSDOF 29
