REMARK SMILES CC(C)C[C@@H](CNc1ccc(C(N)=O)cc1)C(=O)OCCOCCOCCOC(=O)c1ccc(-c2c3nc(c(-c4cc(S(=O)(=O)[O-])ccc4F)c4ccc([nH]4)c(-c4cc(S(=O)(=O)[O-])ccc4F)c4nc(c(-c5cc(S(=O)(=O)[O-])ccc5F)c5ccc2[nH]5)C=C4)C=C3)cc1
REMARK SMILES IDX 23 1 22 2 21 3 20 4 19 5 17 6 18 7 5 8 4 9 2 10 1 11 3 12
REMARK SMILES IDX 6 13 7 14 8 16 9 17 16 18 10 19 15 20 11 21 12 22 13 23
REMARK SMILES IDX 14 24 24 27 25 28 26 29 27 30 28 31 29 32 30 33 31 34 32 35
REMARK SMILES IDX 93 36 33 37 92 38 34 39 35 40 36 41 86 42 37 43 91 44 85 45
REMARK SMILES IDX 87 46 38 47 90 48 84 49 83 50 39 52 71 53 51 54 70 55 52 56
REMARK SMILES IDX 55 57 69 58 88 59 53 60 54 61 68 63 89 64 56 65 40 66 41 67
REMARK SMILES IDX 49 68 42 69 48 70 50 71 47 72 43 73 44 74 45 75 46 76 72 77
REMARK SMILES IDX 73 78 81 79 74 80 80 81 82 82 79 83 75 84 76 85 77 86 78 87
REMARK SMILES IDX 57 88 58 89 66 90 59 91 65 92 67 93 64 94 60 95 61 96 62 97
REMARK SMILES IDX 63 98
REMARK H PARENT 7 15 13 25 13 26 87 51 55 62
REMARK Flexibility Score: inf
ROOT
ATOM      1  C   UNL     1      -4.586  -0.797  -0.196  1.00  0.00     0.188 C 
ENDROOT
BRANCH   1   2
ATOM      2  O   UNL     1      -5.836  -0.800   0.478  1.00  0.00    -0.376 OA
BRANCH   2   3
ATOM      3  C   UNL     1      -6.077   0.266   1.390  1.00  0.00     0.202 C 
BRANCH   3   4
ATOM      4  C   UNL     1      -5.059   0.485   2.521  1.00  0.00     0.261 C 
BRANCH   4   5
ATOM      5  O   UNL     1      -3.687   0.715   2.114  1.00  0.00    -0.463 OA
BRANCH   5   6
ATOM      6  C   UNL     1      -2.817  -0.278   2.455  1.00  0.00     0.310 C 
ATOM      7  O   UNL     1      -3.156  -1.334   2.984  1.00  0.00    -0.252 OA
BRANCH   6   8
ATOM      8  C   UNL     1      -1.354  -0.003   2.138  1.00  0.00     0.118 C 
BRANCH   8   9
ATOM      9  C   UNL     1      -1.001   1.121   1.138  1.00  0.00     0.020 C 
BRANCH   9  10
ATOM     10  C   UNL     1       0.520   1.238   0.830  1.00  0.00    -0.017 C 
ATOM     11  C   UNL     1       1.078  -0.007   0.132  1.00  0.00     0.007 C 
ATOM     12  C   UNL     1       0.827   2.470  -0.025  1.00  0.00     0.007 C 
ENDBRANCH   9  10
ENDBRANCH   8   9
BRANCH   8  13
ATOM     13  C   UNL     1      -0.649   0.128   3.493  1.00  0.00     0.128 C 
BRANCH  13  14
ATOM     14  N   UNL     1      -1.054   1.352   4.180  1.00  0.00    -0.384 N 
ATOM     15  H   UNL     1      -0.673   2.217   3.908  1.00  0.00     0.160 HD
BRANCH  14  16
ATOM     16  C   UNL     1      -1.975   1.297   5.215  1.00  0.00     0.034 A 
ATOM     17  C   UNL     1      -3.070   2.167   5.220  1.00  0.00     0.026 A 
ATOM     18  C   UNL     1      -1.891   0.342   6.230  1.00  0.00     0.026 A 
ATOM     19  C   UNL     1      -4.045   2.103   6.225  1.00  0.00     0.016 A 
ATOM     20  C   UNL     1      -2.849   0.278   7.244  1.00  0.00     0.016 A 
ATOM     21  C   UNL     1      -3.930   1.165   7.256  1.00  0.00     0.039 A 
BRANCH  21  22
ATOM     22  C   UNL     1      -4.886   1.069   8.397  1.00  0.00     0.248 C 
ATOM     23  N   UNL     1      -5.971   1.899   8.417  1.00  0.00    -0.366 N 
ATOM     24  O   UNL     1      -4.713   0.281   9.320  1.00  0.00    -0.270 OA
ATOM     25  H   UNL     1      -6.118   2.535   7.680  1.00  0.00     0.159 HD
ATOM     26  H   UNL     1      -6.606   1.861   9.168  1.00  0.00     0.159 HD
ENDBRANCH  21  22
ENDBRANCH  14  16
ENDBRANCH  13  14
ENDBRANCH   8  13
ENDBRANCH   6   8
ENDBRANCH   5   6
ENDBRANCH   4   5
ENDBRANCH   3   4
ENDBRANCH   2   3
ENDBRANCH   1   2
BRANCH   1  27
ATOM     27  C   UNL     1      -4.273   0.437  -1.042  1.00  0.00     0.188 C 
BRANCH  27  28
ATOM     28  O   UNL     1      -4.771   1.675  -0.561  1.00  0.00    -0.376 OA
BRANCH  28  29
ATOM     29  C   UNL     1      -4.791   2.761  -1.489  1.00  0.00     0.202 C 
BRANCH  29  30
ATOM     30  C   UNL     1      -5.514   2.526  -2.837  1.00  0.00     0.261 C 
BRANCH  30  31
ATOM     31  O   UNL     1      -5.007   1.466  -3.683  1.00  0.00    -0.460 OA
BRANCH  31  32
ATOM     32  C   UNL     1      -3.674   1.423  -3.930  1.00  0.00     0.338 C 
ATOM     33  O   UNL     1      -2.887   2.336  -3.739  1.00  0.00    -0.246 OA
BRANCH  32  34
ATOM     34  C   UNL     1      -3.272   0.003  -4.181  1.00  0.00     0.060 A 
ATOM     35  C   UNL     1      -2.095  -0.466  -3.575  1.00  0.00     0.016 A 
ATOM     36  C   UNL     1      -4.069  -0.894  -4.900  1.00  0.00     0.016 A 
ATOM     37  C   UNL     1      -1.708  -1.809  -3.697  1.00  0.00     0.010 A 
ATOM     38  C   UNL     1      -3.667  -2.234  -5.042  1.00  0.00     0.010 A 
ATOM     39  C   UNL     1      -2.476  -2.702  -4.456  1.00  0.00    -0.014 A 
BRANCH  39  40
ATOM     40  C   UNL     1      -1.968  -4.073  -4.764  1.00  0.00     0.031 A 
ATOM     41  C   UNL     1      -1.294  -4.311  -6.093  1.00  0.00     0.074 A 
ATOM     42  C   UNL     1      -2.091  -5.098  -3.896  1.00  0.00     0.049 A 
ATOM     43  N   UNL     1      -0.868  -5.428  -6.624  1.00  0.00    -0.248 NA
ATOM     44  C   UNL     1      -1.071  -3.123  -6.931  1.00  0.00     0.031 C 
ATOM     45  C   UNL     1      -2.660  -5.008  -2.553  1.00  0.00     0.029 A 
ATOM     46  N   UNL     1      -1.755  -6.429  -4.025  1.00  0.00    -0.354 N 
ATOM     47  C   UNL     1      -0.340  -5.083  -7.864  1.00  0.00     0.074 A 
ATOM     48  C   UNL     1      -0.515  -3.653  -8.011  1.00  0.00     0.031 C 
ATOM     49  C   UNL     1      -2.655  -6.232  -1.993  1.00  0.00     0.029 A 
ATOM     50  C   UNL     1      -2.130  -7.206  -2.950  1.00  0.00     0.049 A 
ATOM     51  H   UNL     1      -1.290  -6.791  -4.814  1.00  0.00     0.167 HD
ATOM     52  C   UNL     1       0.236  -5.882  -8.797  1.00  0.00     0.034 A 
ATOM     53  C   UNL     1      -2.097  -8.547  -2.774  1.00  0.00     0.034 A 
ATOM     54  C   UNL     1       0.406  -7.307  -8.652  1.00  0.00     0.049 A 
ATOM     55  C   UNL     1      -1.553  -9.430  -3.881  1.00  0.00     0.074 A 
ATOM     56  C   UNL     1       1.010  -8.192  -9.531  1.00  0.00     0.029 A 
ATOM     57  N   UNL     1      -0.041  -8.062  -7.578  1.00  0.00    -0.354 N 
ATOM     58  N   UNL     1      -1.038  -9.085  -5.040  1.00  0.00    -0.248 NA
ATOM     59  C   UNL     1      -1.587 -10.883  -3.656  1.00  0.00     0.031 C 
ATOM     60  C   UNL     1       0.849  -9.488  -9.031  1.00  0.00     0.029 A 
ATOM     61  C   UNL     1       0.227  -9.406  -7.797  1.00  0.00     0.049 A 
ATOM     62  H   UNL     1      -0.483  -7.698  -6.777  1.00  0.00     0.167 HD
ATOM     63  C   UNL     1      -0.665 -10.277  -5.661  1.00  0.00     0.074 A 
ATOM     64  C   UNL     1      -0.988 -11.346  -4.742  1.00  0.00     0.031 C 
ATOM     65  C   UNL     1      -0.106 -10.472  -6.883  1.00  0.00     0.034 A 
BRANCH  52  66
ATOM     66  C   UNL     1       0.675  -5.247 -10.093  1.00  0.00     0.023 A 
ATOM     67  C   UNL     1       1.735  -4.327 -10.152  1.00  0.00     0.031 A 
ATOM     68  C   UNL     1       0.032  -5.593 -11.296  1.00  0.00     0.131 A 
ATOM     69  C   UNL     1       2.094  -3.755 -11.382  1.00  0.00     0.055 A 
ATOM     70  C   UNL     1       0.440  -5.075 -12.525  1.00  0.00     0.041 A 
ATOM     71  F   UNL     1      -1.002  -6.449 -11.294  1.00  0.00    -0.206 F 
ATOM     72  C   UNL     1       1.472  -4.143 -12.572  1.00  0.00     0.022 A 
BRANCH  69  73
ATOM     73  S   UNL     1       3.317  -2.416 -11.395  1.00  0.00     0.124 S 
ATOM     74  O   UNL     1       2.677  -1.422 -10.537  1.00  0.00    -0.237 OA
ATOM     75  O   UNL     1       4.502  -3.065 -10.845  1.00  0.00    -0.237 OA
ATOM     76  O   UNL     1       3.407  -2.046 -12.806  1.00  0.00    -0.744 OA
ENDBRANCH  69  73
ENDBRANCH  52  66
BRANCH  53  77
ATOM     77  C   UNL     1      -2.666  -9.179  -1.542  1.00  0.00     0.023 A 
ATOM     78  C   UNL     1      -1.882  -9.995  -0.709  1.00  0.00     0.031 A 
ATOM     79  C   UNL     1      -4.038  -9.072  -1.246  1.00  0.00     0.131 A 
ATOM     80  C   UNL     1      -2.485 -10.723   0.332  1.00  0.00     0.055 A 
ATOM     81  C   UNL     1      -4.618  -9.741  -0.166  1.00  0.00     0.041 A 
ATOM     82  F   UNL     1      -4.843  -8.324  -2.017  1.00  0.00    -0.206 F 
ATOM     83  C   UNL     1      -3.844 -10.588   0.619  1.00  0.00     0.022 A 
BRANCH  80  84
ATOM     84  S   UNL     1      -1.492 -11.960   1.217  1.00  0.00     0.124 S 
ATOM     85  O   UNL     1      -1.038 -12.811   0.123  1.00  0.00    -0.237 OA
ATOM     86  O   UNL     1      -0.473 -11.132   1.852  1.00  0.00    -0.237 OA
ATOM     87  O   UNL     1      -2.452 -12.577   2.130  1.00  0.00    -0.744 OA
ENDBRANCH  80  84
ENDBRANCH  53  77
BRANCH  65  88
ATOM     88  C   UNL     1       0.229 -11.892  -7.281  1.00  0.00     0.023 A 
ATOM     89  C   UNL     1      -0.770 -12.860  -7.489  1.00  0.00     0.031 A 
ATOM     90  C   UNL     1       1.570 -12.283  -7.454  1.00  0.00     0.131 A 
ATOM     91  C   UNL     1      -0.413 -14.180  -7.804  1.00  0.00     0.055 A 
ATOM     92  C   UNL     1       1.916 -13.582  -7.832  1.00  0.00     0.041 A 
ATOM     93  F   UNL     1       2.568 -11.405  -7.268  1.00  0.00    -0.206 F 
ATOM     94  C   UNL     1       0.923 -14.543  -7.996  1.00  0.00     0.022 A 
BRANCH  91  95
ATOM     95  S   UNL     1      -1.713 -15.444  -7.875  1.00  0.00     0.124 S 
ATOM     96  O   UNL     1      -2.274 -15.377  -6.529  1.00  0.00    -0.237 OA
ATOM     97  O   UNL     1      -2.570 -14.951  -8.948  1.00  0.00    -0.237 OA
ATOM     98  O   UNL     1      -0.982 -16.672  -8.182  1.00  0.00    -0.744 OA
ENDBRANCH  91  95
ENDBRANCH  65  88
ENDBRANCH  39  40
ENDBRANCH  32  34
ENDBRANCH  31  32
ENDBRANCH  30  31
ENDBRANCH  29  30
ENDBRANCH  28  29
ENDBRANCH  27  28
ENDBRANCH   1  27
TORSDOF 26
