REMARK SMILES COc1ccc2cc([C@@H](C)C(=O)OCCOCCOCCOC(=O)c3ccc(-c4c5nc(c(-c6cc(S(=O)(=O)[O-])ccc6F)c6ccc([nH]6)c(-c6cc(S(=O)(=O)[O-])ccc6F)c6nc(c(-c7cc(S(=O)(=O)[O-])ccc7F)c7ccc4[nH]7)C=C6)C=C5)cc3)ccc2c1
REMARK SMILES IDX 18 1 17 2 16 3 15 4 14 5 13 6 11 7 12 8 9 9 10 10 8 11 3 12
REMARK SMILES IDX 4 13 91 14 5 15 90 16 6 17 89 18 7 19 88 20 2 21 1 22 19 23
REMARK SMILES IDX 20 24 21 25 22 26 23 27 24 28 25 29 26 30 87 31 27 32 86 33
REMARK SMILES IDX 28 34 29 35 30 36 80 37 31 38 85 39 79 40 81 41 32 42 84 43
REMARK SMILES IDX 78 44 77 45 33 47 65 48 45 49 64 50 46 51 49 52 63 53 82 54
REMARK SMILES IDX 47 55 48 56 62 58 83 59 50 60 34 61 35 62 43 63 36 64 42 65
REMARK SMILES IDX 44 66 41 67 37 68 38 69 39 70 40 71 66 72 67 73 75 74 68 75
REMARK SMILES IDX 74 76 76 77 73 78 69 79 70 80 71 81 72 82 51 83 52 84 60 85
REMARK SMILES IDX 53 86 59 87 61 88 58 89 54 90 55 91 56 92 57 93
REMARK H PARENT 81 46 49 57
REMARK Flexibility Score: inf
ROOT
ATOM      1  C   UNL     1       2.114  -3.903   7.629  1.00  0.00     0.188 C 
ENDROOT
BRANCH   1   2
ATOM      2  C   UNL     1       2.211  -4.883   8.809  1.00  0.00     0.188 C 
BRANCH   2   3
ATOM      3  O   UNL     1       3.452  -5.029   9.492  1.00  0.00    -0.376 OA
BRANCH   3   4
ATOM      4  C   UNL     1       4.662  -5.006   8.747  1.00  0.00     0.202 C 
BRANCH   4   5
ATOM      5  C   UNL     1       4.820  -5.980   7.567  1.00  0.00     0.261 C 
BRANCH   5   6
ATOM      6  O   UNL     1       3.776  -5.932   6.567  1.00  0.00    -0.463 OA
BRANCH   6   7
ATOM      7  C   UNL     1       3.101  -7.087   6.342  1.00  0.00     0.313 C 
ATOM      8  O   UNL     1       3.394  -8.149   6.889  1.00  0.00    -0.252 OA
BRANCH   7   9
ATOM      9  C   UNL     1       1.915  -7.010   5.375  1.00  0.00     0.126 C 
ATOM     10  C   UNL     1       2.116  -8.057   4.281  1.00  0.00     0.025 C 
BRANCH   9  11
ATOM     11  C   UNL     1       1.477  -5.691   4.740  1.00  0.00    -0.033 A 
ATOM     12  C   UNL     1       0.961  -1.295   2.199  1.00  0.00     0.119 A 
ATOM     13  C   UNL     1       2.315  -1.614   2.155  1.00  0.00     0.047 A 
ATOM     14  C   UNL     1       0.081  -2.108   2.913  1.00  0.00     0.055 A 
ATOM     15  C   UNL     1       2.779  -2.779   2.775  1.00  0.00     0.012 A 
ATOM     16  C   UNL     1       0.534  -3.290   3.531  1.00  0.00    -0.015 A 
ATOM     17  C   UNL     1       1.901  -3.642   3.451  1.00  0.00    -0.018 A 
ATOM     18  C   UNL     1      -0.343  -4.137   4.219  1.00  0.00     0.009 A 
ATOM     19  C   UNL     1       2.353  -4.840   4.049  1.00  0.00     0.013 A 
ATOM     20  C   UNL     1       0.119  -5.322   4.804  1.00  0.00     0.005 A 
BRANCH  12  21
ATOM     21  O   UNL     1       0.436  -0.171   1.619  1.00  0.00    -0.497 OA
ATOM     22  C   UNL     1       0.833  -0.001   0.260  1.00  0.00     0.278 C 
ENDBRANCH  12  21
ENDBRANCH   9  11
ENDBRANCH   7   9
ENDBRANCH   6   7
ENDBRANCH   5   6
ENDBRANCH   4   5
ENDBRANCH   3   4
ENDBRANCH   2   3
ENDBRANCH   1   2
BRANCH   1  23
ATOM     23  O   UNL     1       3.267  -3.113   7.430  1.00  0.00    -0.376 OA
BRANCH  23  24
ATOM     24  C   UNL     1       3.091  -1.712   7.484  1.00  0.00     0.202 C 
BRANCH  24  25
ATOM     25  C   UNL     1       2.624  -1.138   8.831  1.00  0.00     0.261 C 
BRANCH  25  26
ATOM     26  O   UNL     1       1.503  -1.795   9.451  1.00  0.00    -0.460 OA
BRANCH  26  27
ATOM     27  C   UNL     1       0.284  -1.577   8.908  1.00  0.00     0.338 C 
ATOM     28  O   UNL     1       0.035  -0.863   7.947  1.00  0.00    -0.246 OA
BRANCH  27  29
ATOM     29  C   UNL     1      -0.675  -2.516   9.535  1.00  0.00     0.060 A 
ATOM     30  C   UNL     1      -1.333  -3.466   8.739  1.00  0.00     0.016 A 
ATOM     31  C   UNL     1      -0.928  -2.457  10.907  1.00  0.00     0.016 A 
ATOM     32  C   UNL     1      -2.271  -4.334   9.308  1.00  0.00     0.010 A 
ATOM     33  C   UNL     1      -1.882  -3.311  11.470  1.00  0.00     0.010 A 
ATOM     34  C   UNL     1      -2.585  -4.231  10.669  1.00  0.00    -0.014 A 
BRANCH  34  35
ATOM     35  C   UNL     1      -3.785  -4.920  11.218  1.00  0.00     0.031 A 
ATOM     36  C   UNL     1      -5.046  -4.114  11.394  1.00  0.00     0.074 A 
ATOM     37  C   UNL     1      -3.770  -6.223  11.551  1.00  0.00     0.049 A 
ATOM     38  N   UNL     1      -6.185  -4.453  11.940  1.00  0.00    -0.248 NA
ATOM     39  C   UNL     1      -5.007  -2.732  10.891  1.00  0.00     0.031 C 
ATOM     40  C   UNL     1      -2.635  -7.127  11.379  1.00  0.00     0.029 A 
ATOM     41  N   UNL     1      -4.744  -7.011  12.117  1.00  0.00    -0.354 N 
ATOM     42  C   UNL     1      -6.995  -3.324  11.858  1.00  0.00     0.074 A 
ATOM     43  C   UNL     1      -6.200  -2.281  11.245  1.00  0.00     0.031 C 
ATOM     44  C   UNL     1      -2.973  -8.344  11.843  1.00  0.00     0.029 A 
ATOM     45  C   UNL     1      -4.330  -8.296  12.388  1.00  0.00     0.049 A 
ATOM     46  H   UNL     1      -5.653  -6.687  12.311  1.00  0.00     0.167 HD
ATOM     47  C   UNL     1      -8.284  -3.172  12.250  1.00  0.00     0.034 A 
ATOM     48  C   UNL     1      -4.960  -9.303  13.030  1.00  0.00     0.034 A 
ATOM     49  C   UNL     1      -9.061  -4.216  12.873  1.00  0.00     0.049 A 
ATOM     50  C   UNL     1      -6.364  -9.081  13.551  1.00  0.00     0.074 A 
ATOM     51  C   UNL     1     -10.377  -4.170  13.301  1.00  0.00     0.029 A 
ATOM     52  N   UNL     1      -8.592  -5.489  13.171  1.00  0.00    -0.354 N 
ATOM     53  N   UNL     1      -7.119  -8.009  13.469  1.00  0.00    -0.248 NA
ATOM     54  C   UNL     1      -7.000 -10.209  14.245  1.00  0.00     0.031 C 
ATOM     55  C   UNL     1     -10.675  -5.382  13.931  1.00  0.00     0.029 A 
ATOM     56  C   UNL     1      -9.581  -6.223  13.809  1.00  0.00     0.049 A 
ATOM     57  H   UNL     1      -7.690  -5.822  12.960  1.00  0.00     0.167 HD
ATOM     58  C   UNL     1      -8.333  -8.352  14.064  1.00  0.00     0.074 A 
ATOM     59  C   UNL     1      -8.211  -9.730  14.490  1.00  0.00     0.031 C 
ATOM     60  C   UNL     1      -9.451  -7.598  14.235  1.00  0.00     0.034 A 
BRANCH  47  61
ATOM     61  C   UNL     1      -8.908  -1.809  12.068  1.00  0.00     0.023 A 
ATOM     62  C   UNL     1      -9.086  -1.236  10.796  1.00  0.00     0.031 A 
ATOM     63  C   UNL     1      -9.306  -1.056  13.188  1.00  0.00     0.131 A 
ATOM     64  C   UNL     1      -9.573   0.075  10.680  1.00  0.00     0.055 A 
ATOM     65  C   UNL     1      -9.872   0.213  13.061  1.00  0.00     0.041 A 
ATOM     66  F   UNL     1      -9.138  -1.538  14.430  1.00  0.00    -0.206 F 
ATOM     67  C   UNL     1      -9.994   0.793  11.802  1.00  0.00     0.022 A 
BRANCH  64  68
ATOM     68  S   UNL     1      -9.503   0.884   9.058  1.00  0.00     0.124 S 
ATOM     69  O   UNL     1      -8.077   0.804   8.750  1.00  0.00    -0.237 OA
ATOM     70  O   UNL     1     -10.380   0.045   8.249  1.00  0.00    -0.237 OA
ATOM     71  O   UNL     1     -10.001   2.232   9.326  1.00  0.00    -0.744 OA
ENDBRANCH  64  68
ENDBRANCH  47  61
BRANCH  48  72
ATOM     72  C   UNL     1      -4.268 -10.606  13.266  1.00  0.00     0.023 A 
ATOM     73  C   UNL     1      -4.771 -11.804  12.733  1.00  0.00     0.031 A 
ATOM     74  C   UNL     1      -3.131 -10.681  14.091  1.00  0.00     0.131 A 
ATOM     75  C   UNL     1      -4.172 -13.028  13.072  1.00  0.00     0.055 A 
ATOM     76  C   UNL     1      -2.501 -11.894  14.374  1.00  0.00     0.041 A 
ATOM     77  F   UNL     1      -2.613  -9.569  14.636  1.00  0.00    -0.206 F 
ATOM     78  C   UNL     1      -3.031 -13.080  13.875  1.00  0.00     0.022 A 
BRANCH  75  79
ATOM     79  S   UNL     1      -4.970 -14.566  12.533  1.00  0.00     0.124 S 
ATOM     80  O   UNL     1      -6.291 -14.443  13.139  1.00  0.00    -0.237 OA
ATOM     81  O   UNL     1      -4.917 -14.442  11.080  1.00  0.00    -0.237 OA
ATOM     82  O   UNL     1      -4.117 -15.609  13.099  1.00  0.00    -0.744 OA
ENDBRANCH  75  79
ENDBRANCH  48  72
BRANCH  60  83
ATOM     83  C   UNL     1     -10.658  -8.271  14.851  1.00  0.00     0.023 A 
ATOM     84  C   UNL     1     -10.659  -8.743  16.175  1.00  0.00     0.031 A 
ATOM     85  C   UNL     1     -11.830  -8.445  14.090  1.00  0.00     0.131 A 
ATOM     86  C   UNL     1     -11.783  -9.418  16.677  1.00  0.00     0.055 A 
ATOM     87  C   UNL     1     -12.969  -9.054  14.618  1.00  0.00     0.041 A 
ATOM     88  F   UNL     1     -11.889  -8.020  12.818  1.00  0.00    -0.206 F 
ATOM     89  C   UNL     1     -12.945  -9.559  15.914  1.00  0.00     0.022 A 
BRANCH  86  90
ATOM     90  S   UNL     1     -11.671 -10.210  18.306  1.00  0.00     0.124 S 
ATOM     91  O   UNL     1     -10.530 -11.103  18.131  1.00  0.00    -0.237 OA
ATOM     92  O   UNL     1     -11.458  -9.071  19.193  1.00  0.00    -0.237 OA
ATOM     93  O   UNL     1     -12.963 -10.877  18.453  1.00  0.00    -0.744 OA
ENDBRANCH  86  90
ENDBRANCH  60  83
ENDBRANCH  34  35
ENDBRANCH  27  29
ENDBRANCH  26  27
ENDBRANCH  25  26
ENDBRANCH  24  25
ENDBRANCH  23  24
ENDBRANCH   1  23
TORSDOF 22
