REMARK SMILES CC1=C(C)C[C@@H](C(=O)OCCOCCOCCOC(=O)c2ccc(-c3c4nc(c(-c5cc(S(=O)(=O)[O-])ccc5F)c5ccc([nH]5)c(-c5cc(S(=O)(=O)[O-])ccc5F)c5nc(c(-c6cc(S(=O)(=O)[O-])ccc6F)c6ccc3[nH]6)C=C5)C=C4)cc2)[C@@H](C(=O)N2CCN(c3cccc(C(F)(F)F)c3)CC2)C1
REMARK SMILES IDX 13 1 12 2 11 3 10 4 9 5 7 6 8 7 6 8 1 9 2 10 3 11 103 12
REMARK SMILES IDX 4 13 5 14 84 15 85 16 86 17 87 18 88 19 102 20 89 21 101 22
REMARK SMILES IDX 90 23 91 24 92 25 100 26 93 27 95 28 94 29 96 30 97 31 98 32
REMARK SMILES IDX 99 33 14 34 15 35 16 36 17 37 18 38 19 39 20 40 21 41 22 42
REMARK SMILES IDX 83 43 23 44 82 45 24 46 25 47 26 48 76 49 27 50 81 51 75 52
REMARK SMILES IDX 77 53 28 54 80 55 74 56 73 57 29 59 61 60 41 61 60 62 42 63
REMARK SMILES IDX 45 64 59 65 78 66 43 67 44 68 58 70 79 71 46 72 30 73 31 74
REMARK SMILES IDX 39 75 32 76 38 77 40 78 37 79 33 80 34 81 35 82 36 83 62 84
REMARK SMILES IDX 63 85 71 86 64 87 70 88 72 89 69 90 65 91 66 92 67 93 68 94
REMARK SMILES IDX 47 95 48 96 56 97 49 98 55 99 57 100 54 101 50 102 51 103
REMARK SMILES IDX 52 104 53 105
REMARK H PARENT 77 58 45 69
REMARK Flexibility Score: inf
ROOT
ATOM      1  C   UNL     1       2.430   4.757   5.465  1.00  0.00     0.188 C 
ENDROOT
BRANCH   1   2
ATOM      2  O   UNL     1       2.605   3.645   6.344  1.00  0.00    -0.376 OA
BRANCH   2   3
ATOM      3  C   UNL     1       3.389   2.542   5.920  1.00  0.00     0.202 C 
BRANCH   3   4
ATOM      4  C   UNL     1       2.630   1.434   5.171  1.00  0.00     0.261 C 
BRANCH   4   5
ATOM      5  O   UNL     1       2.031   1.786   3.898  1.00  0.00    -0.463 OA
BRANCH   5   6
ATOM      6  C   UNL     1       0.775   2.275   3.981  1.00  0.00     0.310 C 
ATOM      7  O   UNL     1       0.215   2.509   5.052  1.00  0.00    -0.252 OA
BRANCH   6   8
ATOM      8  C   UNL     1      -0.028   2.376   2.690  1.00  0.00     0.116 C 
ATOM      9  C   UNL     1       1.016  -0.704  -0.248  1.00  0.00     0.039 C 
ATOM     10  C   UNL     1       0.380   0.281   0.694  1.00  0.00    -0.074 C 
ATOM     11  C   UNL     1      -0.261  -0.011   1.843  1.00  0.00    -0.073 C 
ATOM     12  C   UNL     1       0.447   1.707   0.209  1.00  0.00     0.045 C 
ATOM     13  C   UNL     1      -0.462  -1.383   2.421  1.00  0.00     0.039 C 
ATOM     14  C   UNL     1      -0.897   1.107   2.634  1.00  0.00     0.046 C 
ATOM     15  C   UNL     1       0.450   2.818   1.288  1.00  0.00     0.097 C 
BRANCH  15  16
ATOM     16  C   UNL     1       1.771   3.566   1.097  1.00  0.00     0.227 C 
ATOM     17  O   UNL     1       2.843   2.996   1.308  1.00  0.00    -0.275 OA
ATOM     18  N   UNL     1       1.728   4.821   0.464  1.00  0.00    -0.339 N 
ATOM     19  C   UNL     1       3.013   5.349  -0.036  1.00  0.00     0.141 C 
ATOM     20  C   UNL     1       0.702   5.837   0.770  1.00  0.00     0.141 C 
ATOM     21  C   UNL     1       2.890   6.532  -1.014  1.00  0.00     0.138 C 
ATOM     22  C   UNL     1       0.670   7.096  -0.130  1.00  0.00     0.138 C 
ATOM     23  N   UNL     1       2.031   7.553  -0.415  1.00  0.00    -0.368 N 
BRANCH  23  24
ATOM     24  C   UNL     1       2.229   8.886  -0.737  1.00  0.00     0.037 A 
ATOM     25  C   UNL     1       2.340   9.347  -2.052  1.00  0.00     0.026 A 
ATOM     26  C   UNL     1       2.378   9.824   0.294  1.00  0.00     0.039 A 
ATOM     27  C   UNL     1       2.601  10.695  -2.324  1.00  0.00     0.003 A 
ATOM     28  C   UNL     1       2.703  11.169   0.046  1.00  0.00     0.058 A 
ATOM     29  C   UNL     1       2.791  11.600  -1.281  1.00  0.00     0.013 A 
BRANCH  28  30
ATOM     30  C   UNL     1       2.976  12.134   1.170  1.00  0.00     0.416 C 
ATOM     31  F   UNL     1       4.118  12.857   0.974  1.00  0.00    -0.166 F 
ATOM     32  F   UNL     1       1.982  13.048   1.341  1.00  0.00    -0.166 F 
ATOM     33  F   UNL     1       3.138  11.540   2.384  1.00  0.00    -0.166 F 
ENDBRANCH  28  30
ENDBRANCH  23  24
ENDBRANCH  15  16
ENDBRANCH   6   8
ENDBRANCH   5   6
ENDBRANCH   4   5
ENDBRANCH   3   4
ENDBRANCH   2   3
ENDBRANCH   1   2
BRANCH   1  34
ATOM     34  C   UNL     1       3.132   4.753   4.104  1.00  0.00     0.188 C 
BRANCH  34  35
ATOM     35  O   UNL     1       4.551   4.713   4.219  1.00  0.00    -0.376 OA
BRANCH  35  36
ATOM     36  C   UNL     1       5.209   5.816   3.608  1.00  0.00     0.202 C 
BRANCH  36  37
ATOM     37  C   UNL     1       5.243   7.002   4.570  1.00  0.00     0.261 C 
BRANCH  37  38
ATOM     38  O   UNL     1       3.926   7.541   4.809  1.00  0.00    -0.460 OA
BRANCH  38  39
ATOM     39  C   UNL     1       3.476   8.356   3.832  1.00  0.00     0.338 C 
ATOM     40  O   UNL     1       4.082   8.670   2.824  1.00  0.00    -0.246 OA
BRANCH  39  41
ATOM     41  C   UNL     1       2.094   8.787   4.123  1.00  0.00     0.060 A 
ATOM     42  C   UNL     1       1.023   7.939   3.844  1.00  0.00     0.016 A 
ATOM     43  C   UNL     1       1.852  10.103   4.501  1.00  0.00     0.016 A 
ATOM     44  C   UNL     1      -0.285   8.425   3.836  1.00  0.00     0.010 A 
ATOM     45  C   UNL     1       0.536  10.574   4.561  1.00  0.00     0.010 A 
ATOM     46  C   UNL     1      -0.545   9.750   4.199  1.00  0.00    -0.014 A 
BRANCH  46  47
ATOM     47  C   UNL     1      -1.927  10.302   4.198  1.00  0.00     0.031 A 
ATOM     48  C   UNL     1      -2.263  11.468   3.308  1.00  0.00     0.074 A 
ATOM     49  C   UNL     1      -2.863   9.800   5.027  1.00  0.00     0.049 A 
ATOM     50  N   UNL     1      -3.276  12.292   3.369  1.00  0.00    -0.248 NA
ATOM     51  C   UNL     1      -1.328  11.743   2.205  1.00  0.00     0.031 C 
ATOM     52  C   UNL     1      -2.701   8.618   5.877  1.00  0.00     0.029 A 
ATOM     53  N   UNL     1      -4.132  10.243   5.317  1.00  0.00    -0.354 N 
ATOM     54  C   UNL     1      -3.072  13.223   2.355  1.00  0.00     0.074 A 
ATOM     55  C   UNL     1      -1.847  12.846   1.679  1.00  0.00     0.031 C 
ATOM     56  C   UNL     1      -3.814   8.443   6.605  1.00  0.00     0.029 A 
ATOM     57  C   UNL     1      -4.724   9.554   6.352  1.00  0.00     0.049 A 
ATOM     58  H   UNL     1      -4.572  10.979   4.834  1.00  0.00     0.167 HD
ATOM     59  C   UNL     1      -3.829  14.303   2.040  1.00  0.00     0.034 A 
ATOM     60  C   UNL     1      -5.827   9.830   7.076  1.00  0.00     0.034 A 
ATOM     61  C   UNL     1      -5.060  14.644   2.713  1.00  0.00     0.049 A 
ATOM     62  C   UNL     1      -6.607  11.081   6.764  1.00  0.00     0.074 A 
ATOM     63  C   UNL     1      -5.915  15.704   2.464  1.00  0.00     0.029 A 
ATOM     64  N   UNL     1      -5.610  13.934   3.772  1.00  0.00    -0.354 N 
ATOM     65  N   UNL     1      -6.377  11.991   5.846  1.00  0.00    -0.248 NA
ATOM     66  C   UNL     1      -7.787  11.350   7.596  1.00  0.00     0.031 C 
ATOM     67  C   UNL     1      -6.947  15.668   3.409  1.00  0.00     0.029 A 
ATOM     68  C   UNL     1      -6.775  14.548   4.205  1.00  0.00     0.049 A 
ATOM     69  H   UNL     1      -5.228  13.113   4.159  1.00  0.00     0.167 HD
ATOM     70  C   UNL     1      -7.396  12.929   5.979  1.00  0.00     0.074 A 
ATOM     71  C   UNL     1      -8.252  12.464   7.052  1.00  0.00     0.031 C 
ATOM     72  C   UNL     1      -7.610  14.073   5.281  1.00  0.00     0.034 A 
BRANCH  59  73
ATOM     73  C   UNL     1      -3.310  15.243   0.981  1.00  0.00     0.023 A 
ATOM     74  C   UNL     1      -3.256  14.893  -0.378  1.00  0.00     0.031 A 
ATOM     75  C   UNL     1      -2.877  16.530   1.351  1.00  0.00     0.131 A 
ATOM     76  C   UNL     1      -2.743  15.809  -1.313  1.00  0.00     0.055 A 
ATOM     77  C   UNL     1      -2.425  17.456   0.411  1.00  0.00     0.041 A 
ATOM     78  F   UNL     1      -2.889  16.909   2.640  1.00  0.00    -0.206 F 
ATOM     79  C   UNL     1      -2.350  17.095  -0.931  1.00  0.00     0.022 A 
BRANCH  76  80
ATOM     80  S   UNL     1      -2.523  15.274  -3.033  1.00  0.00     0.124 S 
ATOM     81  O   UNL     1      -1.539  14.204  -2.888  1.00  0.00    -0.237 OA
ATOM     82  O   UNL     1      -3.868  14.856  -3.411  1.00  0.00    -0.237 OA
ATOM     83  O   UNL     1      -2.032  16.475  -3.707  1.00  0.00    -0.744 OA
ENDBRANCH  76  80
ENDBRANCH  59  73
BRANCH  60  84
ATOM     84  C   UNL     1      -6.203   8.974   8.240  1.00  0.00     0.023 A 
ATOM     85  C   UNL     1      -7.429   8.294   8.274  1.00  0.00     0.031 A 
ATOM     86  C   UNL     1      -5.366   8.880   9.368  1.00  0.00     0.131 A 
ATOM     87  C   UNL     1      -7.806   7.590   9.429  1.00  0.00     0.055 A 
ATOM     88  C   UNL     1      -5.717   8.128  10.489  1.00  0.00     0.041 A 
ATOM     89  F   UNL     1      -4.184   9.518   9.393  1.00  0.00    -0.206 F 
ATOM     90  C   UNL     1      -6.952   7.490  10.530  1.00  0.00     0.022 A 
BRANCH  87  91
ATOM     91  S   UNL     1      -9.481   6.900   9.514  1.00  0.00     0.124 S 
ATOM     92  O   UNL     1     -10.301   8.074   9.238  1.00  0.00    -0.237 OA
ATOM     93  O   UNL     1      -9.441   5.885   8.467  1.00  0.00    -0.237 OA
ATOM     94  O   UNL     1      -9.568   6.385  10.878  1.00  0.00    -0.744 OA
ENDBRANCH  87  91
ENDBRANCH  60  84
BRANCH  72  95
ATOM     95  C   UNL     1      -8.848  14.858   5.631  1.00  0.00     0.023 A 
ATOM     96  C   UNL     1      -8.974  15.528   6.860  1.00  0.00     0.031 A 
ATOM     97  C   UNL     1      -9.929  14.906   4.734  1.00  0.00     0.131 A 
ATOM     98  C   UNL     1     -10.179  16.169   7.184  1.00  0.00     0.055 A 
ATOM     99  C   UNL     1     -11.105  15.592   5.038  1.00  0.00     0.041 A 
ATOM    100  F   UNL     1      -9.860  14.280   3.548  1.00  0.00    -0.206 F 
ATOM    101  C   UNL     1     -11.240  16.217   6.275  1.00  0.00     0.022 A 
BRANCH  98 102
ATOM    102  S   UNL     1     -10.378  16.864   8.847  1.00  0.00     0.124 S 
ATOM    103  O   UNL     1     -10.183  15.690   9.692  1.00  0.00    -0.237 OA
ATOM    104  O   UNL     1      -9.319  17.866   8.896  1.00  0.00    -0.237 OA
ATOM    105  O   UNL     1     -11.738  17.400   8.835  1.00  0.00    -0.744 OA
ENDBRANCH  98 102
ENDBRANCH  72  95
ENDBRANCH  46  47
ENDBRANCH  39  41
ENDBRANCH  38  39
ENDBRANCH  37  38
ENDBRANCH  36  37
ENDBRANCH  35  36
ENDBRANCH  34  35
ENDBRANCH   1  34
TORSDOF 23
