REMARK SMILES CCCc1cc(-n2ccc(C(=O)OCCOCCOCCOC(=O)c3ccc(-c4c5nc(c(-c6cc(S(=O)(=O)[O-])ccc6F)c6ccc([nH]6)c(-c6cc(S(=O)(=O)[O-])ccc6F)c6nc(c(-c7cc(S(=O)(=O)[O-])ccc7F)c7ccc4[nH]7)C=C6)C=C5)cc3)n2)nc(C(C)C)n1
REMARK SMILES IDX 17 1 16 2 15 3 14 4 13 5 11 6 12 7 10 8 7 9 8 10 88 11 9 12
REMARK SMILES IDX 6 13 4 14 5 15 94 16 90 17 89 18 3 19 2 20 1 21 91 22 92 23
REMARK SMILES IDX 93 24 18 25 19 26 20 27 21 28 22 29 23 30 24 31 25 32 26 33
REMARK SMILES IDX 87 34 27 35 86 36 28 37 29 38 30 39 80 40 31 41 85 42 79 43
REMARK SMILES IDX 81 44 32 45 84 46 78 47 77 48 33 50 65 51 45 52 64 53 46 54
REMARK SMILES IDX 49 55 63 56 82 57 47 58 48 59 62 61 83 62 50 63 34 64 35 65
REMARK SMILES IDX 43 66 36 67 42 68 44 69 41 70 37 71 38 72 39 73 40 74 66 75
REMARK SMILES IDX 67 76 75 77 68 78 74 79 76 80 73 81 69 82 70 83 71 84 72 85
REMARK SMILES IDX 51 86 52 87 60 88 53 89 59 90 61 91 58 92 54 93 55 94 56 95
REMARK SMILES IDX 57 96
REMARK H PARENT 81 49 49 60
REMARK Flexibility Score: inf
ROOT
ATOM      1  C   UNL     1      -3.191   3.144  -5.612  1.00  0.00     0.188 C 
ENDROOT
BRANCH   1   2
ATOM      2  O   UNL     1      -3.374   3.922  -6.786  1.00  0.00    -0.376 OA
BRANCH   2   3
ATOM      3  C   UNL     1      -2.522   5.021  -7.066  1.00  0.00     0.202 C 
BRANCH   3   4
ATOM      4  C   UNL     1      -2.198   6.097  -6.006  1.00  0.00     0.261 C 
BRANCH   4   5
ATOM      5  O   UNL     1      -1.951   5.632  -4.673  1.00  0.00    -0.458 OA
BRANCH   5   6
ATOM      6  C   UNL     1      -2.945   5.857  -3.751  1.00  0.00     0.358 C 
ATOM      7  O   UNL     1      -3.954   6.486  -3.963  1.00  0.00    -0.244 OA
BRANCH   6   8
ATOM      8  C   UNL     1      -2.739   5.048  -2.534  1.00  0.00     0.170 A 
ATOM      9  N   UNL     1      -1.790   4.120  -0.845  1.00  0.00    -0.222 N 
ATOM     10  C   UNL     1      -2.955   3.413  -1.048  1.00  0.00     0.118 A 
ATOM     11  N   UNL     1      -1.655   5.132  -1.747  1.00  0.00    -0.159 NA
ATOM     12  C   UNL     1      -3.623   4.039  -2.071  1.00  0.00     0.058 A 
BRANCH   9  13
ATOM     13  C   UNL     1      -0.813   3.895   0.173  1.00  0.00     0.157 A 
ATOM     14  C   UNL     1       0.358   2.474   1.638  1.00  0.00     0.046 A 
ATOM     15  C   UNL     1      -0.649   2.626   0.703  1.00  0.00     0.073 A 
ATOM     16  N   UNL     1       1.041   3.538   2.116  1.00  0.00    -0.238 NA
ATOM     17  C   UNL     1       0.775   4.747   1.584  1.00  0.00     0.133 A 
ATOM     18  N   UNL     1      -0.093   4.958   0.590  1.00  0.00    -0.213 NA
BRANCH  14  19
ATOM     19  C   UNL     1       0.762   1.139   2.217  1.00  0.00     0.056 C 
BRANCH  19  20
ATOM     20  C   UNL     1       0.443  -0.129   1.414  1.00  0.00     0.003 C 
ATOM     21  C   UNL     1       1.139  -0.195   0.060  1.00  0.00     0.004 C 
ENDBRANCH  19  20
ENDBRANCH  14  19
BRANCH  17  22
ATOM     22  C   UNL     1       1.431   5.968   2.183  1.00  0.00     0.051 C 
ATOM     23  C   UNL     1       1.030   6.132   3.650  1.00  0.00     0.016 C 
ATOM     24  C   UNL     1       2.946   5.917   2.018  1.00  0.00     0.016 C 
ENDBRANCH  17  22
ENDBRANCH   9  13
ENDBRANCH   6   8
ENDBRANCH   5   6
ENDBRANCH   4   5
ENDBRANCH   3   4
ENDBRANCH   2   3
ENDBRANCH   1   2
BRANCH   1  25
ATOM     25  C   UNL     1      -1.784   2.725  -5.128  1.00  0.00     0.188 C 
BRANCH  25  26
ATOM     26  O   UNL     1      -0.718   3.393  -5.761  1.00  0.00    -0.376 OA
BRANCH  26  27
ATOM     27  C   UNL     1       0.051   2.763  -6.770  1.00  0.00     0.202 C 
BRANCH  27  28
ATOM     28  C   UNL     1      -0.499   1.729  -7.752  1.00  0.00     0.261 C 
BRANCH  28  29
ATOM     29  O   UNL     1      -1.820   1.275  -7.538  1.00  0.00    -0.460 OA
BRANCH  29  30
ATOM     30  C   UNL     1      -1.885   0.119  -6.843  1.00  0.00     0.338 C 
ATOM     31  O   UNL     1      -1.044  -0.313  -6.071  1.00  0.00    -0.246 OA
BRANCH  30  32
ATOM     32  C   UNL     1      -3.077  -0.621  -7.257  1.00  0.00     0.060 A 
ATOM     33  C   UNL     1      -3.382  -1.767  -6.524  1.00  0.00     0.016 A 
ATOM     34  C   UNL     1      -3.652  -0.356  -8.510  1.00  0.00     0.016 A 
ATOM     35  C   UNL     1      -4.100  -2.759  -7.150  1.00  0.00     0.010 A 
ATOM     36  C   UNL     1      -4.360  -1.354  -9.136  1.00  0.00     0.010 A 
ATOM     37  C   UNL     1      -4.495  -2.574  -8.482  1.00  0.00    -0.014 A 
BRANCH  37  38
ATOM     38  C   UNL     1      -5.147  -3.683  -9.142  1.00  0.00     0.031 A 
ATOM     39  C   UNL     1      -6.493  -3.952  -8.600  1.00  0.00     0.074 A 
ATOM     40  C   UNL     1      -4.607  -4.362 -10.170  1.00  0.00     0.049 A 
ATOM     41  N   UNL     1      -6.851  -4.954  -7.872  1.00  0.00    -0.248 NA
ATOM     42  C   UNL     1      -7.501  -2.888  -8.704  1.00  0.00     0.031 C 
ATOM     43  C   UNL     1      -3.400  -4.053 -10.936  1.00  0.00     0.029 A 
ATOM     44  N   UNL     1      -5.103  -5.455 -10.808  1.00  0.00    -0.354 N 
ATOM     45  C   UNL     1      -8.205  -4.771  -7.633  1.00  0.00     0.074 A 
ATOM     46  C   UNL     1      -8.490  -3.404  -7.974  1.00  0.00     0.031 C 
ATOM     47  C   UNL     1      -3.389  -4.799 -12.066  1.00  0.00     0.029 A 
ATOM     48  C   UNL     1      -4.514  -5.723 -12.038  1.00  0.00     0.049 A 
ATOM     49  H   UNL     1      -5.821  -6.013 -10.429  1.00  0.00     0.167 HD
ATOM     50  C   UNL     1      -9.021  -5.838  -7.424  1.00  0.00     0.034 A 
ATOM     51  C   UNL     1      -4.971  -6.590 -12.983  1.00  0.00     0.034 A 
ATOM     52  C   UNL     1      -8.261  -7.007  -7.035  1.00  0.00     0.049 A 
ATOM     53  C   UNL     1      -5.826  -7.580 -12.275  1.00  0.00     0.074 A 
ATOM     54  C   UNL     1      -7.377  -7.278  -6.005  1.00  0.00     0.029 A 
ATOM     55  N   UNL     1      -8.039  -7.992  -7.973  1.00  0.00    -0.354 N 
ATOM     56  N   UNL     1      -5.358  -8.432 -11.404  1.00  0.00    -0.248 NA
ATOM     57  C   UNL     1      -7.249  -7.295 -12.153  1.00  0.00     0.031 C 
ATOM     58  C   UNL     1      -6.348  -8.066  -6.601  1.00  0.00     0.029 A 
ATOM     59  C   UNL     1      -6.700  -8.303  -7.931  1.00  0.00     0.049 A 
ATOM     60  H   UNL     1      -8.714  -8.397  -8.563  1.00  0.00     0.167 HD
ATOM     61  C   UNL     1      -6.288  -8.444 -10.376  1.00  0.00     0.074 A 
ATOM     62  C   UNL     1      -7.476  -7.799 -10.936  1.00  0.00     0.031 C 
ATOM     63  C   UNL     1      -5.923  -8.712  -9.087  1.00  0.00     0.034 A 
BRANCH  50  64
ATOM     64  C   UNL     1     -10.437  -5.918  -7.944  1.00  0.00     0.023 A 
ATOM     65  C   UNL     1     -11.153  -7.094  -7.662  1.00  0.00     0.031 A 
ATOM     66  C   UNL     1     -11.010  -5.069  -8.921  1.00  0.00     0.131 A 
ATOM     67  C   UNL     1     -12.296  -7.435  -8.403  1.00  0.00     0.055 A 
ATOM     68  C   UNL     1     -12.188  -5.379  -9.604  1.00  0.00     0.041 A 
ATOM     69  F   UNL     1     -10.426  -3.942  -9.344  1.00  0.00    -0.206 F 
ATOM     70  C   UNL     1     -12.820  -6.586  -9.373  1.00  0.00     0.022 A 
BRANCH  67  71
ATOM     71  S   UNL     1     -12.971  -9.102  -8.205  1.00  0.00     0.124 S 
ATOM     72  O   UNL     1     -11.794  -9.925  -8.460  1.00  0.00    -0.237 OA
ATOM     73  O   UNL     1     -13.448  -9.068  -6.826  1.00  0.00    -0.237 OA
ATOM     74  O   UNL     1     -14.014  -9.167  -9.225  1.00  0.00    -0.744 OA
ENDBRANCH  67  71
ENDBRANCH  50  64
BRANCH  51  75
ATOM     75  C   UNL     1      -4.989  -6.398 -14.462  1.00  0.00     0.023 A 
ATOM     76  C   UNL     1      -5.260  -7.453 -15.363  1.00  0.00     0.031 A 
ATOM     77  C   UNL     1      -4.989  -5.093 -15.006  1.00  0.00     0.131 A 
ATOM     78  C   UNL     1      -5.519  -7.180 -16.729  1.00  0.00     0.055 A 
ATOM     79  C   UNL     1      -5.243  -4.830 -16.354  1.00  0.00     0.041 A 
ATOM     80  F   UNL     1      -4.831  -4.012 -14.227  1.00  0.00    -0.206 F 
ATOM     81  C   UNL     1      -5.522  -5.873 -17.220  1.00  0.00     0.022 A 
BRANCH  78  82
ATOM     82  S   UNL     1      -5.967  -8.522 -17.880  1.00  0.00     0.124 S 
ATOM     83  O   UNL     1      -4.690  -9.198 -18.078  1.00  0.00    -0.237 OA
ATOM     84  O   UNL     1      -6.982  -9.256 -17.133  1.00  0.00    -0.237 OA
ATOM     85  O   UNL     1      -6.472  -7.808 -19.054  1.00  0.00    -0.744 OA
ENDBRANCH  78  82
ENDBRANCH  51  75
BRANCH  63  86
ATOM     86  C   UNL     1      -4.536  -9.276  -8.826  1.00  0.00     0.023 A 
ATOM     87  C   UNL     1      -3.323  -8.674  -9.235  1.00  0.00     0.031 A 
ATOM     88  C   UNL     1      -4.448 -10.427  -8.022  1.00  0.00     0.131 A 
ATOM     89  C   UNL     1      -2.088  -9.238  -8.851  1.00  0.00     0.055 A 
ATOM     90  C   UNL     1      -3.226 -10.968  -7.625  1.00  0.00     0.041 A 
ATOM     91  F   UNL     1      -5.561 -11.034  -7.578  1.00  0.00    -0.206 F 
ATOM     92  C   UNL     1      -2.040 -10.379  -8.044  1.00  0.00     0.022 A 
BRANCH  89  93
ATOM     93  S   UNL     1      -0.513  -8.509  -9.411  1.00  0.00     0.124 S 
ATOM     94  O   UNL     1      -0.717  -8.309 -10.841  1.00  0.00    -0.237 OA
ATOM     95  O   UNL     1      -0.421  -7.297  -8.601  1.00  0.00    -0.237 OA
ATOM     96  O   UNL     1       0.475  -9.537  -9.076  1.00  0.00    -0.744 OA
ENDBRANCH  89  93
ENDBRANCH  63  86
ENDBRANCH  37  38
ENDBRANCH  30  32
ENDBRANCH  29  30
ENDBRANCH  28  29
ENDBRANCH  27  28
ENDBRANCH  26  27
ENDBRANCH  25  26
ENDBRANCH   1  25
TORSDOF 24
