REMARK SMILES C[C@@H](Sc1nc2c(cc1C#N)CCC2)C(=O)OCCOCCOCCOC(=O)c1ccc(-c2c3nc(c(-c4cc(S(=O)(=O)[O-])ccc4F)c4ccc([nH]4)c(-c4cc(S(=O)(=O)[O-])ccc4F)c4nc(c(-c5cc(S(=O)(=O)[O-])ccc5F)c5ccc2[nH]5)C=C4)C=C3)cc1
REMARK SMILES IDX 21 1 20 2 19 3 18 4 17 5 15 6 16 7 2 8 1 9 3 10 4 11 5 12
REMARK SMILES IDX 9 13 6 14 8 15 7 16 14 17 12 18 13 19 10 20 11 21 22 22
REMARK SMILES IDX 23 23 24 24 25 25 26 26 27 27 28 28 29 29 30 30 91 31 31 32
REMARK SMILES IDX 90 33 32 34 33 35 34 36 84 37 35 38 89 39 83 40 85 41 36 42
REMARK SMILES IDX 88 43 82 44 81 45 37 47 69 48 49 49 68 50 50 51 53 52 67 53
REMARK SMILES IDX 86 54 51 55 52 56 66 58 87 59 54 60 38 61 39 62 47 63 40 64
REMARK SMILES IDX 46 65 48 66 45 67 41 68 42 69 43 70 44 71 70 72 71 73 79 74
REMARK SMILES IDX 72 75 78 76 80 77 77 78 73 79 74 80 75 81 76 82 55 83 56 84
REMARK SMILES IDX 64 85 57 86 63 87 65 88 62 89 58 90 59 91 60 92 61 93
REMARK H PARENT 85 46 53 57
REMARK Flexibility Score: inf
ROOT
ATOM      1  C   UNL     1      -2.199   0.121   1.993  1.00  0.00     0.188 C 
ENDROOT
BRANCH   1   2
ATOM      2  O   UNL     1      -3.511   0.673   1.962  1.00  0.00    -0.376 OA
BRANCH   2   3
ATOM      3  C   UNL     1      -4.048   0.999   0.682  1.00  0.00     0.202 C 
BRANCH   3   4
ATOM      4  C   UNL     1      -3.273   2.039  -0.145  1.00  0.00     0.261 C 
BRANCH   4   5
ATOM      5  O   UNL     1      -1.901   1.678  -0.399  1.00  0.00    -0.462 OA
BRANCH   5   6
ATOM      6  C   UNL     1      -0.910   2.436   0.160  1.00  0.00     0.319 C 
ATOM      7  O   UNL     1      -1.118   3.473   0.779  1.00  0.00    -0.251 OA
BRANCH   6   8
ATOM      8  C   UNL     1       0.486   1.774   0.033  1.00  0.00     0.160 C 
ATOM      9  C   UNL     1       0.479   0.458  -0.744  1.00  0.00     0.032 C 
BRANCH   8  10
ATOM     10  S   UNL     1       1.595   2.950  -0.826  1.00  0.00    -0.090 SA
BRANCH  10  11
ATOM     11  C   UNL     1       3.257   2.675  -0.219  1.00  0.00     0.115 A 
ATOM     12  N   UNL     1       3.887   3.882  -0.129  1.00  0.00    -0.245 NA
ATOM     13  C   UNL     1       3.982   1.474  -0.071  1.00  0.00     0.085 A 
ATOM     14  C   UNL     1       5.219   3.884   0.010  1.00  0.00     0.045 A 
ATOM     15  C   UNL     1       5.385   1.526   0.072  1.00  0.00     0.028 A 
ATOM     16  C   UNL     1       6.003   2.751   0.066  1.00  0.00    -0.025 A 
ATOM     17  C   UNL     1       6.065   5.121   0.070  1.00  0.00     0.057 C 
ATOM     18  C   UNL     1       7.454   3.086   0.101  1.00  0.00     0.038 C 
ATOM     19  C   UNL     1       7.421   4.551  -0.369  1.00  0.00     0.011 C 
BRANCH  13  20
ATOM     20  C   UNL     1       3.456   0.155  -0.111  1.00  0.00     0.102 C 
ATOM     21  N   UNL     1       3.144  -0.969  -0.127  1.00  0.00    -0.192 NA
ENDBRANCH  13  20
ENDBRANCH  10  11
ENDBRANCH   8  10
ENDBRANCH   6   8
ENDBRANCH   5   6
ENDBRANCH   4   5
ENDBRANCH   3   4
ENDBRANCH   2   3
ENDBRANCH   1   2
BRANCH   1  22
ATOM     22  C   UNL     1      -1.995  -1.142   1.160  1.00  0.00     0.188 C 
BRANCH  22  23
ATOM     23  O   UNL     1      -2.563  -1.157  -0.133  1.00  0.00    -0.376 OA
BRANCH  23  24
ATOM     24  C   UNL     1      -2.847  -2.434  -0.704  1.00  0.00     0.202 C 
BRANCH  24  25
ATOM     25  C   UNL     1      -3.494  -3.579   0.132  1.00  0.00     0.261 C 
BRANCH  25  26
ATOM     26  O   UNL     1      -3.046  -3.831   1.485  1.00  0.00    -0.460 OA
BRANCH  26  27
ATOM     27  C   UNL     1      -1.733  -4.112   1.686  1.00  0.00     0.338 C 
ATOM     28  O   UNL     1      -0.930  -4.372   0.807  1.00  0.00    -0.246 OA
BRANCH  27  29
ATOM     29  C   UNL     1      -1.361  -3.746   3.096  1.00  0.00     0.060 A 
ATOM     30  C   UNL     1      -0.202  -2.978   3.298  1.00  0.00     0.016 A 
ATOM     31  C   UNL     1      -2.152  -4.076   4.201  1.00  0.00     0.016 A 
ATOM     32  C   UNL     1       0.184  -2.572   4.584  1.00  0.00     0.010 A 
ATOM     33  C   UNL     1      -1.744  -3.701   5.497  1.00  0.00     0.010 A 
ATOM     34  C   UNL     1      -0.556  -2.972   5.703  1.00  0.00    -0.014 A 
BRANCH  34  35
ATOM     35  C   UNL     1       0.022  -2.826   7.074  1.00  0.00     0.031 A 
ATOM     36  C   UNL     1       0.699  -4.026   7.692  1.00  0.00     0.074 A 
ATOM     37  C   UNL     1       0.004  -1.662   7.755  1.00  0.00     0.049 A 
ATOM     38  N   UNL     1       1.218  -4.171   8.884  1.00  0.00    -0.248 NA
ATOM     39  C   UNL     1       0.802  -5.225   6.843  1.00  0.00     0.031 C 
ATOM     40  C   UNL     1      -0.539  -0.399   7.260  1.00  0.00     0.029 A 
ATOM     41  N   UNL     1       0.463  -1.353   9.017  1.00  0.00    -0.354 N 
ATOM     42  C   UNL     1       1.706  -5.474   8.930  1.00  0.00     0.074 A 
ATOM     43  C   UNL     1       1.388  -6.088   7.660  1.00  0.00     0.031 C 
ATOM     44  C   UNL     1      -0.384   0.545   8.206  1.00  0.00     0.029 A 
ATOM     45  C   UNL     1       0.231  -0.049   9.394  1.00  0.00     0.049 A 
ATOM     46  H   UNL     1       0.916  -2.007   9.598  1.00  0.00     0.167 HD
ATOM     47  C   UNL     1       2.369  -6.100   9.932  1.00  0.00     0.034 A 
ATOM     48  C   UNL     1       0.463   0.589  10.564  1.00  0.00     0.034 A 
ATOM     49  C   UNL     1       2.689  -5.490  11.197  1.00  0.00     0.049 A 
ATOM     50  C   UNL     1       1.096  -0.164  11.713  1.00  0.00     0.074 A 
ATOM     51  C   UNL     1       3.360  -6.049  12.271  1.00  0.00     0.029 A 
ATOM     52  N   UNL     1       2.360  -4.194  11.565  1.00  0.00    -0.354 N 
ATOM     53  N   UNL     1       1.525  -1.404  11.750  1.00  0.00    -0.248 NA
ATOM     54  C   UNL     1       1.272   0.566  12.979  1.00  0.00     0.031 C 
ATOM     55  C   UNL     1       3.366  -5.121  13.315  1.00  0.00     0.029 A 
ATOM     56  C   UNL     1       2.778  -3.951  12.863  1.00  0.00     0.049 A 
ATOM     57  H   UNL     1       1.897  -3.543  10.988  1.00  0.00     0.167 HD
ATOM     58  C   UNL     1       2.044  -1.591  13.030  1.00  0.00     0.074 A 
ATOM     59  C   UNL     1       1.883  -0.337  13.734  1.00  0.00     0.031 C 
ATOM     60  C   UNL     1       2.609  -2.702  13.568  1.00  0.00     0.034 A 
BRANCH  47  61
ATOM     61  C   UNL     1       2.769  -7.538   9.719  1.00  0.00     0.023 A 
ATOM     62  C   UNL     1       3.754  -7.898   8.785  1.00  0.00     0.031 A 
ATOM     63  C   UNL     1       2.187  -8.557  10.495  1.00  0.00     0.131 A 
ATOM     64  C   UNL     1       4.104  -9.247   8.625  1.00  0.00     0.055 A 
ATOM     65  C   UNL     1       2.585  -9.889  10.376  1.00  0.00     0.041 A 
ATOM     66  F   UNL     1       1.229  -8.270  11.391  1.00  0.00    -0.206 F 
ATOM     67  C   UNL     1       3.545 -10.241   9.432  1.00  0.00     0.022 A 
BRANCH  64  68
ATOM     68  S   UNL     1       5.249  -9.696   7.293  1.00  0.00     0.124 S 
ATOM     69  O   UNL     1       4.503  -9.278   6.109  1.00  0.00    -0.237 OA
ATOM     70  O   UNL     1       6.433  -8.906   7.614  1.00  0.00    -0.237 OA
ATOM     71  O   UNL     1       5.404 -11.141   7.447  1.00  0.00    -0.744 OA
ENDBRANCH  64  68
ENDBRANCH  47  61
BRANCH  48  72
ATOM     72  C   UNL     1       0.068   2.020  10.730  1.00  0.00     0.023 A 
ATOM     73  C   UNL     1       1.031   3.023  10.923  1.00  0.00     0.031 A 
ATOM     74  C   UNL     1      -1.286   2.402  10.717  1.00  0.00     0.131 A 
ATOM     75  C   UNL     1       0.628   4.357  11.106  1.00  0.00     0.055 A 
ATOM     76  C   UNL     1      -1.680   3.735  10.855  1.00  0.00     0.041 A 
ATOM     77  F   UNL     1      -2.249   1.481  10.550  1.00  0.00    -0.206 F 
ATOM     78  C   UNL     1      -0.720   4.721  11.055  1.00  0.00     0.022 A 
BRANCH  75  79
ATOM     79  S   UNL     1       1.892   5.614  11.445  1.00  0.00     0.124 S 
ATOM     80  O   UNL     1       2.424   5.163  12.726  1.00  0.00    -0.237 OA
ATOM     81  O   UNL     1       2.780   5.472  10.296  1.00  0.00    -0.237 OA
ATOM     82  O   UNL     1       1.131   6.860  11.489  1.00  0.00    -0.744 OA
ENDBRANCH  75  79
ENDBRANCH  48  72
BRANCH  60  83
ATOM     83  C   UNL     1       3.127  -2.624  14.983  1.00  0.00     0.023 A 
ATOM     84  C   UNL     1       2.256  -2.514  16.080  1.00  0.00     0.031 A 
ATOM     85  C   UNL     1       4.506  -2.736  15.241  1.00  0.00     0.131 A 
ATOM     86  C   UNL     1       2.775  -2.493  17.384  1.00  0.00     0.055 A 
ATOM     87  C   UNL     1       5.011  -2.767  16.542  1.00  0.00     0.041 A 
ATOM     88  F   UNL     1       5.383  -2.850  14.231  1.00  0.00    -0.206 F 
ATOM     89  C   UNL     1       4.144  -2.639  17.622  1.00  0.00     0.022 A 
BRANCH  86  90
ATOM     90  S   UNL     1       1.636  -2.233  18.771  1.00  0.00     0.124 S 
ATOM     91  O   UNL     1       1.107  -0.904  18.483  1.00  0.00    -0.237 OA
ATOM     92  O   UNL     1       0.697  -3.340  18.619  1.00  0.00    -0.237 OA
ATOM     93  O   UNL     1       2.501  -2.314  19.947  1.00  0.00    -0.744 OA
ENDBRANCH  86  90
ENDBRANCH  60  83
ENDBRANCH  34  35
ENDBRANCH  27  29
ENDBRANCH  26  27
ENDBRANCH  25  26
ENDBRANCH  24  25
ENDBRANCH  23  24
ENDBRANCH  22  23
ENDBRANCH   1  22
TORSDOF 23
