REMARK SMILES O=C(COc1nc(NCc2cccc(Cl)c2)nc2c1CCC2)OCCOCCOCCOC(=O)c1ccc(-c2c3nc(c(-c4cc(S(=O)(=O)[O-])ccc4F)c4ccc([nH]4)c(-c4cc(S(=O)(=O)[O-])ccc4F)c4nc(c(-c5cc(S(=O)(=O)[O-])ccc5F)c5ccc2[nH]5)C=C4)C=C3)cc1
REMARK SMILES IDX 27 1 26 2 25 3 24 4 23 5 2 6 1 7 3 8 4 9 5 10 6 11 19 12
REMARK SMILES IDX 7 13 18 14 20 15 17 16 22 17 21 18 8 19 9 21 10 22 11 23
REMARK SMILES IDX 16 24 12 25 14 26 13 27 15 28 28 29 29 30 30 31 31 32 32 33
REMARK SMILES IDX 33 34 34 35 35 36 36 37 97 38 37 39 96 40 38 41 39 42 40 43
REMARK SMILES IDX 90 44 41 45 95 46 89 47 91 48 42 49 94 50 88 51 87 52 43 54
REMARK SMILES IDX 75 55 55 56 74 57 56 58 59 59 73 60 92 61 57 62 58 63 72 65
REMARK SMILES IDX 93 66 60 67 44 68 45 69 53 70 46 71 52 72 54 73 51 74 47 75
REMARK SMILES IDX 48 76 49 77 50 78 76 79 77 80 85 81 78 82 84 83 86 84 83 85
REMARK SMILES IDX 79 86 80 87 81 88 82 89 61 90 62 91 70 92 63 93 69 94 71 95
REMARK SMILES IDX 68 96 64 97 65 98 66 99 67 100
REMARK H PARENT 8 20 91 53 59 64
REMARK Flexibility Score: inf
ROOT
ATOM      1  C   UNL     1       3.156   1.181  -1.617  1.00  0.00     0.188 C 
ENDROOT
BRANCH   1   2
ATOM      2  O   UNL     1       4.405   0.514  -1.580  1.00  0.00    -0.376 OA
BRANCH   2   3
ATOM      3  C   UNL     1       4.889   0.130  -0.310  1.00  0.00     0.202 C 
BRANCH   3   4
ATOM      4  C   UNL     1       4.297  -1.218   0.097  1.00  0.00     0.261 C 
BRANCH   4   5
ATOM      5  O   UNL     1       2.853  -1.287   0.136  1.00  0.00    -0.461 OA
BRANCH   5   6
ATOM      6  C   UNL     1       2.024  -0.571   0.931  1.00  0.00     0.344 C 
ATOM      7  O   UNL     1       0.807  -0.727   0.832  1.00  0.00    -0.248 OA
BRANCH   6   8
ATOM      8  C   UNL     1       2.613   0.522   1.824  1.00  0.00     0.353 C 
BRANCH   8   9
ATOM      9  O   UNL     1       3.793   0.190   2.545  1.00  0.00    -0.465 OA
BRANCH   9  10
ATOM     10  C   UNL     1       3.387  -0.468   3.674  1.00  0.00     0.222 A 
ATOM     11  N   UNL     1       2.496  -1.454   3.512  1.00  0.00    -0.177 NA
ATOM     12  C   UNL     1       3.733   0.045   4.875  1.00  0.00     0.036 A 
ATOM     13  C   UNL     1       1.829  -1.859   4.597  1.00  0.00     0.226 A 
ATOM     14  C   UNL     1       3.039  -0.470   5.937  1.00  0.00     0.053 A 
ATOM     15  C   UNL     1       4.571   1.215   5.229  1.00  0.00     0.043 C 
ATOM     16  N   UNL     1       2.085  -1.414   5.838  1.00  0.00    -0.218 NA
ATOM     17  C   UNL     1       3.345   0.334   7.173  1.00  0.00     0.057 C 
ATOM     18  C   UNL     1       4.646   1.043   6.750  1.00  0.00     0.011 C 
BRANCH  13  19
ATOM     19  N   UNL     1       0.776  -2.676   4.314  1.00  0.00    -0.350 N 
ATOM     20  H   UNL     1       0.627  -2.937   3.376  1.00  0.00     0.164 HD
BRANCH  19  21
ATOM     21  C   UNL     1      -0.126  -3.176   5.305  1.00  0.00     0.152 C 
BRANCH  21  22
ATOM     22  C   UNL     1      -1.566  -2.914   4.922  1.00  0.00    -0.027 A 
ATOM     23  C   UNL     1      -2.467  -3.979   4.759  1.00  0.00     0.005 A 
ATOM     24  C   UNL     1      -2.049  -1.599   4.806  1.00  0.00     0.026 A 
ATOM     25  C   UNL     1      -3.823  -3.739   4.522  1.00  0.00     0.002 A 
ATOM     26  C   UNL     1      -3.404  -1.366   4.567  1.00  0.00     0.041 A 
ATOM     27  C   UNL     1      -4.294  -2.430   4.435  1.00  0.00     0.020 A 
ATOM     28  Cl  UNL     1      -3.994   0.246   4.456  1.00  0.00    -0.084 Cl
ENDBRANCH  21  22
ENDBRANCH  19  21
ENDBRANCH  13  19
ENDBRANCH   9  10
ENDBRANCH   8   9
ENDBRANCH   6   8
ENDBRANCH   5   6
ENDBRANCH   4   5
ENDBRANCH   3   4
ENDBRANCH   2   3
ENDBRANCH   1   2
BRANCH   1  29
ATOM     29  C   UNL     1       2.297   0.768  -2.819  1.00  0.00     0.188 C 
BRANCH  29  30
ATOM     30  O   UNL     1       2.915   0.200  -3.966  1.00  0.00    -0.376 OA
BRANCH  30  31
ATOM     31  C   UNL     1       4.216   0.625  -4.338  1.00  0.00     0.202 C 
BRANCH  31  32
ATOM     32  C   UNL     1       4.411   2.102  -4.701  1.00  0.00     0.261 C 
BRANCH  32  33
ATOM     33  O   UNL     1       4.093   3.053  -3.664  1.00  0.00    -0.460 OA
BRANCH  33  34
ATOM     34  C   UNL     1       2.979   3.803  -3.873  1.00  0.00     0.338 C 
ATOM     35  O   UNL     1       2.224   3.736  -4.826  1.00  0.00    -0.246 OA
BRANCH  34  36
ATOM     36  C   UNL     1       2.705   4.667  -2.700  1.00  0.00     0.060 A 
ATOM     37  C   UNL     1       1.513   4.479  -1.985  1.00  0.00     0.016 A 
ATOM     38  C   UNL     1       3.561   5.718  -2.365  1.00  0.00     0.016 A 
ATOM     39  C   UNL     1       1.164   5.356  -0.952  1.00  0.00     0.010 A 
ATOM     40  C   UNL     1       3.200   6.606  -1.340  1.00  0.00     0.010 A 
ATOM     41  C   UNL     1       1.987   6.450  -0.646  1.00  0.00    -0.014 A 
BRANCH  41  42
ATOM     42  C   UNL     1       1.504   7.504   0.289  1.00  0.00     0.031 A 
ATOM     43  C   UNL     1       0.881   8.754  -0.275  1.00  0.00     0.074 A 
ATOM     44  C   UNL     1       1.588   7.350   1.623  1.00  0.00     0.049 A 
ATOM     45  N   UNL     1       0.390   9.793   0.352  1.00  0.00    -0.248 NA
ATOM     46  C   UNL     1       0.806   8.843  -1.740  1.00  0.00     0.031 C 
ATOM     47  C   UNL     1       2.133   6.178   2.303  1.00  0.00     0.029 A 
ATOM     48  N   UNL     1       1.210   8.187   2.647  1.00  0.00    -0.354 N 
ATOM     49  C   UNL     1      -0.057  10.658  -0.641  1.00  0.00     0.074 A 
ATOM     50  C   UNL     1       0.262  10.039  -1.910  1.00  0.00     0.031 C 
ATOM     51  C   UNL     1       2.050   6.367   3.631  1.00  0.00     0.029 A 
ATOM     52  C   UNL     1       1.473   7.685   3.899  1.00  0.00     0.049 A 
ATOM     53  H   UNL     1       0.790   9.065   2.497  1.00  0.00     0.167 HD
ATOM     54  C   UNL     1      -0.688  11.851  -0.509  1.00  0.00     0.034 A 
ATOM     55  C   UNL     1       1.284   8.224   5.123  1.00  0.00     0.034 A 
ATOM     56  C   UNL     1      -0.997  12.468   0.756  1.00  0.00     0.049 A 
ATOM     57  C   UNL     1       0.666   9.594   5.253  1.00  0.00     0.074 A 
ATOM     58  C   UNL     1      -1.663  13.659   0.990  1.00  0.00     0.029 A 
ATOM     59  N   UNL     1      -0.645  11.959   1.998  1.00  0.00    -0.354 N 
ATOM     60  N   UNL     1       0.241  10.396   4.305  1.00  0.00    -0.248 NA
ATOM     61  C   UNL     1       0.501  10.133   6.611  1.00  0.00     0.031 C 
ATOM     62  C   UNL     1      -1.645  13.908   2.365  1.00  0.00     0.029 A 
ATOM     63  C   UNL     1      -1.039  12.834   2.998  1.00  0.00     0.049 A 
ATOM     64  H   UNL     1      -0.184  11.102   2.147  1.00  0.00     0.167 HD
ATOM     65  C   UNL     1      -0.263  11.521   4.952  1.00  0.00     0.074 A 
ATOM     66  C   UNL     1      -0.081  11.303   6.372  1.00  0.00     0.031 C 
ATOM     67  C   UNL     1      -0.839  12.625   4.413  1.00  0.00     0.034 A 
BRANCH  54  68
ATOM     68  C   UNL     1      -1.049  12.588  -1.774  1.00  0.00     0.023 A 
ATOM     69  C   UNL     1      -2.000  12.082  -2.676  1.00  0.00     0.031 A 
ATOM     70  C   UNL     1      -0.429  13.812  -2.083  1.00  0.00     0.131 A 
ATOM     71  C   UNL     1      -2.257  12.764  -3.875  1.00  0.00     0.055 A 
ATOM     72  C   UNL     1      -0.743  14.523  -3.243  1.00  0.00     0.041 A 
ATOM     73  F   UNL     1       0.499  14.333  -1.266  1.00  0.00    -0.206 F 
ATOM     74  C   UNL     1      -1.653  13.993  -4.153  1.00  0.00     0.022 A 
BRANCH  71  75
ATOM     75  S   UNL     1      -3.302  11.963  -5.121  1.00  0.00     0.124 S 
ATOM     76  O   UNL     1      -2.549  10.741  -5.394  1.00  0.00    -0.237 OA
ATOM     77  O   UNL     1      -4.564  11.791  -4.411  1.00  0.00    -0.237 OA
ATOM     78  O   UNL     1      -3.329  12.928  -6.218  1.00  0.00    -0.744 OA
ENDBRANCH  71  75
ENDBRANCH  54  68
BRANCH  55  79
ATOM     79  C   UNL     1       1.711   7.457   6.327  1.00  0.00     0.023 A 
ATOM     80  C   UNL     1       0.771   6.864   7.182  1.00  0.00     0.031 A 
ATOM     81  C   UNL     1       3.077   7.268   6.605  1.00  0.00     0.131 A 
ATOM     82  C   UNL     1       1.211   6.104   8.278  1.00  0.00     0.055 A 
ATOM     83  C   UNL     1       3.509   6.488   7.679  1.00  0.00     0.041 A 
ATOM     84  F   UNL     1       4.012   7.807   5.808  1.00  0.00    -0.206 F 
ATOM     85  C   UNL     1       2.573   5.900   8.523  1.00  0.00     0.022 A 
BRANCH  82  86
ATOM     86  S   UNL     1      -0.020   5.357   9.382  1.00  0.00     0.124 S 
ATOM     87  O   UNL     1      -0.585   6.533  10.033  1.00  0.00    -0.237 OA
ATOM     88  O   UNL     1      -0.889   4.659   8.441  1.00  0.00    -0.237 OA
ATOM     89  O   UNL     1       0.782   4.489  10.242  1.00  0.00    -0.744 OA
ENDBRANCH  82  86
ENDBRANCH  55  79
BRANCH  67  90
ATOM     90  C   UNL     1      -1.352  13.695   5.343  1.00  0.00     0.023 A 
ATOM     91  C   UNL     1      -0.483  14.585   5.995  1.00  0.00     0.031 A 
ATOM     92  C   UNL     1      -2.738  13.898   5.479  1.00  0.00     0.131 A 
ATOM     93  C   UNL     1      -1.011  15.641   6.756  1.00  0.00     0.055 A 
ATOM     94  C   UNL     1      -3.256  14.971   6.205  1.00  0.00     0.041 A 
ATOM     95  F   UNL     1      -3.610  13.079   4.868  1.00  0.00    -0.206 F 
ATOM     96  C   UNL     1      -2.391  15.851   6.847  1.00  0.00     0.022 A 
BRANCH  93  97
ATOM     97  S   UNL     1       0.129  16.755   7.624  1.00  0.00     0.124 S 
ATOM     98  O   UNL     1       0.703  15.870   8.633  1.00  0.00    -0.237 OA
ATOM     99  O   UNL     1       1.032  17.179   6.560  1.00  0.00    -0.237 OA
ATOM    100  O   UNL     1      -0.746  17.804   8.145  1.00  0.00    -0.744 OA
ENDBRANCH  93  97
ENDBRANCH  67  90
ENDBRANCH  41  42
ENDBRANCH  34  36
ENDBRANCH  33  34
ENDBRANCH  32  33
ENDBRANCH  31  32
ENDBRANCH  30  31
ENDBRANCH  29  30
ENDBRANCH   1  29
TORSDOF 25
