REMARK SMILES Cc1ccc(S(=O)(=O)n2cc(C(=O)C(=O)N[C@@H](Cc3c[nH]c4ccccc34)C(=O)OCCOCCOCCOC(=O)c3ccc(-c4c5nc(c(-c6cc(S(=O)(=O)[O-])ccc6F)c6ccc([nH]6)c(-c6cc(S(=O)(=O)[O-])ccc6F)c6nc(c(-c7cc(S(=O)(=O)[O-])ccc7F)c7ccc4[nH]7)C=C6)C=C5)cc3)c3ccccc32)cc1
REMARK SMILES IDX 34 1 33 2 32 3 31 4 30 5 28 6 29 7 17 8 16 9 14 10 15 11
REMARK SMILES IDX 12 13 13 14 11 15 9 16 10 17 110 18 105 19 109 20 106 21
REMARK SMILES IDX 108 22 107 23 6 24 7 25 8 26 5 27 1 28 2 29 3 30 112 31 4 32
REMARK SMILES IDX 111 33 18 34 19 35 20 36 27 37 21 38 22 39 26 40 23 42 25 43
REMARK SMILES IDX 24 44 35 45 36 46 37 47 38 48 39 49 40 50 41 51 42 52 43 53
REMARK SMILES IDX 104 54 44 55 103 56 45 57 46 58 47 59 97 60 48 61 102 62
REMARK SMILES IDX 96 63 98 64 49 65 101 66 95 67 94 68 50 70 82 71 62 72 81 73
REMARK SMILES IDX 63 74 66 75 80 76 99 77 64 78 65 79 79 81 100 82 67 83 51 84
REMARK SMILES IDX 52 85 60 86 53 87 59 88 61 89 58 90 54 91 55 92 56 93 57 94
REMARK SMILES IDX 83 95 84 96 92 97 85 98 91 99 93 100 90 101 86 102 87 103
REMARK SMILES IDX 88 104 89 105 68 106 69 107 77 108 70 109 76 110 78 111
REMARK SMILES IDX 75 112 71 113 72 114 73 115 74 116
REMARK H PARENT 16 12 21 41 98 69 66 80
REMARK Flexibility Score: inf
ROOT
ATOM      1  C   UNL     1     -10.800   0.989  -5.518  1.00  0.00     0.188 C 
ENDROOT
BRANCH   1   2
ATOM      2  O   UNL     1     -12.053   1.256  -6.078  1.00  0.00    -0.376 OA
BRANCH   2   3
ATOM      3  C   UNL     1     -12.852   2.034  -5.250  1.00  0.00     0.202 C 
BRANCH   3   4
ATOM      4  C   UNL     1     -12.378   2.401  -3.816  1.00  0.00     0.261 C 
BRANCH   4   5
ATOM      5  O   UNL     1     -11.283   1.518  -2.683  1.00  0.00    -0.462 OA
BRANCH   5   6
ATOM      6  C   UNL     1     -11.207   0.555  -1.556  1.00  0.00     0.329 C 
ATOM      7  O   UNL     1     -11.734  -0.548  -1.715  1.00  0.00    -0.250 OA
BRANCH   6   8
ATOM      8  C   UNL     1     -10.613   0.623   0.040  1.00  0.00     0.197 C 
BRANCH   8   9
ATOM      9  N   UNL     1      -9.662   1.453   0.836  1.00  0.00    -0.335 N 
ATOM     10  C   UNL     1      -8.325   1.627   0.661  1.00  0.00     0.293 C 
ATOM     11  O   UNL     1      -7.680   2.392   1.366  1.00  0.00    -0.265 OA
ATOM     12  H   UNL     1     -10.057   1.942   1.593  1.00  0.00     0.164 HD
BRANCH  10  13
ATOM     13  C   UNL     1      -7.702   0.872  -0.505  1.00  0.00     0.252 C 
ATOM     14  O   UNL     1      -8.430   0.424  -1.385  1.00  0.00    -0.283 OA
BRANCH  13  15
ATOM     15  C   UNL     1      -6.357   0.417  -0.356  1.00  0.00     0.054 A 
ATOM     16  N   UNL     1      -4.452  -0.046   0.620  1.00  0.00    -0.240 N 
ATOM     17  C   UNL     1      -5.188   1.011   0.112  1.00  0.00     0.117 A 
ATOM     18  C   UNL     1      -5.308  -1.174   0.633  1.00  0.00     0.065 A 
ATOM     19  C   UNL     1      -6.124  -0.955  -0.460  1.00  0.00     0.012 A 
ATOM     20  C   UNL     1      -5.133  -2.462   1.160  1.00  0.00     0.028 A 
ATOM     21  C   UNL     1      -6.704  -2.025  -1.151  1.00  0.00     0.011 A 
ATOM     22  C   UNL     1      -5.609  -3.525   0.388  1.00  0.00     0.002 A 
ATOM     23  C   UNL     1      -6.361  -3.314  -0.766  1.00  0.00     0.001 A 
BRANCH  16  24
ATOM     24  S   UNL     1      -2.906  -0.601   0.195  1.00  0.00     0.268 S 
ATOM     25  O   UNL     1      -3.153  -1.260  -1.082  1.00  0.00    -0.201 OA
ATOM     26  O   UNL     1      -2.609  -1.361   1.409  1.00  0.00    -0.201 OA
BRANCH  24  27
ATOM     27  C   UNL     1      -1.341   0.077  -0.064  1.00  0.00     0.088 A 
ATOM     28  C   UNL     1       2.931   0.316  -0.019  1.00  0.00     0.044 C 
ATOM     29  C   UNL     1       1.439   0.302  -0.106  1.00  0.00    -0.051 A 
ATOM     30  C   UNL     1       0.877  -0.952  -0.230  1.00  0.00     0.005 A 
ATOM     31  C   UNL     1       0.604   1.447  -0.032  1.00  0.00     0.005 A 
ATOM     32  C   UNL     1      -0.483  -1.043  -0.248  1.00  0.00     0.022 A 
ATOM     33  C   UNL     1      -0.811   1.346   0.001  1.00  0.00     0.022 A 
ENDBRANCH  24  27
ENDBRANCH  16  24
ENDBRANCH  13  15
ENDBRANCH  10  13
ENDBRANCH   8   9
BRANCH   8  34
ATOM     34  C   UNL     1     -11.810   0.611   1.014  1.00  0.00     0.074 C 
BRANCH  34  35
ATOM     35  C   UNL     1     -12.538   1.856   0.770  1.00  0.00    -0.020 A 
ATOM     36  C   UNL     1     -14.239   1.784   0.192  1.00  0.00     0.087 A 
ATOM     37  C   UNL     1     -11.962   3.726   0.690  1.00  0.00     0.003 A 
ATOM     38  N   UNL     1     -14.735   3.536  -0.348  1.00  0.00    -0.361 N 
ATOM     39  C   UNL     1     -13.320   4.688  -0.047  1.00  0.00     0.046 A 
ATOM     40  C   UNL     1     -10.841   4.506   1.120  1.00  0.00     0.010 A 
ATOM     41  H   UNL     1     -15.607   3.791  -0.728  1.00  0.00     0.166 HD
ATOM     42  C   UNL     1     -13.213   6.092  -0.015  1.00  0.00     0.026 A 
ATOM     43  C   UNL     1     -10.872   5.913   0.949  1.00  0.00     0.001 A 
ATOM     44  C   UNL     1     -11.990   6.648   0.456  1.00  0.00     0.002 A 
ENDBRANCH  34  35
ENDBRANCH   8  34
ENDBRANCH   6   8
ENDBRANCH   5   6
ENDBRANCH   4   5
ENDBRANCH   3   4
ENDBRANCH   2   3
ENDBRANCH   1   2
BRANCH   1  45
ATOM     45  C   UNL     1      -9.898   2.173  -5.246  1.00  0.00     0.188 C 
BRANCH  45  46
ATOM     46  O   UNL     1     -10.520   3.367  -4.845  1.00  0.00    -0.376 OA
BRANCH  46  47
ATOM     47  C   UNL     1     -10.735   4.518  -5.612  1.00  0.00     0.202 C 
BRANCH  47  48
ATOM     48  C   UNL     1      -9.442   4.917  -6.234  1.00  0.00     0.261 C 
BRANCH  48  49
ATOM     49  O   UNL     1      -8.311   5.116  -5.319  1.00  0.00    -0.460 OA
BRANCH  49  50
ATOM     50  C   UNL     1      -8.020   4.404  -4.192  1.00  0.00     0.338 C 
ATOM     51  O   UNL     1      -6.950   3.809  -4.075  1.00  0.00    -0.246 OA
BRANCH  50  52
ATOM     52  C   UNL     1      -9.001   4.419  -3.053  1.00  0.00     0.060 A 
ATOM     53  C   UNL     1      -9.016   3.338  -2.233  1.00  0.00     0.016 A 
ATOM     54  C   UNL     1     -10.037   5.326  -2.831  1.00  0.00     0.016 A 
ATOM     55  C   UNL     1     -10.155   3.156  -1.425  1.00  0.00     0.010 A 
ATOM     56  C   UNL     1     -11.295   4.903  -2.216  1.00  0.00     0.010 A 
ATOM     57  C   UNL     1     -11.468   3.663  -1.568  1.00  0.00    -0.014 A 
BRANCH  57  58
ATOM     58  C   UNL     1     -13.005   2.863  -0.871  1.00  0.00     0.031 A 
ATOM     59  C   UNL     1     -13.745   3.281   1.214  1.00  0.00     0.074 A 
ATOM     60  C   UNL     1     -13.757   1.762  -1.893  1.00  0.00     0.049 A 
ATOM     61  N   UNL     1     -14.560   2.526   2.082  1.00  0.00    -0.248 NA
ATOM     62  C   UNL     1     -13.544   4.480   2.381  1.00  0.00     0.031 C 
ATOM     63  C   UNL     1     -15.257   1.614  -2.284  1.00  0.00     0.029 A 
ATOM     64  N   UNL     1     -13.405   0.633  -2.804  1.00  0.00    -0.354 N 
ATOM     65  C   UNL     1     -15.452   3.405   2.599  1.00  0.00     0.074 A 
ATOM     66  C   UNL     1     -14.621   4.399   3.164  1.00  0.00     0.031 C 
ATOM     67  C   UNL     1     -15.539   0.466  -2.965  1.00  0.00     0.029 A 
ATOM     68  C   UNL     1     -14.337  -0.305  -3.192  1.00  0.00     0.049 A 
ATOM     69  H   UNL     1     -12.481   0.556  -3.136  1.00  0.00     0.167 HD
ATOM     70  C   UNL     1     -16.706   3.441   2.070  1.00  0.00     0.034 A 
ATOM     71  C   UNL     1     -14.150  -1.673  -3.312  1.00  0.00     0.034 A 
ATOM     72  C   UNL     1     -17.102   2.314   1.176  1.00  0.00     0.049 A 
ATOM     73  C   UNL     1     -14.987  -2.212  -2.153  1.00  0.00     0.074 A 
ATOM     74  C   UNL     1     -17.695   2.261  -0.082  1.00  0.00     0.029 A 
ATOM     75  N   UNL     1     -16.781   0.988   1.479  1.00  0.00    -0.354 N 
ATOM     76  N   UNL     1     -15.357  -1.419  -1.177  1.00  0.00    -0.248 NA
ATOM     77  C   UNL     1     -15.567  -3.549  -2.029  1.00  0.00     0.031 C 
ATOM     78  C   UNL     1     -17.730   0.903  -0.517  1.00  0.00     0.029 A 
ATOM     79  C   UNL     1     -17.129   0.112   0.449  1.00  0.00     0.049 A 
ATOM     80  H   UNL     1     -16.359   0.705   2.322  1.00  0.00     0.167 HD
ATOM     81  C   UNL     1     -16.304  -2.020  -0.417  1.00  0.00     0.074 A 
ATOM     82  C   UNL     1     -16.372  -3.376  -0.961  1.00  0.00     0.031 C 
ATOM     83  C   UNL     1     -16.960  -1.344   0.577  1.00  0.00     0.034 A 
BRANCH  70  84
ATOM     84  C   UNL     1     -17.566   4.657   2.215  1.00  0.00     0.023 A 
ATOM     85  C   UNL     1     -18.927   4.447   1.996  1.00  0.00     0.031 A 
ATOM     86  C   UNL     1     -17.185   5.976   2.547  1.00  0.00     0.131 A 
ATOM     87  C   UNL     1     -19.857   5.455   2.219  1.00  0.00     0.055 A 
ATOM     88  C   UNL     1     -18.121   6.965   2.854  1.00  0.00     0.041 A 
ATOM     89  F   UNL     1     -15.910   6.389   2.546  1.00  0.00    -0.206 F 
ATOM     90  C   UNL     1     -19.474   6.698   2.713  1.00  0.00     0.022 A 
BRANCH  87  91
ATOM     91  S   UNL     1     -21.574   5.059   1.860  1.00  0.00     0.124 S 
ATOM     92  O   UNL     1     -21.550   4.967   0.403  1.00  0.00    -0.237 OA
ATOM     93  O   UNL     1     -21.758   3.806   2.584  1.00  0.00    -0.237 OA
ATOM     94  O   UNL     1     -22.296   6.205   2.404  1.00  0.00    -0.744 OA
ENDBRANCH  87  91
ENDBRANCH  70  84
BRANCH  71  95
ATOM     95  C   UNL     1     -12.821  -2.296  -3.805  1.00  0.00     0.023 A 
ATOM     96  C   UNL     1     -12.411  -2.205  -5.169  1.00  0.00     0.031 A 
ATOM     97  C   UNL     1     -11.807  -2.681  -2.915  1.00  0.00     0.131 A 
ATOM     98  C   UNL     1     -11.031  -2.204  -5.530  1.00  0.00     0.055 A 
ATOM     99  C   UNL     1     -10.445  -2.484  -3.236  1.00  0.00     0.041 A 
ATOM    100  F   UNL     1     -12.096  -3.035  -1.652  1.00  0.00    -0.206 F 
ATOM    101  C   UNL     1     -10.056  -2.183  -4.534  1.00  0.00     0.022 A 
BRANCH  98 102
ATOM    102  S   UNL     1     -10.473  -1.981  -7.278  1.00  0.00     0.124 S 
ATOM    103  O   UNL     1     -10.438  -3.350  -7.776  1.00  0.00    -0.237 OA
ATOM    104  O   UNL     1     -11.501  -1.130  -7.864  1.00  0.00    -0.237 OA
ATOM    105  O   UNL     1      -9.156  -1.352  -7.141  1.00  0.00    -0.744 OA
ENDBRANCH  98 102
ENDBRANCH  71  95
BRANCH  83 106
ATOM    106  C   UNL     1     -17.610  -2.049   1.723  1.00  0.00     0.023 A 
ATOM    107  C   UNL     1     -17.365  -3.397   1.987  1.00  0.00     0.031 A 
ATOM    108  C   UNL     1     -18.420  -1.366   2.655  1.00  0.00     0.131 A 
ATOM    109  C   UNL     1     -18.033  -4.050   3.022  1.00  0.00     0.055 A 
ATOM    110  C   UNL     1     -18.953  -1.983   3.779  1.00  0.00     0.041 A 
ATOM    111  F   UNL     1     -18.730  -0.069   2.533  1.00  0.00    -0.206 F 
ATOM    112  C   UNL     1     -18.798  -3.347   3.946  1.00  0.00     0.022 A 
BRANCH 109 113
ATOM    113  S   UNL     1     -17.978  -5.852   3.023  1.00  0.00     0.124 S 
ATOM    114  O   UNL     1     -18.622  -6.168   1.750  1.00  0.00    -0.237 OA
ATOM    115  O   UNL     1     -16.546  -6.125   3.090  1.00  0.00    -0.237 OA
ATOM    116  O   UNL     1     -18.741  -6.212   4.215  1.00  0.00    -0.744 OA
ENDBRANCH 109 113
ENDBRANCH  83 106
ENDBRANCH  57  58
ENDBRANCH  50  52
ENDBRANCH  49  50
ENDBRANCH  48  49
ENDBRANCH  47  48
ENDBRANCH  46  47
ENDBRANCH  45  46
ENDBRANCH   1  45
TORSDOF 27
