REMARK SMILES O=C(CN1C(=O)/C(=C\c2c(F)cccc2Cl)Oc2ccccc21)OCCOCCOCCOC(=O)c1ccc(-c2c3nc(c(-c4cc(S(=O)(=O)[O-])ccc4F)c4ccc([nH]4)c(-c4cc(S(=O)(=O)[O-])ccc4F)c4nc(c(-c5cc(S(=O)(=O)[O-])ccc5F)c5ccc2[nH]5)C=C4)C=C3)cc1
REMARK SMILES IDX 29 1 28 2 27 3 26 4 25 5 24 6 2 7 1 8 3 9 4 10 5 11 23 12
REMARK SMILES IDX 6 13 7 14 18 15 22 16 8 17 17 18 19 19 21 20 20 21 9 22
REMARK SMILES IDX 10 23 15 24 11 25 12 26 14 27 16 28 13 29 30 30 31 31 32 32
REMARK SMILES IDX 33 33 34 34 35 35 36 36 37 37 98 38 38 39 97 40 39 41 40 42
REMARK SMILES IDX 41 43 91 44 42 45 96 46 90 47 92 48 43 49 95 50 89 51 88 52
REMARK SMILES IDX 44 54 76 55 56 56 75 57 57 58 60 59 74 60 93 61 58 62 59 63
REMARK SMILES IDX 73 65 94 66 61 67 45 68 46 69 54 70 47 71 53 72 55 73 52 74
REMARK SMILES IDX 48 75 49 76 50 77 51 78 77 79 78 80 86 81 79 82 85 83 87 84
REMARK SMILES IDX 84 85 80 86 81 87 82 88 83 89 62 90 63 91 71 92 64 93 70 94
REMARK SMILES IDX 72 95 69 96 65 97 66 98 67 99 68 100
REMARK H PARENT 92 53 60 64
REMARK Flexibility Score: inf
ROOT
ATOM      1  C   UNL     1       2.264  -2.185  -2.268  1.00  0.00     0.188 C 
ENDROOT
BRANCH   1   2
ATOM      2  C   UNL     1       2.885  -0.785  -2.156  1.00  0.00     0.188 C 
BRANCH   2   3
ATOM      3  O   UNL     1       4.293  -0.701  -2.075  1.00  0.00    -0.376 OA
BRANCH   3   4
ATOM      4  C   UNL     1       4.925  -0.683  -0.802  1.00  0.00     0.202 C 
BRANCH   4   5
ATOM      5  C   UNL     1       4.178  -1.269   0.385  1.00  0.00     0.261 C 
BRANCH   5   6
ATOM      6  O   UNL     1       2.892  -0.712   0.778  1.00  0.00    -0.462 OA
BRANCH   6   7
ATOM      7  C   UNL     1       2.377   0.533   0.834  1.00  0.00     0.326 C 
ATOM      8  O   UNL     1       1.279   0.683   1.374  1.00  0.00    -0.250 OA
BRANCH   7   9
ATOM      9  C   UNL     1       3.113   1.739   0.251  1.00  0.00     0.248 C 
BRANCH   9  10
ATOM     10  N   UNL     1       3.700   2.513   1.318  1.00  0.00    -0.291 N 
ATOM     11  C   UNL     1       4.560   1.861   2.175  1.00  0.00     0.294 C 
ATOM     12  C   UNL     1       3.601   3.922   1.437  1.00  0.00     0.088 A 
ATOM     13  O   UNL     1       5.232   0.883   1.879  1.00  0.00    -0.265 OA
ATOM     14  C   UNL     1       4.472   2.405   3.550  1.00  0.00     0.193 C 
ATOM     15  C   UNL     1       4.109   4.524   2.607  1.00  0.00     0.151 A 
ATOM     16  C   UNL     1       3.112   4.737   0.410  1.00  0.00     0.030 A 
ATOM     17  C   UNL     1       4.102   1.597   4.565  1.00  0.00     0.065 C 
ATOM     18  O   UNL     1       4.534   3.783   3.699  1.00  0.00    -0.449 OA
ATOM     19  C   UNL     1       4.149   5.911   2.733  1.00  0.00     0.049 A 
ATOM     20  C   UNL     1       3.142   6.127   0.549  1.00  0.00     0.002 A 
ATOM     21  C   UNL     1       3.668   6.712   1.700  1.00  0.00     0.004 A 
BRANCH  17  22
ATOM     22  C   UNL     1       3.689   0.179   4.420  1.00  0.00     0.033 A 
ATOM     23  C   UNL     1       4.637  -0.837   4.241  1.00  0.00     0.132 A 
ATOM     24  C   UNL     1       2.332  -0.197   4.406  1.00  0.00     0.051 A 
ATOM     25  F   UNL     1       5.947  -0.550   4.274  1.00  0.00    -0.206 F 
ATOM     26  C   UNL     1       4.263  -2.164   4.008  1.00  0.00     0.040 A 
ATOM     27  C   UNL     1       1.951  -1.527   4.166  1.00  0.00     0.021 A 
ATOM     28  Cl  UNL     1       1.068   0.950   4.694  1.00  0.00    -0.084 Cl
ATOM     29  C   UNL     1       2.917  -2.510   3.957  1.00  0.00     0.005 A 
ENDBRANCH  17  22
ENDBRANCH   9  10
ENDBRANCH   7   9
ENDBRANCH   6   7
ENDBRANCH   5   6
ENDBRANCH   4   5
ENDBRANCH   3   4
ENDBRANCH   2   3
ENDBRANCH   1   2
BRANCH   1  30
ATOM     30  O   UNL     1       3.097  -3.320  -2.094  1.00  0.00    -0.376 OA
BRANCH  30  31
ATOM     31  C   UNL     1       4.264  -3.442  -2.904  1.00  0.00     0.202 C 
BRANCH  31  32
ATOM     32  C   UNL     1       4.145  -3.212  -4.418  1.00  0.00     0.261 C 
BRANCH  32  33
ATOM     33  O   UNL     1       3.954  -1.829  -4.780  1.00  0.00    -0.460 OA
BRANCH  33  34
ATOM     34  C   UNL     1       2.832  -1.540  -5.488  1.00  0.00     0.338 C 
ATOM     35  O   UNL     1       1.976  -2.335  -5.844  1.00  0.00    -0.246 OA
BRANCH  34  36
ATOM     36  C   UNL     1       2.672  -0.073  -5.621  1.00  0.00     0.060 A 
ATOM     37  C   UNL     1       3.688   0.733  -6.140  1.00  0.00     0.016 A 
ATOM     38  C   UNL     1       1.457   0.503  -5.218  1.00  0.00     0.016 A 
ATOM     39  C   UNL     1       3.469   2.109  -6.292  1.00  0.00     0.010 A 
ATOM     40  C   UNL     1       1.256   1.881  -5.332  1.00  0.00     0.010 A 
ATOM     41  C   UNL     1       2.250   2.692  -5.900  1.00  0.00    -0.014 A 
BRANCH  41  42
ATOM     42  C   UNL     1       1.932   4.093  -6.279  1.00  0.00     0.031 A 
ATOM     43  C   UNL     1       2.171   5.253  -5.365  1.00  0.00     0.074 A 
ATOM     44  C   UNL     1       1.395   4.302  -7.496  1.00  0.00     0.049 A 
ATOM     45  N   UNL     1       1.973   6.527  -5.588  1.00  0.00    -0.248 NA
ATOM     46  C   UNL     1       2.699   4.947  -4.031  1.00  0.00     0.031 C 
ATOM     47  C   UNL     1       1.110   3.245  -8.464  1.00  0.00     0.029 A 
ATOM     48  N   UNL     1       1.003   5.456  -8.127  1.00  0.00    -0.354 N 
ATOM     49  C   UNL     1       2.343   7.185  -4.422  1.00  0.00     0.074 A 
ATOM     50  C   UNL     1       2.774   6.160  -3.494  1.00  0.00     0.031 C 
ATOM     51  C   UNL     1       0.606   3.798  -9.574  1.00  0.00     0.029 A 
ATOM     52  C   UNL     1       0.505   5.246  -9.390  1.00  0.00     0.049 A 
ATOM     53  H   UNL     1       1.071   6.347  -7.714  1.00  0.00     0.167 HD
ATOM     54  C   UNL     1       2.326   8.516  -4.161  1.00  0.00     0.034 A 
ATOM     55  C   UNL     1       0.029   6.113 -10.308  1.00  0.00     0.034 A 
ATOM     56  C   UNL     1       1.921   9.523  -5.115  1.00  0.00     0.049 A 
ATOM     57  C   UNL     1       0.059   7.588 -10.014  1.00  0.00     0.074 A 
ATOM     58  C   UNL     1       1.939  10.899  -4.959  1.00  0.00     0.029 A 
ATOM     59  N   UNL     1       1.431   9.278  -6.390  1.00  0.00    -0.354 N 
ATOM     60  N   UNL     1       0.480   8.201  -8.934  1.00  0.00    -0.248 NA
ATOM     61  C   UNL     1      -0.431   8.494 -11.063  1.00  0.00     0.031 C 
ATOM     62  C   UNL     1       1.402  11.481  -6.108  1.00  0.00     0.029 A 
ATOM     63  C   UNL     1       1.121  10.475  -7.018  1.00  0.00     0.049 A 
ATOM     64  H   UNL     1       1.321   8.385  -6.790  1.00  0.00     0.167 HD
ATOM     65  C   UNL     1       0.324   9.563  -9.178  1.00  0.00     0.074 A 
ATOM     66  C   UNL     1      -0.210   9.685 -10.518  1.00  0.00     0.031 C 
ATOM     67  C   UNL     1       0.598  10.608  -8.358  1.00  0.00     0.034 A 
BRANCH  54  68
ATOM     68  C   UNL     1       2.763   9.004  -2.798  1.00  0.00     0.023 A 
ATOM     69  C   UNL     1       1.856   9.711  -1.982  1.00  0.00     0.031 A 
ATOM     70  C   UNL     1       4.101   8.915  -2.377  1.00  0.00     0.131 A 
ATOM     71  C   UNL     1       2.308  10.330  -0.810  1.00  0.00     0.055 A 
ATOM     72  C   UNL     1       4.537   9.498  -1.186  1.00  0.00     0.041 A 
ATOM     73  F   UNL     1       5.006   8.257  -3.119  1.00  0.00    -0.206 F 
ATOM     74  C   UNL     1       3.642  10.223  -0.405  1.00  0.00     0.022 A 
BRANCH  71  75
ATOM     75  S   UNL     1       1.207  11.365   0.194  1.00  0.00     0.124 S 
ATOM     76  O   UNL     1       1.156  10.608   1.443  1.00  0.00    -0.237 OA
ATOM     77  O   UNL     1       1.942  12.625   0.258  1.00  0.00    -0.237 OA
ATOM     78  O   UNL     1      -0.036  11.397  -0.569  1.00  0.00    -0.744 OA
ENDBRANCH  71  75
ENDBRANCH  54  68
BRANCH  55  79
ATOM     79  C   UNL     1      -0.421   5.567 -11.619  1.00  0.00     0.023 A 
ATOM     80  C   UNL     1      -1.508   4.677 -11.689  1.00  0.00     0.031 A 
ATOM     81  C   UNL     1       0.338   5.785 -12.780  1.00  0.00     0.131 A 
ATOM     82  C   UNL     1      -1.745   3.965 -12.871  1.00  0.00     0.055 A 
ATOM     83  C   UNL     1       0.050   5.129 -13.977  1.00  0.00     0.041 A 
ATOM     84  F   UNL     1       1.393   6.613 -12.753  1.00  0.00    -0.206 F 
ATOM     85  C   UNL     1      -0.982   4.196 -14.020  1.00  0.00     0.022 A 
BRANCH  82  86
ATOM     86  S   UNL     1      -2.939   2.599 -12.905  1.00  0.00     0.124 S 
ATOM     87  O   UNL     1      -3.838   3.006 -13.980  1.00  0.00    -0.237 OA
ATOM     88  O   UNL     1      -2.074   1.459 -13.202  1.00  0.00    -0.237 OA
ATOM     89  O   UNL     1      -3.514   2.609 -11.564  1.00  0.00    -0.744 OA
ENDBRANCH  82  86
ENDBRANCH  55  79
BRANCH  67  90
ATOM     90  C   UNL     1       0.331  12.014  -8.847  1.00  0.00     0.023 A 
ATOM     91  C   UNL     1       1.393  12.933  -8.963  1.00  0.00     0.031 A 
ATOM     92  C   UNL     1      -0.980  12.491  -9.018  1.00  0.00     0.131 A 
ATOM     93  C   UNL     1       1.122  14.289  -9.188  1.00  0.00     0.055 A 
ATOM     94  C   UNL     1      -1.242  13.835  -9.289  1.00  0.00     0.041 A 
ATOM     95  F   UNL     1      -2.027  11.658  -8.907  1.00  0.00    -0.206 F 
ATOM     96  C   UNL     1      -0.189  14.744  -9.358  1.00  0.00     0.022 A 
BRANCH  93  97
ATOM     97  S   UNL     1       2.450  15.526  -9.175  1.00  0.00     0.124 S 
ATOM     98  O   UNL     1       2.317  16.127 -10.500  1.00  0.00    -0.237 OA
ATOM     99  O   UNL     1       2.060  16.384  -8.059  1.00  0.00    -0.237 OA
ATOM    100  O   UNL     1       3.662  14.740  -8.970  1.00  0.00    -0.744 OA
ENDBRANCH  93  97
ENDBRANCH  67  90
ENDBRANCH  41  42
ENDBRANCH  34  36
ENDBRANCH  33  34
ENDBRANCH  32  33
ENDBRANCH  31  32
ENDBRANCH  30  31
ENDBRANCH   1  30
TORSDOF 22
