REMARK SMILES CCCN(CC(=O)OCCOCCOCCOC(=O)c1ccc(-c2c3nc(c(-c4cc(S(=O)(=O)[O-])ccc4F)c4ccc([nH]4)c(-c4cc(S(=O)(=O)[O-])ccc4F)c4nc(c(-c5cc(S(=O)(=O)[O-])ccc5F)c5ccc2[nH]5)C=C4)C=C3)cc1)C(=O)[C@H]1C=C[C@@H]([NH3+])C1
REMARK SMILES IDX 12 1 11 2 10 3 9 4 8 5 6 6 7 7 5 8 4 9 3 10 2 11 1 12 83 13
REMARK SMILES IDX 84 14 85 15 86 16 90 17 87 18 88 19 89 20 13 24 14 25 15 26
REMARK SMILES IDX 16 27 17 28 18 29 19 30 20 31 21 32 82 33 22 34 81 35 23 36
REMARK SMILES IDX 24 37 25 38 75 39 26 40 80 41 74 42 76 43 27 44 79 45 73 46
REMARK SMILES IDX 72 47 28 49 60 50 40 51 59 52 41 53 44 54 58 55 77 56 42 57
REMARK SMILES IDX 43 58 57 60 78 61 45 62 29 63 30 64 38 65 31 66 37 67 39 68
REMARK SMILES IDX 36 69 32 70 33 71 34 72 35 73 61 74 62 75 70 76 63 77 69 78
REMARK SMILES IDX 71 79 68 80 64 81 65 82 66 83 67 84 46 85 47 86 55 87 48 88
REMARK SMILES IDX 54 89 56 90 53 91 49 92 50 93 51 94 52 95
REMARK H PARENT 89 21 89 22 89 23 76 48 44 59
REMARK Flexibility Score: inf
ROOT
ATOM      1  C   UNL     1       1.359   1.280   6.379  1.00  0.00     0.188 C 
ENDROOT
BRANCH   1   2
ATOM      2  O   UNL     1       1.773   0.464   7.468  1.00  0.00    -0.376 OA
BRANCH   2   3
ATOM      3  C   UNL     1       2.329  -0.809   7.161  1.00  0.00     0.202 C 
BRANCH   3   4
ATOM      4  C   UNL     1       1.362  -1.808   6.514  1.00  0.00     0.261 C 
BRANCH   4   5
ATOM      5  O   UNL     1       1.047  -1.456   5.144  1.00  0.00    -0.462 OA
BRANCH   5   6
ATOM      6  C   UNL     1      -0.257  -1.566   4.773  1.00  0.00     0.325 C 
ATOM      7  O   UNL     1      -1.137  -2.008   5.505  1.00  0.00    -0.250 OA
BRANCH   6   8
ATOM      8  C   UNL     1      -0.584  -0.934   3.400  1.00  0.00     0.242 C 
BRANCH   8   9
ATOM      9  N   UNL     1       0.486  -0.722   2.404  1.00  0.00    -0.331 N 
BRANCH   9  10
ATOM     10  C   UNL     1       0.992  -1.909   1.716  1.00  0.00     0.120 C 
BRANCH  10  11
ATOM     11  C   UNL     1       0.341  -2.104   0.334  1.00  0.00     0.018 C 
ATOM     12  C   UNL     1       0.774  -1.094  -0.726  1.00  0.00     0.006 C 
ENDBRANCH  10  11
ENDBRANCH   9  10
BRANCH   9  13
ATOM     13  C   UNL     1       1.024   0.502   2.011  1.00  0.00     0.230 C 
ATOM     14  O   UNL     1       2.114   0.551   1.432  1.00  0.00    -0.274 OA
BRANCH  13  15
ATOM     15  C   UNL     1       0.232   1.784   2.302  1.00  0.00     0.107 C 
ATOM     16  C   UNL     1       0.969   3.023   1.856  1.00  0.00    -0.012 C 
ATOM     17  C   UNL     1      -1.075   1.915   1.508  1.00  0.00     0.087 C 
ATOM     18  C   UNL     1       0.151   3.912   1.279  1.00  0.00     0.033 C 
ATOM     19  C   UNL     1      -1.255   3.422   1.269  1.00  0.00     0.205 C 
BRANCH  19  20
ATOM     20  N   UNL     1      -1.974   3.701   0.050  1.00  0.00    -0.352 N 
ATOM     21  H   UNL     1      -1.486   3.275  -0.738  1.00  0.00     0.345 HD
ATOM     22  H   UNL     1      -2.029   4.710  -0.089  1.00  0.00     0.345 HD
ATOM     23  H   UNL     1      -2.916   3.316   0.115  1.00  0.00     0.345 HD
ENDBRANCH  19  20
ENDBRANCH  13  15
ENDBRANCH   9  13
ENDBRANCH   8   9
ENDBRANCH   6   8
ENDBRANCH   5   6
ENDBRANCH   4   5
ENDBRANCH   3   4
ENDBRANCH   2   3
ENDBRANCH   1   2
BRANCH   1  24
ATOM     24  C   UNL     1       2.262   1.326   5.132  1.00  0.00     0.188 C 
BRANCH  24  25
ATOM     25  O   UNL     1       3.665   1.371   5.339  1.00  0.00    -0.376 OA
BRANCH  25  26
ATOM     26  C   UNL     1       4.154   2.465   6.102  1.00  0.00     0.202 C 
BRANCH  26  27
ATOM     27  C   UNL     1       3.814   3.843   5.530  1.00  0.00     0.261 C 
BRANCH  27  28
ATOM     28  O   UNL     1       2.410   4.140   5.677  1.00  0.00    -0.460 OA
BRANCH  28  29
ATOM     29  C   UNL     1       2.013   5.219   4.956  1.00  0.00     0.338 C 
ATOM     30  O   UNL     1       2.749   5.958   4.327  1.00  0.00    -0.246 OA
BRANCH  29  31
ATOM     31  C   UNL     1       0.541   5.414   5.006  1.00  0.00     0.060 A 
ATOM     32  C   UNL     1      -0.361   4.356   4.896  1.00  0.00     0.016 A 
ATOM     33  C   UNL     1       0.056   6.721   4.993  1.00  0.00     0.016 A 
ATOM     34  C   UNL     1      -1.716   4.608   4.632  1.00  0.00     0.010 A 
ATOM     35  C   UNL     1      -1.312   6.966   4.813  1.00  0.00     0.010 A 
ATOM     36  C   UNL     1      -2.212   5.918   4.552  1.00  0.00    -0.014 A 
BRANCH  36  37
ATOM     37  C   UNL     1      -3.613   6.234   4.107  1.00  0.00     0.031 A 
ATOM     38  C   UNL     1      -3.834   7.228   2.982  1.00  0.00     0.074 A 
ATOM     39  C   UNL     1      -4.699   5.666   4.674  1.00  0.00     0.049 A 
ATOM     40  N   UNL     1      -4.914   7.894   2.658  1.00  0.00    -0.248 NA
ATOM     41  C   UNL     1      -2.678   7.517   2.115  1.00  0.00     0.031 C 
ATOM     42  C   UNL     1      -4.683   4.613   5.689  1.00  0.00     0.029 A 
ATOM     43  N   UNL     1      -6.043   5.914   4.484  1.00  0.00    -0.354 N 
ATOM     44  C   UNL     1      -4.549   8.737   1.610  1.00  0.00     0.074 A 
ATOM     45  C   UNL     1      -3.151   8.482   1.337  1.00  0.00     0.031 C 
ATOM     46  C   UNL     1      -5.944   4.297   6.019  1.00  0.00     0.029 A 
ATOM     47  C   UNL     1      -6.858   5.214   5.347  1.00  0.00     0.049 A 
ATOM     48  H   UNL     1      -6.386   6.531   3.798  1.00  0.00     0.167 HD
ATOM     49  C   UNL     1      -5.307   9.650   0.952  1.00  0.00     0.034 A 
ATOM     50  C   UNL     1      -8.168   5.348   5.647  1.00  0.00     0.034 A 
ATOM     51  C   UNL     1      -6.718   9.847   1.180  1.00  0.00     0.049 A 
ATOM     52  C   UNL     1      -8.975   6.426   4.966  1.00  0.00     0.074 A 
ATOM     53  C   UNL     1      -7.579  10.724   0.539  1.00  0.00     0.029 A 
ATOM     54  N   UNL     1      -7.481   9.158   2.111  1.00  0.00    -0.354 N 
ATOM     55  N   UNL     1      -8.595   7.290   4.053  1.00  0.00    -0.248 NA
ATOM     56  C   UNL     1     -10.379   6.563   5.375  1.00  0.00     0.031 C 
ATOM     57  C   UNL     1      -8.842  10.615   1.130  1.00  0.00     0.029 A 
ATOM     58  C   UNL     1      -8.790   9.616   2.087  1.00  0.00     0.049 A 
ATOM     59  H   UNL     1      -7.142   8.447   2.702  1.00  0.00     0.167 HD
ATOM     60  C   UNL     1      -9.720   8.063   3.774  1.00  0.00     0.074 A 
ATOM     61  C   UNL     1     -10.796   7.547   4.594  1.00  0.00     0.031 C 
ATOM     62  C   UNL     1      -9.852   9.110   2.921  1.00  0.00     0.034 A 
BRANCH  49  63
ATOM     63  C   UNL     1      -4.624  10.574  -0.028  1.00  0.00     0.023 A 
ATOM     64  C   UNL     1      -4.141  10.143  -1.273  1.00  0.00     0.031 A 
ATOM     65  C   UNL     1      -4.513  11.943   0.288  1.00  0.00     0.131 A 
ATOM     66  C   UNL     1      -3.546  11.070  -2.147  1.00  0.00     0.055 A 
ATOM     67  C   UNL     1      -3.974  12.867  -0.608  1.00  0.00     0.041 A 
ATOM     68  F   UNL     1      -4.942  12.406   1.473  1.00  0.00    -0.206 F 
ATOM     69  C   UNL     1      -3.482  12.431  -1.833  1.00  0.00     0.022 A 
BRANCH  66  70
ATOM     70  S   UNL     1      -2.784  10.464  -3.679  1.00  0.00     0.124 S 
ATOM     71  O   UNL     1      -1.772   9.546  -3.162  1.00  0.00    -0.237 OA
ATOM     72  O   UNL     1      -3.911   9.849  -4.369  1.00  0.00    -0.237 OA
ATOM     73  O   UNL     1      -2.257  11.676  -4.303  1.00  0.00    -0.744 OA
ENDBRANCH  66  70
ENDBRANCH  49  63
BRANCH  50  74
ATOM     74  C   UNL     1      -8.776   4.536   6.746  1.00  0.00     0.023 A 
ATOM     75  C   UNL     1      -9.861   3.676   6.512  1.00  0.00     0.031 A 
ATOM     76  C   UNL     1      -8.313   4.662   8.070  1.00  0.00     0.131 A 
ATOM     77  C   UNL     1     -10.467   3.007   7.589  1.00  0.00     0.055 A 
ATOM     78  C   UNL     1      -8.872   3.940   9.124  1.00  0.00     0.041 A 
ATOM     79  F   UNL     1      -7.292   5.485   8.359  1.00  0.00    -0.206 F 
ATOM     80  C   UNL     1      -9.966   3.116   8.888  1.00  0.00     0.022 A 
BRANCH  77  81
ATOM     81  S   UNL     1     -11.995   2.075   7.288  1.00  0.00     0.124 S 
ATOM     82  O   UNL     1     -12.848   3.092   6.684  1.00  0.00    -0.237 OA
ATOM     83  O   UNL     1     -11.531   1.016   6.398  1.00  0.00    -0.237 OA
ATOM     84  O   UNL     1     -12.394   1.637   8.623  1.00  0.00    -0.744 OA
ENDBRANCH  77  81
ENDBRANCH  50  74
BRANCH  62  85
ATOM     85  C   UNL     1     -11.221   9.734   2.809  1.00  0.00     0.023 A 
ATOM     86  C   UNL     1     -11.796  10.444   3.878  1.00  0.00     0.031 A 
ATOM     87  C   UNL     1     -11.974   9.585   1.632  1.00  0.00     0.131 A 
ATOM     88  C   UNL     1     -13.110  10.925   3.771  1.00  0.00     0.055 A 
ATOM     89  C   UNL     1     -13.259  10.117   1.509  1.00  0.00     0.041 A 
ATOM     90  F   UNL     1     -11.475   8.915   0.581  1.00  0.00    -0.206 F 
ATOM     91  C   UNL     1     -13.839  10.778   2.588  1.00  0.00     0.022 A 
BRANCH  88  92
ATOM     92  S   UNL     1     -13.893  11.655   5.235  1.00  0.00     0.124 S 
ATOM     93  O   UNL     1     -13.809  10.564   6.200  1.00  0.00    -0.237 OA
ATOM     94  O   UNL     1     -13.040  12.809   5.503  1.00  0.00    -0.237 OA
ATOM     95  O   UNL     1     -15.243  11.977   4.778  1.00  0.00    -0.744 OA
ENDBRANCH  88  92
ENDBRANCH  62  85
ENDBRANCH  36  37
ENDBRANCH  29  31
ENDBRANCH  28  29
ENDBRANCH  27  28
ENDBRANCH  26  27
ENDBRANCH  25  26
ENDBRANCH  24  25
ENDBRANCH   1  24
TORSDOF 26
