REMARK SMILES CC(=O)Nc1cc(NC(C)=O)cc(C(=O)Nc2ccc(Br)cc2C(=O)OCCOCCOCCOC(=O)c2ccc(-c3c4nc(c(-c5cc(S(=O)(=O)[O-])ccc5F)c5ccc([nH]5)c(-c5cc(S(=O)(=O)[O-])ccc5F)c5nc(c(-c6cc(S(=O)(=O)[O-])ccc6F)c6ccc3[nH]6)C=C5)C=C4)cc2)c1
REMARK SMILES IDX 30 1 29 2 28 3 27 4 26 5 24 6 25 7 23 8 17 9 18 10 19 11
REMARK SMILES IDX 22 12 20 13 21 14 16 15 14 16 15 17 13 19 5 20 6 21 101 22
REMARK SMILES IDX 7 23 12 24 4 25 1 26 2 27 3 28 8 30 9 31 10 33 11 34 31 35
REMARK SMILES IDX 32 36 33 37 34 38 35 39 36 40 37 41 38 42 39 43 100 44 40 45
REMARK SMILES IDX 99 46 41 47 42 48 43 49 93 50 44 51 98 52 92 53 94 54 45 55
REMARK SMILES IDX 97 56 91 57 90 58 46 60 78 61 58 62 77 63 59 64 62 65 76 66
REMARK SMILES IDX 95 67 60 68 61 69 75 71 96 72 63 73 47 74 48 75 56 76 49 77
REMARK SMILES IDX 55 78 57 79 54 80 50 81 51 82 52 83 53 84 79 85 80 86 88 87
REMARK SMILES IDX 81 88 87 89 89 90 86 91 82 92 83 93 84 94 85 95 64 96 65 97
REMARK SMILES IDX 73 98 66 99 72 100 74 101 71 102 67 103 68 104 69 105 70 106
REMARK H PARENT 16 18 4 29 8 32 94 59 62 70
REMARK Flexibility Score: inf
ROOT
ATOM      1  C   UNL     1       5.138   4.248   1.462  1.00  0.00     0.188 C 
ENDROOT
BRANCH   1   2
ATOM      2  O   UNL     1       5.545   4.580   2.767  1.00  0.00    -0.376 OA
BRANCH   2   3
ATOM      3  C   UNL     1       5.154   3.786   3.866  1.00  0.00     0.202 C 
BRANCH   3   4
ATOM      4  C   UNL     1       4.432   2.436   3.783  1.00  0.00     0.261 C 
BRANCH   4   5
ATOM      5  O   UNL     1       4.483   1.681   2.570  1.00  0.00    -0.460 OA
BRANCH   5   6
ATOM      6  C   UNL     1       3.347   1.735   1.826  1.00  0.00     0.340 C 
ATOM      7  O   UNL     1       2.400   2.476   2.041  1.00  0.00    -0.246 OA
BRANCH   6   8
ATOM      8  C   UNL     1       3.442   0.900   0.602  1.00  0.00     0.084 A 
ATOM      9  C   UNL     1       4.077  -0.354   0.503  1.00  0.00     0.056 A 
ATOM     10  C   UNL     1       4.242  -0.909  -0.781  1.00  0.00     0.028 A 
ATOM     11  C   UNL     1       3.699  -0.298  -1.918  1.00  0.00     0.018 A 
ATOM     12  C   UNL     1       2.892   1.508  -0.549  1.00  0.00     0.033 A 
ATOM     13  C   UNL     1       3.011   0.900  -1.793  1.00  0.00     0.018 A 
ATOM     14  Br  UNL     1       2.230   1.704  -3.312  1.00  0.00    -0.051 Br
BRANCH   9  15
ATOM     15  N   UNL     1       4.544  -1.179   1.556  1.00  0.00    -0.321 N 
ATOM     16  C   UNL     1       4.138  -1.372   2.863  1.00  0.00     0.255 C 
ATOM     17  O   UNL     1       4.854  -2.018   3.629  1.00  0.00    -0.269 OA
ATOM     18  H   UNL     1       5.320  -1.730   1.304  1.00  0.00     0.170 HD
BRANCH  16  19
ATOM     19  C   UNL     1       2.837  -0.865   3.371  1.00  0.00     0.044 A 
ATOM     20  C   UNL     1       0.717   0.141   2.863  1.00  0.00     0.044 A 
ATOM     21  C   UNL     1       0.715   0.718   4.147  1.00  0.00     0.052 A 
ATOM     22  C   UNL     1       1.725  -0.755   2.530  1.00  0.00     0.040 A 
ATOM     23  C   UNL     1       1.740   0.471   5.066  1.00  0.00     0.044 A 
ATOM     24  C   UNL     1       2.809  -0.333   4.668  1.00  0.00     0.040 A 
BRANCH  20  25
ATOM     25  N   UNL     1      -0.136   0.747   1.917  1.00  0.00    -0.326 N 
ATOM     26  C   UNL     1      -0.045  -0.738  -0.087  1.00  0.00     0.114 C 
ATOM     27  C   UNL     1      -0.321   0.577   0.577  1.00  0.00     0.221 C 
ATOM     28  O   UNL     1      -0.743   1.525  -0.086  1.00  0.00    -0.275 OA
ATOM     29  H   UNL     1      -0.721   1.438   2.305  1.00  0.00     0.169 HD
ENDBRANCH  20  25
BRANCH  23  30
ATOM     30  N   UNL     1       1.824   1.086   6.337  1.00  0.00    -0.326 N 
ATOM     31  C   UNL     1       0.962   2.034   6.861  1.00  0.00     0.221 C 
ATOM     32  H   UNL     1       2.576   0.811   6.910  1.00  0.00     0.169 HD
ATOM     33  C   UNL     1       1.319   2.462   8.262  1.00  0.00     0.114 C 
ATOM     34  O   UNL     1      -0.019   2.518   6.309  1.00  0.00    -0.275 OA
ENDBRANCH  23  30
ENDBRANCH  16  19
ENDBRANCH   9  15
ENDBRANCH   6   8
ENDBRANCH   5   6
ENDBRANCH   4   5
ENDBRANCH   3   4
ENDBRANCH   2   3
ENDBRANCH   1   2
BRANCH   1  35
ATOM     35  C   UNL     1       6.043   3.240   0.716  1.00  0.00     0.188 C 
BRANCH  35  36
ATOM     36  O   UNL     1       7.210   2.731   1.336  1.00  0.00    -0.376 OA
BRANCH  36  37
ATOM     37  C   UNL     1       8.103   3.652   1.939  1.00  0.00     0.202 C 
BRANCH  37  38
ATOM     38  C   UNL     1       8.524   4.948   1.214  1.00  0.00     0.261 C 
BRANCH  38  39
ATOM     39  O   UNL     1       7.487   5.685   0.538  1.00  0.00    -0.460 OA
BRANCH  39  40
ATOM     40  C   UNL     1       7.485   5.621  -0.822  1.00  0.00     0.338 C 
ATOM     41  O   UNL     1       8.309   5.050  -1.519  1.00  0.00    -0.246 OA
BRANCH  40  42
ATOM     42  C   UNL     1       6.194   6.139  -1.346  1.00  0.00     0.060 A 
ATOM     43  C   UNL     1       5.354   5.271  -2.066  1.00  0.00     0.016 A 
ATOM     44  C   UNL     1       5.795   7.457  -1.120  1.00  0.00     0.016 A 
ATOM     45  C   UNL     1       4.122   5.713  -2.558  1.00  0.00     0.010 A 
ATOM     46  C   UNL     1       4.579   7.910  -1.652  1.00  0.00     0.010 A 
ATOM     47  C   UNL     1       3.743   7.049  -2.390  1.00  0.00    -0.014 A 
BRANCH  47  48
ATOM     48  C   UNL     1       2.587   7.604  -3.147  1.00  0.00     0.031 A 
ATOM     49  C   UNL     1       2.867   8.321  -4.442  1.00  0.00     0.074 A 
ATOM     50  C   UNL     1       1.319   7.487  -2.709  1.00  0.00     0.049 A 
ATOM     51  N   UNL     1       2.058   8.999  -5.214  1.00  0.00    -0.248 NA
ATOM     52  C   UNL     1       4.256   8.265  -4.925  1.00  0.00     0.031 C 
ATOM     53  C   UNL     1       0.899   6.754  -1.517  1.00  0.00     0.029 A 
ATOM     54  N   UNL     1       0.148   8.001  -3.216  1.00  0.00    -0.354 N 
ATOM     55  C   UNL     1       2.840   9.463  -6.267  1.00  0.00     0.074 A 
ATOM     56  C   UNL     1       4.192   9.009  -6.019  1.00  0.00     0.031 C 
ATOM     57  C   UNL     1      -0.432   6.887  -1.371  1.00  0.00     0.029 A 
ATOM     58  C   UNL     1      -0.953   7.755  -2.427  1.00  0.00     0.049 A 
ATOM     59  H   UNL     1       0.102   8.499  -4.064  1.00  0.00     0.167 HD
ATOM     60  C   UNL     1       2.465  10.200  -7.341  1.00  0.00     0.034 A 
ATOM     61  C   UNL     1      -2.221   8.212  -2.522  1.00  0.00     0.034 A 
ATOM     62  C   UNL     1       1.117  10.657  -7.573  1.00  0.00     0.049 A 
ATOM     63  C   UNL     1      -2.591   9.135  -3.666  1.00  0.00     0.074 A 
ATOM     64  C   UNL     1       0.630  11.394  -8.639  1.00  0.00     0.029 A 
ATOM     65  N   UNL     1       0.043  10.439  -6.720  1.00  0.00    -0.354 N 
ATOM     66  N   UNL     1      -1.844   9.569  -4.656  1.00  0.00    -0.248 NA
ATOM     67  C   UNL     1      -3.975   9.631  -3.703  1.00  0.00     0.031 C 
ATOM     68  C   UNL     1      -0.712  11.695  -8.388  1.00  0.00     0.029 A 
ATOM     69  C   UNL     1      -1.091  11.068  -7.213  1.00  0.00     0.049 A 
ATOM     70  H   UNL     1       0.081   9.915  -5.888  1.00  0.00     0.167 HD
ATOM     71  C   UNL     1      -2.679  10.358  -5.447  1.00  0.00     0.074 A 
ATOM     72  C   UNL     1      -3.987  10.329  -4.829  1.00  0.00     0.031 C 
ATOM     73  C   UNL     1      -2.392  11.042  -6.585  1.00  0.00     0.034 A 
BRANCH  60  74
ATOM     74  C   UNL     1       3.543  10.611  -8.315  1.00  0.00     0.023 A 
ATOM     75  C   UNL     1       4.253   9.671  -9.081  1.00  0.00     0.031 A 
ATOM     76  C   UNL     1       3.871  11.970  -8.469  1.00  0.00     0.131 A 
ATOM     77  C   UNL     1       5.294  10.096  -9.920  1.00  0.00     0.055 A 
ATOM     78  C   UNL     1       4.854  12.394  -9.365  1.00  0.00     0.041 A 
ATOM     79  F   UNL     1       3.245  12.911  -7.744  1.00  0.00    -0.206 F 
ATOM     80  C   UNL     1       5.581  11.453 -10.088  1.00  0.00     0.022 A 
BRANCH  77  81
ATOM     81  S   UNL     1       6.358   8.844 -10.688  1.00  0.00     0.124 S 
ATOM     82  O   UNL     1       6.874   8.136  -9.520  1.00  0.00    -0.237 OA
ATOM     83  O   UNL     1       5.420   8.102 -11.523  1.00  0.00    -0.237 OA
ATOM     84  O   UNL     1       7.349   9.635 -11.416  1.00  0.00    -0.744 OA
ENDBRANCH  77  81
ENDBRANCH  60  74
BRANCH  61  85
ATOM     85  C   UNL     1      -3.236   7.879  -1.474  1.00  0.00     0.023 A 
ATOM     86  C   UNL     1      -4.424   7.200  -1.796  1.00  0.00     0.031 A 
ATOM     87  C   UNL     1      -3.073   8.320  -0.148  1.00  0.00     0.131 A 
ATOM     88  C   UNL     1      -5.422   7.032  -0.821  1.00  0.00     0.055 A 
ATOM     89  C   UNL     1      -4.040   8.091   0.833  1.00  0.00     0.041 A 
ATOM     90  F   UNL     1      -1.969   8.994   0.214  1.00  0.00    -0.206 F 
ATOM     91  C   UNL     1      -5.230   7.457   0.495  1.00  0.00     0.022 A 
BRANCH  88  92
ATOM     92  S   UNL     1      -7.032   6.362  -1.328  1.00  0.00     0.124 S 
ATOM     93  O   UNL     1      -7.438   7.313  -2.357  1.00  0.00    -0.237 OA
ATOM     94  O   UNL     1      -6.676   5.027  -1.795  1.00  0.00    -0.237 OA
ATOM     95  O   UNL     1      -7.820   6.400  -0.098  1.00  0.00    -0.744 OA
ENDBRANCH  88  92
ENDBRANCH  61  85
BRANCH  73  96
ATOM     96  C   UNL     1      -3.526  11.777  -7.263  1.00  0.00     0.023 A 
ATOM     97  C   UNL     1      -4.160  12.882  -6.666  1.00  0.00     0.031 A 
ATOM     98  C   UNL     1      -3.974  11.368  -8.533  1.00  0.00     0.131 A 
ATOM     99  C   UNL     1      -5.237  13.506  -7.315  1.00  0.00     0.055 A 
ATOM    100  C   UNL     1      -5.003  12.033  -9.202  1.00  0.00     0.041 A 
ATOM    101  F   UNL     1      -3.409  10.319  -9.152  1.00  0.00    -0.206 F 
ATOM    102  C   UNL     1      -5.649  13.101  -8.588  1.00  0.00     0.022 A 
BRANCH  99 103
ATOM    103  S   UNL     1      -6.155  14.802  -6.438  1.00  0.00     0.124 S 
ATOM    104  O   UNL     1      -6.617  14.095  -5.249  1.00  0.00    -0.237 OA
ATOM    105  O   UNL     1      -5.130  15.818  -6.218  1.00  0.00    -0.237 OA
ATOM    106  O   UNL     1      -7.205  15.179  -7.383  1.00  0.00    -0.744 OA
ENDBRANCH  99 103
ENDBRANCH  73  96
ENDBRANCH  47  48
ENDBRANCH  40  42
ENDBRANCH  39  40
ENDBRANCH  38  39
ENDBRANCH  37  38
ENDBRANCH  36  37
ENDBRANCH  35  36
ENDBRANCH   1  35
TORSDOF 24
