REMARK SMILES O=C(OCCOCCOCCOC(=O)[C@H](c1c[nH]c2cc(F)ccc12)[NH+]1CC[NH+](Cc2cccc(Cl)c2)CC1)c1ccc(-c2c3nc(c(-c4cc(S(=O)(=O)[O-])ccc4F)c4ccc([nH]4)c(-c4cc(S(=O)(=O)[O-])ccc4F)c4nc(c(-c5cc(S(=O)(=O)[O-])ccc5F)c5ccc2[nH]5)C=C4)C=C3)cc1
REMARK SMILES IDX 7 1 6 2 5 3 4 4 3 5 2 6 1 7 40 8 41 9 102 10 42 11 101 12
REMARK SMILES IDX 43 13 44 14 45 15 95 16 46 17 100 18 94 19 96 20 47 21 99 22
REMARK SMILES IDX 93 23 92 24 48 26 80 27 60 28 79 29 61 30 64 31 78 32 97 33
REMARK SMILES IDX 62 34 63 35 77 37 98 38 65 39 49 40 50 41 58 42 51 43 57 44
REMARK SMILES IDX 59 45 56 46 52 47 53 48 54 49 55 50 81 51 82 52 90 53 83 54
REMARK SMILES IDX 89 55 91 56 88 57 84 58 85 59 86 60 87 61 66 62 67 63 75 64
REMARK SMILES IDX 68 65 74 66 76 67 73 68 69 69 70 70 71 71 72 72 8 73 9 74
REMARK SMILES IDX 10 75 11 76 12 77 13 78 14 79 15 80 26 81 27 82 39 83 28 85
REMARK SMILES IDX 38 86 29 87 30 89 31 90 32 91 37 92 33 93 35 94 34 95 36 96
REMARK SMILES IDX 16 97 17 98 25 99 18 100 19 101 24 102 20 104 23 105 21 106
REMARK SMILES IDX 22 107
REMARK H PARENT 96 25 64 36 26 84 29 88 18 103
REMARK Flexibility Score: inf
ROOT
ATOM      1  C   UNL     1       5.565   1.311  -1.504  1.00  0.00     0.188 C 
ENDROOT
BRANCH   1   2
ATOM      2  O   UNL     1       5.464   2.568  -0.831  1.00  0.00    -0.376 OA
BRANCH   2   3
ATOM      3  C   UNL     1       4.330   2.655   0.052  1.00  0.00     0.202 C 
BRANCH   3   4
ATOM      4  C   UNL     1       4.353   1.721   1.278  1.00  0.00     0.261 C 
BRANCH   4   5
ATOM      5  O   UNL     1       4.840   0.394   0.984  1.00  0.00    -0.460 OA
BRANCH   5   6
ATOM      6  C   UNL     1       4.168  -0.773   0.910  1.00  0.00     0.338 C 
ATOM      7  O   UNL     1       4.785  -1.830   1.025  1.00  0.00    -0.246 OA
BRANCH   6   8
ATOM      8  C   UNL     1       2.714  -0.815   0.607  1.00  0.00     0.060 A 
ATOM      9  C   UNL     1       2.083   0.053  -0.288  1.00  0.00     0.016 A 
ATOM     10  C   UNL     1       1.985  -1.895   1.109  1.00  0.00     0.016 A 
ATOM     11  C   UNL     1       0.721  -0.057  -0.575  1.00  0.00     0.010 A 
ATOM     12  C   UNL     1       0.649  -2.069   0.745  1.00  0.00     0.010 A 
ATOM     13  C   UNL     1      -0.013  -1.119  -0.056  1.00  0.00    -0.014 A 
BRANCH  13  14
ATOM     14  C   UNL     1      -1.492  -1.191  -0.186  1.00  0.00     0.031 A 
ATOM     15  C   UNL     1      -2.287  -1.174   1.089  1.00  0.00     0.074 A 
ATOM     16  C   UNL     1      -2.116  -1.298  -1.374  1.00  0.00     0.049 A 
ATOM     17  N   UNL     1      -3.526  -1.514   1.314  1.00  0.00    -0.248 NA
ATOM     18  C   UNL     1      -1.548  -0.746   2.288  1.00  0.00     0.031 C 
ATOM     19  C   UNL     1      -1.477  -1.210  -2.685  1.00  0.00     0.029 A 
ATOM     20  N   UNL     1      -3.436  -1.537  -1.668  1.00  0.00    -0.354 N 
ATOM     21  C   UNL     1      -3.695  -1.398   2.690  1.00  0.00     0.074 A 
ATOM     22  C   UNL     1      -2.413  -1.024   3.245  1.00  0.00     0.031 C 
ATOM     23  C   UNL     1      -2.390  -1.448  -3.641  1.00  0.00     0.029 A 
ATOM     24  C   UNL     1      -3.670  -1.745  -3.009  1.00  0.00     0.049 A 
ATOM     25  H   UNL     1      -4.146  -1.557  -0.987  1.00  0.00     0.167 HD
ATOM     26  C   UNL     1      -4.825  -1.569   3.420  1.00  0.00     0.034 A 
ATOM     27  C   UNL     1      -4.779  -2.174  -3.646  1.00  0.00     0.034 A 
ATOM     28  C   UNL     1      -6.088  -1.919   2.825  1.00  0.00     0.049 A 
ATOM     29  C   UNL     1      -6.015  -2.442  -2.824  1.00  0.00     0.074 A 
ATOM     30  C   UNL     1      -7.309  -2.133   3.436  1.00  0.00     0.029 A 
ATOM     31  N   UNL     1      -6.285  -2.110   1.460  1.00  0.00    -0.354 N 
ATOM     32  N   UNL     1      -6.167  -2.370  -1.520  1.00  0.00    -0.248 NA
ATOM     33  C   UNL     1      -7.229  -2.831  -3.551  1.00  0.00     0.031 C 
ATOM     34  C   UNL     1      -8.227  -2.509   2.449  1.00  0.00     0.029 A 
ATOM     35  C   UNL     1      -7.601  -2.457   1.212  1.00  0.00     0.049 A 
ATOM     36  H   UNL     1      -5.588  -2.012   0.771  1.00  0.00     0.167 HD
ATOM     37  C   UNL     1      -7.504  -2.663  -1.274  1.00  0.00     0.074 A 
ATOM     38  C   UNL     1      -8.112  -2.925  -2.564  1.00  0.00     0.031 C 
ATOM     39  C   UNL     1      -8.174  -2.697  -0.093  1.00  0.00     0.034 A 
BRANCH  26  40
ATOM     40  C   UNL     1      -4.687  -1.442   4.921  1.00  0.00     0.023 A 
ATOM     41  C   UNL     1      -4.210  -0.261   5.521  1.00  0.00     0.031 A 
ATOM     42  C   UNL     1      -4.884  -2.562   5.747  1.00  0.00     0.131 A 
ATOM     43  C   UNL     1      -3.802  -0.274   6.864  1.00  0.00     0.055 A 
ATOM     44  C   UNL     1      -4.585  -2.531   7.112  1.00  0.00     0.041 A 
ATOM     45  F   UNL     1      -5.319  -3.724   5.235  1.00  0.00    -0.206 F 
ATOM     46  C   UNL     1      -4.011  -1.393   7.671  1.00  0.00     0.022 A 
BRANCH  43  47
ATOM     47  S   UNL     1      -2.776   1.102   7.459  1.00  0.00     0.124 S 
ATOM     48  O   UNL     1      -1.649   1.054   6.526  1.00  0.00    -0.237 OA
ATOM     49  O   UNL     1      -3.664   2.242   7.330  1.00  0.00    -0.237 OA
ATOM     50  O   UNL     1      -2.446   0.712   8.833  1.00  0.00    -0.744 OA
ENDBRANCH  43  47
ENDBRANCH  26  40
BRANCH  27  51
ATOM     51  C   UNL     1      -4.749  -2.420  -5.118  1.00  0.00     0.023 A 
ATOM     52  C   UNL     1      -5.487  -1.629  -6.013  1.00  0.00     0.031 A 
ATOM     53  C   UNL     1      -3.964  -3.460  -5.654  1.00  0.00     0.131 A 
ATOM     54  C   UNL     1      -5.443  -1.903  -7.391  1.00  0.00     0.055 A 
ATOM     55  C   UNL     1      -3.893  -3.703  -7.027  1.00  0.00     0.041 A 
ATOM     56  F   UNL     1      -3.232  -4.242  -4.844  1.00  0.00    -0.206 F 
ATOM     57  C   UNL     1      -4.641  -2.925  -7.905  1.00  0.00     0.022 A 
BRANCH  54  58
ATOM     58  S   UNL     1      -6.485  -0.925  -8.511  1.00  0.00     0.124 S 
ATOM     59  O   UNL     1      -7.821  -1.209  -7.998  1.00  0.00    -0.237 OA
ATOM     60  O   UNL     1      -5.987   0.428  -8.287  1.00  0.00    -0.237 OA
ATOM     61  O   UNL     1      -6.191  -1.484  -9.828  1.00  0.00    -0.744 OA
ENDBRANCH  54  58
ENDBRANCH  27  51
BRANCH  39  62
ATOM     62  C   UNL     1      -9.657  -2.950  -0.149  1.00  0.00     0.023 A 
ATOM     63  C   UNL     1     -10.187  -4.215  -0.449  1.00  0.00     0.031 A 
ATOM     64  C   UNL     1     -10.549  -1.909   0.167  1.00  0.00     0.131 A 
ATOM     65  C   UNL     1     -11.577  -4.402  -0.447  1.00  0.00     0.055 A 
ATOM     66  C   UNL     1     -11.927  -2.113   0.214  1.00  0.00     0.041 A 
ATOM     67  F   UNL     1     -10.088  -0.682   0.461  1.00  0.00    -0.206 F 
ATOM     68  C   UNL     1     -12.448  -3.365  -0.099  1.00  0.00     0.022 A 
BRANCH  65  69
ATOM     69  S   UNL     1     -12.242  -6.014  -0.943  1.00  0.00     0.124 S 
ATOM     70  O   UNL     1     -11.792  -6.113  -2.328  1.00  0.00    -0.237 OA
ATOM     71  O   UNL     1     -11.601  -6.923   0.002  1.00  0.00    -0.237 OA
ATOM     72  O   UNL     1     -13.685  -5.858  -0.769  1.00  0.00    -0.744 OA
ENDBRANCH  65  69
ENDBRANCH  39  62
ENDBRANCH  13  14
ENDBRANCH   6   8
ENDBRANCH   5   6
ENDBRANCH   4   5
ENDBRANCH   3   4
ENDBRANCH   2   3
ENDBRANCH   1   2
BRANCH   1  73
ATOM     73  C   UNL     1       6.153   1.333  -2.925  1.00  0.00     0.188 C 
BRANCH  73  74
ATOM     74  O   UNL     1       5.915   2.441  -3.780  1.00  0.00    -0.376 OA
BRANCH  74  75
ATOM     75  C   UNL     1       4.636   3.050  -3.727  1.00  0.00     0.202 C 
BRANCH  75  76
ATOM     76  C   UNL     1       3.437   2.230  -4.217  1.00  0.00     0.261 C 
BRANCH  76  77
ATOM     77  O   UNL     1       3.389   0.861  -3.768  1.00  0.00    -0.459 OA
BRANCH  77  78
ATOM     78  C   UNL     1       2.337   0.184  -4.331  1.00  0.00     0.370 C 
ATOM     79  O   UNL     1       1.427   0.771  -4.919  1.00  0.00    -0.245 OA
BRANCH  78  80
ATOM     80  C   UNL     1       2.456  -1.355  -4.349  1.00  0.00     0.328 C 
BRANCH  80  81
ATOM     81  N   UNL     1       3.054  -1.827  -5.618  1.00  0.00    -0.310 N 
ATOM     82  C   UNL     1       4.334  -1.272  -6.038  1.00  0.00     0.325 C 
ATOM     83  C   UNL     1       2.963  -3.268  -5.873  1.00  0.00     0.325 C 
ATOM     84  H   UNL     1       2.394  -1.376  -6.251  1.00  0.00     0.349 HD
ATOM     85  C   UNL     1       5.594  -2.086  -5.671  1.00  0.00     0.324 C 
ATOM     86  C   UNL     1       4.228  -4.102  -5.536  1.00  0.00     0.324 C 
ATOM     87  N   UNL     1       5.534  -3.532  -5.902  1.00  0.00    -0.322 N 
ATOM     88  H   UNL     1       6.195  -3.943  -5.242  1.00  0.00     0.348 HD
BRANCH  87  89
ATOM     89  C   UNL     1       6.090  -3.985  -7.179  1.00  0.00     0.299 C 
BRANCH  89  90
ATOM     90  C   UNL     1       5.438  -3.430  -8.421  1.00  0.00     0.008 A 
ATOM     91  C   UNL     1       5.858  -2.202  -8.960  1.00  0.00     0.009 A 
ATOM     92  C   UNL     1       4.340  -4.082  -8.996  1.00  0.00     0.030 A 
ATOM     93  C   UNL     1       5.127  -1.586  -9.975  1.00  0.00     0.002 A 
ATOM     94  C   UNL     1       3.621  -3.469 -10.020  1.00  0.00     0.041 A 
ATOM     95  C   UNL     1       3.996  -2.213 -10.494  1.00  0.00     0.020 A 
ATOM     96  Cl  UNL     1       2.239  -4.255 -10.674  1.00  0.00    -0.084 Cl
ENDBRANCH  89  90
ENDBRANCH  87  89
ENDBRANCH  80  81
BRANCH  80  97
ATOM     97  C   UNL     1       2.988  -2.087  -3.139  1.00  0.00     0.046 A 
ATOM     98  C   UNL     1       4.219  -2.006  -2.517  1.00  0.00     0.094 A 
ATOM     99  C   UNL     1       2.284  -3.155  -2.459  1.00  0.00     0.009 A 
ATOM    100  N   UNL     1       4.319  -2.999  -1.578  1.00  0.00    -0.361 N 
ATOM    101  C   UNL     1       3.154  -3.719  -1.526  1.00  0.00     0.049 A 
ATOM    102  C   UNL     1       0.994  -3.720  -2.581  1.00  0.00     0.014 A 
ATOM    103  H   UNL     1       5.113  -3.170  -1.022  1.00  0.00     0.166 HD
ATOM    104  C   UNL     1       2.806  -4.804  -0.714  1.00  0.00     0.065 A 
ATOM    105  C   UNL     1       0.611  -4.777  -1.749  1.00  0.00     0.040 A 
ATOM    106  C   UNL     1       1.513  -5.306  -0.840  1.00  0.00     0.125 A 
ATOM    107  F   UNL     1       1.135  -6.325  -0.055  1.00  0.00    -0.207 F 
ENDBRANCH  80  97
ENDBRANCH  78  80
ENDBRANCH  77  78
ENDBRANCH  76  77
ENDBRANCH  75  76
ENDBRANCH  74  75
ENDBRANCH  73  74
ENDBRANCH   1  73
TORSDOF 24
