REMARK SMILES CC[N@@H+](C)Cc1cc2c(cc1Cl)C=C(C(=O)OCCOCCOCCOC(=O)c1ccc(-c3c4nc(c(-c5cc(S(=O)(=O)[O-])ccc5F)c5ccc([nH]5)c(-c5cc(S(=O)(=O)[O-])ccc5F)c5nc(c(-c6cc(S(=O)(=O)[O-])ccc6F)c6ccc3[nH]6)C=C5)C=C4)cc1)[C@@H](C(F)(F)F)O2
REMARK SMILES IDX 21 1 20 2 19 3 18 4 17 5 15 6 16 7 14 8 6 9 7 10 11 11 8 12
REMARK SMILES IDX 10 13 12 14 9 15 97 16 13 17 92 18 5 19 3 20 4 21 2 23 1 24
REMARK SMILES IDX 93 25 94 26 95 27 96 28 22 29 23 30 24 31 25 32 26 33 27 34
REMARK SMILES IDX 28 35 29 36 30 37 91 38 31 39 90 40 32 41 33 42 34 43 84 44
REMARK SMILES IDX 35 45 89 46 83 47 85 48 36 49 88 50 82 51 81 52 37 54 69 55
REMARK SMILES IDX 49 56 68 57 50 58 53 59 67 60 86 61 51 62 52 63 66 65 87 66
REMARK SMILES IDX 54 67 38 68 39 69 47 70 40 71 46 72 48 73 45 74 41 75 42 76
REMARK SMILES IDX 43 77 44 78 70 79 71 80 79 81 72 82 78 83 80 84 77 85 73 86
REMARK SMILES IDX 74 87 75 88 76 89 55 90 56 91 64 92 57 93 63 94 65 95 62 96
REMARK SMILES IDX 58 97 59 98 60 99 61 100
REMARK H PARENT 3 22 85 53 53 64
REMARK Flexibility Score: inf
ROOT
ATOM      1  C   UNL     1       5.851   8.237  -2.865  1.00  0.00     0.188 C 
ENDROOT
BRANCH   1   2
ATOM      2  O   UNL     1       5.603   9.625  -3.009  1.00  0.00    -0.376 OA
BRANCH   2   3
ATOM      3  C   UNL     1       4.790  10.041  -4.090  1.00  0.00     0.202 C 
BRANCH   3   4
ATOM      4  C   UNL     1       3.320   9.596  -4.089  1.00  0.00     0.261 C 
BRANCH   4   5
ATOM      5  O   UNL     1       3.084   8.244  -3.678  1.00  0.00    -0.460 OA
BRANCH   5   6
ATOM      6  C   UNL     1       3.183   7.281  -4.619  1.00  0.00     0.338 C 
ATOM      7  O   UNL     1       3.451   7.444  -5.796  1.00  0.00    -0.246 OA
BRANCH   6   8
ATOM      8  C   UNL     1       3.023   5.967  -3.956  1.00  0.00     0.087 C 
ATOM      9  C   UNL     1       3.033   1.124  -2.634  1.00  0.00     0.029 A 
ATOM     10  C   UNL     1       2.469   2.294  -2.101  1.00  0.00     0.058 A 
ATOM     11  C   UNL     1       4.030   1.279  -3.615  1.00  0.00     0.050 A 
ATOM     12  C   UNL     1       2.735   3.546  -2.655  1.00  0.00     0.128 A 
ATOM     13  C   UNL     1       4.337   2.544  -4.137  1.00  0.00     0.033 A 
ATOM     14  Cl  UNL     1       4.930  -0.057  -4.240  1.00  0.00    -0.084 Cl
ATOM     15  C   UNL     1       3.645   3.675  -3.699  1.00  0.00     0.019 A 
ATOM     16  O   UNL     1       2.050   4.593  -2.110  1.00  0.00    -0.475 OA
ATOM     17  C   UNL     1       3.837   4.971  -4.332  1.00  0.00     0.027 C 
ATOM     18  C   UNL     1       1.985   5.828  -2.868  1.00  0.00     0.316 C 
BRANCH   9  19
ATOM     19  C   UNL     1       2.560  -0.238  -2.152  1.00  0.00     0.300 C 
BRANCH  19  20
ATOM     20  N   UNL     1       1.111  -0.522  -2.234  1.00  0.00    -0.334 N 
ATOM     21  C   UNL     1       0.566  -0.292  -3.573  1.00  0.00     0.333 C 
ATOM     22  H   UNL     1       1.097  -1.520  -2.023  1.00  0.00     0.348 HD
BRANCH  20  23
ATOM     23  C   UNL     1       0.237   0.033  -1.200  1.00  0.00     0.258 C 
ATOM     24  C   UNL     1       0.731  -0.155   0.230  1.00  0.00     0.071 C 
ENDBRANCH  20  23
ENDBRANCH  19  20
ENDBRANCH   9  19
BRANCH  18  25
ATOM     25  C   UNL     1       0.559   6.028  -3.397  1.00  0.00     0.430 C 
ATOM     26  F   UNL     1      -0.359   5.879  -2.410  1.00  0.00    -0.167 F 
ATOM     27  F   UNL     1       0.385   7.274  -3.899  1.00  0.00    -0.167 F 
ATOM     28  F   UNL     1       0.244   5.150  -4.376  1.00  0.00    -0.167 F 
ENDBRANCH  18  25
ENDBRANCH   6   8
ENDBRANCH   5   6
ENDBRANCH   4   5
ENDBRANCH   3   4
ENDBRANCH   2   3
ENDBRANCH   1   2
BRANCH   1  29
ATOM     29  C   UNL     1       5.213   7.656  -1.586  1.00  0.00     0.188 C 
BRANCH  29  30
ATOM     30  O   UNL     1       4.641   8.543  -0.629  1.00  0.00    -0.376 OA
BRANCH  30  31
ATOM     31  C   UNL     1       5.391   9.684  -0.223  1.00  0.00     0.202 C 
BRANCH  31  32
ATOM     32  C   UNL     1       6.787   9.469   0.377  1.00  0.00     0.261 C 
BRANCH  32  33
ATOM     33  O   UNL     1       7.688   8.741  -0.474  1.00  0.00    -0.460 OA
BRANCH  33  34
ATOM     34  C   UNL     1       8.090   7.531  -0.001  1.00  0.00     0.338 C 
ATOM     35  O   UNL     1       7.809   7.038   1.077  1.00  0.00    -0.246 OA
BRANCH  34  36
ATOM     36  C   UNL     1       8.755   6.780  -1.088  1.00  0.00     0.060 A 
ATOM     37  C   UNL     1       9.864   7.298  -1.759  1.00  0.00     0.016 A 
ATOM     38  C   UNL     1       8.249   5.517  -1.425  1.00  0.00     0.016 A 
ATOM     39  C   UNL     1      10.487   6.530  -2.750  1.00  0.00     0.010 A 
ATOM     40  C   UNL     1       8.857   4.763  -2.430  1.00  0.00     0.010 A 
ATOM     41  C   UNL     1       9.997   5.253  -3.082  1.00  0.00    -0.014 A 
BRANCH  41  42
ATOM     42  C   UNL     1      10.790   4.348  -3.951  1.00  0.00     0.031 A 
ATOM     43  C   UNL     1      10.491   4.173  -5.408  1.00  0.00     0.074 A 
ATOM     44  C   UNL     1      11.785   3.647  -3.375  1.00  0.00     0.049 A 
ATOM     45  N   UNL     1      11.145   3.469  -6.295  1.00  0.00    -0.248 NA
ATOM     46  C   UNL     1       9.312   4.870  -5.941  1.00  0.00     0.031 C 
ATOM     47  C   UNL     1      12.133   3.717  -1.955  1.00  0.00     0.029 A 
ATOM     48  N   UNL     1      12.676   2.742  -3.894  1.00  0.00    -0.354 N 
ATOM     49  C   UNL     1      10.480   3.655  -7.500  1.00  0.00     0.074 A 
ATOM     50  C   UNL     1       9.339   4.501  -7.218  1.00  0.00     0.031 C 
ATOM     51  C   UNL     1      13.166   2.897  -1.717  1.00  0.00     0.029 A 
ATOM     52  C   UNL     1      13.541   2.225  -2.959  1.00  0.00     0.049 A 
ATOM     53  H   UNL     1      12.693   2.487  -4.845  1.00  0.00     0.167 HD
ATOM     54  C   UNL     1      10.814   3.179  -8.724  1.00  0.00     0.034 A 
ATOM     55  C   UNL     1      14.528   1.313  -3.081  1.00  0.00     0.034 A 
ATOM     56  C   UNL     1      11.951   2.325  -8.975  1.00  0.00     0.049 A 
ATOM     57  C   UNL     1      14.845   0.761  -4.446  1.00  0.00     0.074 A 
ATOM     58  C   UNL     1      12.410   1.854 -10.194  1.00  0.00     0.029 A 
ATOM     59  N   UNL     1      12.792   1.797  -8.006  1.00  0.00    -0.354 N 
ATOM     60  N   UNL     1      14.293   1.055  -5.599  1.00  0.00    -0.248 NA
ATOM     61  C   UNL     1      15.923  -0.233  -4.535  1.00  0.00     0.031 C 
ATOM     62  C   UNL     1      13.477   0.988  -9.957  1.00  0.00     0.029 A 
ATOM     63  C   UNL     1      13.737   0.971  -8.596  1.00  0.00     0.049 A 
ATOM     64  H   UNL     1      12.727   1.982  -7.041  1.00  0.00     0.167 HD
ATOM     65  C   UNL     1      14.969   0.300  -6.553  1.00  0.00     0.074 A 
ATOM     66  C   UNL     1      15.989  -0.445  -5.844  1.00  0.00     0.031 C 
ATOM     67  C   UNL     1      14.758   0.231  -7.891  1.00  0.00     0.034 A 
BRANCH  54  68
ATOM     68  C   UNL     1       9.988   3.586  -9.920  1.00  0.00     0.023 A 
ATOM     69  C   UNL     1       9.318   2.613 -10.686  1.00  0.00     0.031 A 
ATOM     70  C   UNL     1      10.024   4.906 -10.405  1.00  0.00     0.131 A 
ATOM     71  C   UNL     1       8.751   2.966 -11.918  1.00  0.00     0.055 A 
ATOM     72  C   UNL     1       9.425   5.259 -11.615  1.00  0.00     0.041 A 
ATOM     73  F   UNL     1      10.659   5.868  -9.716  1.00  0.00    -0.206 F 
ATOM     74  C   UNL     1       8.797   4.284 -12.384  1.00  0.00     0.022 A 
BRANCH  71  75
ATOM     75  S   UNL     1       7.999   1.718 -13.000  1.00  0.00     0.124 S 
ATOM     76  O   UNL     1       6.641   2.236 -13.155  1.00  0.00    -0.237 OA
ATOM     77  O   UNL     1       8.838   1.804 -14.192  1.00  0.00    -0.237 OA
ATOM     78  O   UNL     1       8.108   0.480 -12.237  1.00  0.00    -0.744 OA
ENDBRANCH  71  75
ENDBRANCH  54  68
BRANCH  55  79
ATOM     79  C   UNL     1      15.318   0.940  -1.873  1.00  0.00     0.023 A 
ATOM     80  C   UNL     1      14.701   0.332  -0.764  1.00  0.00     0.031 A 
ATOM     81  C   UNL     1      16.673   1.294  -1.764  1.00  0.00     0.131 A 
ATOM     82  C   UNL     1      15.418   0.163   0.427  1.00  0.00     0.055 A 
ATOM     83  C   UNL     1      17.404   1.059  -0.598  1.00  0.00     0.041 A 
ATOM     84  F   UNL     1      17.300   1.891  -2.789  1.00  0.00    -0.206 F 
ATOM     85  C   UNL     1      16.770   0.508   0.512  1.00  0.00     0.022 A 
BRANCH  82  86
ATOM     86  S   UNL     1      14.584  -0.374   1.946  1.00  0.00     0.124 S 
ATOM     87  O   UNL     1      15.275  -1.624   2.247  1.00  0.00    -0.237 OA
ATOM     88  O   UNL     1      14.867   0.737   2.852  1.00  0.00    -0.237 OA
ATOM     89  O   UNL     1      13.187  -0.505   1.544  1.00  0.00    -0.744 OA
ENDBRANCH  82  86
ENDBRANCH  55  79
BRANCH  67  90
ATOM     90  C   UNL     1      15.627  -0.690  -8.716  1.00  0.00     0.023 A 
ATOM     91  C   UNL     1      16.454  -0.166  -9.728  1.00  0.00     0.031 A 
ATOM     92  C   UNL     1      15.512  -2.087  -8.609  1.00  0.00     0.131 A 
ATOM     93  C   UNL     1      17.091  -1.032 -10.626  1.00  0.00     0.055 A 
ATOM     94  C   UNL     1      16.190  -2.947  -9.474  1.00  0.00     0.041 A 
ATOM     95  F   UNL     1      14.731  -2.636  -7.664  1.00  0.00    -0.206 F 
ATOM     96  C   UNL     1      16.971  -2.420 -10.499  1.00  0.00     0.022 A 
BRANCH  93  97
ATOM     97  S   UNL     1      18.028  -0.392 -12.043  1.00  0.00     0.124 S 
ATOM     98  O   UNL     1      19.348  -0.978 -11.823  1.00  0.00    -0.237 OA
ATOM     99  O   UNL     1      17.284  -0.939 -13.174  1.00  0.00    -0.237 OA
ATOM    100  O   UNL     1      17.959   1.057 -11.885  1.00  0.00    -0.744 OA
ENDBRANCH  93  97
ENDBRANCH  67  90
ENDBRANCH  41  42
ENDBRANCH  34  36
ENDBRANCH  33  34
ENDBRANCH  32  33
ENDBRANCH  31  32
ENDBRANCH  30  31
ENDBRANCH  29  30
ENDBRANCH   1  29
TORSDOF 24
