REMARK SMILES Nc1oc2ccc(F)cc2c(=O)c1[C@@H]1[NH2+][C@H](C(=O)OCCOCCOCCOC(=O)c2ccc(-c3c4nc(c(-c5cc(S(=O)(=O)[O-])ccc5F)c5ccc([nH]5)c(-c5cc(S(=O)(=O)[O-])ccc5F)c5nc(c(-c6cc(S(=O)(=O)[O-])ccc6F)c6ccc3[nH]6)C=C5)C=C4)cc2)CS1
REMARK SMILES IDX 24 1 23 2 22 3 21 4 20 5 19 6 17 7 18 8 16 9 14 10 15 11
REMARK SMILES IDX 95 12 94 15 13 16 2 17 3 18 4 19 11 20 5 21 10 22 12 23 6 24
REMARK SMILES IDX 9 25 7 26 8 27 1 28 25 31 26 32 27 33 28 34 29 35 30 36
REMARK SMILES IDX 31 37 32 38 93 39 33 40 92 41 34 42 35 43 36 44 86 45 37 46
REMARK SMILES IDX 91 47 85 48 87 49 38 50 90 51 84 52 83 53 39 55 71 56 51 57
REMARK SMILES IDX 70 58 52 59 55 60 69 61 88 62 53 63 54 64 68 66 89 67 56 68
REMARK SMILES IDX 40 69 41 70 49 71 42 72 48 73 50 74 47 75 43 76 44 77 45 78
REMARK SMILES IDX 46 79 72 80 73 81 81 82 74 83 80 84 82 85 79 86 75 87 76 88
REMARK SMILES IDX 77 89 78 90 57 91 58 92 66 93 59 94 65 95 67 96 64 97 60 98
REMARK SMILES IDX 61 99 62 100 63 101
REMARK H PARENT 15 13 15 14 1 29 1 30 87 54 55 65
REMARK Flexibility Score: inf
ROOT
ATOM      1  C   UNL     1      -0.118   2.757  -0.848  1.00  0.00     0.188 C 
ENDROOT
BRANCH   1   2
ATOM      2  C   UNL     1       0.689   3.289  -2.045  1.00  0.00     0.188 C 
BRANCH   2   3
ATOM      3  O   UNL     1       0.536   2.612  -3.290  1.00  0.00    -0.376 OA
BRANCH   3   4
ATOM      4  C   UNL     1       0.722   1.199  -3.307  1.00  0.00     0.202 C 
BRANCH   4   5
ATOM      5  C   UNL     1       2.076   0.699  -2.799  1.00  0.00     0.261 C 
BRANCH   5   6
ATOM      6  O   UNL     1       2.245   0.921  -1.383  1.00  0.00    -0.459 OA
BRANCH   6   7
ATOM      7  C   UNL     1       3.500   1.242  -0.954  1.00  0.00     0.365 C 
ATOM      8  O   UNL     1       4.475   1.316  -1.692  1.00  0.00    -0.245 OA
BRANCH   7   9
ATOM      9  C   UNL     1       3.599   1.439   0.576  1.00  0.00     0.304 C 
ATOM     10  C   UNL     1       2.141   0.657   2.402  1.00  0.00     0.283 C 
ATOM     11  N   UNL     1       2.277   1.528   1.233  1.00  0.00    -0.319 N 
ATOM     12  S   UNL     1       3.559  -0.459   2.488  1.00  0.00    -0.087 SA
ATOM     13  H   UNL     1       2.130   2.492   1.531  1.00  0.00     0.348 HD
ATOM     14  H   UNL     1       1.585   1.220   0.551  1.00  0.00     0.348 HD
ATOM     15  C   UNL     1       4.467   0.326   1.143  1.00  0.00     0.153 C 
BRANCH  10  16
ATOM     16  C   UNL     1       0.844  -0.127   2.410  1.00  0.00     0.128 A 
ATOM     17  C   UNL     1       0.312  -0.837   1.387  1.00  0.00     0.205 A 
ATOM     18  O   UNL     1      -0.888  -1.518   1.448  1.00  0.00    -0.440 OA
ATOM     19  C   UNL     1      -1.547  -1.611   2.636  1.00  0.00     0.140 A 
ATOM     20  C   UNL     1       0.064  -0.080   3.680  1.00  0.00     0.205 A 
ATOM     21  C   UNL     1      -2.672  -2.437   2.668  1.00  0.00     0.051 A 
ATOM     22  C   UNL     1      -1.134  -0.930   3.772  1.00  0.00     0.068 A 
ATOM     23  O   UNL     1       0.386   0.626   4.628  1.00  0.00    -0.288 OA
ATOM     24  C   UNL     1      -3.375  -2.595   3.859  1.00  0.00     0.043 A 
ATOM     25  C   UNL     1      -1.843  -1.072   4.967  1.00  0.00     0.055 A 
ATOM     26  C   UNL     1      -2.952  -1.913   4.997  1.00  0.00     0.124 A 
ATOM     27  F   UNL     1      -3.625  -2.079   6.143  1.00  0.00    -0.207 F 
BRANCH  17  28
ATOM     28  N   UNL     1       0.876  -0.957   0.153  1.00  0.00    -0.369 N 
ATOM     29  H   UNL     1       0.429  -1.491  -0.542  1.00  0.00     0.159 HD
ATOM     30  H   UNL     1       1.730  -0.508  -0.043  1.00  0.00     0.159 HD
ENDBRANCH  17  28
ENDBRANCH  10  16
ENDBRANCH   7   9
ENDBRANCH   6   7
ENDBRANCH   5   6
ENDBRANCH   4   5
ENDBRANCH   3   4
ENDBRANCH   2   3
ENDBRANCH   1   2
BRANCH   1  31
ATOM     31  O   UNL     1      -1.098   1.805  -1.226  1.00  0.00    -0.376 OA
BRANCH  31  32
ATOM     32  C   UNL     1      -2.427   2.090  -0.839  1.00  0.00     0.202 C 
BRANCH  32  33
ATOM     33  C   UNL     1      -3.098   3.234  -1.610  1.00  0.00     0.261 C 
BRANCH  33  34
ATOM     34  O   UNL     1      -2.309   4.423  -1.784  1.00  0.00    -0.460 OA
BRANCH  34  35
ATOM     35  C   UNL     1      -2.213   5.275  -0.737  1.00  0.00     0.338 C 
ATOM     36  O   UNL     1      -2.715   5.130   0.365  1.00  0.00    -0.246 OA
BRANCH  35  37
ATOM     37  C   UNL     1      -1.206   6.304  -1.098  1.00  0.00     0.060 A 
ATOM     38  C   UNL     1      -1.314   7.013  -2.298  1.00  0.00     0.016 A 
ATOM     39  C   UNL     1      -0.103   6.509  -0.259  1.00  0.00     0.016 A 
ATOM     40  C   UNL     1      -0.320   7.932  -2.653  1.00  0.00     0.010 A 
ATOM     41  C   UNL     1       0.897   7.420  -0.623  1.00  0.00     0.010 A 
ATOM     42  C   UNL     1       0.791   8.147  -1.819  1.00  0.00    -0.014 A 
BRANCH  42  43
ATOM     43  C   UNL     1       1.737   9.252  -2.124  1.00  0.00     0.031 A 
ATOM     44  C   UNL     1       3.061   9.014  -2.790  1.00  0.00     0.074 A 
ATOM     45  C   UNL     1       1.365  10.505  -1.798  1.00  0.00     0.049 A 
ATOM     46  N   UNL     1       3.928   9.894  -3.221  1.00  0.00    -0.248 NA
ATOM     47  C   UNL     1       3.468   7.617  -2.995  1.00  0.00     0.031 C 
ATOM     48  C   UNL     1       0.111  10.847  -1.126  1.00  0.00     0.029 A 
ATOM     49  N   UNL     1       1.983  11.716  -1.991  1.00  0.00    -0.354 N 
ATOM     50  C   UNL     1       4.972   9.165  -3.778  1.00  0.00     0.074 A 
ATOM     51  C   UNL     1       4.653   7.766  -3.578  1.00  0.00     0.031 C 
ATOM     52  C   UNL     1       0.037  12.178  -0.989  1.00  0.00     0.029 A 
ATOM     53  C   UNL     1       1.248  12.787  -1.539  1.00  0.00     0.049 A 
ATOM     54  H   UNL     1       2.867  11.808  -2.413  1.00  0.00     0.167 HD
ATOM     55  C   UNL     1       6.076   9.627  -4.417  1.00  0.00     0.034 A 
ATOM     56  C   UNL     1       1.505  14.111  -1.572  1.00  0.00     0.034 A 
ATOM     57  C   UNL     1       6.382  11.028  -4.590  1.00  0.00     0.049 A 
ATOM     58  C   UNL     1       2.760  14.595  -2.252  1.00  0.00     0.074 A 
ATOM     59  C   UNL     1       7.459  11.590  -5.256  1.00  0.00     0.029 A 
ATOM     60  N   UNL     1       5.628  12.085  -4.099  1.00  0.00    -0.354 N 
ATOM     61  N   UNL     1       3.683  13.896  -2.871  1.00  0.00    -0.248 NA
ATOM     62  C   UNL     1       3.004  16.044  -2.259  1.00  0.00     0.031 C 
ATOM     63  C   UNL     1       7.396  12.975  -5.106  1.00  0.00     0.029 A 
ATOM     64  C   UNL     1       6.234  13.290  -4.420  1.00  0.00     0.049 A 
ATOM     65  H   UNL     1       4.786  11.992  -3.596  1.00  0.00     0.167 HD
ATOM     66  C   UNL     1       4.594  14.822  -3.372  1.00  0.00     0.074 A 
ATOM     67  C   UNL     1       4.103  16.131  -2.999  1.00  0.00     0.031 C 
ATOM     68  C   UNL     1       5.733  14.600  -4.075  1.00  0.00     0.034 A 
BRANCH  55  69
ATOM     69  C   UNL     1       7.039   8.636  -5.027  1.00  0.00     0.023 A 
ATOM     70  C   UNL     1       8.383   8.594  -4.606  1.00  0.00     0.031 A 
ATOM     71  C   UNL     1       6.672   7.870  -6.149  1.00  0.00     0.131 A 
ATOM     72  C   UNL     1       9.318   7.841  -5.330  1.00  0.00     0.055 A 
ATOM     73  C   UNL     1       7.599   7.089  -6.841  1.00  0.00     0.041 A 
ATOM     74  F   UNL     1       5.407   7.884  -6.598  1.00  0.00    -0.206 F 
ATOM     75  C   UNL     1       8.932   7.085  -6.441  1.00  0.00     0.022 A 
BRANCH  72  76
ATOM     76  S   UNL     1      11.083   7.878  -4.910  1.00  0.00     0.124 S 
ATOM     77  O   UNL     1      11.360   6.466  -4.654  1.00  0.00    -0.237 OA
ATOM     78  O   UNL     1      11.677   8.418  -6.131  1.00  0.00    -0.237 OA
ATOM     79  O   UNL     1      11.148   8.745  -3.739  1.00  0.00    -0.744 OA
ENDBRANCH  72  76
ENDBRANCH  55  69
BRANCH  56  80
ATOM     80  C   UNL     1       0.497  15.060  -1.014  1.00  0.00     0.023 A 
ATOM     81  C   UNL     1       0.138  15.018   0.345  1.00  0.00     0.031 A 
ATOM     82  C   UNL     1      -0.195  15.948  -1.855  1.00  0.00     0.131 A 
ATOM     83  C   UNL     1      -0.928  15.801   0.808  1.00  0.00     0.055 A 
ATOM     84  C   UNL     1      -1.207  16.780  -1.373  1.00  0.00     0.041 A 
ATOM     85  F   UNL     1       0.101  16.011  -3.162  1.00  0.00    -0.206 F 
ATOM     86  C   UNL     1      -1.590  16.695  -0.038  1.00  0.00     0.022 A 
BRANCH  83  87
ATOM     87  S   UNL     1      -1.578  15.585   2.488  1.00  0.00     0.124 S 
ATOM     88  O   UNL     1      -1.374  16.909   3.066  1.00  0.00    -0.237 OA
ATOM     89  O   UNL     1      -2.967  15.217   2.225  1.00  0.00    -0.237 OA
ATOM     90  O   UNL     1      -0.750  14.519   3.043  1.00  0.00    -0.744 OA
ENDBRANCH  83  87
ENDBRANCH  56  80
BRANCH  68  91
ATOM     91  C   UNL     1       6.556  15.785  -4.529  1.00  0.00     0.023 A 
ATOM     92  C   UNL     1       6.776  16.000  -5.905  1.00  0.00     0.031 A 
ATOM     93  C   UNL     1       7.257  16.588  -3.614  1.00  0.00     0.131 A 
ATOM     94  C   UNL     1       7.711  16.954  -6.323  1.00  0.00     0.055 A 
ATOM     95  C   UNL     1       8.149  17.575  -4.037  1.00  0.00     0.041 A 
ATOM     96  F   UNL     1       7.093  16.417  -2.292  1.00  0.00    -0.206 F 
ATOM     97  C   UNL     1       8.392  17.750  -5.396  1.00  0.00     0.022 A 
BRANCH  94  98
ATOM     98  S   UNL     1       8.153  17.132  -8.074  1.00  0.00     0.124 S 
ATOM     99  O   UNL     1       7.817  18.531  -8.331  1.00  0.00    -0.237 OA
ATOM    100  O   UNL     1       9.581  16.825  -8.063  1.00  0.00    -0.237 OA
ATOM    101  O   UNL     1       7.306  16.156  -8.752  1.00  0.00    -0.744 OA
ENDBRANCH  94  98
ENDBRANCH  68  91
ENDBRANCH  42  43
ENDBRANCH  35  37
ENDBRANCH  34  35
ENDBRANCH  33  34
ENDBRANCH  32  33
ENDBRANCH  31  32
ENDBRANCH   1  31
TORSDOF 22
