REMARK SMILES Cc1ccc(S(C)(=O)=O)cc1C(=O)NCCOCC(=O)OCCOCCOCCOC(=O)c1ccc(-c2c3nc(c(-c4cc(S(=O)(=O)[O-])ccc4F)c4ccc([nH]4)c(-c4cc(S(=O)(=O)[O-])ccc4F)c4nc(c(-c5cc(S(=O)(=O)[O-])ccc5F)c5ccc2[nH]5)C=C4)C=C3)cc1
REMARK SMILES IDX 24 1 23 2 22 3 21 4 19 5 20 6 18 7 17 8 16 9 15 10 14 11
REMARK SMILES IDX 12 12 13 13 11 15 1 16 2 17 3 18 4 19 10 20 5 21 6 22 7 23
REMARK SMILES IDX 8 24 9 25 25 26 26 27 27 28 28 29 29 30 30 31 31 32 32 33
REMARK SMILES IDX 33 34 34 35 95 36 35 37 94 38 36 39 37 40 38 41 88 42 39 43
REMARK SMILES IDX 93 44 87 45 89 46 40 47 92 48 86 49 85 50 41 52 73 53 53 54
REMARK SMILES IDX 72 55 54 56 57 57 71 58 90 59 55 60 56 61 70 63 91 64 58 65
REMARK SMILES IDX 42 66 43 67 51 68 44 69 50 70 52 71 49 72 45 73 46 74 47 75
REMARK SMILES IDX 48 76 74 77 75 78 83 79 76 80 82 81 84 82 81 83 77 84 78 85
REMARK SMILES IDX 79 86 80 87 59 88 60 89 68 90 61 91 67 92 69 93 66 94 62 95
REMARK SMILES IDX 63 96 64 97 65 98
REMARK H PARENT 14 14 89 51 57 62
REMARK Flexibility Score: inf
ROOT
ATOM      1  O   UNL     1       0.303   0.492  -4.982  1.00  0.00    -0.376 OA
ENDROOT
BRANCH   1   2
ATOM      2  C   UNL     1       0.876   1.777  -5.175  1.00  0.00     0.202 C 
BRANCH   2   3
ATOM      3  C   UNL     1       2.270   1.927  -4.619  1.00  0.00     0.261 C 
BRANCH   3   4
ATOM      4  O   UNL     1       2.596   2.466  -3.260  1.00  0.00    -0.462 OA
BRANCH   4   5
ATOM      5  C   UNL     1       2.063   2.735  -2.053  1.00  0.00     0.332 C 
ATOM      6  O   UNL     1       0.985   2.345  -1.625  1.00  0.00    -0.250 OA
BRANCH   5   7
ATOM      7  C   UNL     1       2.982   3.713  -1.227  1.00  0.00     0.282 C 
BRANCH   7   8
ATOM      8  O   UNL     1       3.896   3.310  -0.217  1.00  0.00    -0.368 OA
BRANCH   8   9
ATOM      9  C   UNL     1       3.657   2.014   0.305  1.00  0.00     0.182 C 
BRANCH   9  10
ATOM     10  C   UNL     1       3.003   2.057   1.679  1.00  0.00     0.144 C 
BRANCH  10  11
ATOM     11  N   UNL     1       1.648   2.549   1.672  1.00  0.00    -0.350 N 
ATOM     12  C   UNL     1       0.382   2.090   1.473  1.00  0.00     0.251 C 
ATOM     13  O   UNL     1      -0.461   2.956   1.755  1.00  0.00    -0.269 OA
ATOM     14  H   UNL     1       1.633   3.513   1.874  1.00  0.00     0.163 HD
BRANCH  12  15
ATOM     15  C   UNL     1      -0.130   0.746   0.989  1.00  0.00     0.044 A 
ATOM     16  C   UNL     1       1.966  -0.809   0.779  1.00  0.00     0.045 C 
ATOM     17  C   UNL     1       0.509  -0.482   0.692  1.00  0.00    -0.038 A 
ATOM     18  C   UNL     1      -0.271  -1.586   0.245  1.00  0.00     0.005 A 
ATOM     19  C   UNL     1      -1.649  -1.522   0.100  1.00  0.00     0.020 A 
ATOM     20  C   UNL     1      -1.546   0.774   0.817  1.00  0.00     0.034 A 
ATOM     21  C   UNL     1      -2.285  -0.330   0.381  1.00  0.00     0.067 A 
BRANCH  21  22
ATOM     22  S   UNL     1      -4.050  -0.230   0.220  1.00  0.00     0.175 S 
ATOM     23  C   UNL     1      -4.386  -0.774  -1.433  1.00  0.00     0.163 C 
ATOM     24  O   UNL     1      -4.594  -1.214   1.141  1.00  0.00    -0.224 OA
ATOM     25  O   UNL     1      -4.433   1.165   0.326  1.00  0.00    -0.224 OA
ENDBRANCH  21  22
ENDBRANCH  12  15
ENDBRANCH  10  11
ENDBRANCH   9  10
ENDBRANCH   8   9
ENDBRANCH   7   8
ENDBRANCH   5   7
ENDBRANCH   4   5
ENDBRANCH   3   4
ENDBRANCH   2   3
ENDBRANCH   1   2
BRANCH   1  26
ATOM     26  C   UNL     1       0.174   0.175  -3.610  1.00  0.00     0.188 C 
BRANCH  26  27
ATOM     27  C   UNL     1       1.269  -0.772  -3.139  1.00  0.00     0.188 C 
BRANCH  27  28
ATOM     28  O   UNL     1       2.476  -0.714  -3.875  1.00  0.00    -0.376 OA
BRANCH  28  29
ATOM     29  C   UNL     1       2.463  -1.371  -5.146  1.00  0.00     0.202 C 
BRANCH  29  30
ATOM     30  C   UNL     1       3.424  -2.544  -5.017  1.00  0.00     0.261 C 
BRANCH  30  31
ATOM     31  O   UNL     1       4.779  -2.047  -4.869  1.00  0.00    -0.460 OA
BRANCH  31  32
ATOM     32  C   UNL     1       5.064  -1.484  -3.658  1.00  0.00     0.338 C 
ATOM     33  O   UNL     1       4.902  -2.026  -2.575  1.00  0.00    -0.246 OA
BRANCH  32  34
ATOM     34  C   UNL     1       5.432  -0.040  -3.842  1.00  0.00     0.060 A 
ATOM     35  C   UNL     1       5.476   0.804  -2.727  1.00  0.00     0.016 A 
ATOM     36  C   UNL     1       5.505   0.532  -5.118  1.00  0.00     0.016 A 
ATOM     37  C   UNL     1       5.406   2.198  -2.897  1.00  0.00     0.010 A 
ATOM     38  C   UNL     1       5.357   1.916  -5.275  1.00  0.00     0.010 A 
ATOM     39  C   UNL     1       5.164   2.751  -4.163  1.00  0.00    -0.014 A 
BRANCH  39  40
ATOM     40  C   UNL     1       4.838   4.189  -4.415  1.00  0.00     0.031 A 
ATOM     41  C   UNL     1       5.973   5.092  -4.165  1.00  0.00     0.074 A 
ATOM     42  C   UNL     1       3.663   4.808  -4.779  1.00  0.00     0.049 A 
ATOM     43  N   UNL     1       5.864   6.292  -3.697  1.00  0.00    -0.248 NA
ATOM     44  C   UNL     1       7.356   4.612  -4.254  1.00  0.00     0.031 C 
ATOM     45  C   UNL     1       3.563   5.915  -5.728  1.00  0.00     0.029 A 
ATOM     46  N   UNL     1       2.308   4.579  -4.494  1.00  0.00    -0.354 N 
ATOM     47  C   UNL     1       7.106   6.841  -3.899  1.00  0.00     0.074 A 
ATOM     48  C   UNL     1       8.017   5.721  -3.930  1.00  0.00     0.031 C 
ATOM     49  C   UNL     1       2.269   6.259  -5.911  1.00  0.00     0.029 A 
ATOM     50  C   UNL     1       1.405   5.488  -5.018  1.00  0.00     0.049 A 
ATOM     51  H   UNL     1       2.016   3.813  -3.950  1.00  0.00     0.167 HD
ATOM     52  C   UNL     1       7.211   8.085  -4.446  1.00  0.00     0.034 A 
ATOM     53  C   UNL     1       0.231   5.883  -4.425  1.00  0.00     0.034 A 
ATOM     54  C   UNL     1       5.902   8.703  -4.674  1.00  0.00     0.049 A 
ATOM     55  C   UNL     1       0.463   7.272  -3.859  1.00  0.00     0.074 A 
ATOM     56  C   UNL     1       5.168   8.940  -5.829  1.00  0.00     0.029 A 
ATOM     57  N   UNL     1       5.024   8.924  -3.616  1.00  0.00    -0.354 N 
ATOM     58  N   UNL     1       1.623   7.852  -3.927  1.00  0.00    -0.248 NA
ATOM     59  C   UNL     1      -0.505   8.071  -3.111  1.00  0.00     0.031 C 
ATOM     60  C   UNL     1       3.870   9.357  -5.462  1.00  0.00     0.029 A 
ATOM     61  C   UNL     1       3.800   9.363  -4.082  1.00  0.00     0.049 A 
ATOM     62  H   UNL     1       5.246   8.786  -2.667  1.00  0.00     0.167 HD
ATOM     63  C   UNL     1       1.605   9.031  -3.246  1.00  0.00     0.074 A 
ATOM     64  C   UNL     1       0.245   9.130  -2.748  1.00  0.00     0.031 C 
ATOM     65  C   UNL     1       2.744   9.778  -3.169  1.00  0.00     0.034 A 
BRANCH  52  66
ATOM     66  C   UNL     1       8.465   8.471  -5.203  1.00  0.00     0.023 A 
ATOM     67  C   UNL     1       8.359   9.239  -6.374  1.00  0.00     0.031 A 
ATOM     68  C   UNL     1       9.768   8.054  -4.872  1.00  0.00     0.131 A 
ATOM     69  C   UNL     1       9.453   9.430  -7.230  1.00  0.00     0.055 A 
ATOM     70  C   UNL     1      10.850   8.184  -5.752  1.00  0.00     0.041 A 
ATOM     71  F   UNL     1      10.046   7.527  -3.670  1.00  0.00    -0.206 F 
ATOM     72  C   UNL     1      10.691   8.861  -6.952  1.00  0.00     0.022 A 
BRANCH  69  73
ATOM     73  S   UNL     1       9.232  10.478  -8.690  1.00  0.00     0.124 S 
ATOM     74  O   UNL     1       8.338   9.670  -9.513  1.00  0.00    -0.237 OA
ATOM     75  O   UNL     1       8.660  11.691  -8.116  1.00  0.00    -0.237 OA
ATOM     76  O   UNL     1      10.592  10.623  -9.206  1.00  0.00    -0.744 OA
ENDBRANCH  69  73
ENDBRANCH  52  66
BRANCH  53  77
ATOM     77  C   UNL     1      -0.742   4.917  -3.780  1.00  0.00     0.023 A 
ATOM     78  C   UNL     1      -1.536   4.038  -4.567  1.00  0.00     0.031 A 
ATOM     79  C   UNL     1      -0.867   4.779  -2.387  1.00  0.00     0.131 A 
ATOM     80  C   UNL     1      -2.299   2.999  -3.969  1.00  0.00     0.055 A 
ATOM     81  C   UNL     1      -1.656   3.779  -1.794  1.00  0.00     0.041 A 
ATOM     82  F   UNL     1      -0.170   5.577  -1.565  1.00  0.00    -0.206 F 
ATOM     83  C   UNL     1      -2.339   2.857  -2.583  1.00  0.00     0.022 A 
BRANCH  80  84
ATOM     84  S   UNL     1      -3.135   1.713  -4.975  1.00  0.00     0.124 S 
ATOM     85  O   UNL     1      -4.538   2.098  -4.864  1.00  0.00    -0.237 OA
ATOM     86  O   UNL     1      -2.538   1.872  -6.296  1.00  0.00    -0.237 OA
ATOM     87  O   UNL     1      -2.806   0.466  -4.284  1.00  0.00    -0.744 OA
ENDBRANCH  80  84
ENDBRANCH  53  77
BRANCH  65  88
ATOM     88  C   UNL     1       2.944  11.030  -2.361  1.00  0.00     0.023 A 
ATOM     89  C   UNL     1       2.109  11.410  -1.307  1.00  0.00     0.031 A 
ATOM     90  C   UNL     1       4.049  11.882  -2.618  1.00  0.00     0.131 A 
ATOM     91  C   UNL     1       2.324  12.620  -0.625  1.00  0.00     0.055 A 
ATOM     92  C   UNL     1       4.311  13.034  -1.881  1.00  0.00     0.041 A 
ATOM     93  F   UNL     1       4.927  11.636  -3.602  1.00  0.00    -0.206 F 
ATOM     94  C   UNL     1       3.432  13.423  -0.888  1.00  0.00     0.022 A 
BRANCH  91  95
ATOM     95  S   UNL     1       1.065  13.169   0.551  1.00  0.00     0.124 S 
ATOM     96  O   UNL     1      -0.112  13.285  -0.305  1.00  0.00    -0.237 OA
ATOM     97  O   UNL     1       1.044  12.076   1.517  1.00  0.00    -0.237 OA
ATOM     98  O   UNL     1       1.595  14.435   1.054  1.00  0.00    -0.744 OA
ENDBRANCH  91  95
ENDBRANCH  65  88
ENDBRANCH  39  40
ENDBRANCH  32  34
ENDBRANCH  31  32
ENDBRANCH  30  31
ENDBRANCH  29  30
ENDBRANCH  28  29
ENDBRANCH  27  28
ENDBRANCH  26  27
ENDBRANCH   1  26
TORSDOF 26
