REMARK SMILES C[C@H]1CC[C@H]([NH2+]Cc2c(C(=O)OCCOCCOCCOC(=O)c3ccc(-c4c5nc(c(-c6cc(S(=O)(=O)[O-])ccc6F)c6ccc([nH]6)c(-c6cc(S(=O)(=O)[O-])ccc6F)c6nc(c(-c7cc(S(=O)(=O)[O-])ccc7F)c7ccc4[nH]7)C=C6)C=C5)cc3)n(Cc3ccccc3F)c3ccccc23)CC1
REMARK SMILES IDX 16 1 15 2 14 3 13 4 12 5 10 6 11 7 9 8 8 9 101 10 87 11
REMARK SMILES IDX 96 12 100 13 97 14 99 15 98 16 7 17 6 18 5 21 1 22 2 23 3 24
REMARK SMILES IDX 103 25 4 26 102 27 88 28 89 29 90 30 94 31 91 32 93 33 95 34
REMARK SMILES IDX 92 35 17 36 18 37 19 38 20 39 21 40 22 41 23 42 24 43 25 44
REMARK SMILES IDX 86 45 26 46 85 47 27 48 28 49 29 50 79 51 30 52 84 53 78 54
REMARK SMILES IDX 80 55 31 56 83 57 77 58 76 59 32 61 64 62 44 63 63 64 45 65
REMARK SMILES IDX 48 66 62 67 81 68 46 69 47 70 61 72 82 73 49 74 33 75 34 76
REMARK SMILES IDX 42 77 35 78 41 79 43 80 40 81 36 82 37 83 38 84 39 85 65 86
REMARK SMILES IDX 66 87 74 88 67 89 73 90 75 91 72 92 68 93 69 94 70 95 71 96
REMARK SMILES IDX 50 97 51 98 59 99 52 100 58 101 60 102 57 103 53 104 54 105
REMARK SMILES IDX 55 106 56 107
REMARK H PARENT 6 19 6 20 80 60 48 71
REMARK Flexibility Score: inf
ROOT
ATOM      1  C   UNL     1      -1.646  -0.115   4.348  1.00  0.00     0.188 C 
ENDROOT
BRANCH   1   2
ATOM      2  O   UNL     1      -1.608   1.252   3.989  1.00  0.00    -0.376 OA
BRANCH   2   3
ATOM      3  C   UNL     1      -0.917   1.415   2.788  1.00  0.00     0.202 C 
BRANCH   3   4
ATOM      4  C   UNL     1      -1.880   1.246   1.637  1.00  0.00     0.261 C 
BRANCH   4   5
ATOM      5  O   UNL     1      -2.941   0.262   1.613  1.00  0.00    -0.459 OA
BRANCH   5   6
ATOM      6  C   UNL     1      -2.575  -1.043   1.458  1.00  0.00     0.355 C 
ATOM      7  O   UNL     1      -1.474  -1.445   1.785  1.00  0.00    -0.244 OA
BRANCH   6   8
ATOM      8  C   UNL     1      -3.611  -1.843   0.832  1.00  0.00     0.137 A 
ATOM      9  C   UNL     1      -4.262  -1.577  -0.382  1.00  0.00     0.047 A 
ATOM     10  C   UNL     1      -5.144  -2.699  -0.616  1.00  0.00     0.009 A 
ATOM     11  N   UNL     1      -3.992  -3.146   1.237  1.00  0.00    -0.330 N 
ATOM     12  C   UNL     1      -4.838  -3.698   0.302  1.00  0.00     0.050 A 
ATOM     13  C   UNL     1      -6.102  -2.986  -1.614  1.00  0.00     0.011 A 
ATOM     14  C   UNL     1      -5.335  -5.002   0.158  1.00  0.00     0.027 A 
ATOM     15  C   UNL     1      -6.680  -4.256  -1.687  1.00  0.00     0.001 A 
ATOM     16  C   UNL     1      -6.277  -5.259  -0.826  1.00  0.00     0.002 A 
BRANCH   9  17
ATOM     17  C   UNL     1      -4.123  -0.466  -1.423  1.00  0.00     0.300 C 
BRANCH  17  18
ATOM     18  N   UNL     1      -3.218   0.649  -1.148  1.00  0.00    -0.340 N 
ATOM     19  H   UNL     1      -3.709   1.501  -1.419  1.00  0.00     0.346 HD
ATOM     20  H   UNL     1      -2.994   0.530  -0.160  1.00  0.00     0.346 HD
BRANCH  18  21
ATOM     21  C   UNL     1      -1.885   0.701  -1.793  1.00  0.00     0.182 C 
ATOM     22  C   UNL     1       2.507   0.888  -0.799  1.00  0.00     0.007 C 
ATOM     23  C   UNL     1       0.978   0.799  -0.808  1.00  0.00    -0.014 C 
ATOM     24  C   UNL     1       0.485  -0.351  -1.678  1.00  0.00     0.009 C 
ATOM     25  C   UNL     1       0.339   2.094  -1.312  1.00  0.00     0.009 C 
ATOM     26  C   UNL     1      -1.021  -0.537  -1.543  1.00  0.00     0.065 C 
ATOM     27  C   UNL     1      -1.195   2.060  -1.454  1.00  0.00     0.065 C 
ENDBRANCH  18  21
ENDBRANCH  17  18
ENDBRANCH   9  17
BRANCH  11  28
ATOM     28  C   UNL     1      -3.332  -3.940   2.285  1.00  0.00     0.161 C 
BRANCH  28  29
ATOM     29  C   UNL     1      -4.053  -4.978   3.136  1.00  0.00     0.008 A 
ATOM     30  C   UNL     1      -3.857  -6.362   2.894  1.00  0.00     0.008 A 
ATOM     31  C   UNL     1      -4.633  -4.626   4.354  1.00  0.00     0.128 A 
ATOM     32  C   UNL     1      -4.215  -7.335   3.836  1.00  0.00     0.001 A 
ATOM     33  C   UNL     1      -4.947  -5.591   5.320  1.00  0.00     0.039 A 
ATOM     34  F   UNL     1      -4.739  -3.333   4.689  1.00  0.00    -0.207 F 
ATOM     35  C   UNL     1      -4.732  -6.946   5.065  1.00  0.00     0.003 A 
ENDBRANCH  28  29
ENDBRANCH  11  28
ENDBRANCH   6   8
ENDBRANCH   5   6
ENDBRANCH   4   5
ENDBRANCH   3   4
ENDBRANCH   2   3
ENDBRANCH   1   2
BRANCH   1  36
ATOM     36  C   UNL     1      -3.066  -0.621   4.628  1.00  0.00     0.188 C 
BRANCH  36  37
ATOM     37  O   UNL     1      -3.967   0.334   5.171  1.00  0.00    -0.376 OA
BRANCH  37  38
ATOM     38  C   UNL     1      -3.439   1.136   6.221  1.00  0.00     0.202 C 
BRANCH  38  39
ATOM     39  C   UNL     1      -2.828   0.353   7.410  1.00  0.00     0.261 C 
BRANCH  39  40
ATOM     40  O   UNL     1      -1.587  -0.346   7.075  1.00  0.00    -0.460 OA
BRANCH  40  41
ATOM     41  C   UNL     1      -1.449  -1.655   7.433  1.00  0.00     0.338 C 
ATOM     42  O   UNL     1      -2.037  -2.158   8.380  1.00  0.00    -0.246 OA
BRANCH  41  43
ATOM     43  C   UNL     1      -0.797  -2.495   6.335  1.00  0.00     0.060 A 
ATOM     44  C   UNL     1       0.357  -2.229   5.568  1.00  0.00     0.016 A 
ATOM     45  C   UNL     1      -1.551  -3.587   5.936  1.00  0.00     0.016 A 
ATOM     46  C   UNL     1       0.660  -2.967   4.353  1.00  0.00     0.010 A 
ATOM     47  C   UNL     1      -1.238  -4.287   4.758  1.00  0.00     0.010 A 
ATOM     48  C   UNL     1      -0.177  -3.987   3.880  1.00  0.00    -0.014 A 
BRANCH  48  49
ATOM     49  C   UNL     1       0.016  -4.926   2.685  1.00  0.00     0.031 A 
ATOM     50  C   UNL     1       0.379  -6.313   3.080  1.00  0.00     0.074 A 
ATOM     51  C   UNL     1      -0.224  -4.852   1.329  1.00  0.00     0.049 A 
ATOM     52  N   UNL     1       1.526  -6.844   2.812  1.00  0.00    -0.248 NA
ATOM     53  C   UNL     1      -0.516  -7.194   3.832  1.00  0.00     0.031 C 
ATOM     54  C   UNL     1      -0.595  -3.706   0.511  1.00  0.00     0.029 A 
ATOM     55  N   UNL     1      -0.367  -5.875   0.378  1.00  0.00    -0.354 N 
ATOM     56  C   UNL     1       1.418  -8.175   3.163  1.00  0.00     0.074 A 
ATOM     57  C   UNL     1       0.219  -8.299   3.945  1.00  0.00     0.031 C 
ATOM     58  C   UNL     1      -1.242  -4.083  -0.623  1.00  0.00     0.029 A 
ATOM     59  C   UNL     1      -1.097  -5.519  -0.779  1.00  0.00     0.049 A 
ATOM     60  H   UNL     1       0.014  -6.773   0.507  1.00  0.00     0.167 HD
ATOM     61  C   UNL     1       2.200  -9.119   2.580  1.00  0.00     0.034 A 
ATOM     62  C   UNL     1      -1.352  -6.216  -1.929  1.00  0.00     0.034 A 
ATOM     63  C   UNL     1       3.219  -8.527   1.757  1.00  0.00     0.049 A 
ATOM     64  C   UNL     1      -0.092  -6.933  -2.220  1.00  0.00     0.074 A 
ATOM     65  C   UNL     1       4.307  -7.722   2.002  1.00  0.00     0.029 A 
ATOM     66  N   UNL     1       2.917  -8.410   0.424  1.00  0.00    -0.354 N 
ATOM     67  N   UNL     1       1.021  -6.340  -2.547  1.00  0.00    -0.248 NA
ATOM     68  C   UNL     1       0.010  -8.365  -1.998  1.00  0.00     0.031 C 
ATOM     69  C   UNL     1       4.476  -6.927   0.836  1.00  0.00     0.029 A 
ATOM     70  C   UNL     1       3.542  -7.312  -0.128  1.00  0.00     0.049 A 
ATOM     71  H   UNL     1       2.331  -9.028  -0.071  1.00  0.00     0.167 HD
ATOM     72  C   UNL     1       1.987  -7.165  -2.034  1.00  0.00     0.074 A 
ATOM     73  C   UNL     1       1.342  -8.471  -1.966  1.00  0.00     0.031 C 
ATOM     74  C   UNL     1       3.040  -6.646  -1.335  1.00  0.00     0.034 A 
BRANCH  61  75
ATOM     75  C   UNL     1       1.843 -10.570   2.513  1.00  0.00     0.023 A 
ATOM     76  C   UNL     1       0.513 -11.026   2.569  1.00  0.00     0.031 A 
ATOM     77  C   UNL     1       2.828 -11.531   2.234  1.00  0.00     0.131 A 
ATOM     78  C   UNL     1       0.207 -12.385   2.450  1.00  0.00     0.055 A 
ATOM     79  C   UNL     1       2.514 -12.879   2.034  1.00  0.00     0.041 A 
ATOM     80  F   UNL     1       4.118 -11.181   2.125  1.00  0.00    -0.206 F 
ATOM     81  C   UNL     1       1.199 -13.316   2.159  1.00  0.00     0.022 A 
BRANCH  78  82
ATOM     82  S   UNL     1      -1.490 -12.965   2.716  1.00  0.00     0.124 S 
ATOM     83  O   UNL     1      -1.813 -13.551   1.421  1.00  0.00    -0.237 OA
ATOM     84  O   UNL     1      -1.311 -13.909   3.816  1.00  0.00    -0.237 OA
ATOM     85  O   UNL     1      -2.214 -11.744   3.064  1.00  0.00    -0.744 OA
ENDBRANCH  78  82
ENDBRANCH  61  75
BRANCH  62  86
ATOM     86  C   UNL     1      -2.349  -6.145  -3.049  1.00  0.00     0.023 A 
ATOM     87  C   UNL     1      -3.658  -6.641  -2.839  1.00  0.00     0.031 A 
ATOM     88  C   UNL     1      -1.969  -5.945  -4.393  1.00  0.00     0.131 A 
ATOM     89  C   UNL     1      -4.509  -6.942  -3.931  1.00  0.00     0.055 A 
ATOM     90  C   UNL     1      -2.815  -6.247  -5.475  1.00  0.00     0.041 A 
ATOM     91  F   UNL     1      -0.738  -5.513  -4.700  1.00  0.00    -0.206 F 
ATOM     92  C   UNL     1      -4.085  -6.761  -5.248  1.00  0.00     0.022 A 
BRANCH  89  93
ATOM     93  S   UNL     1      -6.133  -7.744  -3.700  1.00  0.00     0.124 S 
ATOM     94  O   UNL     1      -7.060  -6.643  -3.949  1.00  0.00    -0.237 OA
ATOM     95  O   UNL     1      -6.128  -8.786  -4.725  1.00  0.00    -0.237 OA
ATOM     96  O   UNL     1      -6.080  -8.232  -2.327  1.00  0.00    -0.744 OA
ENDBRANCH  89  93
ENDBRANCH  62  86
BRANCH  74  97
ATOM     97  C   UNL     1       3.571  -5.244  -1.662  1.00  0.00     0.023 A 
ATOM     98  C   UNL     1       4.973  -5.076  -1.609  1.00  0.00     0.031 A 
ATOM     99  C   UNL     1       2.827  -4.071  -1.905  1.00  0.00     0.131 A 
ATOM    100  C   UNL     1       5.563  -3.804  -1.659  1.00  0.00     0.055 A 
ATOM    101  C   UNL     1       3.437  -2.820  -2.086  1.00  0.00     0.041 A 
ATOM    102  F   UNL     1       1.489  -4.045  -1.923  1.00  0.00    -0.206 F 
ATOM    103  C   UNL     1       4.805  -2.671  -1.923  1.00  0.00     0.022 A 
BRANCH 100 104
ATOM    104  S   UNL     1       7.312  -3.578  -1.253  1.00  0.00     0.124 S 
ATOM    105  O   UNL     1       7.812  -2.850  -2.416  1.00  0.00    -0.237 OA
ATOM    106  O   UNL     1       7.239  -2.803  -0.016  1.00  0.00    -0.237 OA
ATOM    107  O   UNL     1       7.820  -4.938  -1.105  1.00  0.00    -0.744 OA
ENDBRANCH 100 104
ENDBRANCH  74  97
ENDBRANCH  48  49
ENDBRANCH  41  43
ENDBRANCH  40  41
ENDBRANCH  39  40
ENDBRANCH  38  39
ENDBRANCH  37  38
ENDBRANCH  36  37
ENDBRANCH   1  36
TORSDOF 25
