REMARK SMILES O=C(OCCOCCOCCOC(=O)c1ccc(F)cc1-c1ccc(F)c(Cl)c1)c1ccc(-c2c3nc(c(-c4cc(S(=O)(=O)[O-])ccc4F)c4ccc([nH]4)c(-c4cc(S(=O)(=O)[O-])ccc4F)c4nc(c(-c5cc(S(=O)(=O)[O-])ccc5F)c5ccc2[nH]5)C=C4)C=C3)cc1
REMARK SMILES IDX 7 1 6 2 5 3 4 4 3 5 2 6 1 7 30 8 31 9 92 10 32 11 91 12
REMARK SMILES IDX 33 13 34 14 35 15 85 16 36 17 90 18 84 19 86 20 37 21 89 22
REMARK SMILES IDX 83 23 82 24 38 26 70 27 50 28 69 29 51 30 54 31 68 32 87 33
REMARK SMILES IDX 52 34 53 35 67 37 88 38 55 39 39 40 40 41 48 42 41 43 47 44
REMARK SMILES IDX 49 45 46 46 42 47 43 48 44 49 45 50 71 51 72 52 80 53 73 54
REMARK SMILES IDX 79 55 81 56 78 57 74 58 75 59 76 60 77 61 56 62 57 63 65 64
REMARK SMILES IDX 58 65 64 66 66 67 63 68 59 69 60 70 61 71 62 72 8 73 9 74
REMARK SMILES IDX 10 75 11 76 12 77 13 78 14 79 15 80 16 81 21 82 17 83 20 84
REMARK SMILES IDX 18 85 19 86 22 87 23 88 29 89 24 90 27 91 25 92 28 93 26 94
REMARK H PARENT 86 25 54 36
REMARK Flexibility Score: inf
ROOT
ATOM      1  C   UNL     1       3.217   1.406  -1.048  1.00  0.00     0.188 C 
ENDROOT
BRANCH   1   2
ATOM      2  O   UNL     1       4.591   1.046  -1.116  1.00  0.00    -0.376 OA
BRANCH   2   3
ATOM      3  C   UNL     1       4.910  -0.097  -1.896  1.00  0.00     0.202 C 
BRANCH   3   4
ATOM      4  C   UNL     1       4.917  -1.395  -1.085  1.00  0.00     0.261 C 
BRANCH   4   5
ATOM      5  O   UNL     1       3.607  -1.696  -0.571  1.00  0.00    -0.460 OA
BRANCH   5   6
ATOM      6  C   UNL     1       3.131  -1.612   0.694  1.00  0.00     0.338 C 
ATOM      7  O   UNL     1       2.101  -2.236   0.953  1.00  0.00    -0.246 OA
BRANCH   6   8
ATOM      8  C   UNL     1       3.686  -0.722   1.773  1.00  0.00     0.060 A 
ATOM      9  C   UNL     1       4.847   0.048   1.703  1.00  0.00     0.016 A 
ATOM     10  C   UNL     1       2.935  -0.645   2.967  1.00  0.00     0.016 A 
ATOM     11  C   UNL     1       5.289   0.800   2.791  1.00  0.00     0.010 A 
ATOM     12  C   UNL     1       3.353   0.134   4.054  1.00  0.00     0.010 A 
ATOM     13  C   UNL     1       4.568   0.816   3.984  1.00  0.00    -0.014 A 
BRANCH  13  14
ATOM     14  C   UNL     1       5.250   1.341   5.188  1.00  0.00     0.031 A 
ATOM     15  C   UNL     1       5.891   0.343   6.114  1.00  0.00     0.074 A 
ATOM     16  C   UNL     1       5.458   2.662   5.338  1.00  0.00     0.049 A 
ATOM     17  N   UNL     1       6.657   0.549   7.151  1.00  0.00    -0.248 NA
ATOM     18  C   UNL     1       5.659  -1.082   5.814  1.00  0.00     0.031 C 
ATOM     19  C   UNL     1       4.959   3.700   4.434  1.00  0.00     0.029 A 
ATOM     20  N   UNL     1       6.185   3.353   6.272  1.00  0.00    -0.354 N 
ATOM     21  C   UNL     1       7.005  -0.714   7.615  1.00  0.00     0.074 A 
ATOM     22  C   UNL     1       6.340  -1.682   6.775  1.00  0.00     0.031 C 
ATOM     23  C   UNL     1       5.428   4.893   4.841  1.00  0.00     0.029 A 
ATOM     24  C   UNL     1       6.226   4.710   6.050  1.00  0.00     0.049 A 
ATOM     25  H   UNL     1       6.636   2.919   7.032  1.00  0.00     0.167 HD
ATOM     26  C   UNL     1       7.824  -1.040   8.642  1.00  0.00     0.034 A 
ATOM     27  C   UNL     1       6.837   5.690   6.747  1.00  0.00     0.034 A 
ATOM     28  C   UNL     1       8.474  -0.069   9.474  1.00  0.00     0.049 A 
ATOM     29  C   UNL     1       7.654   5.307   7.956  1.00  0.00     0.074 A 
ATOM     30  C   UNL     1       9.273  -0.279  10.582  1.00  0.00     0.029 A 
ATOM     31  N   UNL     1       8.396   1.304   9.285  1.00  0.00    -0.354 N 
ATOM     32  N   UNL     1       7.927   4.107   8.416  1.00  0.00    -0.248 NA
ATOM     33  C   UNL     1       8.239   6.401   8.742  1.00  0.00     0.031 C 
ATOM     34  C   UNL     1       9.638   0.971  11.094  1.00  0.00     0.029 A 
ATOM     35  C   UNL     1       9.112   1.956  10.271  1.00  0.00     0.049 A 
ATOM     36  H   UNL     1       7.904   1.747   8.557  1.00  0.00     0.167 HD
ATOM     37  C   UNL     1       8.721   4.303   9.541  1.00  0.00     0.074 A 
ATOM     38  C   UNL     1       8.896   5.735   9.683  1.00  0.00     0.031 C 
ATOM     39  C   UNL     1       9.257   3.386  10.384  1.00  0.00     0.034 A 
BRANCH  26  40
ATOM     40  C   UNL     1       7.996  -2.502   8.940  1.00  0.00     0.023 A 
ATOM     41  C   UNL     1       8.741  -3.342   8.095  1.00  0.00     0.031 A 
ATOM     42  C   UNL     1       7.365  -3.070  10.060  1.00  0.00     0.131 A 
ATOM     43  C   UNL     1       8.797  -4.718   8.359  1.00  0.00     0.055 A 
ATOM     44  C   UNL     1       7.473  -4.431  10.348  1.00  0.00     0.041 A 
ATOM     45  F   UNL     1       6.617  -2.313  10.878  1.00  0.00    -0.206 F 
ATOM     46  C   UNL     1       8.186  -5.265   9.491  1.00  0.00     0.022 A 
BRANCH  43  47
ATOM     47  S   UNL     1       9.614  -5.806   7.160  1.00  0.00     0.124 S 
ATOM     48  O   UNL     1       8.692  -5.740   6.029  1.00  0.00    -0.237 OA
ATOM     49  O   UNL     1      10.906  -5.159   6.966  1.00  0.00    -0.237 OA
ATOM     50  O   UNL     1       9.662  -7.096   7.845  1.00  0.00    -0.744 OA
ENDBRANCH  43  47
ENDBRANCH  26  40
BRANCH  27  51
ATOM     51  C   UNL     1       6.661   7.119   6.357  1.00  0.00     0.023 A 
ATOM     52  C   UNL     1       7.739   7.904   5.917  1.00  0.00     0.031 A 
ATOM     53  C   UNL     1       5.398   7.732   6.454  1.00  0.00     0.131 A 
ATOM     54  C   UNL     1       7.537   9.262   5.614  1.00  0.00     0.055 A 
ATOM     55  C   UNL     1       5.195   9.071   6.117  1.00  0.00     0.041 A 
ATOM     56  F   UNL     1       4.333   7.027   6.867  1.00  0.00    -0.206 F 
ATOM     57  C   UNL     1       6.271   9.847   5.701  1.00  0.00     0.022 A 
BRANCH  54  58
ATOM     58  S   UNL     1       8.965  10.277   5.139  1.00  0.00     0.124 S 
ATOM     59  O   UNL     1       9.793  10.204   6.337  1.00  0.00    -0.237 OA
ATOM     60  O   UNL     1       9.464   9.565   3.967  1.00  0.00    -0.237 OA
ATOM     61  O   UNL     1       8.376  11.585   4.864  1.00  0.00    -0.744 OA
ENDBRANCH  54  58
ENDBRANCH  27  51
BRANCH  39  62
ATOM     62  C   UNL     1      10.088   3.897  11.525  1.00  0.00     0.023 A 
ATOM     63  C   UNL     1       9.488   4.474  12.655  1.00  0.00     0.031 A 
ATOM     64  C   UNL     1      11.483   3.725  11.517  1.00  0.00     0.131 A 
ATOM     65  C   UNL     1      10.287   4.875  13.734  1.00  0.00     0.055 A 
ATOM     66  C   UNL     1      12.269   4.092  12.608  1.00  0.00     0.041 A 
ATOM     67  F   UNL     1      12.095   3.169  10.459  1.00  0.00    -0.206 F 
ATOM     68  C   UNL     1      11.671   4.671  13.725  1.00  0.00     0.022 A 
BRANCH  65  69
ATOM     69  S   UNL     1       9.495   5.668  15.158  1.00  0.00     0.124 S 
ATOM     70  O   UNL     1       9.060   6.940  14.590  1.00  0.00    -0.237 OA
ATOM     71  O   UNL     1       8.434   4.726  15.498  1.00  0.00    -0.237 OA
ATOM     72  O   UNL     1      10.573   5.763  16.141  1.00  0.00    -0.744 OA
ENDBRANCH  65  69
ENDBRANCH  39  62
ENDBRANCH  13  14
ENDBRANCH   6   8
ENDBRANCH   5   6
ENDBRANCH   4   5
ENDBRANCH   3   4
ENDBRANCH   2   3
ENDBRANCH   1   2
BRANCH   1  73
ATOM     73  C   UNL     1       2.561   1.903  -2.342  1.00  0.00     0.188 C 
BRANCH  73  74
ATOM     74  O   UNL     1       3.366   2.510  -3.344  1.00  0.00    -0.376 OA
BRANCH  74  75
ATOM     75  C   UNL     1       4.429   3.370  -2.957  1.00  0.00     0.202 C 
BRANCH  75  76
ATOM     76  C   UNL     1       4.054   4.688  -2.283  1.00  0.00     0.261 C 
BRANCH  76  77
ATOM     77  O   UNL     1       3.620   4.546  -0.919  1.00  0.00    -0.460 OA
BRANCH  77  78
ATOM     78  C   UNL     1       2.335   4.898  -0.672  1.00  0.00     0.338 C 
ATOM     79  O   UNL     1       1.466   5.138  -1.490  1.00  0.00    -0.246 OA
BRANCH  78  80
ATOM     80  C   UNL     1       2.131   5.057   0.783  1.00  0.00     0.068 A 
ATOM     81  C   UNL     1       2.870   6.074   1.417  1.00  0.00     0.019 A 
ATOM     82  C   UNL     1       1.155   4.321   1.490  1.00  0.00    -0.001 A 
ATOM     83  C   UNL     1       2.616   6.399   2.747  1.00  0.00     0.040 A 
ATOM     84  C   UNL     1       0.917   4.680   2.832  1.00  0.00     0.048 A 
ATOM     85  C   UNL     1       1.630   5.710   3.437  1.00  0.00     0.123 A 
ATOM     86  F   UNL     1       1.351   6.043   4.703  1.00  0.00    -0.207 F 
BRANCH  82  87
ATOM     87  C   UNL     1       0.418   3.170   0.941  1.00  0.00    -0.016 A 
ATOM     88  C   UNL     1       0.673   1.880   1.446  1.00  0.00     0.012 A 
ATOM     89  C   UNL     1      -0.582   3.316  -0.032  1.00  0.00     0.032 A 
ATOM     90  C   UNL     1      -0.035   0.768   0.986  1.00  0.00     0.041 A 
ATOM     91  C   UNL     1      -1.294   2.202  -0.490  1.00  0.00     0.077 A 
ATOM     92  C   UNL     1      -1.017   0.936   0.020  1.00  0.00     0.141 A 
ATOM     93  Cl  UNL     1      -2.523   2.412  -1.678  1.00  0.00    -0.081 Cl
ATOM     94  F   UNL     1      -1.696  -0.139  -0.405  1.00  0.00    -0.205 F 
ENDBRANCH  82  87
ENDBRANCH  78  80
ENDBRANCH  77  78
ENDBRANCH  76  77
ENDBRANCH  75  76
ENDBRANCH  74  75
ENDBRANCH  73  74
ENDBRANCH   1  73
TORSDOF 21
