REMARK SMILES C[C@@H]1[NH2+]CC[C@H]1C(=O)N[C@@H]1CCC[C@H](C(=O)OCCOCCOCCOC(=O)c2ccc(-c3c4nc(c(-c5cc(S(=O)(=O)[O-])ccc5F)c5ccc([nH]5)c(-c5cc(S(=O)(=O)[O-])ccc5F)c5nc(c(-c6cc(S(=O)(=O)[O-])ccc6F)c6ccc3[nH]6)C=C5)C=C4)cc2)C1
REMARK SMILES IDX 22 1 21 2 20 3 19 4 18 5 17 6 15 7 16 8 14 9 10 10 11 11
REMARK SMILES IDX 92 12 12 13 13 14 9 15 7 16 8 17 6 19 1 20 2 21 3 22 4 23
REMARK SMILES IDX 5 26 23 27 24 28 25 29 26 30 27 31 28 32 29 33 30 34 91 35
REMARK SMILES IDX 31 36 90 37 32 38 33 39 34 40 84 41 35 42 89 43 83 44 85 45
REMARK SMILES IDX 36 46 88 47 82 48 81 49 37 51 69 52 49 53 68 54 50 55 53 56
REMARK SMILES IDX 67 57 86 58 51 59 52 60 66 62 87 63 54 64 38 65 39 66 47 67
REMARK SMILES IDX 40 68 46 69 48 70 45 71 41 72 42 73 43 74 44 75 70 76 71 77
REMARK SMILES IDX 79 78 72 79 78 80 80 81 77 82 73 83 74 84 75 85 76 86 55 87
REMARK SMILES IDX 56 88 64 89 57 90 63 91 65 92 62 93 58 94 59 95 60 96 61 97
REMARK H PARENT 9 18 3 24 3 25 85 50 53 61
REMARK Flexibility Score: inf
ROOT
ATOM      1  C   UNL     1      -0.205  -5.286   2.337  1.00  0.00     0.188 C 
ENDROOT
BRANCH   1   2
ATOM      2  C   UNL     1      -0.602  -5.625   0.894  1.00  0.00     0.188 C 
BRANCH   2   3
ATOM      3  O   UNL     1       0.417  -5.838  -0.061  1.00  0.00    -0.376 OA
BRANCH   3   4
ATOM      4  C   UNL     1       1.427  -4.863  -0.262  1.00  0.00     0.202 C 
BRANCH   4   5
ATOM      5  C   UNL     1       1.133  -3.362  -0.168  1.00  0.00     0.261 C 
BRANCH   5   6
ATOM      6  O   UNL     1       0.710  -2.862   1.120  1.00  0.00    -0.463 OA
BRANCH   6   7
ATOM      7  C   UNL     1      -0.589  -2.458   1.190  1.00  0.00     0.309 C 
ATOM      8  O   UNL     1      -1.391  -2.580   0.269  1.00  0.00    -0.252 OA
BRANCH   7   9
ATOM      9  C   UNL     1      -0.952  -1.665   2.441  1.00  0.00     0.101 C 
ATOM     10  C   UNL     1      -0.864   0.840   2.943  1.00  0.00     0.082 C 
ATOM     11  C   UNL     1      -0.505   0.501   4.406  1.00  0.00     0.025 C 
ATOM     12  C   UNL     1      -0.430  -0.303   2.090  1.00  0.00     0.040 C 
ATOM     13  C   UNL     1      -0.905  -0.926   4.826  1.00  0.00     0.003 C 
ATOM     14  C   UNL     1      -0.450  -2.016   3.836  1.00  0.00     0.015 C 
BRANCH  10  15
ATOM     15  N   UNL     1      -0.188   2.074   2.493  1.00  0.00    -0.353 N 
ATOM     16  C   UNL     1       0.195   2.618   1.303  1.00  0.00     0.229 C 
ATOM     17  O   UNL     1       0.720   3.739   1.406  1.00  0.00    -0.275 OA
ATOM     18  H   UNL     1       0.047   2.656   3.251  1.00  0.00     0.163 HD
BRANCH  16  19
ATOM     19  C   UNL     1       0.063   2.021  -0.117  1.00  0.00     0.142 C 
ATOM     20  C   UNL     1       2.287   1.116  -1.069  1.00  0.00     0.076 C 
ATOM     21  C   UNL     1       0.915   0.802  -0.486  1.00  0.00     0.192 C 
ATOM     22  N   UNL     1       0.143   0.056  -1.488  1.00  0.00    -0.343 N 
ATOM     23  C   UNL     1      -1.272   0.402  -1.354  1.00  0.00     0.261 C 
ATOM     24  H   UNL     1       0.266  -0.946  -1.338  1.00  0.00     0.346 HD
ATOM     25  H   UNL     1       0.470   0.296  -2.424  1.00  0.00     0.346 HD
ATOM     26  C   UNL     1      -1.362   1.687  -0.545  1.00  0.00     0.081 C 
ENDBRANCH  16  19
ENDBRANCH  10  15
ENDBRANCH   7   9
ENDBRANCH   6   7
ENDBRANCH   5   6
ENDBRANCH   4   5
ENDBRANCH   3   4
ENDBRANCH   2   3
ENDBRANCH   1   2
BRANCH   1  27
ATOM     27  O   UNL     1       1.112  -5.463   2.800  1.00  0.00    -0.376 OA
BRANCH  27  28
ATOM     28  C   UNL     1       1.693  -6.744   2.646  1.00  0.00     0.202 C 
BRANCH  28  29
ATOM     29  C   UNL     1       0.915  -8.032   2.985  1.00  0.00     0.261 C 
BRANCH  29  30
ATOM     30  O   UNL     1      -0.498  -8.042   2.713  1.00  0.00    -0.460 OA
BRANCH  30  31
ATOM     31  C   UNL     1      -1.311  -7.845   3.788  1.00  0.00     0.338 C 
ATOM     32  O   UNL     1      -0.952  -7.712   4.949  1.00  0.00    -0.246 OA
BRANCH  31  33
ATOM     33  C   UNL     1      -2.687  -7.532   3.316  1.00  0.00     0.060 A 
ATOM     34  C   UNL     1      -3.266  -6.301   3.676  1.00  0.00     0.016 A 
ATOM     35  C   UNL     1      -3.401  -8.431   2.527  1.00  0.00     0.016 A 
ATOM     36  C   UNL     1      -4.562  -5.976   3.268  1.00  0.00     0.010 A 
ATOM     37  C   UNL     1      -4.717  -8.123   2.155  1.00  0.00     0.010 A 
ATOM     38  C   UNL     1      -5.316  -6.910   2.549  1.00  0.00    -0.014 A 
BRANCH  38  39
ATOM     39  C   UNL     1      -6.789  -6.742   2.433  1.00  0.00     0.031 A 
ATOM     40  C   UNL     1      -7.656  -7.464   3.431  1.00  0.00     0.074 A 
ATOM     41  C   UNL     1      -7.357  -5.974   1.486  1.00  0.00     0.049 A 
ATOM     42  N   UNL     1      -8.956  -7.591   3.474  1.00  0.00    -0.248 NA
ATOM     43  C   UNL     1      -6.946  -8.145   4.525  1.00  0.00     0.031 C 
ATOM     44  C   UNL     1      -6.638  -5.168   0.503  1.00  0.00     0.029 A 
ATOM     45  N   UNL     1      -8.683  -5.766   1.187  1.00  0.00    -0.354 N 
ATOM     46  C   UNL     1      -9.221  -8.375   4.592  1.00  0.00     0.074 A 
ATOM     47  C   UNL     1      -7.942  -8.726   5.171  1.00  0.00     0.031 C 
ATOM     48  C   UNL     1      -7.531  -4.575  -0.310  1.00  0.00     0.029 A 
ATOM     49  C   UNL     1      -8.882  -4.995   0.065  1.00  0.00     0.049 A 
ATOM     50  H   UNL     1      -9.421  -6.134   1.726  1.00  0.00     0.167 HD
ATOM     51  C   UNL     1     -10.420  -8.760   5.097  1.00  0.00     0.034 A 
ATOM     52  C   UNL     1     -10.016  -4.698  -0.605  1.00  0.00     0.034 A 
ATOM     53  C   UNL     1     -11.687  -8.424   4.497  1.00  0.00     0.049 A 
ATOM     54  C   UNL     1     -11.338  -5.231  -0.096  1.00  0.00     0.074 A 
ATOM     55  C   UNL     1     -12.959  -8.769   4.919  1.00  0.00     0.029 A 
ATOM     56  N   UNL     1     -11.845  -7.677   3.336  1.00  0.00    -0.354 N 
ATOM     57  N   UNL     1     -11.580  -5.984   0.954  1.00  0.00    -0.248 NA
ATOM     58  C   UNL     1     -12.540  -4.870  -0.861  1.00  0.00     0.031 C 
ATOM     59  C   UNL     1     -13.878  -8.300   3.973  1.00  0.00     0.029 A 
ATOM     60  C   UNL     1     -13.190  -7.581   3.009  1.00  0.00     0.049 A 
ATOM     61  H   UNL     1     -11.110  -7.275   2.819  1.00  0.00     0.167 HD
ATOM     62  C   UNL     1     -12.963  -6.156   0.991  1.00  0.00     0.074 A 
ATOM     63  C   UNL     1     -13.502  -5.420  -0.134  1.00  0.00     0.031 C 
ATOM     64  C   UNL     1     -13.720  -6.853   1.878  1.00  0.00     0.034 A 
BRANCH  51  65
ATOM     65  C   UNL     1     -10.397  -9.640   6.325  1.00  0.00     0.023 A 
ATOM     66  C   UNL     1      -9.849  -9.196   7.541  1.00  0.00     0.031 A 
ATOM     67  C   UNL     1     -10.877 -10.960   6.264  1.00  0.00     0.131 A 
ATOM     68  C   UNL     1      -9.713 -10.088   8.615  1.00  0.00     0.055 A 
ATOM     69  C   UNL     1     -10.824 -11.815   7.367  1.00  0.00     0.041 A 
ATOM     70  F   UNL     1     -11.387 -11.451   5.123  1.00  0.00    -0.206 F 
ATOM     71  C   UNL     1     -10.222 -11.386   8.546  1.00  0.00     0.022 A 
BRANCH  68  72
ATOM     72  S   UNL     1      -8.705  -9.582  10.036  1.00  0.00     0.124 S 
ATOM     73  O   UNL     1      -7.427  -9.277   9.398  1.00  0.00    -0.237 OA
ATOM     74  O   UNL     1      -9.446  -8.439  10.557  1.00  0.00    -0.237 OA
ATOM     75  O   UNL     1      -8.699 -10.767  10.892  1.00  0.00    -0.744 OA
ENDBRANCH  68  72
ENDBRANCH  51  65
BRANCH  52  76
ATOM     76  C   UNL     1      -9.960  -3.906  -1.870  1.00  0.00     0.023 A 
ATOM     77  C   UNL     1     -10.585  -2.654  -1.980  1.00  0.00     0.031 A 
ATOM     78  C   UNL     1      -9.320  -4.424  -3.011  1.00  0.00     0.131 A 
ATOM     79  C   UNL     1     -10.591  -1.980  -3.212  1.00  0.00     0.055 A 
ATOM     80  C   UNL     1      -9.280  -3.724  -4.219  1.00  0.00     0.041 A 
ATOM     81  F   UNL     1      -8.715  -5.622  -2.966  1.00  0.00    -0.206 F 
ATOM     82  C   UNL     1      -9.929  -2.499  -4.327  1.00  0.00     0.022 A 
BRANCH  79  83
ATOM     83  S   UNL     1     -11.551  -0.447  -3.362  1.00  0.00     0.124 S 
ATOM     84  O   UNL     1     -12.896  -0.906  -3.035  1.00  0.00    -0.237 OA
ATOM     85  O   UNL     1     -10.907   0.411  -2.373  1.00  0.00    -0.237 OA
ATOM     86  O   UNL     1     -11.346  -0.052  -4.754  1.00  0.00    -0.744 OA
ENDBRANCH  79  83
ENDBRANCH  52  76
BRANCH  64  87
ATOM     87  C   UNL     1     -15.222  -6.808   1.702  1.00  0.00     0.023 A 
ATOM     88  C   UNL     1     -15.861  -7.375   0.586  1.00  0.00     0.031 A 
ATOM     89  C   UNL     1     -16.026  -6.185   2.675  1.00  0.00     0.131 A 
ATOM     90  C   UNL     1     -17.254  -7.260   0.443  1.00  0.00     0.055 A 
ATOM     91  C   UNL     1     -17.416  -6.132   2.559  1.00  0.00     0.041 A 
ATOM     92  F   UNL     1     -15.473  -5.622   3.761  1.00  0.00    -0.206 F 
ATOM     93  C   UNL     1     -18.037  -6.660   1.432  1.00  0.00     0.022 A 
BRANCH  90  94
ATOM     94  S   UNL     1     -18.022  -7.819  -1.103  1.00  0.00     0.124 S 
ATOM     95  O   UNL     1     -17.316  -7.020  -2.099  1.00  0.00    -0.237 OA
ATOM     96  O   UNL     1     -17.723  -9.248  -1.102  1.00  0.00    -0.237 OA
ATOM     97  O   UNL     1     -19.434  -7.483  -0.926  1.00  0.00    -0.744 OA
ENDBRANCH  90  94
ENDBRANCH  64  87
ENDBRANCH  38  39
ENDBRANCH  31  33
ENDBRANCH  30  31
ENDBRANCH  29  30
ENDBRANCH  28  29
ENDBRANCH  27  28
ENDBRANCH   1  27
TORSDOF 22
