REMARK SMILES Cc1noc(-c2ccc(CCl)cc2)c1C(=O)OCCOCCOCCOC(=O)c1ccc(-c2c3nc(c(-c4cc(S(=O)(=O)[O-])ccc4F)c4ccc([nH]4)c(-c4cc(S(=O)(=O)[O-])ccc4F)c4nc(c(-c5cc(S(=O)(=O)[O-])ccc5F)c5ccc2[nH]5)C=C4)C=C3)cc1
REMARK SMILES IDX 22 1 21 2 20 3 19 4 18 5 17 6 15 7 16 8 14 9 1 10 2 11 3 12
REMARK SMILES IDX 4 13 5 14 6 15 7 16 13 17 8 18 12 19 9 20 10 21 11 22 23 23
REMARK SMILES IDX 24 24 25 25 26 26 27 27 28 28 29 29 30 30 91 31 31 32 90 33
REMARK SMILES IDX 32 34 33 35 34 36 84 37 35 38 89 39 83 40 85 41 36 42 88 43
REMARK SMILES IDX 82 44 81 45 37 47 69 48 49 49 68 50 50 51 53 52 67 53 86 54
REMARK SMILES IDX 51 55 52 56 66 58 87 59 54 60 38 61 39 62 47 63 40 64 46 65
REMARK SMILES IDX 48 66 45 67 41 68 42 69 43 70 44 71 70 72 71 73 79 74 72 75
REMARK SMILES IDX 78 76 80 77 77 78 73 79 74 80 75 81 76 82 55 83 56 84 64 85
REMARK SMILES IDX 57 86 63 87 65 88 62 89 58 90 59 91 60 92 61 93
REMARK H PARENT 85 46 53 57
REMARK Flexibility Score: inf
ROOT
ATOM      1  C   UNL     1       0.743  -3.094   2.245  1.00  0.00     0.188 C 
ENDROOT
BRANCH   1   2
ATOM      2  C   UNL     1       0.097  -4.252   1.457  1.00  0.00     0.188 C 
BRANCH   2   3
ATOM      3  O   UNL     1       0.893  -5.353   1.042  1.00  0.00    -0.376 OA
BRANCH   3   4
ATOM      4  C   UNL     1       2.067  -5.106   0.275  1.00  0.00     0.202 C 
BRANCH   4   5
ATOM      5  C   UNL     1       1.868  -4.317  -1.017  1.00  0.00     0.261 C 
BRANCH   5   6
ATOM      6  O   UNL     1       1.736  -2.918  -0.712  1.00  0.00    -0.459 OA
BRANCH   6   7
ATOM      7  C   UNL     1       0.790  -2.250  -1.433  1.00  0.00     0.344 C 
ATOM      8  O   UNL     1       0.211  -2.715  -2.398  1.00  0.00    -0.246 OA
BRANCH   7   9
ATOM      9  C   UNL     1       0.482  -0.963  -0.860  1.00  0.00     0.130 A 
ATOM     10  C   UNL     1       2.768   0.091  -0.123  1.00  0.00     0.071 C 
ATOM     11  C   UNL     1       1.297   0.047  -0.289  1.00  0.00     0.096 A 
ATOM     12  N   UNL     1       0.566   1.092   0.124  1.00  0.00    -0.084 NA
ATOM     13  O   UNL     1      -0.754   0.749  -0.118  1.00  0.00    -0.355 OA
ATOM     14  C   UNL     1      -0.797  -0.482  -0.686  1.00  0.00     0.181 A 
BRANCH  14  15
ATOM     15  C   UNL     1      -2.109  -1.051  -0.895  1.00  0.00     0.021 A 
ATOM     16  C   UNL     1      -2.818  -0.782  -2.066  1.00  0.00     0.012 A 
ATOM     17  C   UNL     1      -2.635  -1.946   0.044  1.00  0.00     0.012 A 
ATOM     18  C   UNL     1      -4.027  -1.431  -2.313  1.00  0.00     0.006 A 
ATOM     19  C   UNL     1      -3.838  -2.602  -0.208  1.00  0.00     0.006 A 
ATOM     20  C   UNL     1      -4.536  -2.362  -1.399  1.00  0.00    -0.033 A 
BRANCH  20  21
ATOM     21  C   UNL     1      -5.853  -3.031  -1.670  1.00  0.00     0.145 C 
ATOM     22  Cl  UNL     1      -7.162  -2.011  -1.060  1.00  0.00    -0.122 Cl
ENDBRANCH  20  21
ENDBRANCH  14  15
ENDBRANCH   7   9
ENDBRANCH   6   7
ENDBRANCH   5   6
ENDBRANCH   4   5
ENDBRANCH   3   4
ENDBRANCH   2   3
ENDBRANCH   1   2
BRANCH   1  23
ATOM     23  O   UNL     1       2.002  -3.273   2.874  1.00  0.00    -0.376 OA
BRANCH  23  24
ATOM     24  C   UNL     1       2.214  -4.438   3.658  1.00  0.00     0.202 C 
BRANCH  24  25
ATOM     25  C   UNL     1       1.392  -4.600   4.935  1.00  0.00     0.261 C 
BRANCH  25  26
ATOM     26  O   UNL     1      -0.021  -4.663   4.690  1.00  0.00    -0.460 OA
BRANCH  26  27
ATOM     27  C   UNL     1      -0.733  -3.634   5.215  1.00  0.00     0.338 C 
ATOM     28  O   UNL     1      -0.294  -2.684   5.840  1.00  0.00    -0.246 OA
BRANCH  27  29
ATOM     29  C   UNL     1      -2.146  -3.741   4.805  1.00  0.00     0.060 A 
ATOM     30  C   UNL     1      -2.771  -2.597   4.294  1.00  0.00     0.016 A 
ATOM     31  C   UNL     1      -2.871  -4.921   4.995  1.00  0.00     0.016 A 
ATOM     32  C   UNL     1      -4.135  -2.622   4.003  1.00  0.00     0.010 A 
ATOM     33  C   UNL     1      -4.244  -4.935   4.729  1.00  0.00     0.010 A 
ATOM     34  C   UNL     1      -4.887  -3.779   4.258  1.00  0.00    -0.014 A 
BRANCH  34  35
ATOM     35  C   UNL     1      -6.368  -3.718   4.173  1.00  0.00     0.031 A 
ATOM     36  C   UNL     1      -7.139  -3.183   5.345  1.00  0.00     0.074 A 
ATOM     37  C   UNL     1      -7.017  -4.147   3.077  1.00  0.00     0.049 A 
ATOM     38  N   UNL     1      -8.426  -2.996   5.476  1.00  0.00    -0.248 NA
ATOM     39  C   UNL     1      -6.353  -2.862   6.545  1.00  0.00     0.031 C 
ATOM     40  C   UNL     1      -6.378  -4.764   1.921  1.00  0.00     0.029 A 
ATOM     41  N   UNL     1      -8.349  -4.112   2.747  1.00  0.00    -0.354 N 
ATOM     42  C   UNL     1      -8.616  -2.587   6.791  1.00  0.00     0.074 A 
ATOM     43  C   UNL     1      -7.304  -2.532   7.405  1.00  0.00     0.031 C 
ATOM     44  C   UNL     1      -7.308  -4.977   0.976  1.00  0.00     0.029 A 
ATOM     45  C   UNL     1      -8.605  -4.507   1.452  1.00  0.00     0.049 A 
ATOM     46  H   UNL     1      -9.054  -3.831   3.374  1.00  0.00     0.167 HD
ATOM     47  C   UNL     1      -9.780  -2.325   7.434  1.00  0.00     0.034 A 
ATOM     48  C   UNL     1      -9.745  -4.454   0.731  1.00  0.00     0.034 A 
ATOM     49  C   UNL     1     -11.079  -2.409   6.810  1.00  0.00     0.049 A 
ATOM     50  C   UNL     1     -11.011  -4.008   1.425  1.00  0.00     0.074 A 
ATOM     51  C   UNL     1     -12.325  -2.190   7.372  1.00  0.00     0.029 A 
ATOM     52  N   UNL     1     -11.301  -2.750   5.481  1.00  0.00    -0.354 N 
ATOM     53  N   UNL     1     -11.177  -3.612   2.667  1.00  0.00    -0.248 NA
ATOM     54  C   UNL     1     -12.248  -4.040   0.633  1.00  0.00     0.031 C 
ATOM     55  C   UNL     1     -13.300  -2.454   6.401  1.00  0.00     0.029 A 
ATOM     56  C   UNL     1     -12.661  -2.771   5.213  1.00  0.00     0.049 A 
ATOM     57  H   UNL     1     -10.594  -2.949   4.825  1.00  0.00     0.167 HD
ATOM     58  C   UNL     1     -12.542  -3.378   2.809  1.00  0.00     0.074 A 
ATOM     59  C   UNL     1     -13.141  -3.605   1.510  1.00  0.00     0.031 C 
ATOM     60  C   UNL     1     -13.245  -3.044   3.921  1.00  0.00     0.034 A 
BRANCH  47  61
ATOM     61  C   UNL     1      -9.690  -2.034   8.911  1.00  0.00     0.023 A 
ATOM     62  C   UNL     1      -9.041  -0.891   9.409  1.00  0.00     0.031 A 
ATOM     63  C   UNL     1     -10.196  -2.963   9.839  1.00  0.00     0.131 A 
ATOM     64  C   UNL     1      -8.843  -0.750  10.792  1.00  0.00     0.055 A 
ATOM     65  C   UNL     1     -10.067  -2.775  11.215  1.00  0.00     0.041 A 
ATOM     66  F   UNL     1     -10.799  -4.087   9.420  1.00  0.00    -0.206 F 
ATOM     67  C   UNL     1      -9.372  -1.671  11.699  1.00  0.00     0.022 A 
BRANCH  64  68
ATOM     68  S   UNL     1      -7.746   0.570  11.380  1.00  0.00     0.124 S 
ATOM     69  O   UNL     1      -6.488   0.219  10.726  1.00  0.00    -0.237 OA
ATOM     70  O   UNL     1      -8.408   1.773  10.889  1.00  0.00    -0.237 OA
ATOM     71  O   UNL     1      -7.754   0.401  12.831  1.00  0.00    -0.744 OA
ENDBRANCH  64  68
ENDBRANCH  47  61
BRANCH  48  72
ATOM     72  C   UNL     1      -9.761  -4.789  -0.728  1.00  0.00     0.023 A 
ATOM     73  C   UNL     1     -10.148  -3.821  -1.675  1.00  0.00     0.031 A 
ATOM     74  C   UNL     1      -9.429  -6.067  -1.205  1.00  0.00     0.131 A 
ATOM     75  C   UNL     1     -10.223  -4.152  -3.037  1.00  0.00     0.055 A 
ATOM     76  C   UNL     1      -9.447  -6.376  -2.568  1.00  0.00     0.041 A 
ATOM     77  F   UNL     1      -9.062  -7.038  -0.354  1.00  0.00    -0.206 F 
ATOM     78  C   UNL     1      -9.856  -5.419  -3.492  1.00  0.00     0.022 A 
BRANCH  75  79
ATOM     79  S   UNL     1     -10.899  -2.934  -4.202  1.00  0.00     0.124 S 
ATOM     80  O   UNL     1     -12.199  -2.642  -3.609  1.00  0.00    -0.237 OA
ATOM     81  O   UNL     1      -9.906  -1.868  -4.140  1.00  0.00    -0.237 OA
ATOM     82  O   UNL     1     -10.943  -3.665  -5.467  1.00  0.00    -0.744 OA
ENDBRANCH  75  79
ENDBRANCH  48  72
BRANCH  60  83
ATOM     83  C   UNL     1     -14.744  -2.954   3.773  1.00  0.00     0.023 A 
ATOM     84  C   UNL     1     -15.517  -4.097   3.498  1.00  0.00     0.031 A 
ATOM     85  C   UNL     1     -15.405  -1.721   3.895  1.00  0.00     0.131 A 
ATOM     86  C   UNL     1     -16.900  -3.976   3.297  1.00  0.00     0.055 A 
ATOM     87  C   UNL     1     -16.790  -1.615   3.746  1.00  0.00     0.041 A 
ATOM     88  F   UNL     1     -14.717  -0.599   4.160  1.00  0.00    -0.206 F 
ATOM     89  C   UNL     1     -17.543  -2.744   3.432  1.00  0.00     0.022 A 
BRANCH  86  90
ATOM     90  S   UNL     1     -17.837  -5.440   2.777  1.00  0.00     0.124 S 
ATOM     91  O   UNL     1     -17.181  -5.793   1.522  1.00  0.00    -0.237 OA
ATOM     92  O   UNL     1     -17.622  -6.361   3.889  1.00  0.00    -0.237 OA
ATOM     93  O   UNL     1     -19.205  -4.943   2.643  1.00  0.00    -0.744 OA
ENDBRANCH  86  90
ENDBRANCH  60  83
ENDBRANCH  34  35
ENDBRANCH  27  29
ENDBRANCH  26  27
ENDBRANCH  25  26
ENDBRANCH  24  25
ENDBRANCH  23  24
ENDBRANCH   1  23
TORSDOF 22
