REMARK SMILES O=C(OCCOCCOCCOC(=O)[C@@H](Cc1ccccc1)N1C(=O)/C(=C/c2ccc3ncccc3c2)SC1=S)c1ccc(-c2c3nc(c(-c4cc(S(=O)(=O)[O-])ccc4F)c4ccc([nH]4)c(-c4cc(S(=O)(=O)[O-])ccc4F)c4nc(c(-c5cc(S(=O)(=O)[O-])ccc5F)c5ccc2[nH]5)C=C4)C=C3)cc1
REMARK SMILES IDX 7 1 6 2 5 3 4 4 3 5 2 6 1 7 41 8 42 9 103 10 43 11 102 12
REMARK SMILES IDX 44 13 45 14 46 15 96 16 47 17 101 18 95 19 97 20 48 21
REMARK SMILES IDX 100 22 94 23 93 24 49 26 81 27 61 28 80 29 62 30 65 31 79 32
REMARK SMILES IDX 98 33 63 34 64 35 78 37 99 38 66 39 50 40 51 41 59 42 52 43
REMARK SMILES IDX 58 44 60 45 57 46 53 47 54 48 55 49 56 50 82 51 83 52 91 53
REMARK SMILES IDX 84 54 90 55 92 56 89 57 85 58 86 59 87 60 88 61 67 62 68 63
REMARK SMILES IDX 76 64 69 65 75 66 77 67 74 68 70 69 71 70 72 71 73 72 8 73
REMARK SMILES IDX 9 74 10 75 11 76 12 77 13 78 14 79 15 80 16 81 17 82 18 83
REMARK SMILES IDX 22 84 19 85 21 86 20 87 23 88 24 89 39 90 25 91 26 92 38 93
REMARK SMILES IDX 40 94 27 95 28 96 29 97 37 98 30 99 36 100 31 101 35 102
REMARK SMILES IDX 32 103 34 104 33 105
REMARK H PARENT 97 25 65 36
REMARK Flexibility Score: inf
ROOT
ATOM      1  C   UNL     1       2.345  -1.705  -0.169  1.00  0.00     0.188 C 
ENDROOT
BRANCH   1   2
ATOM      2  O   UNL     1       3.521  -1.094  -0.714  1.00  0.00    -0.376 OA
BRANCH   2   3
ATOM      3  C   UNL     1       4.643  -1.093   0.171  1.00  0.00     0.202 C 
BRANCH   3   4
ATOM      4  C   UNL     1       4.538  -0.215   1.427  1.00  0.00     0.261 C 
BRANCH   4   5
ATOM      5  O   UNL     1       3.224   0.278   1.729  1.00  0.00    -0.460 OA
BRANCH   5   6
ATOM      6  C   UNL     1       2.494   1.264   1.158  1.00  0.00     0.338 C 
ATOM      7  O   UNL     1       1.351   1.437   1.587  1.00  0.00    -0.246 OA
BRANCH   6   8
ATOM      8  C   UNL     1       2.951   2.138   0.029  1.00  0.00     0.060 A 
ATOM      9  C   UNL     1       4.217   2.130  -0.551  1.00  0.00     0.016 A 
ATOM     10  C   UNL     1       2.022   3.087  -0.454  1.00  0.00     0.016 A 
ATOM     11  C   UNL     1       4.564   3.057  -1.532  1.00  0.00     0.010 A 
ATOM     12  C   UNL     1       2.365   4.029  -1.434  1.00  0.00     0.010 A 
ATOM     13  C   UNL     1       3.657   4.033  -1.954  1.00  0.00    -0.014 A 
BRANCH  13  14
ATOM     14  C   UNL     1       4.196   5.160  -2.745  1.00  0.00     0.031 A 
ATOM     15  C   UNL     1       5.022   6.174  -2.007  1.00  0.00     0.074 A 
ATOM     16  C   UNL     1       4.086   5.188  -4.084  1.00  0.00     0.049 A 
ATOM     17  N   UNL     1       5.747   7.155  -2.470  1.00  0.00    -0.248 NA
ATOM     18  C   UNL     1       5.040   6.043  -0.541  1.00  0.00     0.031 C 
ATOM     19  C   UNL     1       3.348   4.214  -4.881  1.00  0.00     0.029 A 
ATOM     20  N   UNL     1       4.655   6.018  -5.015  1.00  0.00    -0.354 N 
ATOM     21  C   UNL     1       6.288   7.776  -1.349  1.00  0.00     0.074 A 
ATOM     22  C   UNL     1       5.847   7.029  -0.193  1.00  0.00     0.031 C 
ATOM     23  C   UNL     1       3.600   4.434  -6.182  1.00  0.00     0.029 A 
ATOM     24  C   UNL     1       4.447   5.615  -6.316  1.00  0.00     0.049 A 
ATOM     25  H   UNL     1       5.164   6.826  -4.776  1.00  0.00     0.167 HD
ATOM     26  C   UNL     1       7.032   8.907  -1.291  1.00  0.00     0.034 A 
ATOM     27  C   UNL     1       4.892   6.151  -7.473  1.00  0.00     0.034 A 
ATOM     28  C   UNL     1       7.354   9.690  -2.455  1.00  0.00     0.049 A 
ATOM     29  C   UNL     1       5.694   7.431  -7.383  1.00  0.00     0.074 A 
ATOM     30  C   UNL     1       7.942  10.938  -2.530  1.00  0.00     0.029 A 
ATOM     31  N   UNL     1       7.072   9.302  -3.761  1.00  0.00    -0.354 N 
ATOM     32  N   UNL     1       6.145   8.051  -6.315  1.00  0.00    -0.248 NA
ATOM     33  C   UNL     1       6.009   8.109  -8.648  1.00  0.00     0.031 C 
ATOM     34  C   UNL     1       7.952  11.333  -3.874  1.00  0.00     0.029 A 
ATOM     35  C   UNL     1       7.447  10.297  -4.645  1.00  0.00     0.049 A 
ATOM     36  H   UNL     1       6.665   8.443  -4.019  1.00  0.00     0.167 HD
ATOM     37  C   UNL     1       6.774   9.202  -6.780  1.00  0.00     0.074 A 
ATOM     38  C   UNL     1       6.699   9.159  -8.226  1.00  0.00     0.031 C 
ATOM     39  C   UNL     1       7.338  10.221  -6.083  1.00  0.00     0.034 A 
BRANCH  26  40
ATOM     40  C   UNL     1       7.350   9.416   0.093  1.00  0.00     0.023 A 
ATOM     41  C   UNL     1       8.165   8.690   0.981  1.00  0.00     0.031 A 
ATOM     42  C   UNL     1       6.677  10.547   0.588  1.00  0.00     0.131 A 
ATOM     43  C   UNL     1       8.193   9.039   2.340  1.00  0.00     0.055 A 
ATOM     44  C   UNL     1       6.784  10.942   1.922  1.00  0.00     0.041 A 
ATOM     45  F   UNL     1       5.853  11.252  -0.203  1.00  0.00    -0.206 F 
ATOM     46  C   UNL     1       7.526  10.172   2.813  1.00  0.00     0.022 A 
BRANCH  43  47
ATOM     47  S   UNL     1       8.926   7.867   3.519  1.00  0.00     0.124 S 
ATOM     48  O   UNL     1       8.132   6.665   3.271  1.00  0.00    -0.237 OA
ATOM     49  O   UNL     1      10.317   7.813   3.087  1.00  0.00    -0.237 OA
ATOM     50  O   UNL     1       8.697   8.497   4.817  1.00  0.00    -0.744 OA
ENDBRANCH  43  47
ENDBRANCH  26  40
BRANCH  27  51
ATOM     51  C   UNL     1       4.556   5.553  -8.803  1.00  0.00     0.023 A 
ATOM     52  C   UNL     1       5.567   5.208  -9.718  1.00  0.00     0.031 A 
ATOM     53  C   UNL     1       3.222   5.400  -9.225  1.00  0.00     0.131 A 
ATOM     54  C   UNL     1       5.231   4.792 -11.017  1.00  0.00     0.055 A 
ATOM     55  C   UNL     1       2.893   4.897 -10.487  1.00  0.00     0.041 A 
ATOM     56  F   UNL     1       2.208   5.738  -8.414  1.00  0.00    -0.206 F 
ATOM     57  C   UNL     1       3.901   4.603 -11.397  1.00  0.00     0.022 A 
BRANCH  54  58
ATOM     58  S   UNL     1       6.554   4.592 -12.244  1.00  0.00     0.124 S 
ATOM     59  O   UNL     1       6.913   5.980 -12.509  1.00  0.00    -0.237 OA
ATOM     60  O   UNL     1       7.544   3.807 -11.511  1.00  0.00    -0.237 OA
ATOM     61  O   UNL     1       5.891   3.897 -13.344  1.00  0.00    -0.744 OA
ENDBRANCH  54  58
ENDBRANCH  27  51
BRANCH  39  62
ATOM     62  C   UNL     1       7.909  11.361  -6.884  1.00  0.00     0.023 A 
ATOM     63  C   UNL     1       7.078  12.253  -7.584  1.00  0.00     0.031 A 
ATOM     64  C   UNL     1       9.297  11.576  -6.915  1.00  0.00     0.131 A 
ATOM     65  C   UNL     1       7.648  13.302  -8.319  1.00  0.00     0.055 A 
ATOM     66  C   UNL     1       9.855  12.649  -7.608  1.00  0.00     0.041 A 
ATOM     67  F   UNL     1      10.129  10.752  -6.258  1.00  0.00    -0.206 F 
ATOM     68  C   UNL     1       9.030  13.515  -8.322  1.00  0.00     0.022 A 
BRANCH  65  69
ATOM     69  S   UNL     1       6.564  14.364  -9.312  1.00  0.00     0.124 S 
ATOM     70  O   UNL     1       5.993  13.413 -10.261  1.00  0.00    -0.237 OA
ATOM     71  O   UNL     1       5.644  14.896  -8.312  1.00  0.00    -0.237 OA
ATOM     72  O   UNL     1       7.480  15.344  -9.891  1.00  0.00    -0.744 OA
ENDBRANCH  65  69
ENDBRANCH  39  62
ENDBRANCH  13  14
ENDBRANCH   6   8
ENDBRANCH   5   6
ENDBRANCH   4   5
ENDBRANCH   3   4
ENDBRANCH   2   3
ENDBRANCH   1   2
BRANCH   1  73
ATOM     73  C   UNL     1       1.675  -2.640  -1.174  1.00  0.00     0.188 C 
BRANCH  73  74
ATOM     74  O   UNL     1       2.219  -3.961  -1.209  1.00  0.00    -0.376 OA
BRANCH  74  75
ATOM     75  C   UNL     1       3.566  -4.092  -1.651  1.00  0.00     0.202 C 
BRANCH  75  76
ATOM     76  C   UNL     1       3.767  -3.925  -3.151  1.00  0.00     0.261 C 
BRANCH  76  77
ATOM     77  O   UNL     1       3.678  -2.550  -3.554  1.00  0.00    -0.462 OA
BRANCH  77  78
ATOM     78  C   UNL     1       2.687  -2.219  -4.424  1.00  0.00     0.329 C 
ATOM     79  O   UNL     1       1.742  -2.942  -4.722  1.00  0.00    -0.250 OA
BRANCH  78  80
ATOM     80  C   UNL     1       2.958  -0.874  -5.095  1.00  0.00     0.206 C 
BRANCH  80  81
ATOM     81  C   UNL     1       3.750   0.140  -4.239  1.00  0.00     0.073 C 
BRANCH  81  82
ATOM     82  C   UNL     1       5.247   0.278  -4.402  1.00  0.00    -0.045 A 
ATOM     83  C   UNL     1       6.124  -0.805  -4.469  1.00  0.00     0.004 A 
ATOM     84  C   UNL     1       5.805   1.565  -4.359  1.00  0.00     0.004 A 
ATOM     85  C   UNL     1       7.508  -0.605  -4.455  1.00  0.00     0.000 A 
ATOM     86  C   UNL     1       7.183   1.771  -4.329  1.00  0.00     0.000 A 
ATOM     87  C   UNL     1       8.037   0.680  -4.366  1.00  0.00     0.000 A 
ENDBRANCH  81  82
ENDBRANCH  80  81
BRANCH  80  88
ATOM     88  N   UNL     1       3.317  -0.904  -6.526  1.00  0.00    -0.278 N 
ATOM     89  C   UNL     1       3.158   0.292  -7.221  1.00  0.00     0.267 C 
ATOM     90  C   UNL     1       3.884  -1.944  -7.241  1.00  0.00     0.149 C 
ATOM     91  O   UNL     1       2.576   1.285  -6.812  1.00  0.00    -0.268 OA
ATOM     92  C   UNL     1       3.756   0.189  -8.568  1.00  0.00     0.081 C 
ATOM     93  S   UNL     1       4.149  -1.450  -8.899  1.00  0.00    -0.054 SA
ATOM     94  S   UNL     1       4.289  -3.502  -6.802  1.00  0.00    -0.052 S 
ATOM     95  C   UNL     1       3.962   1.236  -9.379  1.00  0.00     0.029 C 
BRANCH  95  96
ATOM     96  C   UNL     1       4.452   1.022 -10.741  1.00  0.00    -0.024 A 
ATOM     97  C   UNL     1       5.797   1.149 -11.066  1.00  0.00     0.010 A 
ATOM     98  C   UNL     1       3.567   0.477 -11.674  1.00  0.00     0.018 A 
ATOM     99  C   UNL     1       6.259   0.679 -12.303  1.00  0.00     0.029 A 
ATOM    100  C   UNL     1       4.047  -0.044 -12.878  1.00  0.00     0.001 A 
ATOM    101  C   UNL     1       5.417   0.042 -13.206  1.00  0.00     0.070 A 
ATOM    102  C   UNL     1       3.184  -0.710 -13.753  1.00  0.00     0.012 A 
ATOM    103  N   UNL     1       5.907  -0.514 -14.334  1.00  0.00    -0.256 NA
ATOM    104  C   UNL     1       3.690  -1.279 -14.911  1.00  0.00     0.021 A 
ATOM    105  C   UNL     1       5.044  -1.150 -15.155  1.00  0.00     0.112 A 
ENDBRANCH  95  96
ENDBRANCH  80  88
ENDBRANCH  78  80
ENDBRANCH  77  78
ENDBRANCH  76  77
ENDBRANCH  75  76
ENDBRANCH  74  75
ENDBRANCH  73  74
ENDBRANCH   1  73
TORSDOF 24
