REMARK SMILES C/C(=N\Nc1nc(-c2ccc(Cl)cc2)cs1)c1nnn(-c2ccc(C(=O)OCCOCCOCCOC(=O)c3ccc(-c4c5nc(c(-c6cc(S(=O)(=O)[O-])ccc6F)c6ccc([nH]6)c(-c6cc(S(=O)(=O)[O-])ccc6F)c6nc(c(-c7cc(S(=O)(=O)[O-])ccc7F)c7ccc4[nH]7)C=C6)C=C5)cc3)cc2)c1C
REMARK SMILES IDX 31 1 30 2 29 3 28 4 27 5 25 6 26 7 24 8 21 9 22 10 103 11
REMARK SMILES IDX 23 12 102 13 20 14 17 15 18 16 104 17 19 18 105 19 2 20 1 21
REMARK SMILES IDX 3 22 4 23 5 25 6 26 16 27 7 28 15 29 8 30 9 31 14 32 10 33
REMARK SMILES IDX 13 34 11 35 12 36 32 37 33 38 34 39 35 40 36 41 37 42 38 43
REMARK SMILES IDX 39 44 40 45 101 46 41 47 100 48 42 49 43 50 44 51 94 52
REMARK SMILES IDX 45 53 99 54 93 55 95 56 46 57 98 58 92 59 91 60 47 62 79 63
REMARK SMILES IDX 59 64 78 65 60 66 63 67 77 68 96 69 61 70 62 71 76 73 97 74
REMARK SMILES IDX 64 75 48 76 49 77 57 78 50 79 56 80 58 81 55 82 51 83 52 84
REMARK SMILES IDX 53 85 54 86 80 87 81 88 89 89 82 90 88 91 90 92 87 93 83 94
REMARK SMILES IDX 84 95 85 96 86 97 65 98 66 99 74 100 67 101 73 102 75 103
REMARK SMILES IDX 72 104 68 105 69 106 70 107 71 108
REMARK H PARENT 4 24 95 61 63 72
REMARK Flexibility Score: inf
ROOT
ATOM      1  C   UNL     1       6.758   2.446   8.939  1.00  0.00     0.188 C 
ENDROOT
BRANCH   1   2
ATOM      2  O   UNL     1       8.062   2.089   9.385  1.00  0.00    -0.376 OA
BRANCH   2   3
ATOM      3  C   UNL     1       9.185   2.276   8.535  1.00  0.00     0.202 C 
BRANCH   3   4
ATOM      4  C   UNL     1       9.185   1.688   7.111  1.00  0.00     0.261 C 
BRANCH   4   5
ATOM      5  O   UNL     1       8.003   1.948   6.340  1.00  0.00    -0.460 OA
BRANCH   5   6
ATOM      6  C   UNL     1       7.181   0.902   6.121  1.00  0.00     0.338 C 
ATOM      7  O   UNL     1       7.401  -0.277   6.388  1.00  0.00    -0.246 OA
BRANCH   6   8
ATOM      8  C   UNL     1       5.871   1.377   5.622  1.00  0.00     0.060 A 
ATOM      9  C   UNL     1       3.392   2.051   4.567  1.00  0.00     0.067 A 
ATOM     10  C   UNL     1       3.460   1.067   5.557  1.00  0.00     0.029 A 
ATOM     11  C   UNL     1       4.524   2.802   4.220  1.00  0.00     0.029 A 
ATOM     12  C   UNL     1       4.712   0.718   6.065  1.00  0.00     0.018 A 
ATOM     13  C   UNL     1       5.769   2.463   4.746  1.00  0.00     0.018 A 
BRANCH   9  14
ATOM     14  N   UNL     1       2.266   2.072   3.714  1.00  0.00    -0.217 N 
ATOM     15  C   UNL     1       0.994   1.579   2.010  1.00  0.00     0.132 A 
ATOM     16  N   UNL     1       0.203   1.722   3.114  1.00  0.00    -0.128 NA
ATOM     17  C   UNL     1       2.315   1.815   2.352  1.00  0.00     0.071 A 
ATOM     18  N   UNL     1       0.996   1.940   4.160  1.00  0.00    -0.061 NA
ATOM     19  C   UNL     1       3.563   1.594   1.573  1.00  0.00     0.069 C 
BRANCH  15  20
ATOM     20  C   UNL     1       0.557   1.022   0.739  1.00  0.00     0.087 C 
ATOM     21  C   UNL     1       1.178  -0.314   0.397  1.00  0.00     0.071 C 
ATOM     22  N   UNL     1      -0.221   1.775   0.013  1.00  0.00    -0.176 NA
BRANCH  22  23
ATOM     23  N   UNL     1      -0.570   1.481  -1.284  1.00  0.00    -0.252 N 
ATOM     24  H   UNL     1      -0.865   2.255  -1.815  1.00  0.00     0.193 HD
BRANCH  23  25
ATOM     25  C   UNL     1      -0.574   0.301  -1.954  1.00  0.00     0.203 A 
ATOM     26  N   UNL     1      -0.817  -0.879  -1.437  1.00  0.00    -0.219 NA
ATOM     27  S   UNL     1      -0.127   0.246  -3.625  1.00  0.00    -0.103 S 
ATOM     28  C   UNL     1      -0.337  -1.877  -2.259  1.00  0.00     0.084 A 
ATOM     29  C   UNL     1       0.086  -1.456  -3.501  1.00  0.00     0.097 A 
BRANCH  28  30
ATOM     30  C   UNL     1      -0.225  -3.227  -1.742  1.00  0.00     0.001 A 
ATOM     31  C   UNL     1      -1.329  -3.810  -1.106  1.00  0.00     0.012 A 
ATOM     32  C   UNL     1       1.005  -3.899  -1.740  1.00  0.00     0.012 A 
ATOM     33  C   UNL     1      -1.213  -5.059  -0.493  1.00  0.00     0.021 A 
ATOM     34  C   UNL     1       1.124  -5.144  -1.115  1.00  0.00     0.021 A 
ATOM     35  C   UNL     1       0.014  -5.720  -0.498  1.00  0.00     0.041 A 
ATOM     36  Cl  UNL     1       0.165  -7.247   0.280  1.00  0.00    -0.084 Cl
ENDBRANCH  28  30
ENDBRANCH  23  25
ENDBRANCH  22  23
ENDBRANCH  15  20
ENDBRANCH   9  14
ENDBRANCH   6   8
ENDBRANCH   5   6
ENDBRANCH   4   5
ENDBRANCH   3   4
ENDBRANCH   2   3
ENDBRANCH   1   2
BRANCH   1  37
ATOM     37  C   UNL     1       6.520   3.725   8.100  1.00  0.00     0.188 C 
BRANCH  37  38
ATOM     38  O   UNL     1       7.695   4.334   7.599  1.00  0.00    -0.376 OA
BRANCH  38  39
ATOM     39  C   UNL     1       8.088   5.610   8.084  1.00  0.00     0.202 C 
BRANCH  39  40
ATOM     40  C   UNL     1       8.222   5.873   9.583  1.00  0.00     0.261 C 
BRANCH  40  41
ATOM     41  O   UNL     1       7.422   5.053  10.409  1.00  0.00    -0.460 OA
BRANCH  41  42
ATOM     42  C   UNL     1       6.153   5.466  10.552  1.00  0.00     0.338 C 
ATOM     43  O   UNL     1       5.579   6.316   9.868  1.00  0.00    -0.246 OA
BRANCH  42  44
ATOM     44  C   UNL     1       5.570   4.787  11.705  1.00  0.00     0.060 A 
ATOM     45  C   UNL     1       4.229   5.060  11.968  1.00  0.00     0.016 A 
ATOM     46  C   UNL     1       6.441   4.256  12.671  1.00  0.00     0.016 A 
ATOM     47  C   UNL     1       3.843   5.108  13.282  1.00  0.00     0.010 A 
ATOM     48  C   UNL     1       6.062   4.333  13.983  1.00  0.00     0.010 A 
ATOM     49  C   UNL     1       4.809   4.868  14.264  1.00  0.00    -0.014 A 
BRANCH  49  50
ATOM     50  C   UNL     1       4.465   5.188  15.625  1.00  0.00     0.031 A 
ATOM     51  C   UNL     1       3.610   4.171  16.250  1.00  0.00     0.074 A 
ATOM     52  C   UNL     1       4.954   6.272  16.251  1.00  0.00     0.049 A 
ATOM     53  N   UNL     1       2.365   4.276  16.565  1.00  0.00    -0.248 NA
ATOM     54  C   UNL     1       4.151   2.807  16.346  1.00  0.00     0.031 C 
ATOM     55  C   UNL     1       6.012   7.179  15.799  1.00  0.00     0.029 A 
ATOM     56  N   UNL     1       4.673   6.721  17.501  1.00  0.00    -0.354 N 
ATOM     57  C   UNL     1       2.038   3.057  17.139  1.00  0.00     0.074 A 
ATOM     58  C   UNL     1       3.073   2.140  16.752  1.00  0.00     0.031 C 
ATOM     59  C   UNL     1       6.436   7.918  16.849  1.00  0.00     0.029 A 
ATOM     60  C   UNL     1       5.601   7.622  18.003  1.00  0.00     0.049 A 
ATOM     61  H   UNL     1       3.879   6.433  18.007  1.00  0.00     0.167 HD
ATOM     62  C   UNL     1       1.109   2.984  18.127  1.00  0.00     0.034 A 
ATOM     63  C   UNL     1       5.724   8.009  19.299  1.00  0.00     0.034 A 
ATOM     64  C   UNL     1       0.245   4.146  18.118  1.00  0.00     0.049 A 
ATOM     65  C   UNL     1       4.420   7.741  19.960  1.00  0.00     0.074 A 
ATOM     66  C   UNL     1      -0.569   4.730  17.164  1.00  0.00     0.029 A 
ATOM     67  N   UNL     1       0.436   5.117  19.079  1.00  0.00    -0.354 N 
ATOM     68  N   UNL     1       3.317   8.366  19.649  1.00  0.00    -0.248 NA
ATOM     69  C   UNL     1       4.228   6.455  20.618  1.00  0.00     0.031 C 
ATOM     70  C   UNL     1      -0.412   6.136  17.349  1.00  0.00     0.029 A 
ATOM     71  C   UNL     1       0.432   6.337  18.444  1.00  0.00     0.049 A 
ATOM     72  H   UNL     1       0.553   4.964  20.044  1.00  0.00     0.167 HD
ATOM     73  C   UNL     1       2.330   7.391  19.664  1.00  0.00     0.074 A 
ATOM     74  C   UNL     1       2.927   6.264  20.376  1.00  0.00     0.031 C 
ATOM     75  C   UNL     1       1.232   7.478  18.853  1.00  0.00     0.034 A 
BRANCH  62  76
ATOM     76  C   UNL     1       1.243   2.062  19.318  1.00  0.00     0.023 A 
ATOM     77  C   UNL     1       0.205   2.094  20.263  1.00  0.00     0.031 A 
ATOM     78  C   UNL     1       2.420   1.384  19.723  1.00  0.00     0.131 A 
ATOM     79  C   UNL     1       0.392   1.578  21.555  1.00  0.00     0.055 A 
ATOM     80  C   UNL     1       2.572   0.805  20.984  1.00  0.00     0.041 A 
ATOM     81  F   UNL     1       3.525   1.316  18.973  1.00  0.00    -0.206 F 
ATOM     82  C   UNL     1       1.569   0.931  21.923  1.00  0.00     0.022 A 
BRANCH  79  83
ATOM     83  S   UNL     1      -0.861   1.944  22.805  1.00  0.00     0.124 S 
ATOM     84  O   UNL     1      -0.981   3.393  22.683  1.00  0.00    -0.237 OA
ATOM     85  O   UNL     1      -1.994   1.160  22.327  1.00  0.00    -0.237 OA
ATOM     86  O   UNL     1      -0.250   1.470  24.044  1.00  0.00    -0.744 OA
ENDBRANCH  79  83
ENDBRANCH  62  76
BRANCH  63  87
ATOM     87  C   UNL     1       7.000   8.244  20.029  1.00  0.00     0.023 A 
ATOM     88  C   UNL     1       7.068   8.979  21.230  1.00  0.00     0.031 A 
ATOM     89  C   UNL     1       8.167   7.538  19.652  1.00  0.00     0.131 A 
ATOM     90  C   UNL     1       8.263   8.995  21.987  1.00  0.00     0.055 A 
ATOM     91  C   UNL     1       9.347   7.568  20.396  1.00  0.00     0.041 A 
ATOM     92  F   UNL     1       8.175   6.722  18.586  1.00  0.00    -0.206 F 
ATOM     93  C   UNL     1       9.398   8.292  21.574  1.00  0.00     0.022 A 
BRANCH  90  94
ATOM     94  S   UNL     1       8.329   9.864  23.586  1.00  0.00     0.124 S 
ATOM     95  O   UNL     1       8.215  11.262  23.185  1.00  0.00    -0.237 OA
ATOM     96  O   UNL     1       7.189   9.297  24.297  1.00  0.00    -0.237 OA
ATOM     97  O   UNL     1       9.636   9.486  24.127  1.00  0.00    -0.744 OA
ENDBRANCH  90  94
ENDBRANCH  63  87
BRANCH  75  98
ATOM     98  C   UNL     1       0.961   8.797  18.151  1.00  0.00     0.023 A 
ATOM     99  C   UNL     1       1.861   9.438  17.268  1.00  0.00     0.031 A 
ATOM    100  C   UNL     1      -0.318   9.363  18.297  1.00  0.00     0.131 A 
ATOM    101  C   UNL     1       1.471  10.608  16.586  1.00  0.00     0.055 A 
ATOM    102  C   UNL     1      -0.708  10.509  17.604  1.00  0.00     0.041 A 
ATOM    103  F   UNL     1      -1.231   8.785  19.096  1.00  0.00    -0.206 F 
ATOM    104  C   UNL     1       0.189  11.140  16.750  1.00  0.00     0.022 A 
BRANCH 101 105
ATOM    105  S   UNL     1       2.633  11.468  15.476  1.00  0.00     0.124 S 
ATOM    106  O   UNL     1       3.849  11.579  16.272  1.00  0.00    -0.237 OA
ATOM    107  O   UNL     1       2.699  10.567  14.328  1.00  0.00    -0.237 OA
ATOM    108  O   UNL     1       1.965  12.743  15.206  1.00  0.00    -0.744 OA
ENDBRANCH 101 105
ENDBRANCH  75  98
ENDBRANCH  49  50
ENDBRANCH  42  44
ENDBRANCH  41  42
ENDBRANCH  40  41
ENDBRANCH  39  40
ENDBRANCH  38  39
ENDBRANCH  37  38
ENDBRANCH   1  37
TORSDOF 25
