REMARK SMILES C[NH2+][C@]1(C(=O)OCCOCCOCCOC(=O)c2ccc(-c3c4nc(c(-c5cc(S(=O)(=O)[O-])ccc5F)c5ccc([nH]5)c(-c5cc(S(=O)(=O)[O-])ccc5F)c5nc(c(-c6cc(S(=O)(=O)[O-])ccc6F)c6ccc3[nH]6)C=C5)C=C4)cc2)CCC[C@H]([N@H+]2CCC[C@@H]2C2CCCC2)C1
REMARK SMILES IDX 11 1 10 2 9 3 8 4 7 5 6 6 4 7 5 8 3 9 81 10 95 11 82 12
REMARK SMILES IDX 84 13 83 14 2 15 1 16 85 19 86 20 89 21 87 23 88 24 90 25
REMARK SMILES IDX 91 26 94 27 92 28 93 29 12 30 13 31 14 32 15 33 16 34 17 35
REMARK SMILES IDX 18 36 19 37 80 38 20 39 79 40 21 41 22 42 23 43 73 44 24 45
REMARK SMILES IDX 78 46 72 47 74 48 25 49 77 50 71 51 70 52 26 54 58 55 38 56
REMARK SMILES IDX 57 57 39 58 42 59 56 60 75 61 40 62 41 63 55 65 76 66 43 67
REMARK SMILES IDX 27 68 28 69 36 70 29 71 35 72 37 73 34 74 30 75 31 76 32 77
REMARK SMILES IDX 33 78 59 79 60 80 68 81 61 82 67 83 69 84 66 85 62 86 63 87
REMARK SMILES IDX 64 88 65 89 44 90 45 91 53 92 46 93 52 94 54 95 51 96 47 97
REMARK SMILES IDX 48 98 49 99 50 100
REMARK H PARENT 2 17 2 18 85 22 74 53 42 64
REMARK Flexibility Score: inf
ROOT
ATOM      1  C   UNL     1       1.709  -3.064  -1.294  1.00  0.00     0.188 C 
ENDROOT
BRANCH   1   2
ATOM      2  C   UNL     1       2.484  -2.065  -2.175  1.00  0.00     0.188 C 
BRANCH   2   3
ATOM      3  O   UNL     1       3.687  -1.494  -1.660  1.00  0.00    -0.376 OA
BRANCH   3   4
ATOM      4  C   UNL     1       3.714  -1.099  -0.292  1.00  0.00     0.202 C 
BRANCH   4   5
ATOM      5  C   UNL     1       2.795   0.073   0.093  1.00  0.00     0.261 C 
BRANCH   5   6
ATOM      6  O   UNL     1       1.424  -0.304  -0.096  1.00  0.00    -0.459 OA
BRANCH   6   7
ATOM      7  C   UNL     1       0.433   0.647  -0.168  1.00  0.00     0.368 C 
ATOM      8  O   UNL     1       0.616   1.849  -0.075  1.00  0.00    -0.245 OA
BRANCH   7   9
ATOM      9  C   UNL     1      -0.951  -0.120  -0.411  1.00  0.00     0.199 C 
ATOM     10  C   UNL     1      -1.001  -1.042   0.879  1.00  0.00     0.081 C 
ATOM     11  C   UNL     1      -2.157   0.821  -0.471  1.00  0.00     0.146 C 
ATOM     12  C   UNL     1      -2.251  -1.087   1.763  1.00  0.00     0.013 C 
ATOM     13  C   UNL     1      -3.502   0.288   0.091  1.00  0.00     0.191 C 
ATOM     14  C   UNL     1      -3.233   0.044   1.580  1.00  0.00     0.065 C 
BRANCH   9  15
ATOM     15  N   UNL     1      -0.732  -0.891  -1.686  1.00  0.00    -0.334 N 
ATOM     16  C   UNL     1      -1.504  -0.614  -2.895  1.00  0.00     0.331 C 
ATOM     17  H   UNL     1       0.248  -0.760  -1.936  1.00  0.00     0.347 HD
ATOM     18  H   UNL     1      -1.055  -1.825  -1.432  1.00  0.00     0.347 HD
ENDBRANCH   9  15
BRANCH  13  19
ATOM     19  N   UNL     1      -4.402  -0.806  -0.361  1.00  0.00    -0.330 N 
ATOM     20  C   UNL     1      -5.699  -0.250  -0.791  1.00  0.00     0.262 C 
ATOM     21  C   UNL     1      -4.134  -1.908  -1.315  1.00  0.00     0.187 C 
ATOM     22  H   UNL     1      -4.274  -1.318   0.511  1.00  0.00     0.348 HD
ATOM     23  C   UNL     1      -6.521  -1.492  -1.021  1.00  0.00     0.067 C 
ATOM     24  C   UNL     1      -5.543  -2.440  -1.680  1.00  0.00     0.071 C 
BRANCH  21  25
ATOM     25  C   UNL     1      -3.198  -3.075  -0.928  1.00  0.00     0.047 C 
ATOM     26  C   UNL     1      -3.594  -4.067   0.174  1.00  0.00     0.010 C 
ATOM     27  C   UNL     1      -2.897  -4.076  -2.059  1.00  0.00     0.010 C 
ATOM     28  C   UNL     1      -2.431  -5.059   0.123  1.00  0.00     0.001 C 
ATOM     29  C   UNL     1      -2.130  -5.212  -1.369  1.00  0.00     0.001 C 
ENDBRANCH  21  25
ENDBRANCH  13  19
ENDBRANCH   7   9
ENDBRANCH   6   7
ENDBRANCH   5   6
ENDBRANCH   4   5
ENDBRANCH   3   4
ENDBRANCH   2   3
ENDBRANCH   1   2
BRANCH   1  30
ATOM     30  O   UNL     1       2.570  -3.892  -0.518  1.00  0.00    -0.376 OA
BRANCH  30  31
ATOM     31  C   UNL     1       2.540  -5.270  -0.867  1.00  0.00     0.202 C 
BRANCH  31  32
ATOM     32  C   UNL     1       3.371  -5.559  -2.120  1.00  0.00     0.261 C 
BRANCH  32  33
ATOM     33  O   UNL     1       2.842  -4.978  -3.327  1.00  0.00    -0.460 OA
BRANCH  33  34
ATOM     34  C   UNL     1       1.692  -5.518  -3.792  1.00  0.00     0.338 C 
ATOM     35  O   UNL     1       1.075  -6.446  -3.309  1.00  0.00    -0.246 OA
BRANCH  34  36
ATOM     36  C   UNL     1       1.218  -4.695  -4.924  1.00  0.00     0.060 A 
ATOM     37  C   UNL     1       0.067  -3.922  -4.756  1.00  0.00     0.016 A 
ATOM     38  C   UNL     1       1.865  -4.732  -6.158  1.00  0.00     0.016 A 
ATOM     39  C   UNL     1      -0.476  -3.222  -5.837  1.00  0.00     0.010 A 
ATOM     40  C   UNL     1       1.327  -4.021  -7.238  1.00  0.00     0.010 A 
ATOM     41  C   UNL     1       0.134  -3.284  -7.096  1.00  0.00    -0.014 A 
BRANCH  41  42
ATOM     42  C   UNL     1      -0.538  -2.706  -8.293  1.00  0.00     0.031 A 
ATOM     43  C   UNL     1      -1.158  -3.639  -9.302  1.00  0.00     0.074 A 
ATOM     44  C   UNL     1      -0.623  -1.375  -8.480  1.00  0.00     0.049 A 
ATOM     45  N   UNL     1      -1.657  -3.380 -10.483  1.00  0.00    -0.248 NA
ATOM     46  C   UNL     1      -1.218  -5.057  -8.919  1.00  0.00     0.031 C 
ATOM     47  C   UNL     1      -0.142  -0.358  -7.547  1.00  0.00     0.029 A 
ATOM     48  N   UNL     1      -1.139  -0.649  -9.528  1.00  0.00    -0.354 N 
ATOM     49  C   UNL     1      -2.069  -4.606 -10.998  1.00  0.00     0.074 A 
ATOM     50  C   UNL     1      -1.736  -5.607 -10.006  1.00  0.00     0.031 C 
ATOM     51  C   UNL     1      -0.379   0.859  -8.067  1.00  0.00     0.029 A 
ATOM     52  C   UNL     1      -0.968   0.711  -9.397  1.00  0.00     0.049 A 
ATOM     53  H   UNL     1      -1.590  -1.063 -10.300  1.00  0.00     0.167 HD
ATOM     54  C   UNL     1      -2.669  -4.871 -12.186  1.00  0.00     0.034 A 
ATOM     55  C   UNL     1      -1.210   1.715 -10.266  1.00  0.00     0.034 A 
ATOM     56  C   UNL     1      -2.994  -3.864 -13.166  1.00  0.00     0.049 A 
ATOM     57  C   UNL     1      -1.778   1.388 -11.628  1.00  0.00     0.074 A 
ATOM     58  C   UNL     1      -3.583  -4.025 -14.409  1.00  0.00     0.029 A 
ATOM     59  N   UNL     1      -2.753  -2.503 -13.019  1.00  0.00    -0.354 N 
ATOM     60  N   UNL     1      -2.114   0.220 -12.127  1.00  0.00    -0.248 NA
ATOM     61  C   UNL     1      -1.994   2.515 -12.546  1.00  0.00     0.031 C 
ATOM     62  C   UNL     1      -3.635  -2.776 -15.038  1.00  0.00     0.029 A 
ATOM     63  C   UNL     1      -3.155  -1.820 -14.158  1.00  0.00     0.049 A 
ATOM     64  H   UNL     1      -2.356  -2.084 -12.222  1.00  0.00     0.167 HD
ATOM     65  C   UNL     1      -2.605   0.479 -13.406  1.00  0.00     0.074 A 
ATOM     66  C   UNL     1      -2.536   1.913 -13.595  1.00  0.00     0.031 C 
ATOM     67  C   UNL     1      -3.074  -0.389 -14.339  1.00  0.00     0.034 A 
BRANCH  54  68
ATOM     68  C   UNL     1      -2.944  -6.321 -12.510  1.00  0.00     0.023 A 
ATOM     69  C   UNL     1      -3.841  -7.096 -11.754  1.00  0.00     0.031 A 
ATOM     70  C   UNL     1      -2.259  -6.951 -13.565  1.00  0.00     0.131 A 
ATOM     71  C   UNL     1      -3.969  -8.469 -12.012  1.00  0.00     0.055 A 
ATOM     72  C   UNL     1      -2.454  -8.299 -13.870  1.00  0.00     0.041 A 
ATOM     73  F   UNL     1      -1.373  -6.269 -14.308  1.00  0.00    -0.206 F 
ATOM     74  C   UNL     1      -3.300  -9.071 -13.081  1.00  0.00     0.022 A 
BRANCH  71  75
ATOM     75  S   UNL     1      -4.899  -9.490 -10.835  1.00  0.00     0.124 S 
ATOM     76  O   UNL     1      -4.176  -9.238  -9.591  1.00  0.00    -0.237 OA
ATOM     77  O   UNL     1      -6.241  -8.925 -10.920  1.00  0.00    -0.237 OA
ATOM     78  O   UNL     1      -4.757 -10.843 -11.367  1.00  0.00    -0.744 OA
ENDBRANCH  71  75
ENDBRANCH  54  68
BRANCH  55  79
ATOM     79  C   UNL     1      -0.850   3.123  -9.919  1.00  0.00     0.023 A 
ATOM     80  C   UNL     1      -1.826   4.131  -9.845  1.00  0.00     0.031 A 
ATOM     81  C   UNL     1       0.493   3.494  -9.721  1.00  0.00     0.131 A 
ATOM     82  C   UNL     1      -1.440   5.464  -9.624  1.00  0.00     0.055 A 
ATOM     83  C   UNL     1       0.865   4.810  -9.444  1.00  0.00     0.041 A 
ATOM     84  F   UNL     1       1.468   2.574  -9.790  1.00  0.00    -0.206 F 
ATOM     85  C   UNL     1      -0.104   5.807  -9.408  1.00  0.00     0.022 A 
BRANCH  82  86
ATOM     86  S   UNL     1      -2.705   6.762  -9.712  1.00  0.00     0.124 S 
ATOM     87  O   UNL     1      -3.214   6.589 -11.068  1.00  0.00    -0.237 OA
ATOM     88  O   UNL     1      -3.608   6.378  -8.633  1.00  0.00    -0.237 OA
ATOM     89  O   UNL     1      -1.948   7.991  -9.481  1.00  0.00    -0.744 OA
ENDBRANCH  82  86
ENDBRANCH  55  79
BRANCH  67  90
ATOM     90  C   UNL     1      -3.598   0.198 -15.629  1.00  0.00     0.023 A 
ATOM     91  C   UNL     1      -2.753   0.836 -16.554  1.00  0.00     0.031 A 
ATOM     92  C   UNL     1      -4.970   0.122 -15.931  1.00  0.00     0.131 A 
ATOM     93  C   UNL     1      -3.295   1.417 -17.712  1.00  0.00     0.055 A 
ATOM     94  C   UNL     1      -5.494   0.650 -17.112  1.00  0.00     0.041 A 
ATOM     95  F   UNL     1      -5.824  -0.473 -15.083  1.00  0.00    -0.206 F 
ATOM     96  C   UNL     1      -4.657   1.313 -18.004  1.00  0.00     0.022 A 
BRANCH  93  97
ATOM     97  S   UNL     1      -2.209   2.390 -18.792  1.00  0.00     0.124 S 
ATOM     98  O   UNL     1      -1.715   3.416 -17.880  1.00  0.00    -0.237 OA
ATOM     99  O   UNL     1      -1.231   1.398 -19.226  1.00  0.00    -0.237 OA
ATOM    100  O   UNL     1      -3.108   2.872 -19.838  1.00  0.00    -0.744 OA
ENDBRANCH  93  97
ENDBRANCH  67  90
ENDBRANCH  41  42
ENDBRANCH  34  36
ENDBRANCH  33  34
ENDBRANCH  32  33
ENDBRANCH  31  32
ENDBRANCH  30  31
ENDBRANCH   1  30
TORSDOF 23
