REMARK SMILES O=C1NC(=S)S/C1=C\c1ccc(OCc2cn(-c3ccc(C(=O)OCCOCCOCCOC(=O)c4ccc(-c5c6nc(c(-c7cc(S(=O)(=O)[O-])ccc7F)c7ccc([nH]7)c(-c7cc(S(=O)(=O)[O-])ccc7F)c7nc(c(-c8cc(S(=O)(=O)[O-])ccc8F)c8ccc5[nH]8)C=C7)C=C6)cc4)cc3)nn2)cc1
REMARK SMILES IDX 28 1 27 2 26 3 25 4 24 5 22 6 23 7 21 8 18 9 19 10 100 11
REMARK SMILES IDX 20 12 99 13 17 14 15 15 16 16 102 17 101 18 14 19 13 20
REMARK SMILES IDX 12 21 9 22 10 23 104 24 11 25 103 26 8 27 1 28 2 29 3 30
REMARK SMILES IDX 7 31 4 32 6 34 5 35 29 36 30 37 31 38 32 39 33 40 34 41
REMARK SMILES IDX 35 42 36 43 37 44 98 45 38 46 97 47 39 48 40 49 41 50 91 51
REMARK SMILES IDX 42 52 96 53 90 54 92 55 43 56 95 57 89 58 88 59 44 61 76 62
REMARK SMILES IDX 56 63 75 64 57 65 60 66 74 67 93 68 58 69 59 70 73 72 94 73
REMARK SMILES IDX 61 74 45 75 46 76 54 77 47 78 53 79 55 80 52 81 48 82 49 83
REMARK SMILES IDX 50 84 51 85 77 86 78 87 86 88 79 89 85 90 87 91 84 92 80 93
REMARK SMILES IDX 81 94 82 95 83 96 62 97 63 98 71 99 64 100 70 101 72 102
REMARK SMILES IDX 69 103 65 104 66 105 67 106 68 107
REMARK H PARENT 3 33 92 60 60 71
REMARK Flexibility Score: inf
ROOT
ATOM      1  C   UNL     1       8.096   7.900  -1.204  1.00  0.00     0.188 C 
ENDROOT
BRANCH   1   2
ATOM      2  O   UNL     1       9.289   8.660  -1.295  1.00  0.00    -0.376 OA
BRANCH   2   3
ATOM      3  C   UNL     1       9.362   9.982  -0.787  1.00  0.00     0.202 C 
BRANCH   3   4
ATOM      4  C   UNL     1       8.207  11.000  -0.877  1.00  0.00     0.261 C 
BRANCH   4   5
ATOM      5  O   UNL     1       6.881  10.498  -0.681  1.00  0.00    -0.460 OA
BRANCH   5   6
ATOM      6  C   UNL     1       6.109  10.429  -1.785  1.00  0.00     0.338 C 
ATOM      7  O   UNL     1       6.390  10.820  -2.909  1.00  0.00    -0.246 OA
BRANCH   6   8
ATOM      8  C   UNL     1       4.892   9.642  -1.498  1.00  0.00     0.060 A 
ATOM      9  C   UNL     1       2.526   8.208  -1.160  1.00  0.00     0.066 A 
ATOM     10  C   UNL     1       3.407   7.865  -2.196  1.00  0.00     0.029 A 
ATOM     11  C   UNL     1       2.879   9.200  -0.233  1.00  0.00     0.029 A 
ATOM     12  C   UNL     1       4.568   8.609  -2.386  1.00  0.00     0.018 A 
ATOM     13  C   UNL     1       4.081   9.901  -0.388  1.00  0.00     0.018 A 
BRANCH   9  14
ATOM     14  N   UNL     1       1.242   7.616  -1.146  1.00  0.00    -0.220 N 
ATOM     15  C   UNL     1      -0.923   7.325  -1.146  1.00  0.00     0.120 A 
ATOM     16  C   UNL     1       0.070   8.146  -0.650  1.00  0.00     0.144 A 
ATOM     17  N   UNL     1      -0.337   6.312  -1.854  1.00  0.00    -0.131 NA
ATOM     18  N   UNL     1       0.970   6.495  -1.849  1.00  0.00    -0.062 NA
BRANCH  15  19
ATOM     19  C   UNL     1      -2.409   7.472  -1.128  1.00  0.00     0.289 C 
BRANCH  19  20
ATOM     20  O   UNL     1      -3.090   6.734  -0.102  1.00  0.00    -0.487 OA
BRANCH  20  21
ATOM     21  C   UNL     1      -3.098   5.368  -0.192  1.00  0.00     0.119 A 
ATOM     22  C   UNL     1      -2.909   2.572  -0.026  1.00  0.00    -0.024 A 
ATOM     23  C   UNL     1      -3.376   3.308   1.064  1.00  0.00     0.012 A 
ATOM     24  C   UNL     1      -2.629   3.232  -1.226  1.00  0.00     0.012 A 
ATOM     25  C   UNL     1      -3.468   4.701   0.978  1.00  0.00     0.047 A 
ATOM     26  C   UNL     1      -2.744   4.620  -1.313  1.00  0.00     0.047 A 
BRANCH  22  27
ATOM     27  C   UNL     1      -2.677   1.130   0.084  1.00  0.00     0.029 C 
ATOM     28  O   UNL     1      -2.195  -1.738   0.164  1.00  0.00    -0.268 OA
ATOM     29  C   UNL     1      -1.288  -0.921   0.121  1.00  0.00     0.263 C 
ATOM     30  N   UNL     1       0.043  -1.225   0.074  1.00  0.00    -0.307 N 
ATOM     31  C   UNL     1      -1.466   0.555   0.085  1.00  0.00     0.080 C 
ATOM     32  C   UNL     1       0.935  -0.198   0.010  1.00  0.00     0.145 C 
ATOM     33  H   UNL     1       0.349  -2.160   0.085  1.00  0.00     0.171 HD
ATOM     34  S   UNL     1       0.080   1.326   0.022  1.00  0.00    -0.055 SA
ATOM     35  S   UNL     1       2.572  -0.406  -0.076  1.00  0.00    -0.052 S 
ENDBRANCH  22  27
ENDBRANCH  20  21
ENDBRANCH  19  20
ENDBRANCH  15  19
ENDBRANCH   9  14
ENDBRANCH   6   8
ENDBRANCH   5   6
ENDBRANCH   4   5
ENDBRANCH   3   4
ENDBRANCH   2   3
ENDBRANCH   1   2
BRANCH   1  36
ATOM     36  C   UNL     1       7.361   7.740   0.143  1.00  0.00     0.188 C 
BRANCH  36  37
ATOM     37  O   UNL     1       7.689   8.690   1.133  1.00  0.00    -0.376 OA
BRANCH  37  38
ATOM     38  C   UNL     1       8.660   8.421   2.129  1.00  0.00     0.202 C 
BRANCH  38  39
ATOM     39  C   UNL     1       9.808   7.423   1.988  1.00  0.00     0.261 C 
BRANCH  39  40
ATOM     40  O   UNL     1       9.769   6.544   0.884  1.00  0.00    -0.460 OA
BRANCH  40  41
ATOM     41  C   UNL     1       9.121   5.387   1.141  1.00  0.00     0.338 C 
ATOM     42  O   UNL     1       8.273   5.200   1.996  1.00  0.00    -0.246 OA
BRANCH  41  43
ATOM     43  C   UNL     1       9.712   4.335   0.319  1.00  0.00     0.060 A 
ATOM     44  C   UNL     1       9.009   3.134   0.218  1.00  0.00     0.016 A 
ATOM     45  C   UNL     1      11.070   4.445  -0.010  1.00  0.00     0.016 A 
ATOM     46  C   UNL     1       9.730   1.984  -0.012  1.00  0.00     0.010 A 
ATOM     47  C   UNL     1      11.791   3.294  -0.196  1.00  0.00     0.010 A 
ATOM     48  C   UNL     1      11.123   2.075  -0.116  1.00  0.00    -0.014 A 
BRANCH  48  49
ATOM     49  C   UNL     1      11.880   0.857  -0.301  1.00  0.00     0.031 A 
ATOM     50  C   UNL     1      11.800   0.381  -1.694  1.00  0.00     0.074 A 
ATOM     51  C   UNL     1      12.654   0.316   0.658  1.00  0.00     0.049 A 
ATOM     52  N   UNL     1      11.099  -0.606  -2.139  1.00  0.00    -0.248 NA
ATOM     53  C   UNL     1      12.347   1.250  -2.751  1.00  0.00     0.031 C 
ATOM     54  C   UNL     1      12.988   0.879   1.967  1.00  0.00     0.029 A 
ATOM     55  N   UNL     1      13.398  -0.822   0.617  1.00  0.00    -0.354 N 
ATOM     56  C   UNL     1      11.370  -0.650  -3.498  1.00  0.00     0.074 A 
ATOM     57  C   UNL     1      11.866   0.652  -3.840  1.00  0.00     0.031 C 
ATOM     58  C   UNL     1      14.034   0.197   2.490  1.00  0.00     0.029 A 
ATOM     59  C   UNL     1      14.370  -0.914   1.610  1.00  0.00     0.049 A 
ATOM     60  H   UNL     1      13.259  -1.524  -0.059  1.00  0.00     0.167 HD
ATOM     61  C   UNL     1      11.498  -1.845  -4.134  1.00  0.00     0.034 A 
ATOM     62  C   UNL     1      15.413  -1.791   1.654  1.00  0.00     0.034 A 
ATOM     63  C   UNL     1      10.904  -2.908  -3.344  1.00  0.00     0.049 A 
ATOM     64  C   UNL     1      15.056  -2.929   0.765  1.00  0.00     0.074 A 
ATOM     65  C   UNL     1       9.652  -3.112  -2.793  1.00  0.00     0.029 A 
ATOM     66  N   UNL     1      11.748  -3.770  -2.676  1.00  0.00    -0.354 N 
ATOM     67  N   UNL     1      14.086  -3.762   1.023  1.00  0.00    -0.248 NA
ATOM     68  C   UNL     1      15.437  -2.845  -0.639  1.00  0.00     0.031 C 
ATOM     69  C   UNL     1       9.897  -3.711  -1.523  1.00  0.00     0.029 A 
ATOM     70  C   UNL     1      11.270  -3.935  -1.399  1.00  0.00     0.049 A 
ATOM     71  H   UNL     1      12.555  -4.194  -3.049  1.00  0.00     0.167 HD
ATOM     72  C   UNL     1      13.445  -3.954  -0.192  1.00  0.00     0.074 A 
ATOM     73  C   UNL     1      14.380  -3.446  -1.195  1.00  0.00     0.031 C 
ATOM     74  C   UNL     1      12.107  -4.228  -0.248  1.00  0.00     0.034 A 
BRANCH  61  75
ATOM     75  C   UNL     1      12.525  -2.115  -5.218  1.00  0.00     0.023 A 
ATOM     76  C   UNL     1      12.577  -3.431  -5.709  1.00  0.00     0.031 A 
ATOM     77  C   UNL     1      13.617  -1.288  -5.579  1.00  0.00     0.131 A 
ATOM     78  C   UNL     1      13.718  -3.910  -6.371  1.00  0.00     0.055 A 
ATOM     79  C   UNL     1      14.720  -1.752  -6.300  1.00  0.00     0.041 A 
ATOM     80  F   UNL     1      13.737  -0.013  -5.200  1.00  0.00    -0.206 F 
ATOM     81  C   UNL     1      14.795  -3.082  -6.666  1.00  0.00     0.022 A 
BRANCH  78  82
ATOM     82  S   UNL     1      13.839  -5.689  -6.663  1.00  0.00     0.124 S 
ATOM     83  O   UNL     1      13.694  -6.209  -5.308  1.00  0.00    -0.237 OA
ATOM     84  O   UNL     1      12.718  -5.919  -7.567  1.00  0.00    -0.237 OA
ATOM     85  O   UNL     1      15.164  -5.843  -7.258  1.00  0.00    -0.744 OA
ENDBRANCH  78  82
ENDBRANCH  61  75
BRANCH  62  86
ATOM     86  C   UNL     1      16.801  -1.550   2.152  1.00  0.00     0.023 A 
ATOM     87  C   UNL     1      17.716  -2.595   2.418  1.00  0.00     0.031 A 
ATOM     88  C   UNL     1      17.336  -0.241   2.135  1.00  0.00     0.131 A 
ATOM     89  C   UNL     1      19.086  -2.310   2.647  1.00  0.00     0.055 A 
ATOM     90  C   UNL     1      18.686   0.035   2.365  1.00  0.00     0.041 A 
ATOM     91  F   UNL     1      16.580   0.817   1.803  1.00  0.00    -0.206 F 
ATOM     92  C   UNL     1      19.570  -1.001   2.612  1.00  0.00     0.022 A 
BRANCH  89  93
ATOM     93  S   UNL     1      20.296  -3.654   2.900  1.00  0.00     0.124 S 
ATOM     94  O   UNL     1      19.926  -4.163   4.215  1.00  0.00    -0.237 OA
ATOM     95  O   UNL     1      20.036  -4.531   1.765  1.00  0.00    -0.237 OA
ATOM     96  O   UNL     1      21.587  -2.965   2.852  1.00  0.00    -0.744 OA
ENDBRANCH  89  93
ENDBRANCH  62  86
BRANCH  74  97
ATOM     97  C   UNL     1      11.404  -4.692   1.014  1.00  0.00     0.023 A 
ATOM     98  C   UNL     1      11.390  -4.005   2.250  1.00  0.00     0.031 A 
ATOM     99  C   UNL     1      10.626  -5.860   0.913  1.00  0.00     0.131 A 
ATOM    100  C   UNL     1      10.627  -4.505   3.325  1.00  0.00     0.055 A 
ATOM    101  C   UNL     1       9.853  -6.337   1.969  1.00  0.00     0.041 A 
ATOM    102  F   UNL     1      10.580  -6.551  -0.239  1.00  0.00    -0.206 F 
ATOM    103  C   UNL     1       9.857  -5.664   3.184  1.00  0.00     0.022 A 
BRANCH 100 104
ATOM    104  S   UNL     1      10.645  -3.682   4.952  1.00  0.00     0.124 S 
ATOM    105  O   UNL     1      12.053  -3.373   5.167  1.00  0.00    -0.237 OA
ATOM    106  O   UNL     1       9.765  -2.537   4.735  1.00  0.00    -0.237 OA
ATOM    107  O   UNL     1      10.102  -4.702   5.853  1.00  0.00    -0.744 OA
ENDBRANCH 100 104
ENDBRANCH  74  97
ENDBRANCH  48  49
ENDBRANCH  41  43
ENDBRANCH  40  41
ENDBRANCH  39  40
ENDBRANCH  38  39
ENDBRANCH  37  38
ENDBRANCH  36  37
ENDBRANCH   1  36
TORSDOF 25
