REMARK SMILES Cc1ccccc1CSCC(=O)Nc1ccc(C)c(C(=O)OCCOCCOCCOC(=O)c2ccc(-c3c4nc(c(-c5cc(S(=O)(=O)[O-])ccc5F)c5ccc([nH]5)c(-c5cc(S(=O)(=O)[O-])ccc5F)c5nc(c(-c6cc(S(=O)(=O)[O-])ccc6F)c6ccc3[nH]6)C=C5)C=C4)cc2)c1
REMARK SMILES IDX 26 1 25 2 24 3 23 4 22 5 20 6 21 7 19 8 14 9 15 10 97 11
REMARK SMILES IDX 16 12 17 13 18 14 13 15 11 16 12 17 10 19 9 20 8 21 7 22
REMARK SMILES IDX 1 23 2 24 3 25 4 26 6 27 5 28 27 29 28 30 29 31 30 32 31 33
REMARK SMILES IDX 32 34 33 35 34 36 35 37 96 38 36 39 95 40 37 41 38 42 39 43
REMARK SMILES IDX 89 44 40 45 94 46 88 47 90 48 41 49 93 50 87 51 86 52 42 54
REMARK SMILES IDX 74 55 54 56 73 57 55 58 58 59 72 60 91 61 56 62 57 63 71 65
REMARK SMILES IDX 92 66 59 67 43 68 44 69 52 70 45 71 51 72 53 73 50 74 46 75
REMARK SMILES IDX 47 76 48 77 49 78 75 79 76 80 84 81 77 82 83 83 85 84 82 85
REMARK SMILES IDX 78 86 79 87 80 88 81 89 60 90 61 91 69 92 62 93 68 94 70 95
REMARK SMILES IDX 67 96 63 97 64 98 65 99 66 100
REMARK H PARENT 13 18 90 53 58 64
REMARK Flexibility Score: inf
ROOT
ATOM      1  C   UNL     1       6.347   9.958  -5.878  1.00  0.00     0.188 C 
ENDROOT
BRANCH   1   2
ATOM      2  O   UNL     1       5.467  10.758  -6.657  1.00  0.00    -0.376 OA
BRANCH   2   3
ATOM      3  C   UNL     1       4.367  11.415  -6.021  1.00  0.00     0.202 C 
BRANCH   3   4
ATOM      4  C   UNL     1       2.956  10.728  -5.810  1.00  0.00     0.261 C 
BRANCH   4   5
ATOM      5  O   UNL     1       2.810   9.675  -4.779  1.00  0.00    -0.460 OA
BRANCH   5   6
ATOM      6  C   UNL     1       1.720   9.409  -3.965  1.00  0.00     0.338 C 
ATOM      7  O   UNL     1       0.730  10.129  -4.012  1.00  0.00    -0.246 OA
BRANCH   6   8
ATOM      8  C   UNL     1       1.791   8.169  -2.855  1.00  0.00     0.065 A 
ATOM      9  C   UNL     1       2.154   5.712  -2.134  1.00  0.00     0.042 A 
ATOM     10  C   UNL     1       1.691   5.995  -0.882  1.00  0.00     0.026 A 
ATOM     11  C   UNL     1       2.223   6.804  -3.020  1.00  0.00     0.042 A 
ATOM     12  C   UNL     1       1.306   7.320  -0.601  1.00  0.00     0.006 A 
ATOM     13  C   UNL     1       1.339   8.391  -1.559  1.00  0.00    -0.036 A 
ATOM     14  C   UNL     1       1.021   9.770  -1.077  1.00  0.00     0.045 C 
BRANCH   9  15
ATOM     15  N   UNL     1       2.741   4.477  -2.522  1.00  0.00    -0.325 N 
ATOM     16  C   UNL     1       2.280   3.183  -2.547  1.00  0.00     0.234 C 
ATOM     17  O   UNL     1       3.111   2.266  -2.608  1.00  0.00    -0.274 OA
ATOM     18  H   UNL     1       3.668   4.568  -2.839  1.00  0.00     0.169 HD
BRANCH  16  19
ATOM     19  C   UNL     1       0.805   2.860  -2.720  1.00  0.00     0.170 C 
BRANCH  19  20
ATOM     20  S   UNL     1      -0.242   3.368  -1.345  1.00  0.00    -0.147 SA
BRANCH  20  21
ATOM     21  C   UNL     1       0.552   2.417  -0.003  1.00  0.00     0.105 C 
BRANCH  21  22
ATOM     22  C   UNL     1       0.038   1.000   0.085  1.00  0.00    -0.035 A 
ATOM     23  C   UNL     1       2.363  -0.122  -0.038  1.00  0.00     0.044 C 
ATOM     24  C   UNL     1       0.860  -0.145   0.053  1.00  0.00    -0.047 A 
ATOM     25  C   UNL     1       0.252  -1.416   0.087  1.00  0.00     0.004 A 
ATOM     26  C   UNL     1      -1.132  -1.561   0.179  1.00  0.00     0.000 A 
ATOM     27  C   UNL     1      -1.357   0.827   0.224  1.00  0.00     0.005 A 
ATOM     28  C   UNL     1      -1.938  -0.437   0.259  1.00  0.00     0.000 A 
ENDBRANCH  21  22
ENDBRANCH  20  21
ENDBRANCH  19  20
ENDBRANCH  16  19
ENDBRANCH   9  15
ENDBRANCH   6   8
ENDBRANCH   5   6
ENDBRANCH   4   5
ENDBRANCH   3   4
ENDBRANCH   2   3
ENDBRANCH   1   2
BRANCH   1  29
ATOM     29  C   UNL     1       7.135  10.562  -4.724  1.00  0.00     0.188 C 
BRANCH  29  30
ATOM     30  O   UNL     1       6.248  11.001  -3.696  1.00  0.00    -0.376 OA
BRANCH  30  31
ATOM     31  C   UNL     1       6.886  11.690  -2.631  1.00  0.00     0.202 C 
BRANCH  31  32
ATOM     32  C   UNL     1       7.932  10.864  -1.849  1.00  0.00     0.261 C 
BRANCH  32  33
ATOM     33  O   UNL     1       7.322   9.781  -1.102  1.00  0.00    -0.460 OA
BRANCH  33  34
ATOM     34  C   UNL     1       7.658   8.487  -1.457  1.00  0.00     0.338 C 
ATOM     35  O   UNL     1       8.698   7.959  -1.159  1.00  0.00    -0.246 OA
BRANCH  34  36
ATOM     36  C   UNL     1       6.517   7.840  -2.203  1.00  0.00     0.060 A 
ATOM     37  C   UNL     1       6.551   6.663  -2.963  1.00  0.00     0.016 A 
ATOM     38  C   UNL     1       5.388   8.581  -2.318  1.00  0.00     0.016 A 
ATOM     39  C   UNL     1       5.555   6.387  -3.991  1.00  0.00     0.010 A 
ATOM     40  C   UNL     1       4.613   8.401  -3.457  1.00  0.00     0.010 A 
ATOM     41  C   UNL     1       4.588   7.322  -4.375  1.00  0.00    -0.014 A 
BRANCH  41  42
ATOM     42  C   UNL     1       3.651   7.284  -5.723  1.00  0.00     0.031 A 
ATOM     43  C   UNL     1       2.033   7.382  -5.969  1.00  0.00     0.074 A 
ATOM     44  C   UNL     1       4.332   7.528  -6.861  1.00  0.00     0.049 A 
ATOM     45  N   UNL     1       1.476   8.318  -6.699  1.00  0.00    -0.248 NA
ATOM     46  C   UNL     1       0.926   6.541  -5.396  1.00  0.00     0.031 C 
ATOM     47  C   UNL     1       3.854   8.002  -8.152  1.00  0.00     0.029 A 
ATOM     48  N   UNL     1       5.628   7.116  -7.121  1.00  0.00    -0.354 N 
ATOM     49  C   UNL     1       0.098   8.315  -6.556  1.00  0.00     0.074 A 
ATOM     50  C   UNL     1      -0.189   7.258  -5.616  1.00  0.00     0.031 C 
ATOM     51  C   UNL     1       4.689   7.572  -9.109  1.00  0.00     0.029 A 
ATOM     52  C   UNL     1       5.640   6.695  -8.465  1.00  0.00     0.049 A 
ATOM     53  H   UNL     1       6.388   7.118  -6.495  1.00  0.00     0.167 HD
ATOM     54  C   UNL     1      -0.745   8.662  -7.571  1.00  0.00     0.034 A 
ATOM     55  C   UNL     1       5.803   5.359  -8.671  1.00  0.00     0.034 A 
ATOM     56  C   UNL     1      -0.197   8.192  -8.822  1.00  0.00     0.049 A 
ATOM     57  C   UNL     1       4.486   4.719  -9.115  1.00  0.00     0.074 A 
ATOM     58  C   UNL     1       0.608   8.680  -9.825  1.00  0.00     0.029 A 
ATOM     59  N   UNL     1      -0.224   6.826  -8.982  1.00  0.00    -0.354 N 
ATOM     60  N   UNL     1       3.371   5.380  -9.324  1.00  0.00    -0.248 NA
ATOM     61  C   UNL     1       4.303   3.291  -9.349  1.00  0.00     0.031 C 
ATOM     62  C   UNL     1       1.244   7.537 -10.428  1.00  0.00     0.029 A 
ATOM     63  C   UNL     1       0.766   6.379  -9.825  1.00  0.00     0.049 A 
ATOM     64  H   UNL     1      -0.878   6.235  -8.542  1.00  0.00     0.167 HD
ATOM     65  C   UNL     1       2.349   4.529  -9.642  1.00  0.00     0.074 A 
ATOM     66  C   UNL     1       2.990   3.220  -9.637  1.00  0.00     0.031 C 
ATOM     67  C   UNL     1       1.057   4.941  -9.860  1.00  0.00     0.034 A 
BRANCH  54  68
ATOM     68  C   UNL     1      -2.123   9.261  -7.402  1.00  0.00     0.023 A 
ATOM     69  C   UNL     1      -2.840   9.661  -8.552  1.00  0.00     0.031 A 
ATOM     70  C   UNL     1      -2.697   9.628  -6.164  1.00  0.00     0.131 A 
ATOM     71  C   UNL     1      -4.024  10.423  -8.455  1.00  0.00     0.055 A 
ATOM     72  C   UNL     1      -3.890  10.367  -6.070  1.00  0.00     0.041 A 
ATOM     73  F   UNL     1      -2.112   9.305  -5.001  1.00  0.00    -0.206 F 
ATOM     74  C   UNL     1      -4.553  10.783  -7.218  1.00  0.00     0.022 A 
BRANCH  71  75
ATOM     75  S   UNL     1      -4.818  11.014  -9.980  1.00  0.00     0.124 S 
ATOM     76  O   UNL     1      -3.764  11.823 -10.584  1.00  0.00    -0.237 OA
ATOM     77  O   UNL     1      -5.145   9.767 -10.663  1.00  0.00    -0.237 OA
ATOM     78  O   UNL     1      -5.972  11.772  -9.496  1.00  0.00    -0.744 OA
ENDBRANCH  71  75
ENDBRANCH  54  68
BRANCH  55  79
ATOM     79  C   UNL     1       6.900   4.866  -7.742  1.00  0.00     0.023 A 
ATOM     80  C   UNL     1       8.099   5.647  -7.750  1.00  0.00     0.031 A 
ATOM     81  C   UNL     1       6.671   4.089  -6.600  1.00  0.00     0.131 A 
ATOM     82  C   UNL     1       8.864   5.819  -6.584  1.00  0.00     0.055 A 
ATOM     83  C   UNL     1       7.532   4.156  -5.482  1.00  0.00     0.041 A 
ATOM     84  F   UNL     1       5.529   3.400  -6.457  1.00  0.00    -0.206 F 
ATOM     85  C   UNL     1       8.586   5.074  -5.444  1.00  0.00     0.022 A 
BRANCH  82  86
ATOM     86  S   UNL     1       9.989   7.255  -6.455  1.00  0.00     0.124 S 
ATOM     87  O   UNL     1      11.268   6.672  -6.842  1.00  0.00    -0.237 OA
ATOM     88  O   UNL     1       9.411   8.213  -7.394  1.00  0.00    -0.237 OA
ATOM     89  O   UNL     1       9.867   7.654  -5.054  1.00  0.00    -0.744 OA
ENDBRANCH  82  86
ENDBRANCH  55  79
BRANCH  67  90
ATOM     90  C   UNL     1      -0.056   3.945 -10.110  1.00  0.00     0.023 A 
ATOM     91  C   UNL     1       0.131   2.881 -10.996  1.00  0.00     0.031 A 
ATOM     92  C   UNL     1      -1.335   4.028  -9.505  1.00  0.00     0.131 A 
ATOM     93  C   UNL     1      -0.871   1.912 -11.169  1.00  0.00     0.055 A 
ATOM     94  C   UNL     1      -2.382   3.155  -9.807  1.00  0.00     0.041 A 
ATOM     95  F   UNL     1      -1.605   4.914  -8.535  1.00  0.00    -0.206 F 
ATOM     96  C   UNL     1      -2.146   2.069 -10.629  1.00  0.00     0.022 A 
BRANCH  93  97
ATOM     97  S   UNL     1      -0.408   0.352 -11.954  1.00  0.00     0.124 S 
ATOM     98  O   UNL     1       0.238   0.790 -13.186  1.00  0.00    -0.237 OA
ATOM     99  O   UNL     1       0.479  -0.221 -10.943  1.00  0.00    -0.237 OA
ATOM    100  O   UNL     1      -1.683  -0.339 -12.124  1.00  0.00    -0.744 OA
ENDBRANCH  93  97
ENDBRANCH  67  90
ENDBRANCH  41  42
ENDBRANCH  34  36
ENDBRANCH  33  34
ENDBRANCH  32  33
ENDBRANCH  31  32
ENDBRANCH  30  31
ENDBRANCH  29  30
ENDBRANCH   1  29
TORSDOF 25
