REMARK SMILES O=C(Nc1nc(C2CC2)cs1)N[C@@H]1C=C[C@@H](C(=O)OCCOCCOCCOC(=O)c2ccc(-c3c4nc(c(-c5cc(S(=O)(=O)[O-])ccc5F)c5ccc([nH]5)c(-c5cc(S(=O)(=O)[O-])ccc5F)c5nc(c(-c6cc(S(=O)(=O)[O-])ccc6F)c6ccc3[nH]6)C=C5)C=C4)cc2)C1
REMARK SMILES IDX 23 1 22 2 21 3 20 4 19 5 17 6 18 7 16 8 13 9 14 10 94 11
REMARK SMILES IDX 15 12 12 13 1 14 2 15 3 16 4 19 5 20 11 21 6 22 10 23 7 24
REMARK SMILES IDX 8 25 9 26 24 27 25 28 26 29 27 30 28 31 29 32 30 33 31 34
REMARK SMILES IDX 32 35 93 36 33 37 92 38 34 39 35 40 36 41 86 42 37 43 91 44
REMARK SMILES IDX 85 45 87 46 38 47 90 48 84 49 83 50 39 52 71 53 51 54 70 55
REMARK SMILES IDX 52 56 55 57 69 58 88 59 53 60 54 61 68 63 89 64 56 65 40 66
REMARK SMILES IDX 41 67 49 68 42 69 48 70 50 71 47 72 43 73 44 74 45 75 46 76
REMARK SMILES IDX 72 77 73 78 81 79 74 80 80 81 82 82 79 83 75 84 76 85 77 86
REMARK SMILES IDX 78 87 57 88 58 89 66 90 59 91 65 92 67 93 64 94 60 95 61 96
REMARK SMILES IDX 62 97 63 98
REMARK H PARENT 3 17 12 18 87 51 55 62
REMARK Flexibility Score: inf
ROOT
ATOM      1  C   UNL     1       3.286   7.213   0.365  1.00  0.00     0.188 C 
ENDROOT
BRANCH   1   2
ATOM      2  O   UNL     1       4.455   8.020   0.472  1.00  0.00    -0.376 OA
BRANCH   2   3
ATOM      3  C   UNL     1       5.702   7.386   0.742  1.00  0.00     0.202 C 
BRANCH   3   4
ATOM      4  C   UNL     1       5.787   6.357   1.885  1.00  0.00     0.261 C 
BRANCH   4   5
ATOM      5  O   UNL     1       4.828   5.281   1.806  1.00  0.00    -0.463 OA
BRANCH   5   6
ATOM      6  C   UNL     1       4.174   4.969   2.956  1.00  0.00     0.312 C 
ATOM      7  O   UNL     1       4.448   5.473   4.043  1.00  0.00    -0.252 OA
BRANCH   6   8
ATOM      8  C   UNL     1       2.986   4.010   2.767  1.00  0.00     0.124 C 
ATOM      9  C   UNL     1       2.402   1.720   2.079  1.00  0.00     0.107 C 
ATOM     10  C   UNL     1       2.690   1.793   3.537  1.00  0.00    -0.006 C 
ATOM     11  C   UNL     1       2.959   3.050   1.562  1.00  0.00     0.048 C 
ATOM     12  C   UNL     1       2.985   3.038   3.920  1.00  0.00    -0.014 C 
BRANCH   9  13
ATOM     13  N   UNL     1       0.990   1.437   1.931  1.00  0.00    -0.332 N 
ATOM     14  O   UNL     1       0.085   3.471   1.376  1.00  0.00    -0.248 OA
ATOM     15  C   UNL     1      -0.042   2.272   1.611  1.00  0.00     0.321 C 
ATOM     16  N   UNL     1      -1.264   1.681   1.432  1.00  0.00    -0.284 N 
ATOM     17  H   UNL     1      -1.982   2.231   1.043  1.00  0.00     0.174 HD
ATOM     18  H   UNL     1       0.734   0.498   2.085  1.00  0.00     0.165 HD
BRANCH  16  19
ATOM     19  C   UNL     1      -1.566   0.388   1.749  1.00  0.00     0.191 A 
ATOM     20  N   UNL     1      -0.885  -0.415   2.532  1.00  0.00    -0.225 NA
ATOM     21  S   UNL     1      -2.949  -0.262   1.000  1.00  0.00    -0.105 S 
ATOM     22  C   UNL     1      -1.492  -1.653   2.538  1.00  0.00     0.057 A 
ATOM     23  C   UNL     1      -2.566  -1.796   1.685  1.00  0.00     0.092 A 
BRANCH  22  24
ATOM     24  C   UNL     1      -0.999  -2.774   3.443  1.00  0.00     0.039 C 
ATOM     25  C   UNL     1       0.301  -2.585   4.197  1.00  0.00     0.011 C 
ATOM     26  C   UNL     1      -0.995  -2.514   4.935  1.00  0.00     0.011 C 
ENDBRANCH  22  24
ENDBRANCH  16  19
ENDBRANCH   9  13
ENDBRANCH   6   8
ENDBRANCH   5   6
ENDBRANCH   4   5
ENDBRANCH   3   4
ENDBRANCH   2   3
ENDBRANCH   1   2
BRANCH   1  27
ATOM     27  C   UNL     1       3.356   5.926  -0.474  1.00  0.00     0.188 C 
BRANCH  27  28
ATOM     28  O   UNL     1       4.625   5.644  -1.019  1.00  0.00    -0.376 OA
BRANCH  28  29
ATOM     29  C   UNL     1       4.784   5.710  -2.423  1.00  0.00     0.202 C 
BRANCH  29  30
ATOM     30  C   UNL     1       4.246   6.915  -3.216  1.00  0.00     0.261 C 
BRANCH  30  31
ATOM     31  O   UNL     1       2.980   7.460  -2.814  1.00  0.00    -0.460 OA
BRANCH  31  32
ATOM     32  C   UNL     1       1.866   6.793  -3.200  1.00  0.00     0.338 C 
ATOM     33  O   UNL     1       1.828   5.769  -3.867  1.00  0.00    -0.246 OA
BRANCH  32  34
ATOM     34  C   UNL     1       0.713   7.393  -2.490  1.00  0.00     0.060 A 
ATOM     35  C   UNL     1      -0.004   6.622  -1.563  1.00  0.00     0.016 A 
ATOM     36  C   UNL     1       0.352   8.722  -2.724  1.00  0.00     0.016 A 
ATOM     37  C   UNL     1      -1.096   7.171  -0.884  1.00  0.00     0.010 A 
ATOM     38  C   UNL     1      -0.756   9.262  -2.062  1.00  0.00     0.010 A 
ATOM     39  C   UNL     1      -1.504   8.483  -1.159  1.00  0.00    -0.014 A 
BRANCH  39  40
ATOM     40  C   UNL     1      -2.807   8.986  -0.650  1.00  0.00     0.031 A 
ATOM     41  C   UNL     1      -3.986   8.989  -1.588  1.00  0.00     0.074 A 
ATOM     42  C   UNL     1      -2.951   9.431   0.613  1.00  0.00     0.049 A 
ATOM     43  N   UNL     1      -5.190   9.467  -1.413  1.00  0.00    -0.248 NA
ATOM     44  C   UNL     1      -3.768   8.373  -2.907  1.00  0.00     0.031 C 
ATOM     45  C   UNL     1      -1.905   9.427   1.634  1.00  0.00     0.029 A 
ATOM     46  N   UNL     1      -4.037   9.985   1.247  1.00  0.00    -0.354 N 
ATOM     47  C   UNL     1      -5.871   9.221  -2.600  1.00  0.00     0.074 A 
ATOM     48  C   UNL     1      -4.934   8.580  -3.498  1.00  0.00     0.031 C 
ATOM     49  C   UNL     1      -2.396   9.970   2.762  1.00  0.00     0.029 A 
ATOM     50  C   UNL     1      -3.774  10.403   2.532  1.00  0.00     0.049 A 
ATOM     51  H   UNL     1      -4.920  10.075   0.822  1.00  0.00     0.167 HD
ATOM     52  C   UNL     1      -7.161   9.501  -2.911  1.00  0.00     0.034 A 
ATOM     53  C   UNL     1      -4.545  11.086   3.406  1.00  0.00     0.034 A 
ATOM     54  C   UNL     1      -8.082  10.148  -2.009  1.00  0.00     0.049 A 
ATOM     55  C   UNL     1      -5.950  11.475   2.999  1.00  0.00     0.074 A 
ATOM     56  C   UNL     1      -9.414  10.460  -2.219  1.00  0.00     0.029 A 
ATOM     57  N   UNL     1      -7.767  10.596  -0.733  1.00  0.00    -0.354 N 
ATOM     58  N   UNL     1      -6.586  11.230   1.876  1.00  0.00    -0.248 NA
ATOM     59  C   UNL     1      -6.742  12.227   3.982  1.00  0.00     0.031 C 
ATOM     60  C   UNL     1      -9.879  11.171  -1.109  1.00  0.00     0.029 A 
ATOM     61  C   UNL     1      -8.868  11.218  -0.163  1.00  0.00     0.049 A 
ATOM     62  H   UNL     1      -6.891  10.489  -0.297  1.00  0.00     0.167 HD
ATOM     63  C   UNL     1      -7.864  11.764   2.038  1.00  0.00     0.074 A 
ATOM     64  C   UNL     1      -7.912  12.329   3.369  1.00  0.00     0.031 C 
ATOM     65  C   UNL     1      -8.906  11.782   1.167  1.00  0.00     0.034 A 
BRANCH  52  66
ATOM     66  C   UNL     1      -7.635   9.159  -4.303  1.00  0.00     0.023 A 
ATOM     67  C   UNL     1      -7.705   7.832  -4.761  1.00  0.00     0.031 A 
ATOM     68  C   UNL     1      -8.021  10.182  -5.187  1.00  0.00     0.131 A 
ATOM     69  C   UNL     1      -8.096   7.568  -6.083  1.00  0.00     0.055 A 
ATOM     70  C   UNL     1      -8.485   9.907  -6.475  1.00  0.00     0.041 A 
ATOM     71  F   UNL     1      -7.950  11.470  -4.815  1.00  0.00    -0.206 F 
ATOM     72  C   UNL     1      -8.513   8.594  -6.933  1.00  0.00     0.022 A 
BRANCH  69  73
ATOM     73  S   UNL     1      -7.929   5.876  -6.716  1.00  0.00     0.124 S 
ATOM     74  O   UNL     1      -6.500   5.631  -6.535  1.00  0.00    -0.237 OA
ATOM     75  O   UNL     1      -8.822   5.122  -5.844  1.00  0.00    -0.237 OA
ATOM     76  O   UNL     1      -8.364   5.987  -8.108  1.00  0.00    -0.744 OA
ENDBRANCH  69  73
ENDBRANCH  52  66
BRANCH  53  77
ATOM     77  C   UNL     1      -4.006  11.504   4.736  1.00  0.00     0.023 A 
ATOM     78  C   UNL     1      -4.607  11.079   5.932  1.00  0.00     0.031 A 
ATOM     79  C   UNL     1      -2.935  12.412   4.829  1.00  0.00     0.131 A 
ATOM     80  C   UNL     1      -4.177  11.606   7.161  1.00  0.00     0.055 A 
ATOM     81  C   UNL     1      -2.466  12.880   6.057  1.00  0.00     0.041 A 
ATOM     82  F   UNL     1      -2.330  12.865   3.719  1.00  0.00    -0.206 F 
ATOM     83  C   UNL     1      -3.099  12.491   7.232  1.00  0.00     0.022 A 
BRANCH  80  84
ATOM     84  S   UNL     1      -5.130  11.217   8.655  1.00  0.00     0.124 S 
ATOM     85  O   UNL     1      -6.460  11.691   8.289  1.00  0.00    -0.237 OA
ATOM     86  O   UNL     1      -4.968   9.771   8.751  1.00  0.00    -0.237 OA
ATOM     87  O   UNL     1      -4.458  11.989   9.698  1.00  0.00    -0.744 OA
ENDBRANCH  80  84
ENDBRANCH  53  77
BRANCH  65  88
ATOM     88  C   UNL     1     -10.209  12.379   1.651  1.00  0.00     0.023 A 
ATOM     89  C   UNL     1     -10.331  13.742   1.976  1.00  0.00     0.031 A 
ATOM     90  C   UNL     1     -11.347  11.564   1.794  1.00  0.00     0.131 A 
ATOM     91  C   UNL     1     -11.544  14.234   2.484  1.00  0.00     0.055 A 
ATOM     92  C   UNL     1     -12.570  12.074   2.232  1.00  0.00     0.041 A 
ATOM     93  F   UNL     1     -11.292  10.254   1.504  1.00  0.00    -0.206 F 
ATOM     94  C   UNL     1     -12.669  13.414   2.595  1.00  0.00     0.022 A 
BRANCH  91  95
ATOM     95  S   UNL     1     -11.604  15.940   3.099  1.00  0.00     0.124 S 
ATOM     96  O   UNL     1     -10.559  15.931   4.118  1.00  0.00    -0.237 OA
ATOM     97  O   UNL     1     -11.316  16.716   1.897  1.00  0.00    -0.237 OA
ATOM     98  O   UNL     1     -12.967  16.073   3.610  1.00  0.00    -0.744 OA
ENDBRANCH  91  95
ENDBRANCH  65  88
ENDBRANCH  39  40
ENDBRANCH  32  34
ENDBRANCH  31  32
ENDBRANCH  30  31
ENDBRANCH  29  30
ENDBRANCH  28  29
ENDBRANCH  27  28
ENDBRANCH   1  27
TORSDOF 23
