REMARK SMILES CC[N@@H+]1CC[C@H](C[NH2+]Cc2cc(C(=O)OCCOCCOCCOC(=O)c3ccc(-c4c5nc(c(-c6cc(S(=O)(=O)[O-])ccc6F)c6ccc([nH]6)c(-c6cc(S(=O)(=O)[O-])ccc6F)c6nc(c(-c7cc(S(=O)(=O)[O-])ccc7F)c7ccc4[nH]7)C=C6)C=C5)cc3)cs2)C1
REMARK SMILES IDX 19 1 18 2 17 3 16 4 15 5 13 6 14 7 12 8 10 9 11 10 91 11
REMARK SMILES IDX 90 12 9 13 8 14 7 17 6 18 3 19 4 20 92 21 5 23 2 24 1 25
REMARK SMILES IDX 20 26 21 27 22 28 23 29 24 30 25 31 26 32 27 33 28 34 89 35
REMARK SMILES IDX 29 36 88 37 30 38 31 39 32 40 82 41 33 42 87 43 81 44 83 45
REMARK SMILES IDX 34 46 86 47 80 48 79 49 35 51 67 52 47 53 66 54 48 55 51 56
REMARK SMILES IDX 65 57 84 58 49 59 50 60 64 62 85 63 52 64 36 65 37 66 45 67
REMARK SMILES IDX 38 68 44 69 46 70 43 71 39 72 40 73 41 74 42 75 68 76 69 77
REMARK SMILES IDX 77 78 70 79 76 80 78 81 75 82 71 83 72 84 73 85 74 86 53 87
REMARK SMILES IDX 54 88 62 89 55 90 61 91 63 92 60 93 56 94 57 95 58 96 59 97
REMARK H PARENT 8 15 8 16 3 22 83 50 51 61
REMARK Flexibility Score: inf
ROOT
ATOM      1  C   UNL     1      -0.661  -1.188   7.957  1.00  0.00     0.188 C 
ENDROOT
BRANCH   1   2
ATOM      2  O   UNL     1      -1.981  -1.144   8.491  1.00  0.00    -0.376 OA
BRANCH   2   3
ATOM      3  C   UNL     1      -2.871  -2.227   8.258  1.00  0.00     0.202 C 
BRANCH   3   4
ATOM      4  C   UNL     1      -3.326  -2.439   6.813  1.00  0.00     0.261 C 
BRANCH   4   5
ATOM      5  O   UNL     1      -2.237  -2.818   5.956  1.00  0.00    -0.460 OA
BRANCH   5   6
ATOM      6  C   UNL     1      -2.009  -1.990   4.896  1.00  0.00     0.339 C 
ATOM      7  O   UNL     1      -2.774  -1.113   4.514  1.00  0.00    -0.246 OA
BRANCH   6   8
ATOM      8  C   UNL     1      -0.668  -2.158   4.354  1.00  0.00     0.071 A 
ATOM      9  C   UNL     1       1.261  -3.154   3.462  1.00  0.00     0.059 A 
ATOM     10  C   UNL     1      -0.016  -3.373   3.952  1.00  0.00     0.037 A 
ATOM     11  S   UNL     1       1.744  -1.526   3.717  1.00  0.00    -0.142 S 
ATOM     12  C   UNL     1       0.172  -1.072   4.187  1.00  0.00     0.081 A 
BRANCH   9  13
ATOM     13  C   UNL     1       2.200  -4.123   2.791  1.00  0.00     0.308 C 
BRANCH  13  14
ATOM     14  N   UNL     1       1.912  -4.262   1.353  1.00  0.00    -0.341 N 
ATOM     15  H   UNL     1       2.383  -5.096   1.001  1.00  0.00     0.346 HD
ATOM     16  H   UNL     1       0.901  -4.334   1.238  1.00  0.00     0.346 HD
BRANCH  14  17
ATOM     17  C   UNL     1       2.374  -3.096   0.585  1.00  0.00     0.270 C 
BRANCH  17  18
ATOM     18  C   UNL     1       1.860  -3.083  -0.861  1.00  0.00     0.105 C 
ATOM     19  N   UNL     1       1.027  -1.194  -2.135  1.00  0.00    -0.335 N 
ATOM     20  C   UNL     1       0.009  -2.242  -2.139  1.00  0.00     0.262 C 
ATOM     21  C   UNL     1       2.254  -1.787  -1.591  1.00  0.00     0.271 C 
ATOM     22  H   UNL     1       1.202  -0.877  -3.088  1.00  0.00     0.348 HD
ATOM     23  C   UNL     1       0.337  -3.141  -0.967  1.00  0.00     0.076 C 
BRANCH  19  24
ATOM     24  C   UNL     1       0.606   0.064  -1.504  1.00  0.00     0.258 C 
ATOM     25  C   UNL     1       0.531   0.132   0.019  1.00  0.00     0.071 C 
ENDBRANCH  19  24
ENDBRANCH  17  18
ENDBRANCH  14  17
ENDBRANCH  13  14
ENDBRANCH   9  13
ENDBRANCH   6   8
ENDBRANCH   5   6
ENDBRANCH   4   5
ENDBRANCH   3   4
ENDBRANCH   2   3
ENDBRANCH   1   2
BRANCH   1  26
ATOM     26  C   UNL     1       0.122  -2.515   7.973  1.00  0.00     0.188 C 
BRANCH  26  27
ATOM     27  O   UNL     1      -0.309  -3.424   8.979  1.00  0.00    -0.376 OA
BRANCH  27  28
ATOM     28  C   UNL     1       0.625  -3.681  10.017  1.00  0.00     0.202 C 
BRANCH  28  29
ATOM     29  C   UNL     1       0.640  -2.587  11.088  1.00  0.00     0.261 C 
BRANCH  29  30
ATOM     30  O   UNL     1       1.085  -1.301  10.628  1.00  0.00    -0.460 OA
BRANCH  30  31
ATOM     31  C   UNL     1       2.362  -1.221  10.188  1.00  0.00     0.338 C 
ATOM     32  O   UNL     1       3.173  -2.126  10.128  1.00  0.00    -0.246 OA
BRANCH  31  33
ATOM     33  C   UNL     1       2.572   0.136   9.645  1.00  0.00     0.060 A 
ATOM     34  C   UNL     1       3.090   0.280   8.353  1.00  0.00     0.016 A 
ATOM     35  C   UNL     1       2.274   1.259  10.422  1.00  0.00     0.016 A 
ATOM     36  C   UNL     1       3.345   1.557   7.847  1.00  0.00     0.010 A 
ATOM     37  C   UNL     1       2.541   2.533   9.919  1.00  0.00     0.010 A 
ATOM     38  C   UNL     1       3.104   2.688   8.641  1.00  0.00    -0.014 A 
BRANCH  38  39
ATOM     39  C   UNL     1       3.610   4.021   8.227  1.00  0.00     0.031 A 
ATOM     40  C   UNL     1       4.954   4.463   8.737  1.00  0.00     0.074 A 
ATOM     41  C   UNL     1       2.883   4.833   7.439  1.00  0.00     0.049 A 
ATOM     42  N   UNL     1       5.568   5.608   8.585  1.00  0.00    -0.248 NA
ATOM     43  C   UNL     1       5.700   3.478   9.535  1.00  0.00     0.031 C 
ATOM     44  C   UNL     1       1.581   4.508   6.861  1.00  0.00     0.029 A 
ATOM     45  N   UNL     1       3.136   6.111   7.005  1.00  0.00    -0.354 N 
ATOM     46  C   UNL     1       6.774   5.481   9.265  1.00  0.00     0.074 A 
ATOM     47  C   UNL     1       6.785   4.162   9.860  1.00  0.00     0.031 C 
ATOM     48  C   UNL     1       1.141   5.568   6.159  1.00  0.00     0.029 A 
ATOM     49  C   UNL     1       2.112   6.657   6.268  1.00  0.00     0.049 A 
ATOM     50  H   UNL     1       3.973   6.590   7.202  1.00  0.00     0.167 HD
ATOM     51  C   UNL     1       7.784   6.379   9.377  1.00  0.00     0.034 A 
ATOM     52  C   UNL     1       1.965   7.900   5.767  1.00  0.00     0.034 A 
ATOM     53  C   UNL     1       7.750   7.703   8.809  1.00  0.00     0.049 A 
ATOM     54  C   UNL     1       3.062   8.917   5.981  1.00  0.00     0.074 A 
ATOM     55  C   UNL     1       8.716   8.693   8.863  1.00  0.00     0.029 A 
ATOM     56  N   UNL     1       6.682   8.232   8.094  1.00  0.00    -0.354 N 
ATOM     57  N   UNL     1       4.203   8.783   6.617  1.00  0.00    -0.248 NA
ATOM     58  C   UNL     1       2.849  10.254   5.407  1.00  0.00     0.031 C 
ATOM     59  C   UNL     1       8.209   9.837   8.236  1.00  0.00     0.029 A 
ATOM     60  C   UNL     1       6.954   9.541   7.729  1.00  0.00     0.049 A 
ATOM     61  H   UNL     1       5.853   7.747   7.878  1.00  0.00     0.167 HD
ATOM     62  C   UNL     1       4.856  10.007   6.489  1.00  0.00     0.074 A 
ATOM     63  C   UNL     1       3.984  10.865   5.713  1.00  0.00     0.031 C 
ATOM     64  C   UNL     1       6.071  10.387   6.962  1.00  0.00     0.034 A 
BRANCH  51  65
ATOM     65  C   UNL     1       8.980   5.962  10.196  1.00  0.00     0.023 A 
ATOM     66  C   UNL     1       9.812   4.901   9.795  1.00  0.00     0.031 A 
ATOM     67  C   UNL     1       9.259   6.593  11.420  1.00  0.00     0.131 A 
ATOM     68  C   UNL     1      10.835   4.456  10.644  1.00  0.00     0.055 A 
ATOM     69  C   UNL     1      10.327   6.195  12.226  1.00  0.00     0.041 A 
ATOM     70  F   UNL     1       8.484   7.595  11.865  1.00  0.00    -0.206 F 
ATOM     71  C   UNL     1      11.113   5.109  11.847  1.00  0.00     0.022 A 
BRANCH  68  72
ATOM     72  S   UNL     1      11.701   2.918  10.226  1.00  0.00     0.124 S 
ATOM     73  O   UNL     1      10.598   1.961  10.177  1.00  0.00    -0.237 OA
ATOM     74  O   UNL     1      12.322   3.243   8.947  1.00  0.00    -0.237 OA
ATOM     75  O   UNL     1      12.628   2.732  11.340  1.00  0.00    -0.744 OA
ENDBRANCH  68  72
ENDBRANCH  51  65
BRANCH  52  76
ATOM     76  C   UNL     1       0.715   8.284   5.050  1.00  0.00     0.023 A 
ATOM     77  C   UNL     1       0.733   8.621   3.687  1.00  0.00     0.031 A 
ATOM     78  C   UNL     1      -0.507   8.380   5.739  1.00  0.00     0.131 A 
ATOM     79  C   UNL     1      -0.440   9.080   3.066  1.00  0.00     0.055 A 
ATOM     80  C   UNL     1      -1.680   8.793   5.106  1.00  0.00     0.041 A 
ATOM     81  F   UNL     1      -0.576   8.072   7.044  1.00  0.00    -0.206 F 
ATOM     82  C   UNL     1      -1.648   9.158   3.763  1.00  0.00     0.022 A 
BRANCH  79  83
ATOM     83  S   UNL     1      -0.346   9.650   1.347  1.00  0.00     0.124 S 
ATOM     84  O   UNL     1       0.625  10.734   1.445  1.00  0.00    -0.237 OA
ATOM     85  O   UNL     1       0.101   8.447   0.653  1.00  0.00    -0.237 OA
ATOM     86  O   UNL     1      -1.716  10.065   1.051  1.00  0.00    -0.744 OA
ENDBRANCH  79  83
ENDBRANCH  52  76
BRANCH  64  87
ATOM     87  C   UNL     1       6.548  11.773   6.603  1.00  0.00     0.023 A 
ATOM     88  C   UNL     1       5.950  12.927   7.139  1.00  0.00     0.031 A 
ATOM     89  C   UNL     1       7.621  11.936   5.709  1.00  0.00     0.131 A 
ATOM     90  C   UNL     1       6.400  14.195   6.740  1.00  0.00     0.055 A 
ATOM     91  C   UNL     1       8.097  13.199   5.355  1.00  0.00     0.041 A 
ATOM     92  F   UNL     1       8.228  10.867   5.169  1.00  0.00    -0.206 F 
ATOM     93  C   UNL     1       7.479  14.338   5.863  1.00  0.00     0.022 A 
BRANCH  90  94
ATOM     94  S   UNL     1       5.512  15.664   7.328  1.00  0.00     0.124 S 
ATOM     95  O   UNL     1       4.164  15.427   6.822  1.00  0.00    -0.237 OA
ATOM     96  O   UNL     1       5.675  15.569   8.775  1.00  0.00    -0.237 OA
ATOM     97  O   UNL     1       6.225  16.773   6.697  1.00  0.00    -0.744 OA
ENDBRANCH  90  94
ENDBRANCH  64  87
ENDBRANCH  38  39
ENDBRANCH  31  33
ENDBRANCH  30  31
ENDBRANCH  29  30
ENDBRANCH  28  29
ENDBRANCH  27  28
ENDBRANCH  26  27
ENDBRANCH   1  26
TORSDOF 25
