REMARK SMILES CCCC[C@@H](C(=O)OCCOCCOCCOC(=O)c1ccc(-c2c3nc(c(-c4cc(S(=O)(=O)[O-])ccc4F)c4ccc([nH]4)c(-c4cc(S(=O)(=O)[O-])ccc4F)c4nc(c(-c5cc(S(=O)(=O)[O-])ccc5F)c5ccc2[nH]5)C=C4)C=C3)cc1)[C@H](O)c1ccc(OC)c(O)c1
REMARK SMILES IDX 12 1 11 2 10 3 9 4 8 5 6 6 7 7 5 8 4 9 3 10 2 11 1 12 83 13
REMARK SMILES IDX 85 14 86 15 93 16 87 17 91 18 88 19 92 20 89 22 90 23 84 24
REMARK SMILES IDX 13 26 14 27 15 28 16 29 17 30 18 31 19 32 20 33 21 34 82 35
REMARK SMILES IDX 22 36 81 37 23 38 24 39 25 40 75 41 26 42 80 43 74 44 76 45
REMARK SMILES IDX 27 46 79 47 73 48 72 49 28 51 60 52 40 53 59 54 41 55 44 56
REMARK SMILES IDX 58 57 77 58 42 59 43 60 57 62 78 63 45 64 29 65 30 66 38 67
REMARK SMILES IDX 31 68 37 69 39 70 36 71 32 72 33 73 34 74 35 75 61 76 62 77
REMARK SMILES IDX 70 78 63 79 69 80 71 81 68 82 64 83 65 84 66 85 67 86 46 87
REMARK SMILES IDX 47 88 55 89 48 90 54 91 56 92 53 93 49 94 50 95 51 96 52 97
REMARK H PARENT 92 21 84 25 76 50 44 61
REMARK Flexibility Score: inf
ROOT
ATOM      1  C   UNL     1      -1.008   1.338   6.792  1.00  0.00     0.188 C 
ENDROOT
BRANCH   1   2
ATOM      2  O   UNL     1       0.196   1.173   7.534  1.00  0.00    -0.376 OA
BRANCH   2   3
ATOM      3  C   UNL     1       1.290   2.009   7.161  1.00  0.00     0.202 C 
BRANCH   3   4
ATOM      4  C   UNL     1       1.803   1.869   5.716  1.00  0.00     0.261 C 
BRANCH   4   5
ATOM      5  O   UNL     1       0.786   2.038   4.702  1.00  0.00    -0.463 OA
BRANCH   5   6
ATOM      6  C   UNL     1       0.618   1.021   3.812  1.00  0.00     0.312 C 
ATOM      7  O   UNL     1       1.320   0.014   3.776  1.00  0.00    -0.252 OA
BRANCH   6   8
ATOM      8  C   UNL     1      -0.601   1.177   2.892  1.00  0.00     0.132 C 
BRANCH   8   9
ATOM      9  C   UNL     1      -1.201   2.585   2.838  1.00  0.00     0.018 C 
BRANCH   9  10
ATOM     10  C   UNL     1      -0.279   3.754   2.463  1.00  0.00     0.001 C 
BRANCH  10  11
ATOM     11  C   UNL     1       0.558   3.566   1.198  1.00  0.00    -0.003 C 
ATOM     12  C   UNL     1      -0.272   3.326  -0.054  1.00  0.00     0.004 C 
ENDBRANCH  10  11
ENDBRANCH   9  10
ENDBRANCH   8   9
BRANCH   8  13
ATOM     13  C   UNL     1      -1.563  -0.022   3.237  1.00  0.00     0.159 C 
BRANCH  13  14
ATOM     14  C   UNL     1      -3.095  -0.031   3.203  1.00  0.00    -0.015 A 
ATOM     15  C   UNL     1      -3.936   1.081   3.142  1.00  0.00     0.010 A 
ATOM     16  C   UNL     1      -3.748  -1.285   3.329  1.00  0.00     0.056 A 
ATOM     17  C   UNL     1      -5.334   0.950   3.137  1.00  0.00     0.051 A 
ATOM     18  C   UNL     1      -5.149  -1.418   3.350  1.00  0.00     0.158 A 
ATOM     19  C   UNL     1      -5.959  -0.292   3.255  1.00  0.00     0.160 A 
BRANCH  18  20
ATOM     20  O   UNL     1      -5.694  -2.664   3.463  1.00  0.00    -0.504 OA
ATOM     21  H   UNL     1      -6.625  -2.769   3.479  1.00  0.00     0.293 HD
ENDBRANCH  18  20
BRANCH  19  22
ATOM     22  O   UNL     1      -7.322  -0.199   3.289  1.00  0.00    -0.493 OA
ATOM     23  C   UNL     1      -8.076  -1.367   3.594  1.00  0.00     0.278 C 
ENDBRANCH  19  22
ENDBRANCH  13  14
BRANCH  13  24
ATOM     24  O   UNL     1      -1.154  -1.096   2.357  1.00  0.00    -0.388 OA
ATOM     25  H   UNL     1      -1.372  -0.864   1.441  1.00  0.00     0.211 HD
ENDBRANCH  13  24
ENDBRANCH   8  13
ENDBRANCH   6   8
ENDBRANCH   5   6
ENDBRANCH   4   5
ENDBRANCH   3   4
ENDBRANCH   2   3
ENDBRANCH   1   2
BRANCH   1  26
ATOM     26  C   UNL     1      -1.634   2.730   6.819  1.00  0.00     0.188 C 
BRANCH  26  27
ATOM     27  O   UNL     1      -0.733   3.812   6.639  1.00  0.00    -0.376 OA
BRANCH  27  28
ATOM     28  C   UNL     1      -1.248   5.119   6.906  1.00  0.00     0.202 C 
BRANCH  28  29
ATOM     29  C   UNL     1      -1.939   5.358   8.273  1.00  0.00     0.261 C 
BRANCH  29  30
ATOM     30  O   UNL     1      -3.065   4.510   8.599  1.00  0.00    -0.460 OA
BRANCH  30  31
ATOM     31  C   UNL     1      -4.069   4.448   7.693  1.00  0.00     0.338 C 
ATOM     32  O   UNL     1      -4.211   5.206   6.745  1.00  0.00    -0.246 OA
BRANCH  31  33
ATOM     33  C   UNL     1      -4.798   3.153   7.835  1.00  0.00     0.060 A 
ATOM     34  C   UNL     1      -5.088   2.457   6.657  1.00  0.00     0.016 A 
ATOM     35  C   UNL     1      -5.168   2.594   9.064  1.00  0.00     0.016 A 
ATOM     36  C   UNL     1      -5.786   1.250   6.697  1.00  0.00     0.010 A 
ATOM     37  C   UNL     1      -5.894   1.384   9.098  1.00  0.00     0.010 A 
ATOM     38  C   UNL     1      -6.243   0.720   7.906  1.00  0.00    -0.014 A 
BRANCH  38  39
ATOM     39  C   UNL     1      -7.273  -0.363   7.839  1.00  0.00     0.031 A 
ATOM     40  C   UNL     1      -8.725   0.028   7.983  1.00  0.00     0.074 A 
ATOM     41  C   UNL     1      -6.971  -1.629   7.486  1.00  0.00     0.049 A 
ATOM     42  N   UNL     1      -9.805  -0.707   7.896  1.00  0.00    -0.248 NA
ATOM     43  C   UNL     1      -8.988   1.448   8.255  1.00  0.00     0.031 C 
ATOM     44  C   UNL     1      -5.628  -2.125   7.194  1.00  0.00     0.029 A 
ATOM     45  N   UNL     1      -7.783  -2.721   7.266  1.00  0.00    -0.354 N 
ATOM     46  C   UNL     1     -10.873   0.157   8.121  1.00  0.00     0.074 A 
ATOM     47  C   UNL     1     -10.305   1.464   8.376  1.00  0.00     0.031 C 
ATOM     48  C   UNL     1      -5.711  -3.409   6.803  1.00  0.00     0.029 A 
ATOM     49  C   UNL     1      -7.107  -3.847   6.848  1.00  0.00     0.049 A 
ATOM     50  H   UNL     1      -8.758  -2.698   7.396  1.00  0.00     0.167 HD
ATOM     51  C   UNL     1     -12.204  -0.105   8.114  1.00  0.00     0.034 A 
ATOM     52  C   UNL     1      -7.555  -5.085   6.541  1.00  0.00     0.034 A 
ATOM     53  C   UNL     1     -12.772  -1.407   7.852  1.00  0.00     0.049 A 
ATOM     54  C   UNL     1      -9.040  -5.377   6.623  1.00  0.00     0.074 A 
ATOM     55  C   UNL     1     -14.105  -1.781   7.856  1.00  0.00     0.029 A 
ATOM     56  N   UNL     1     -12.045  -2.548   7.540  1.00  0.00    -0.354 N 
ATOM     57  N   UNL     1     -10.033  -4.561   6.895  1.00  0.00    -0.248 NA
ATOM     58  C   UNL     1      -9.460  -6.759   6.353  1.00  0.00     0.031 C 
ATOM     59  C   UNL     1     -14.178  -3.159   7.630  1.00  0.00     0.029 A 
ATOM     60  C   UNL     1     -12.900  -3.631   7.383  1.00  0.00     0.049 A 
ATOM     61  H   UNL     1     -11.066  -2.584   7.444  1.00  0.00     0.167 HD
ATOM     62  C   UNL     1     -11.195  -5.329   6.800  1.00  0.00     0.074 A 
ATOM     63  C   UNL     1     -10.780  -6.661   6.416  1.00  0.00     0.031 C 
ATOM     64  C   UNL     1     -12.487  -4.965   7.013  1.00  0.00     0.034 A 
BRANCH  51  65
ATOM     65  C   UNL     1     -13.133   1.028   8.488  1.00  0.00     0.023 A 
ATOM     66  C   UNL     1     -13.247   2.195   7.711  1.00  0.00     0.031 A 
ATOM     67  C   UNL     1     -13.884   0.953   9.675  1.00  0.00     0.131 A 
ATOM     68  C   UNL     1     -14.030   3.266   8.171  1.00  0.00     0.055 A 
ATOM     69  C   UNL     1     -14.733   1.984  10.079  1.00  0.00     0.041 A 
ATOM     70  F   UNL     1     -13.795  -0.123  10.473  1.00  0.00    -0.206 F 
ATOM     71  C   UNL     1     -14.797   3.157   9.333  1.00  0.00     0.022 A 
BRANCH  68  72
ATOM     72  S   UNL     1     -13.907   4.863   7.318  1.00  0.00     0.124 S 
ATOM     73  O   UNL     1     -12.477   5.144   7.424  1.00  0.00    -0.237 OA
ATOM     74  O   UNL     1     -14.400   4.548   5.983  1.00  0.00    -0.237 OA
ATOM     75  O   UNL     1     -14.766   5.741   8.110  1.00  0.00    -0.744 OA
ENDBRANCH  68  72
ENDBRANCH  51  65
BRANCH  52  76
ATOM     76  C   UNL     1      -6.600  -6.181   6.176  1.00  0.00     0.023 A 
ATOM     77  C   UNL     1      -6.691  -6.867   4.951  1.00  0.00     0.031 A 
ATOM     78  C   UNL     1      -5.633  -6.623   7.098  1.00  0.00     0.131 A 
ATOM     79  C   UNL     1      -5.870  -7.982   4.706  1.00  0.00     0.055 A 
ATOM     80  C   UNL     1      -4.773  -7.688   6.821  1.00  0.00     0.041 A 
ATOM     81  F   UNL     1      -5.509  -6.023   8.292  1.00  0.00    -0.206 F 
ATOM     82  C   UNL     1      -4.899  -8.384   5.625  1.00  0.00     0.022 A 
BRANCH  79  83
ATOM     83  S   UNL     1      -6.157  -8.975   3.212  1.00  0.00     0.124 S 
ATOM     84  O   UNL     1      -7.548  -9.376   3.385  1.00  0.00    -0.237 OA
ATOM     85  O   UNL     1      -5.891  -8.006   2.154  1.00  0.00    -0.237 OA
ATOM     86  O   UNL     1      -5.176 -10.052   3.327  1.00  0.00    -0.744 OA
ENDBRANCH  79  83
ENDBRANCH  52  76
BRANCH  64  87
ATOM     87  C   UNL     1     -13.554  -6.017   6.786  1.00  0.00     0.023 A 
ATOM     88  C   UNL     1     -13.613  -7.198   7.549  1.00  0.00     0.031 A 
ATOM     89  C   UNL     1     -14.510  -5.849   5.767  1.00  0.00     0.131 A 
ATOM     90  C   UNL     1     -14.548  -8.196   7.229  1.00  0.00     0.055 A 
ATOM     91  C   UNL     1     -15.488  -6.811   5.505  1.00  0.00     0.041 A 
ATOM     92  F   UNL     1     -14.509  -4.746   5.002  1.00  0.00    -0.206 F 
ATOM     93  C   UNL     1     -15.498  -8.002   6.224  1.00  0.00     0.022 A 
BRANCH  90  94
ATOM     94  S   UNL     1     -14.418  -9.809   8.051  1.00  0.00     0.124 S 
ATOM     95  O   UNL     1     -13.035 -10.181   7.771  1.00  0.00    -0.237 OA
ATOM     96  O   UNL     1     -14.721  -9.476   9.439  1.00  0.00    -0.237 OA
ATOM     97  O   UNL     1     -15.427 -10.622   7.374  1.00  0.00    -0.744 OA
ENDBRANCH  90  94
ENDBRANCH  64  87
ENDBRANCH  38  39
ENDBRANCH  31  33
ENDBRANCH  30  31
ENDBRANCH  29  30
ENDBRANCH  28  29
ENDBRANCH  27  28
ENDBRANCH  26  27
ENDBRANCH   1  26
TORSDOF 28
