REMARK SMILES Cc1ccccc1NC(=O)CSc1nc(C(=O)OCCOCCOCCOC(=O)c2ccc(-c3c4nc(c(-c5cc(S(=O)(=O)[O-])ccc5F)c5ccc([nH]5)c(-c5cc(S(=O)(=O)[O-])ccc5F)c5nc(c(-c6cc(S(=O)(=O)[O-])ccc6F)c6ccc3[nH]6)C=C5)C=C4)cc2)c2ccccc2n1
REMARK SMILES IDX 22 1 21 2 20 3 19 4 18 5 16 6 17 7 15 8 13 9 14 10 99 11
REMARK SMILES IDX 98 12 93 13 97 14 94 15 96 16 95 17 12 18 11 19 9 20 8 21
REMARK SMILES IDX 10 23 7 24 1 25 2 26 3 27 4 28 6 29 5 30 23 31 24 32 25 33
REMARK SMILES IDX 26 34 27 35 28 36 29 37 30 38 31 39 92 40 32 41 91 42 33 43
REMARK SMILES IDX 34 44 35 45 85 46 36 47 90 48 84 49 86 50 37 51 89 52 83 53
REMARK SMILES IDX 82 54 38 56 70 57 50 58 69 59 51 60 54 61 68 62 87 63 52 64
REMARK SMILES IDX 53 65 67 67 88 68 55 69 39 70 40 71 48 72 41 73 47 74 49 75
REMARK SMILES IDX 46 76 42 77 43 78 44 79 45 80 71 81 72 82 80 83 73 84 79 85
REMARK SMILES IDX 81 86 78 87 74 88 75 89 76 90 77 91 56 92 57 93 65 94 58 95
REMARK SMILES IDX 64 96 66 97 63 98 59 99 60 100 61 101 62 102
REMARK H PARENT 8 22 86 55 54 66
REMARK Flexibility Score: inf
ROOT
ATOM      1  C   UNL     1      -4.055  10.305  -6.176  1.00  0.00     0.188 C 
ENDROOT
BRANCH   1   2
ATOM      2  O   UNL     1      -3.385  10.121  -7.452  1.00  0.00    -0.376 OA
BRANCH   2   3
ATOM      3  C   UNL     1      -2.043   9.581  -7.458  1.00  0.00     0.202 C 
BRANCH   3   4
ATOM      4  C   UNL     1      -1.872   8.080  -8.184  1.00  0.00     0.261 C 
BRANCH   4   5
ATOM      5  O   UNL     1      -1.884   6.671  -7.450  1.00  0.00    -0.458 OA
BRANCH   5   6
ATOM      6  C   UNL     1      -0.996   5.962  -6.648  1.00  0.00     0.357 C 
ATOM      7  O   UNL     1       0.188   6.219  -6.485  1.00  0.00    -0.244 OA
BRANCH   6   8
ATOM      8  C   UNL     1      -1.325   4.590  -6.106  1.00  0.00     0.160 A 
ATOM      9  C   UNL     1      -1.277   3.226  -4.221  1.00  0.00     0.189 A 
ATOM     10  N   UNL     1      -1.588   4.424  -4.761  1.00  0.00    -0.215 NA
ATOM     11  N   UNL     1      -0.754   2.207  -4.926  1.00  0.00    -0.222 NA
ATOM     12  C   UNL     1      -0.468   2.404  -6.216  1.00  0.00     0.076 A 
ATOM     13  C   UNL     1      -0.744   3.593  -6.886  1.00  0.00     0.034 A 
ATOM     14  C   UNL     1       0.188   1.403  -6.918  1.00  0.00     0.029 A 
ATOM     15  C   UNL     1      -0.316   3.778  -8.224  1.00  0.00     0.013 A 
ATOM     16  C   UNL     1       0.618   1.585  -8.238  1.00  0.00     0.002 A 
ATOM     17  C   UNL     1       0.378   2.784  -8.889  1.00  0.00     0.001 A 
BRANCH   9  18
ATOM     18  S   UNL     1      -1.887   2.684  -2.622  1.00  0.00    -0.076 SA
BRANCH  18  19
ATOM     19  C   UNL     1      -1.180   3.787  -1.363  1.00  0.00     0.178 C 
BRANCH  19  20
ATOM     20  C   UNL     1       0.221   3.490  -0.857  1.00  0.00     0.234 C 
ATOM     21  N   UNL     1       0.667   2.331  -0.297  1.00  0.00    -0.325 N 
ATOM     22  H   UNL     1       1.608   2.393  -0.013  1.00  0.00     0.169 HD
ATOM     23  O   UNL     1       1.065   4.397  -0.895  1.00  0.00    -0.274 OA
BRANCH  21  24
ATOM     24  C   UNL     1       0.115   1.068  -0.026  1.00  0.00     0.044 A 
ATOM     25  C   UNL     1       2.466  -0.018  -0.162  1.00  0.00     0.046 C 
ATOM     26  C   UNL     1       0.968  -0.063   0.004  1.00  0.00    -0.027 A 
ATOM     27  C   UNL     1       0.403  -1.348   0.137  1.00  0.00     0.005 A 
ATOM     28  C   UNL     1      -0.967  -1.514   0.312  1.00  0.00     0.000 A 
ATOM     29  C   UNL     1      -1.245   0.887   0.232  1.00  0.00     0.026 A 
ATOM     30  C   UNL     1      -1.784  -0.394   0.397  1.00  0.00     0.002 A 
ENDBRANCH  21  24
ENDBRANCH  19  20
ENDBRANCH  18  19
ENDBRANCH   9  18
ENDBRANCH   6   8
ENDBRANCH   5   6
ENDBRANCH   4   5
ENDBRANCH   3   4
ENDBRANCH   2   3
ENDBRANCH   1   2
BRANCH   1  31
ATOM     31  C   UNL     1      -5.479   9.708  -6.230  1.00  0.00     0.188 C 
BRANCH  31  32
ATOM     32  O   UNL     1      -5.473   8.665  -7.208  1.00  0.00    -0.376 OA
BRANCH  32  33
ATOM     33  C   UNL     1      -6.728   8.120  -7.571  1.00  0.00     0.202 C 
BRANCH  33  34
ATOM     34  C   UNL     1      -7.334   7.133  -6.551  1.00  0.00     0.261 C 
BRANCH  34  35
ATOM     35  O   UNL     1      -6.454   6.010  -6.291  1.00  0.00    -0.460 OA
BRANCH  35  36
ATOM     36  C   UNL     1      -6.158   5.752  -4.971  1.00  0.00     0.338 C 
ATOM     37  O   UNL     1      -6.929   5.184  -4.209  1.00  0.00    -0.246 OA
BRANCH  36  38
ATOM     38  C   UNL     1      -4.755   6.170  -4.633  1.00  0.00     0.060 A 
ATOM     39  C   UNL     1      -4.110   6.166  -3.387  1.00  0.00     0.016 A 
ATOM     40  C   UNL     1      -4.050   6.754  -5.630  1.00  0.00     0.016 A 
ATOM     41  C   UNL     1      -2.809   6.816  -3.179  1.00  0.00     0.010 A 
ATOM     42  C   UNL     1      -2.918   7.501  -5.317  1.00  0.00     0.010 A 
ATOM     43  C   UNL     1      -2.153   7.531  -4.183  1.00  0.00    -0.014 A 
BRANCH  43  44
ATOM     44  C   UNL     1      -0.974   8.517  -4.168  1.00  0.00     0.031 A 
ATOM     45  C   UNL     1       0.428   8.482  -4.829  1.00  0.00     0.074 A 
ATOM     46  C   UNL     1      -1.239   9.720  -3.618  1.00  0.00     0.049 A 
ATOM     47  N   UNL     1       1.590   8.528  -4.226  1.00  0.00    -0.248 NA
ATOM     48  C   UNL     1       0.647   8.561  -6.277  1.00  0.00     0.031 C 
ATOM     49  C   UNL     1      -0.339  10.858  -3.466  1.00  0.00     0.029 A 
ATOM     50  N   UNL     1      -2.325  10.019  -2.808  1.00  0.00    -0.354 N 
ATOM     51  C   UNL     1       2.591   8.640  -5.211  1.00  0.00     0.074 A 
ATOM     52  C   UNL     1       1.955   8.441  -6.461  1.00  0.00     0.031 C 
ATOM     53  C   UNL     1      -0.707  11.511  -2.349  1.00  0.00     0.029 A 
ATOM     54  C   UNL     1      -1.807  10.770  -1.746  1.00  0.00     0.049 A 
ATOM     55  H   UNL     1      -3.264   9.757  -2.950  1.00  0.00     0.167 HD
ATOM     56  C   UNL     1       3.842   9.167  -5.061  1.00  0.00     0.034 A 
ATOM     57  C   UNL     1      -1.846  10.208  -0.504  1.00  0.00     0.034 A 
ATOM     58  C   UNL     1       3.890   9.914  -3.835  1.00  0.00     0.049 A 
ATOM     59  C   UNL     1      -0.454   9.919   0.034  1.00  0.00     0.074 A 
ATOM     60  C   UNL     1       3.671  11.255  -3.572  1.00  0.00     0.029 A 
ATOM     61  N   UNL     1       3.724   9.232  -2.648  1.00  0.00    -0.354 N 
ATOM     62  N   UNL     1       0.656  10.017  -0.655  1.00  0.00    -0.248 NA
ATOM     63  C   UNL     1      -0.210   9.516   1.413  1.00  0.00     0.031 C 
ATOM     64  C   UNL     1       3.218  11.349  -2.228  1.00  0.00     0.029 A 
ATOM     65  C   UNL     1       3.256  10.084  -1.669  1.00  0.00     0.049 A 
ATOM     66  H   UNL     1       3.912   8.275  -2.518  1.00  0.00     0.167 HD
ATOM     67  C   UNL     1       1.725   9.644   0.128  1.00  0.00     0.074 A 
ATOM     68  C   UNL     1       1.128   9.397   1.428  1.00  0.00     0.031 C 
ATOM     69  C   UNL     1       3.008   9.546  -0.344  1.00  0.00     0.034 A 
BRANCH  56  70
ATOM     70  C   UNL     1       4.812   9.298  -6.233  1.00  0.00     0.023 A 
ATOM     71  C   UNL     1       5.588  10.454  -6.453  1.00  0.00     0.031 A 
ATOM     72  C   UNL     1       4.978   8.264  -7.188  1.00  0.00     0.131 A 
ATOM     73  C   UNL     1       6.370  10.594  -7.626  1.00  0.00     0.055 A 
ATOM     74  C   UNL     1       5.702   8.428  -8.379  1.00  0.00     0.041 A 
ATOM     75  F   UNL     1       4.410   7.061  -7.003  1.00  0.00    -0.206 F 
ATOM     76  C   UNL     1       6.386   9.610  -8.615  1.00  0.00     0.022 A 
BRANCH  73  77
ATOM     77  S   UNL     1       7.402  12.076  -7.851  1.00  0.00     0.124 S 
ATOM     78  O   UNL     1       6.424  13.155  -7.774  1.00  0.00    -0.237 OA
ATOM     79  O   UNL     1       8.339  11.970  -6.738  1.00  0.00    -0.237 OA
ATOM     80  O   UNL     1       7.999  11.883  -9.174  1.00  0.00    -0.744 OA
ENDBRANCH  73  77
ENDBRANCH  56  70
BRANCH  57  81
ATOM     81  C   UNL     1      -3.127   9.446  -0.251  1.00  0.00     0.023 A 
ATOM     82  C   UNL     1      -4.339  10.081  -0.642  1.00  0.00     0.031 A 
ATOM     83  C   UNL     1      -3.207   8.080   0.039  1.00  0.00     0.131 A 
ATOM     84  C   UNL     1      -5.501   9.342  -0.915  1.00  0.00     0.055 A 
ATOM     85  C   UNL     1      -4.404   7.357  -0.139  1.00  0.00     0.041 A 
ATOM     86  F   UNL     1      -2.112   7.381   0.370  1.00  0.00    -0.206 F 
ATOM     87  C   UNL     1      -5.541   7.974  -0.666  1.00  0.00     0.022 A 
BRANCH  84  88
ATOM     88  S   UNL     1      -6.856  10.127  -1.847  1.00  0.00     0.124 S 
ATOM     89  O   UNL     1      -7.782  10.498  -0.783  1.00  0.00    -0.237 OA
ATOM     90  O   UNL     1      -6.192  11.236  -2.531  1.00  0.00    -0.237 OA
ATOM     91  O   UNL     1      -7.310   9.066  -2.744  1.00  0.00    -0.744 OA
ENDBRANCH  84  88
ENDBRANCH  57  81
BRANCH  69  92
ATOM     92  C   UNL     1       4.193   8.949   0.396  1.00  0.00     0.023 A 
ATOM     93  C   UNL     1       4.055   8.129   1.519  1.00  0.00     0.031 A 
ATOM     94  C   UNL     1       5.526   9.134  -0.062  1.00  0.00     0.131 A 
ATOM     95  C   UNL     1       5.179   7.641   2.204  1.00  0.00     0.055 A 
ATOM     96  C   UNL     1       6.634   8.533   0.542  1.00  0.00     0.041 A 
ATOM     97  F   UNL     1       5.817   9.912  -1.115  1.00  0.00    -0.206 F 
ATOM     98  C   UNL     1       6.468   7.802   1.704  1.00  0.00     0.022 A 
BRANCH  95  99
ATOM     99  S   UNL     1       4.918   6.941   3.852  1.00  0.00     0.124 S 
ATOM    100  O   UNL     1       4.244   8.040   4.539  1.00  0.00    -0.237 OA
ATOM    101  O   UNL     1       4.097   5.768   3.574  1.00  0.00    -0.237 OA
ATOM    102  O   UNL     1       6.272   6.658   4.323  1.00  0.00    -0.744 OA
ENDBRANCH  95  99
ENDBRANCH  69  92
ENDBRANCH  43  44
ENDBRANCH  36  38
ENDBRANCH  35  36
ENDBRANCH  34  35
ENDBRANCH  33  34
ENDBRANCH  32  33
ENDBRANCH  31  32
ENDBRANCH   1  31
TORSDOF 24
