REMARK SMILES C[C@@H](C(=O)OCCOCCOCCOC(=O)c1ccc(-c2c3nc(c(-c4cc(S(=O)(=O)[O-])ccc4F)c4ccc([nH]4)c(-c4cc(S(=O)(=O)[O-])ccc4F)c4nc(c(-c5cc(S(=O)(=O)[O-])ccc5F)c5ccc2[nH]5)C=C4)C=C3)cc1)c1cccc(C(=O)c2ccccc2)c1
REMARK SMILES IDX 9 1 8 2 7 3 6 4 5 5 3 6 4 7 2 8 1 9 80 10 81 11 93 12 82 13
REMARK SMILES IDX 84 14 83 15 85 16 86 17 87 18 88 19 92 20 89 21 91 22 90 23
REMARK SMILES IDX 10 24 11 25 12 26 13 27 14 28 15 29 16 30 17 31 18 32 79 33
REMARK SMILES IDX 19 34 78 35 20 36 21 37 22 38 72 39 23 40 77 41 71 42 73 43
REMARK SMILES IDX 24 44 76 45 70 46 69 47 25 49 57 50 37 51 56 52 38 53 41 54
REMARK SMILES IDX 55 55 74 56 39 57 40 58 54 60 75 61 42 62 26 63 27 64 35 65
REMARK SMILES IDX 28 66 34 67 36 68 33 69 29 70 30 71 31 72 32 73 58 74 59 75
REMARK SMILES IDX 67 76 60 77 66 78 68 79 65 80 61 81 62 82 63 83 64 84 43 85
REMARK SMILES IDX 44 86 52 87 45 88 51 89 53 90 50 91 46 92 47 93 48 94 49 95
REMARK H PARENT 73 48 41 59
REMARK Flexibility Score: inf
ROOT
ATOM      1  C   UNL     1       0.423   3.588  -1.571  1.00  0.00     0.188 C 
ENDROOT
BRANCH   1   2
ATOM      2  O   UNL     1       1.149   4.814  -1.572  1.00  0.00    -0.376 OA
BRANCH   2   3
ATOM      3  C   UNL     1       2.425   4.853  -0.938  1.00  0.00     0.202 C 
BRANCH   3   4
ATOM      4  C   UNL     1       2.578   4.264   0.476  1.00  0.00     0.261 C 
BRANCH   4   5
ATOM      5  O   UNL     1       2.108   2.907   0.612  1.00  0.00    -0.463 OA
BRANCH   5   6
ATOM      6  C   UNL     1       1.381   2.617   1.724  1.00  0.00     0.313 C 
ATOM      7  O   UNL     1       1.215   3.406   2.650  1.00  0.00    -0.252 OA
BRANCH   6   8
ATOM      8  C   UNL     1       0.729   1.224   1.700  1.00  0.00     0.126 C 
ATOM      9  C   UNL     1       1.531   0.155   0.933  1.00  0.00     0.025 C 
BRANCH   8  10
ATOM     10  C   UNL     1      -0.781   1.211   1.407  1.00  0.00    -0.033 A 
ATOM     11  C   UNL     1      -1.568   2.373   1.438  1.00  0.00     0.004 A 
ATOM     12  C   UNL     1      -1.454  -0.016   1.225  1.00  0.00     0.016 A 
ATOM     13  C   UNL     1      -2.959   2.315   1.294  1.00  0.00     0.001 A 
ATOM     14  C   UNL     1      -2.857  -0.093   1.147  1.00  0.00     0.023 A 
ATOM     15  C   UNL     1      -3.603   1.087   1.161  1.00  0.00     0.012 A 
BRANCH  14  16
ATOM     16  C   UNL     1      -3.596  -1.389   1.051  1.00  0.00     0.193 C 
ATOM     17  O   UNL     1      -4.801  -1.396   0.819  1.00  0.00    -0.289 OA
BRANCH  16  18
ATOM     18  C   UNL     1      -2.916  -2.697   1.187  1.00  0.00     0.022 A 
ATOM     19  C   UNL     1      -3.189  -3.681   0.232  1.00  0.00     0.012 A 
ATOM     20  C   UNL     1      -2.030  -2.966   2.236  1.00  0.00     0.012 A 
ATOM     21  C   UNL     1      -2.522  -4.904   0.283  1.00  0.00     0.001 A 
ATOM     22  C   UNL     1      -1.351  -4.185   2.275  1.00  0.00     0.001 A 
ATOM     23  C   UNL     1      -1.590  -5.147   1.293  1.00  0.00     0.000 A 
ENDBRANCH  16  18
ENDBRANCH  14  16
ENDBRANCH   8  10
ENDBRANCH   6   8
ENDBRANCH   5   6
ENDBRANCH   4   5
ENDBRANCH   3   4
ENDBRANCH   2   3
ENDBRANCH   1   2
BRANCH   1  24
ATOM     24  C   UNL     1       1.163   2.292  -1.942  1.00  0.00     0.188 C 
BRANCH  24  25
ATOM     25  O   UNL     1       2.530   2.465  -2.235  1.00  0.00    -0.376 OA
BRANCH  25  26
ATOM     26  C   UNL     1       2.962   2.274  -3.570  1.00  0.00     0.202 C 
BRANCH  26  27
ATOM     27  C   UNL     1       2.193   2.905  -4.747  1.00  0.00     0.261 C 
BRANCH  27  28
ATOM     28  O   UNL     1       0.758   2.882  -4.693  1.00  0.00    -0.460 OA
BRANCH  28  29
ATOM     29  C   UNL     1       0.145   1.701  -4.946  1.00  0.00     0.338 C 
ATOM     30  O   UNL     1       0.693   0.644  -5.218  1.00  0.00    -0.246 OA
BRANCH  29  31
ATOM     31  C   UNL     1      -1.286   1.856  -4.591  1.00  0.00     0.060 A 
ATOM     32  C   UNL     1      -1.828   1.070  -3.562  1.00  0.00     0.016 A 
ATOM     33  C   UNL     1      -2.083   2.796  -5.248  1.00  0.00     0.016 A 
ATOM     34  C   UNL     1      -3.172   1.207  -3.203  1.00  0.00     0.010 A 
ATOM     35  C   UNL     1      -3.434   2.913  -4.905  1.00  0.00     0.010 A 
ATOM     36  C   UNL     1      -3.994   2.101  -3.900  1.00  0.00    -0.014 A 
BRANCH  36  37
ATOM     37  C   UNL     1      -5.470   2.054  -3.725  1.00  0.00     0.031 A 
ATOM     38  C   UNL     1      -6.283   1.304  -4.747  1.00  0.00     0.074 A 
ATOM     39  C   UNL     1      -6.082   2.657  -2.689  1.00  0.00     0.049 A 
ATOM     40  N   UNL     1      -7.580   1.203  -4.872  1.00  0.00    -0.248 NA
ATOM     41  C   UNL     1      -5.520   0.578  -5.774  1.00  0.00     0.031 C 
ATOM     42  C   UNL     1      -5.406   3.364  -1.604  1.00  0.00     0.029 A 
ATOM     43  N   UNL     1      -7.417   2.776  -2.388  1.00  0.00    -0.354 N 
ATOM     44  C   UNL     1      -7.792   0.413  -5.997  1.00  0.00     0.074 A 
ATOM     45  C   UNL     1      -6.488   0.094  -6.537  1.00  0.00     0.031 C 
ATOM     46  C   UNL     1      -6.332   3.848  -0.757  1.00  0.00     0.029 A 
ATOM     47  C   UNL     1      -7.667   3.530  -1.265  1.00  0.00     0.049 A 
ATOM     48  H   UNL     1      -8.129   2.360  -2.926  1.00  0.00     0.167 HD
ATOM     49  C   UNL     1      -8.966  -0.009  -6.528  1.00  0.00     0.034 A 
ATOM     50  C   UNL     1      -8.836   3.942  -0.729  1.00  0.00     0.034 A 
ATOM     51  C   UNL     1     -10.259   0.324  -5.983  1.00  0.00     0.049 A 
ATOM     52  C   UNL     1     -10.134   3.546  -1.401  1.00  0.00     0.074 A 
ATOM     53  C   UNL     1     -11.508  -0.066  -6.434  1.00  0.00     0.029 A 
ATOM     54  N   UNL     1     -10.474   1.135  -4.876  1.00  0.00    -0.354 N 
ATOM     55  N   UNL     1     -10.324   2.803  -2.468  1.00  0.00    -0.248 NA
ATOM     56  C   UNL     1     -11.376   4.045  -0.793  1.00  0.00     0.031 C 
ATOM     57  C   UNL     1     -12.476   0.581  -5.659  1.00  0.00     0.029 A 
ATOM     58  C   UNL     1     -11.835   1.294  -4.660  1.00  0.00     0.049 A 
ATOM     59  H   UNL     1      -9.764   1.539  -4.326  1.00  0.00     0.167 HD
ATOM     60  C   UNL     1     -11.707   2.713  -2.630  1.00  0.00     0.074 A 
ATOM     61  C   UNL     1     -12.300   3.470  -1.548  1.00  0.00     0.031 C 
ATOM     62  C   UNL     1     -12.420   2.058  -3.582  1.00  0.00     0.034 A 
BRANCH  49  63
ATOM     63  C   UNL     1      -8.901  -0.823  -7.799  1.00  0.00     0.023 A 
ATOM     64  C   UNL     1      -8.285  -2.086  -7.847  1.00  0.00     0.031 A 
ATOM     65  C   UNL     1      -9.447  -0.311  -8.991  1.00  0.00     0.131 A 
ATOM     66  C   UNL     1      -8.169  -2.761  -9.072  1.00  0.00     0.055 A 
ATOM     67  C   UNL     1      -9.404  -1.027 -10.188  1.00  0.00     0.041 A 
ATOM     68  F   UNL     1     -10.022   0.902  -9.014  1.00  0.00    -0.206 F 
ATOM     69  C   UNL     1      -8.750  -2.254 -10.236  1.00  0.00     0.022 A 
BRANCH  66  70
ATOM     70  S   UNL     1      -7.122  -4.240  -9.152  1.00  0.00     0.124 S 
ATOM     71  O   UNL     1      -5.835  -3.716  -8.698  1.00  0.00    -0.237 OA
ATOM     72  O   UNL     1      -7.796  -5.156  -8.241  1.00  0.00    -0.237 OA
ATOM     73  O   UNL     1      -7.167  -4.616 -10.564  1.00  0.00    -0.744 OA
ENDBRANCH  66  70
ENDBRANCH  49  63
BRANCH  50  74
ATOM     74  C   UNL     1      -8.856   4.823   0.478  1.00  0.00     0.023 A 
ATOM     75  C   UNL     1      -9.485   4.415   1.666  1.00  0.00     0.031 A 
ATOM     76  C   UNL     1      -8.316   6.121   0.435  1.00  0.00     0.131 A 
ATOM     77  C   UNL     1      -9.607   5.312   2.740  1.00  0.00     0.055 A 
ATOM     78  C   UNL     1      -8.382   6.987   1.528  1.00  0.00     0.041 A 
ATOM     79  F   UNL     1      -7.713   6.571  -0.677  1.00  0.00    -0.206 F 
ATOM     80  C   UNL     1      -9.044   6.589   2.685  1.00  0.00     0.022 A 
BRANCH  77  81
ATOM     81  S   UNL     1     -10.613   4.829   4.171  1.00  0.00     0.124 S 
ATOM     82  O   UNL     1     -11.905   4.567   3.549  1.00  0.00    -0.237 OA
ATOM     83  O   UNL     1      -9.890   3.663   4.669  1.00  0.00    -0.237 OA
ATOM     84  O   UNL     1     -10.562   6.006   5.035  1.00  0.00    -0.744 OA
ENDBRANCH  77  81
ENDBRANCH  50  74
BRANCH  62  85
ATOM     85  C   UNL     1     -13.928   2.080  -3.461  1.00  0.00     0.023 A 
ATOM     86  C   UNL     1     -14.672   3.266  -3.592  1.00  0.00     0.031 A 
ATOM     87  C   UNL     1     -14.632   0.887  -3.209  1.00  0.00     0.131 A 
ATOM     88  C   UNL     1     -16.065   3.243  -3.414  1.00  0.00     0.055 A 
ATOM     89  C   UNL     1     -16.023   0.860  -3.102  1.00  0.00     0.041 A 
ATOM     90  F   UNL     1     -13.977  -0.277  -3.071  1.00  0.00    -0.206 F 
ATOM     91  C   UNL     1     -16.747   2.045  -3.190  1.00  0.00     0.022 A 
BRANCH  88  92
ATOM     92  S   UNL     1     -16.968   4.817  -3.380  1.00  0.00     0.124 S 
ATOM     93  O   UNL     1     -16.304   5.524  -2.290  1.00  0.00    -0.237 OA
ATOM     94  O   UNL     1     -16.730   5.343  -4.720  1.00  0.00    -0.237 OA
ATOM     95  O   UNL     1     -18.347   4.415  -3.108  1.00  0.00    -0.744 OA
ENDBRANCH  88  92
ENDBRANCH  62  85
ENDBRANCH  36  37
ENDBRANCH  29  31
ENDBRANCH  28  29
ENDBRANCH  27  28
ENDBRANCH  26  27
ENDBRANCH  25  26
ENDBRANCH  24  25
ENDBRANCH   1  24
TORSDOF 23
