REMARK SMILES CCOC(=O)C1=NN(c2ccc([N+](=O)[O-])cc2C(F)(F)F)[C@@](C)(C(=O)OCCOCCOCCOC(=O)c2ccc(-c3c4nc(c(-c5cc(S(=O)(=O)[O-])ccc5F)c5ccc([nH]5)c(-c5cc(S(=O)(=O)[O-])ccc5F)c5nc(c(-c6cc(S(=O)(=O)[O-])ccc6F)c6ccc3[nH]6)C=C5)C=C4)cc2)C1
REMARK SMILES IDX 30 1 29 2 28 3 27 4 26 5 24 6 25 7 22 8 6 9 7 10 101 11 8 12
REMARK SMILES IDX 23 13 4 14 5 15 3 16 2 17 1 18 9 19 10 20 17 21 11 22 16 23
REMARK SMILES IDX 12 24 18 25 19 26 20 27 21 28 13 29 14 30 15 31 31 32 32 33
REMARK SMILES IDX 33 34 34 35 35 36 36 37 37 38 38 39 39 40 100 41 40 42 99 43
REMARK SMILES IDX 41 44 42 45 43 46 93 47 44 48 98 49 92 50 94 51 45 52 97 53
REMARK SMILES IDX 91 54 90 55 46 57 78 58 58 59 77 60 59 61 62 62 76 63 95 64
REMARK SMILES IDX 60 65 61 66 75 68 96 69 63 70 47 71 48 72 56 73 49 74 55 75
REMARK SMILES IDX 57 76 54 77 50 78 51 79 52 80 53 81 79 82 80 83 88 84 81 85
REMARK SMILES IDX 87 86 89 87 86 88 82 89 83 90 84 91 85 92 64 93 65 94 73 95
REMARK SMILES IDX 66 96 72 97 74 98 71 99 67 100 68 101 69 102 70 103
REMARK H PARENT 94 56 62 67
REMARK Flexibility Score: inf
ROOT
ATOM      1  C   UNL     1       5.271  -0.176  -5.293  1.00  0.00     0.188 C 
ENDROOT
BRANCH   1   2
ATOM      2  O   UNL     1       6.667  -0.084  -5.556  1.00  0.00    -0.376 OA
BRANCH   2   3
ATOM      3  C   UNL     1       7.261  -0.877  -6.567  1.00  0.00     0.202 C 
BRANCH   3   4
ATOM      4  C   UNL     1       7.289  -2.402  -6.368  1.00  0.00     0.261 C 
BRANCH   4   5
ATOM      5  O   UNL     1       6.062  -3.047  -5.953  1.00  0.00    -0.461 OA
BRANCH   5   6
ATOM      6  C   UNL     1       5.956  -3.269  -4.615  1.00  0.00     0.334 C 
ATOM      7  O   UNL     1       6.840  -2.940  -3.823  1.00  0.00    -0.249 OA
BRANCH   6   8
ATOM      8  C   UNL     1       4.731  -4.095  -4.151  1.00  0.00     0.163 C 
ATOM      9  C   UNL     1       2.966  -2.971  -3.085  1.00  0.00     0.149 C 
ATOM     10  N   UNL     1       2.506  -3.208  -4.276  1.00  0.00    -0.169 NA
ATOM     11  C   UNL     1       4.312  -3.536  -2.770  1.00  0.00     0.108 C 
ATOM     12  N   UNL     1       3.458  -3.956  -4.934  1.00  0.00    -0.247 N 
ATOM     13  C   UNL     1       5.268  -5.519  -4.035  1.00  0.00     0.050 C 
BRANCH   9  14
ATOM     14  C   UNL     1       2.272  -2.121  -2.041  1.00  0.00     0.354 C 
ATOM     15  O   UNL     1       2.961  -1.493  -1.258  1.00  0.00    -0.245 OA
BRANCH  14  16
ATOM     16  O   UNL     1       0.938  -2.121  -2.176  1.00  0.00    -0.461 OA
BRANCH  16  17
ATOM     17  C   UNL     1       0.105  -1.182  -1.446  1.00  0.00     0.230 C 
ATOM     18  C   UNL     1       0.434  -0.945   0.019  1.00  0.00     0.049 C 
ENDBRANCH  16  17
ENDBRANCH  14  16
ENDBRANCH   9  14
BRANCH  12  19
ATOM     19  C   UNL     1       2.992  -4.667  -6.036  1.00  0.00     0.073 A 
ATOM     20  C   UNL     1       2.744  -3.958  -7.235  1.00  0.00     0.036 A 
ATOM     21  C   UNL     1       2.603  -6.020  -6.022  1.00  0.00     0.088 A 
ATOM     22  C   UNL     1       2.297  -4.569  -8.413  1.00  0.00     0.088 A 
ATOM     23  C   UNL     1       2.218  -6.662  -7.230  1.00  0.00     0.101 A 
ATOM     24  C   UNL     1       2.082  -5.939  -8.417  1.00  0.00     0.270 A 
BRANCH  21  25
ATOM     25  C   UNL     1       2.469  -6.852  -4.769  1.00  0.00     0.418 C 
ATOM     26  F   UNL     1       1.345  -7.629  -4.789  1.00  0.00    -0.166 F 
ATOM     27  F   UNL     1       3.501  -7.735  -4.641  1.00  0.00    -0.166 F 
ATOM     28  F   UNL     1       2.406  -6.163  -3.600  1.00  0.00    -0.166 F 
ENDBRANCH  21  25
BRANCH  24  29
ATOM     29  N   UNL     1       1.684  -6.622  -9.654  1.00  0.00     0.062 N 
ATOM     30  O   UNL     1       1.445  -5.925 -10.651  1.00  0.00    -0.258 OA
ATOM     31  O   UNL     1       1.634  -7.860  -9.636  1.00  0.00    -0.258 OA
ENDBRANCH  24  29
ENDBRANCH  12  19
ENDBRANCH   6   8
ENDBRANCH   5   6
ENDBRANCH   4   5
ENDBRANCH   3   4
ENDBRANCH   2   3
ENDBRANCH   1   2
BRANCH   1  32
ATOM     32  C   UNL     1       4.311  -0.794  -6.321  1.00  0.00     0.188 C 
BRANCH  32  33
ATOM     33  O   UNL     1       4.797  -0.804  -7.648  1.00  0.00    -0.376 OA
BRANCH  33  34
ATOM     34  C   UNL     1       4.064  -0.059  -8.600  1.00  0.00     0.202 C 
BRANCH  34  35
ATOM     35  C   UNL     1       3.964   1.458  -8.371  1.00  0.00     0.261 C 
BRANCH  35  36
ATOM     36  O   UNL     1       3.687   1.887  -7.024  1.00  0.00    -0.460 OA
BRANCH  36  37
ATOM     37  C   UNL     1       2.395   1.872  -6.624  1.00  0.00     0.338 C 
ATOM     38  O   UNL     1       1.437   1.512  -7.290  1.00  0.00    -0.246 OA
BRANCH  37  39
ATOM     39  C   UNL     1       2.345   2.190  -5.178  1.00  0.00     0.060 A 
ATOM     40  C   UNL     1       2.172   1.148  -4.265  1.00  0.00     0.016 A 
ATOM     41  C   UNL     1       2.436   3.505  -4.714  1.00  0.00     0.016 A 
ATOM     42  C   UNL     1       2.083   1.426  -2.902  1.00  0.00     0.010 A 
ATOM     43  C   UNL     1       2.284   3.777  -3.339  1.00  0.00     0.010 A 
ATOM     44  C   UNL     1       2.059   2.737  -2.420  1.00  0.00    -0.014 A 
BRANCH  44  45
ATOM     45  C   UNL     1       1.563   2.971  -1.025  1.00  0.00     0.031 A 
ATOM     46  C   UNL     1       0.179   3.553  -0.836  1.00  0.00     0.074 A 
ATOM     47  C   UNL     1       2.218   2.516   0.065  1.00  0.00     0.049 A 
ATOM     48  N   UNL     1      -0.451   3.877   0.265  1.00  0.00    -0.248 NA
ATOM     49  C   UNL     1      -0.603   3.784  -2.060  1.00  0.00     0.031 C 
ATOM     50  C   UNL     1       3.481   1.780   0.045  1.00  0.00     0.029 A 
ATOM     51  N   UNL     1       1.885   2.563   1.402  1.00  0.00    -0.354 N 
ATOM     52  C   UNL     1      -1.682   4.392  -0.134  1.00  0.00     0.074 A 
ATOM     53  C   UNL     1      -1.705   4.340  -1.580  1.00  0.00     0.031 C 
ATOM     54  C   UNL     1       3.792   1.409   1.300  1.00  0.00     0.029 A 
ATOM     55  C   UNL     1       2.802   1.952   2.229  1.00  0.00     0.049 A 
ATOM     56  H   UNL     1       1.066   2.995   1.736  1.00  0.00     0.167 HD
ATOM     57  C   UNL     1      -2.698   4.868   0.629  1.00  0.00     0.034 A 
ATOM     58  C   UNL     1       2.861   1.863   3.578  1.00  0.00     0.034 A 
ATOM     59  C   UNL     1      -2.688   4.895   2.072  1.00  0.00     0.049 A 
ATOM     60  C   UNL     1       1.777   2.517   4.408  1.00  0.00     0.074 A 
ATOM     61  C   UNL     1      -3.652   5.401   2.929  1.00  0.00     0.029 A 
ATOM     62  N   UNL     1      -1.675   4.391   2.875  1.00  0.00    -0.354 N 
ATOM     63  N   UNL     1       0.668   3.102   4.016  1.00  0.00    -0.248 NA
ATOM     64  C   UNL     1       1.961   2.507   5.867  1.00  0.00     0.031 C 
ATOM     65  C   UNL     1      -3.186   5.277   4.242  1.00  0.00     0.029 A 
ATOM     66  C   UNL     1      -1.975   4.606   4.214  1.00  0.00     0.049 A 
ATOM     67  H   UNL     1      -0.861   3.946   2.544  1.00  0.00     0.167 HD
ATOM     68  C   UNL     1       0.017   3.505   5.182  1.00  0.00     0.074 A 
ATOM     69  C   UNL     1       0.838   3.067   6.289  1.00  0.00     0.031 C 
ATOM     70  C   UNL     1      -1.154   4.180   5.322  1.00  0.00     0.034 A 
BRANCH  57  71
ATOM     71  C   UNL     1      -3.873   5.489  -0.091  1.00  0.00     0.023 A 
ATOM     72  C   UNL     1      -4.737   4.742  -0.908  1.00  0.00     0.031 A 
ATOM     73  C   UNL     1      -4.111   6.871   0.030  1.00  0.00     0.131 A 
ATOM     74  C   UNL     1      -5.756   5.392  -1.623  1.00  0.00     0.055 A 
ATOM     75  C   UNL     1      -5.179   7.496  -0.614  1.00  0.00     0.041 A 
ATOM     76  F   UNL     1      -3.302   7.641   0.775  1.00  0.00    -0.206 F 
ATOM     77  C   UNL     1      -6.001   6.758  -1.459  1.00  0.00     0.022 A 
BRANCH  74  78
ATOM     78  S   UNL     1      -6.660   4.457  -2.887  1.00  0.00     0.124 S 
ATOM     79  O   UNL     1      -5.574   4.010  -3.756  1.00  0.00    -0.237 OA
ATOM     80  O   UNL     1      -7.319   3.420  -2.102  1.00  0.00    -0.237 OA
ATOM     81  O   UNL     1      -7.551   5.454  -3.479  1.00  0.00    -0.744 OA
ENDBRANCH  74  78
ENDBRANCH  57  71
BRANCH  58  82
ATOM     82  C   UNL     1       4.024   1.208   4.260  1.00  0.00     0.023 A 
ATOM     83  C   UNL     1       3.844   0.154   5.173  1.00  0.00     0.031 A 
ATOM     84  C   UNL     1       5.330   1.706   4.091  1.00  0.00     0.131 A 
ATOM     85  C   UNL     1       4.936  -0.326   5.919  1.00  0.00     0.055 A 
ATOM     86  C   UNL     1       6.423   1.173   4.777  1.00  0.00     0.041 A 
ATOM     87  F   UNL     1       5.566   2.732   3.258  1.00  0.00    -0.206 F 
ATOM     88  C   UNL     1       6.227   0.163   5.710  1.00  0.00     0.022 A 
BRANCH  85  89
ATOM     89  S   UNL     1       4.627  -1.505   7.265  1.00  0.00     0.124 S 
ATOM     90  O   UNL     1       3.689  -0.763   8.099  1.00  0.00    -0.237 OA
ATOM     91  O   UNL     1       4.080  -2.651   6.546  1.00  0.00    -0.237 OA
ATOM     92  O   UNL     1       5.952  -1.712   7.846  1.00  0.00    -0.744 OA
ENDBRANCH  85  89
ENDBRANCH  58  82
BRANCH  70  93
ATOM     93  C   UNL     1      -1.641   4.447   6.731  1.00  0.00     0.023 A 
ATOM     94  C   UNL     1      -0.921   5.257   7.627  1.00  0.00     0.031 A 
ATOM     95  C   UNL     1      -2.836   3.863   7.192  1.00  0.00     0.131 A 
ATOM     96  C   UNL     1      -1.361   5.403   8.953  1.00  0.00     0.055 A 
ATOM     97  C   UNL     1      -3.307   4.071   8.489  1.00  0.00     0.041 A 
ATOM     98  F   UNL     1      -3.569   3.077   6.386  1.00  0.00    -0.206 F 
ATOM     99  C   UNL     1      -2.559   4.830   9.384  1.00  0.00     0.022 A 
BRANCH  96 100
ATOM    100  S   UNL     1      -0.283   6.251  10.142  1.00  0.00     0.124 S 
ATOM    101  O   UNL     1       0.950   5.477  10.039  1.00  0.00    -0.237 OA
ATOM    102  O   UNL     1      -0.232   7.606   9.604  1.00  0.00    -0.237 OA
ATOM    103  O   UNL     1      -0.997   6.114  11.410  1.00  0.00    -0.744 OA
ENDBRANCH  96 100
ENDBRANCH  70  93
ENDBRANCH  44  45
ENDBRANCH  37  39
ENDBRANCH  36  37
ENDBRANCH  35  36
ENDBRANCH  34  35
ENDBRANCH  33  34
ENDBRANCH  32  33
ENDBRANCH   1  32
TORSDOF 26
