REMARK SMILES C[C@@H](C(=O)OCCOCCOCCOC(=O)c1ccc(-c2c3nc(c(-c4cc(S(=O)(=O)[O-])ccc4F)c4ccc([nH]4)c(-c4cc(S(=O)(=O)[O-])ccc4F)c4nc(c(-c5cc(S(=O)(=O)[O-])ccc5F)c5ccc2[nH]5)C=C4)C=C3)cc1)c1ccc(-c2cccc(OC(=O)NCCC3CCCCC3)c2)c(F)c1
REMARK SMILES IDX 7 1 6 2 5 3 3 4 4 5 2 6 1 7 80 8 81 9 104 10 82 11 102 12
REMARK SMILES IDX 83 13 103 14 84 15 85 16 101 17 86 18 88 19 87 20 89 21
REMARK SMILES IDX 90 22 91 23 92 24 93 26 94 27 95 28 96 29 100 30 97 31 99 32
REMARK SMILES IDX 98 33 8 34 9 35 10 36 11 37 12 38 13 39 14 40 15 41 16 42
REMARK SMILES IDX 17 43 18 44 79 45 19 46 78 47 20 48 21 49 22 50 72 51 23 52
REMARK SMILES IDX 77 53 71 54 73 55 24 56 76 57 70 58 69 59 25 61 57 62 37 63
REMARK SMILES IDX 56 64 38 65 41 66 55 67 74 68 39 69 40 70 54 72 75 73 42 74
REMARK SMILES IDX 26 75 27 76 35 77 28 78 34 79 36 80 33 81 29 82 30 83 31 84
REMARK SMILES IDX 32 85 58 86 59 87 67 88 60 89 66 90 68 91 65 92 61 93 62 94
REMARK SMILES IDX 63 95 64 96 43 97 44 98 52 99 45 100 51 101 53 102 50 103
REMARK SMILES IDX 46 104 47 105 48 106 49 107
REMARK H PARENT 92 25 73 60 41 71
REMARK Flexibility Score: inf
ROOT
ATOM      1  C   UNL     1       2.340   4.011  -2.625  1.00  0.00     0.202 C 
ENDROOT
BRANCH   1   2
ATOM      2  C   UNL     1       2.552   4.000  -1.099  1.00  0.00     0.261 C 
BRANCH   2   3
ATOM      3  O   UNL     1       2.129   2.782  -0.450  1.00  0.00    -0.463 OA
BRANCH   3   4
ATOM      4  C   UNL     1       1.486   2.917   0.740  1.00  0.00     0.313 C 
ATOM      5  O   UNL     1       1.375   3.986   1.333  1.00  0.00    -0.252 OA
BRANCH   4   6
ATOM      6  C   UNL     1       0.847   1.614   1.253  1.00  0.00     0.126 C 
ATOM      7  C   UNL     1       1.695   0.363   0.969  1.00  0.00     0.025 C 
BRANCH   6   8
ATOM      8  C   UNL     1      -0.656   1.480   0.971  1.00  0.00    -0.031 A 
ATOM      9  C   UNL     1      -1.486   2.613   0.956  1.00  0.00     0.005 A 
ATOM     10  C   UNL     1      -1.294   0.232   0.873  1.00  0.00     0.044 A 
ATOM     11  C   UNL     1      -2.884   2.500   0.906  1.00  0.00     0.012 A 
ATOM     12  C   UNL     1      -2.692   0.127   0.822  1.00  0.00     0.131 A 
ATOM     13  C   UNL     1      -3.523   1.250   0.881  1.00  0.00     0.018 A 
ATOM     14  F   UNL     1      -3.221  -1.105   0.749  1.00  0.00    -0.206 F 
BRANCH  13  15
ATOM     15  C   UNL     1      -4.992   1.157   1.010  1.00  0.00    -0.012 A 
ATOM     16  C   UNL     1      -5.834   2.040   0.322  1.00  0.00     0.009 A 
ATOM     17  C   UNL     1      -5.596   0.258   1.908  1.00  0.00     0.056 A 
ATOM     18  C   UNL     1      -7.216   2.027   0.513  1.00  0.00     0.004 A 
ATOM     19  C   UNL     1      -6.975   0.292   2.135  1.00  0.00     0.133 A 
ATOM     20  C   UNL     1      -7.794   1.154   1.418  1.00  0.00     0.047 A 
BRANCH  19  21
ATOM     21  O   UNL     1      -7.641  -0.489   3.095  1.00  0.00    -0.410 OA
BRANCH  21  22
ATOM     22  C   UNL     1      -7.082  -0.661   4.348  1.00  0.00     0.412 C 
ATOM     23  O   UNL     1      -5.892  -0.580   4.646  1.00  0.00    -0.224 OA
ATOM     24  N   UNL     1      -8.004  -0.938   5.314  1.00  0.00    -0.321 N 
ATOM     25  H   UNL     1      -7.655  -1.124   6.216  1.00  0.00     0.167 HD
BRANCH  24  26
ATOM     26  C   UNL     1      -9.444  -0.987   5.155  1.00  0.00     0.119 C 
BRANCH  26  27
ATOM     27  C   UNL     1      -9.955  -2.428   5.126  1.00  0.00     0.025 C 
BRANCH  27  28
ATOM     28  C   UNL     1      -9.558  -3.259   6.364  1.00  0.00    -0.009 C 
ATOM     29  C   UNL     1     -10.210  -2.729   7.652  1.00  0.00     0.003 C 
ATOM     30  C   UNL     1      -9.914  -4.738   6.146  1.00  0.00     0.003 C 
ATOM     31  C   UNL     1      -9.859  -3.591   8.863  1.00  0.00     0.000 C 
ATOM     32  C   UNL     1      -9.539  -5.586   7.359  1.00  0.00     0.000 C 
ATOM     33  C   UNL     1     -10.196  -5.059   8.630  1.00  0.00     0.000 C 
ENDBRANCH  27  28
ENDBRANCH  26  27
ENDBRANCH  24  26
ENDBRANCH  21  22
ENDBRANCH  19  21
ENDBRANCH  13  15
ENDBRANCH   6   8
ENDBRANCH   4   6
ENDBRANCH   3   4
ENDBRANCH   2   3
ENDBRANCH   1   2
BRANCH   1  34
ATOM     34  O   UNL     1       1.036   3.752  -3.143  1.00  0.00    -0.376 OA
BRANCH  34  35
ATOM     35  C   UNL     1       0.304   2.651  -2.610  1.00  0.00     0.188 C 
BRANCH  35  36
ATOM     36  C   UNL     1       1.004   1.285  -2.522  1.00  0.00     0.188 C 
BRANCH  36  37
ATOM     37  O   UNL     1       2.378   1.311  -2.833  1.00  0.00    -0.376 OA
BRANCH  37  38
ATOM     38  C   UNL     1       2.839   0.611  -3.975  1.00  0.00     0.202 C 
BRANCH  38  39
ATOM     39  C   UNL     1       2.110   0.715  -5.329  1.00  0.00     0.261 C 
BRANCH  39  40
ATOM     40  O   UNL     1       0.675   0.728  -5.316  1.00  0.00    -0.460 OA
BRANCH  40  41
ATOM     41  C   UNL     1       0.047  -0.452  -5.082  1.00  0.00     0.338 C 
ATOM     42  O   UNL     1       0.580  -1.528  -4.883  1.00  0.00    -0.246 OA
BRANCH  41  43
ATOM     43  C   UNL     1      -1.390  -0.147  -4.865  1.00  0.00     0.060 A 
ATOM     44  C   UNL     1      -1.976  -0.427  -3.622  1.00  0.00     0.016 A 
ATOM     45  C   UNL     1      -2.144   0.447  -5.879  1.00  0.00     0.016 A 
ATOM     46  C   UNL     1      -3.323  -0.127  -3.395  1.00  0.00     0.010 A 
ATOM     47  C   UNL     1      -3.498   0.719  -5.661  1.00  0.00     0.010 A 
ATOM     48  C   UNL     1      -4.102   0.411  -4.428  1.00  0.00    -0.014 A 
BRANCH  48  49
ATOM     49  C   UNL     1      -5.583   0.468  -4.301  1.00  0.00     0.031 A 
ATOM     50  C   UNL     1      -6.378  -0.697  -4.825  1.00  0.00     0.074 A 
ATOM     51  C   UNL     1      -6.207   1.540  -3.779  1.00  0.00     0.049 A 
ATOM     52  N   UNL     1      -7.673  -0.869  -4.867  1.00  0.00    -0.248 NA
ATOM     53  C   UNL     1      -5.603  -1.800  -5.414  1.00  0.00     0.031 C 
ATOM     54  C   UNL     1      -5.533   2.723  -3.254  1.00  0.00     0.029 A 
ATOM     55  N   UNL     1      -7.544   1.803  -3.588  1.00  0.00    -0.354 N 
ATOM     56  C   UNL     1      -7.871  -2.074  -5.535  1.00  0.00     0.074 A 
ATOM     57  C   UNL     1      -6.561  -2.586  -5.876  1.00  0.00     0.031 C 
ATOM     58  C   UNL     1      -6.457   3.565  -2.757  1.00  0.00     0.029 A 
ATOM     59  C   UNL     1      -7.793   2.994  -2.938  1.00  0.00     0.049 A 
ATOM     60  H   UNL     1      -8.258   1.196  -3.888  1.00  0.00     0.167 HD
ATOM     61  C   UNL     1      -9.040  -2.680  -5.854  1.00  0.00     0.034 A 
ATOM     62  C   UNL     1      -8.958   3.529  -2.506  1.00  0.00     0.034 A 
ATOM     63  C   UNL     1     -10.335  -2.151  -5.501  1.00  0.00     0.049 A 
ATOM     64  C   UNL     1     -10.245   2.786  -2.809  1.00  0.00     0.074 A 
ATOM     65  C   UNL     1     -11.584  -2.684  -5.767  1.00  0.00     0.029 A 
ATOM     66  N   UNL     1     -10.550  -0.964  -4.811  1.00  0.00    -0.354 N 
ATOM     67  N   UNL     1     -10.415   1.627  -3.405  1.00  0.00    -0.248 NA
ATOM     68  C   UNL     1     -11.497   3.428  -2.384  1.00  0.00     0.031 C 
ATOM     69  C   UNL     1     -12.552  -1.781  -5.315  1.00  0.00     0.029 A 
ATOM     70  C   UNL     1     -11.910  -0.730  -4.679  1.00  0.00     0.049 A 
ATOM     71  H   UNL     1      -9.840  -0.376  -4.467  1.00  0.00     0.167 HD
ATOM     72  C   UNL     1     -11.791   1.404  -3.419  1.00  0.00     0.074 A 
ATOM     73  C   UNL     1     -12.396   2.514  -2.714  1.00  0.00     0.031 C 
ATOM     74  C   UNL     1     -12.497   0.392  -3.986  1.00  0.00     0.034 A 
BRANCH  61  75
ATOM     75  C   UNL     1      -8.970  -3.929  -6.700  1.00  0.00     0.023 A 
ATOM     76  C   UNL     1      -8.353  -5.109  -6.250  1.00  0.00     0.031 A 
ATOM     77  C   UNL     1      -9.505  -3.921  -8.002  1.00  0.00     0.131 A 
ATOM     78  C   UNL     1      -8.225  -6.204  -7.119  1.00  0.00     0.055 A 
ATOM     79  C   UNL     1      -9.451  -5.044  -8.829  1.00  0.00     0.041 A 
ATOM     80  F   UNL     1     -10.079  -2.814  -8.499  1.00  0.00    -0.206 F 
ATOM     81  C   UNL     1      -8.795  -6.190  -8.394  1.00  0.00     0.022 A 
BRANCH  78  82
ATOM     82  S   UNL     1      -7.172  -7.593  -6.615  1.00  0.00     0.124 S 
ATOM     83  O   UNL     1      -5.888  -6.928  -6.404  1.00  0.00    -0.237 OA
ATOM     84  O   UNL     1      -7.844  -8.080  -5.416  1.00  0.00    -0.237 OA
ATOM     85  O   UNL     1      -7.217  -8.493  -7.765  1.00  0.00    -0.744 OA
ENDBRANCH  78  82
ENDBRANCH  61  75
BRANCH  62  86
ATOM     86  C   UNL     1      -8.988   4.782  -1.676  1.00  0.00     0.023 A 
ATOM     87  C   UNL     1      -9.586   4.778  -0.400  1.00  0.00     0.031 A 
ATOM     88  C   UNL     1      -8.455   6.000  -2.128  1.00  0.00     0.131 A 
ATOM     89  C   UNL     1      -9.662   5.955   0.361  1.00  0.00     0.055 A 
ATOM     90  C   UNL     1      -8.474   7.156  -1.340  1.00  0.00     0.041 A 
ATOM     91  F   UNL     1      -7.889   6.087  -3.342  1.00  0.00    -0.206 F 
ATOM     92  C   UNL     1      -9.089   7.141  -0.092  1.00  0.00     0.022 A 
BRANCH  89  93
ATOM     93  S   UNL     1     -10.613   5.930   1.908  1.00  0.00     0.124 S 
ATOM     94  O   UNL     1     -11.906   5.433   1.453  1.00  0.00    -0.237 OA
ATOM     95  O   UNL     1      -9.830   5.014   2.730  1.00  0.00    -0.237 OA
ATOM     96  O   UNL     1     -10.596   7.326   2.338  1.00  0.00    -0.744 OA
ENDBRANCH  89  93
ENDBRANCH  62  86
BRANCH  74  97
ATOM     97  C   UNL     1     -14.004   0.448  -3.866  1.00  0.00     0.023 A 
ATOM     98  C   UNL     1     -14.751   1.486  -4.454  1.00  0.00     0.031 A 
ATOM     99  C   UNL     1     -14.704  -0.548  -3.163  1.00  0.00     0.131 A 
ATOM    100  C   UNL     1     -16.140   1.541  -4.272  1.00  0.00     0.055 A 
ATOM    101  C   UNL     1     -16.096  -0.527  -3.046  1.00  0.00     0.041 A 
ATOM    102  F   UNL     1     -14.048  -1.565  -2.580  1.00  0.00    -0.206 F 
ATOM    103  C   UNL     1     -16.820   0.530  -3.589  1.00  0.00     0.022 A 
BRANCH 100 104
ATOM    104  S   UNL     1     -17.036   3.008  -4.851  1.00  0.00     0.124 S 
ATOM    105  O   UNL     1     -16.364   4.080  -4.123  1.00  0.00    -0.237 OA
ATOM    106  O   UNL     1     -16.801   2.971  -6.290  1.00  0.00    -0.237 OA
ATOM    107  O   UNL     1     -18.416   2.752  -4.442  1.00  0.00    -0.744 OA
ENDBRANCH 100 104
ENDBRANCH  74  97
ENDBRANCH  48  49
ENDBRANCH  41  43
ENDBRANCH  40  41
ENDBRANCH  39  40
ENDBRANCH  38  39
ENDBRANCH  37  38
ENDBRANCH  36  37
ENDBRANCH  35  36
ENDBRANCH  34  35
ENDBRANCH   1  34
TORSDOF 27
