REMARK SMILES CCOc1cc2c(cc1/C=C1/C(=O)N(c3cccc(C(=O)OCCOCCOCCOC(=O)c4ccc(-c5c6nc(c(-c7cc(S(=O)(=O)[O-])ccc7F)c7ccc([nH]7)c(-c7cc(S(=O)(=O)[O-])ccc7F)c7nc(c(-c8cc(S(=O)(=O)[O-])ccc8F)c8ccc5[nH]8)C=C7)C=C6)cc4)c3)C(=S)N=C1O)OCO2
REMARK SMILES IDX 26 1 25 2 24 3 23 4 22 5 20 6 21 7 19 8 15 9 16 10 97 11
REMARK SMILES IDX 17 12 18 13 14 14 10 15 11 16 12 17 101 18 13 19 100 20
REMARK SMILES IDX 98 21 99 22 9 23 4 24 5 25 6 26 8 27 7 28 105 29 103 30
REMARK SMILES IDX 104 31 3 32 2 33 1 34 102 35 27 37 28 38 29 39 30 40 31 41
REMARK SMILES IDX 32 42 33 43 34 44 35 45 96 46 36 47 95 48 37 49 38 50 39 51
REMARK SMILES IDX 89 52 40 53 94 54 88 55 90 56 41 57 93 58 87 59 86 60 42 62
REMARK SMILES IDX 74 63 54 64 73 65 55 66 58 67 72 68 91 69 56 70 57 71 71 73
REMARK SMILES IDX 92 74 59 75 43 76 44 77 52 78 45 79 51 80 53 81 50 82 46 83
REMARK SMILES IDX 47 84 48 85 49 86 75 87 76 88 84 89 77 90 83 91 85 92 82 93
REMARK SMILES IDX 78 94 79 95 80 96 81 97 60 98 61 99 69 100 62 101 68 102
REMARK SMILES IDX 70 103 67 104 63 105 64 106 65 107 66 108
REMARK H PARENT 102 36 90 61 58 72
REMARK Flexibility Score: inf
ROOT
ATOM      1  C   UNL     1      -1.082  -4.258  12.223  1.00  0.00     0.188 C 
ENDROOT
BRANCH   1   2
ATOM      2  O   UNL     1      -2.119  -5.207  11.995  1.00  0.00    -0.376 OA
BRANCH   2   3
ATOM      3  C   UNL     1      -2.426  -5.620  10.673  1.00  0.00     0.202 C 
BRANCH   3   4
ATOM      4  C   UNL     1      -2.781  -4.564   9.615  1.00  0.00     0.261 C 
BRANCH   4   5
ATOM      5  O   UNL     1      -1.891  -3.439   9.559  1.00  0.00    -0.460 OA
BRANCH   5   6
ATOM      6  C   UNL     1      -2.425  -2.246   9.923  1.00  0.00     0.338 C 
ATOM      7  O   UNL     1      -3.591  -2.023  10.207  1.00  0.00    -0.246 OA
BRANCH   6   8
ATOM      8  C   UNL     1      -1.344  -1.250  10.106  1.00  0.00     0.062 A 
ATOM      9  C   UNL     1       0.762  -0.218   9.434  1.00  0.00     0.052 A 
ATOM     10  C   UNL     1       0.688   0.599  10.576  1.00  0.00     0.027 A 
ATOM     11  C   UNL     1      -0.278  -1.138   9.204  1.00  0.00     0.042 A 
ATOM     12  C   UNL     1      -0.365   0.472  11.486  1.00  0.00     0.003 A 
ATOM     13  C   UNL     1      -1.384  -0.446  11.250  1.00  0.00     0.016 A 
BRANCH   9  14
ATOM     14  N   UNL     1       1.872  -0.133   8.505  1.00  0.00    -0.251 N 
ATOM     15  C   UNL     1       2.376   0.507   4.915  1.00  0.00     0.031 C 
ATOM     16  C   UNL     1       2.671   0.112   6.179  1.00  0.00     0.103 C 
ATOM     17  C   UNL     1       1.525   0.014   7.145  1.00  0.00     0.270 C 
ATOM     18  C   UNL     1       3.954  -0.230   6.775  1.00  0.00     0.226 C 
ATOM     19  O   UNL     1       0.368   0.085   6.726  1.00  0.00    -0.268 OA
ATOM     20  N   UNL     1       4.215  -0.361   8.015  1.00  0.00    -0.184 NA
ATOM     21  C   UNL     1       3.213  -0.261   8.950  1.00  0.00     0.210 C 
ATOM     22  S   UNL     1       3.722  -0.469  10.560  1.00  0.00    -0.038 S 
BRANCH  15  23
ATOM     23  C   UNL     1       3.192   0.737   3.687  1.00  0.00     0.021 A 
ATOM     24  C   UNL     1       2.601   0.632   2.388  1.00  0.00     0.130 A 
ATOM     25  C   UNL     1       3.368   0.807   1.225  1.00  0.00     0.097 A 
ATOM     26  C   UNL     1       4.714   1.037   1.364  1.00  0.00     0.169 A 
ATOM     27  C   UNL     1       4.542   1.119   3.758  1.00  0.00     0.062 A 
ATOM     28  C   UNL     1       5.284   1.201   2.597  1.00  0.00     0.166 A 
ATOM     29  O   UNL     1       5.610   1.175   0.351  1.00  0.00    -0.453 OA
ATOM     30  O   UNL     1       6.617   1.459   2.520  1.00  0.00    -0.454 OA
ATOM     31  C   UNL     1       6.834   1.318   1.101  1.00  0.00     0.468 C 
BRANCH  24  32
ATOM     32  O   UNL     1       1.233   0.522   2.284  1.00  0.00    -0.493 OA
BRANCH  32  33
ATOM     33  C   UNL     1       0.746  -0.563   1.485  1.00  0.00     0.226 C 
ATOM     34  C   UNL     1       0.538  -0.191   0.021  1.00  0.00     0.049 C 
ENDBRANCH  32  33
ENDBRANCH  24  32
ENDBRANCH  15  23
BRANCH  18  35
ATOM     35  O   UNL     1       4.968  -0.509   5.959  1.00  0.00    -0.493 OA
ATOM     36  H   UNL     1       4.856  -0.437   5.031  1.00  0.00     0.295 HD
ENDBRANCH  18  35
ENDBRANCH   9  14
ENDBRANCH   6   8
ENDBRANCH   5   6
ENDBRANCH   4   5
ENDBRANCH   3   4
ENDBRANCH   2   3
ENDBRANCH   1   2
BRANCH   1  37
ATOM     37  C   UNL     1       0.233  -4.329  11.417  1.00  0.00     0.188 C 
BRANCH  37  38
ATOM     38  O   UNL     1       0.328  -5.456  10.564  1.00  0.00    -0.376 OA
BRANCH  38  39
ATOM     39  C   UNL     1       1.276  -6.446  10.937  1.00  0.00     0.202 C 
BRANCH  39  40
ATOM     40  C   UNL     1       1.042  -7.183  12.266  1.00  0.00     0.261 C 
BRANCH  40  41
ATOM     41  O   UNL     1       0.801  -6.362  13.421  1.00  0.00    -0.460 OA
BRANCH  41  42
ATOM     42  C   UNL     1       1.865  -5.706  13.942  1.00  0.00     0.338 C 
ATOM     43  O   UNL     1       3.004  -5.723  13.514  1.00  0.00    -0.246 OA
BRANCH  42  44
ATOM     44  C   UNL     1       1.373  -4.820  15.024  1.00  0.00     0.060 A 
ATOM     45  C   UNL     1       1.589  -3.440  14.921  1.00  0.00     0.016 A 
ATOM     46  C   UNL     1       0.711  -5.345  16.138  1.00  0.00     0.016 A 
ATOM     47  C   UNL     1       1.180  -2.588  15.952  1.00  0.00     0.010 A 
ATOM     48  C   UNL     1       0.314  -4.492  17.175  1.00  0.00     0.010 A 
ATOM     49  C   UNL     1       0.578  -3.112  17.106  1.00  0.00    -0.014 A 
BRANCH  49  50
ATOM     50  C   UNL     1       0.410  -2.248  18.306  1.00  0.00     0.031 A 
ATOM     51  C   UNL     1       1.454  -2.318  19.392  1.00  0.00     0.074 A 
ATOM     52  C   UNL     1      -0.618  -1.386  18.422  1.00  0.00     0.049 A 
ATOM     53  N   UNL     1       1.530  -1.662  20.521  1.00  0.00    -0.248 NA
ATOM     54  C   UNL     1       2.561  -3.261  19.167  1.00  0.00     0.031 C 
ATOM     55  C   UNL     1      -1.674  -1.194  17.430  1.00  0.00     0.029 A 
ATOM     56  N   UNL     1      -0.940  -0.508  19.429  1.00  0.00    -0.354 N 
ATOM     57  C   UNL     1       2.695  -2.107  21.140  1.00  0.00     0.074 A 
ATOM     58  C   UNL     1       3.262  -3.125  20.281  1.00  0.00     0.031 C 
ATOM     59  C   UNL     1      -2.528  -0.256  17.879  1.00  0.00     0.029 A 
ATOM     60  C   UNL     1      -2.099   0.197  19.202  1.00  0.00     0.049 A 
ATOM     61  H   UNL     1      -0.391  -0.394  20.239  1.00  0.00     0.167 HD
ATOM     62  C   UNL     1       3.250  -1.697  22.308  1.00  0.00     0.034 A 
ATOM     63  C   UNL     1      -2.747   1.091  19.979  1.00  0.00     0.034 A 
ATOM     64  C   UNL     1       2.667  -0.697  23.169  1.00  0.00     0.049 A 
ATOM     65  C   UNL     1      -2.160   1.467  21.321  1.00  0.00     0.074 A 
ATOM     66  C   UNL     1       3.148  -0.207  24.370  1.00  0.00     0.029 A 
ATOM     67  N   UNL     1       1.464  -0.044  22.929  1.00  0.00    -0.354 N 
ATOM     68  N   UNL     1      -1.051   1.049  21.887  1.00  0.00    -0.248 NA
ATOM     69  C   UNL     1      -2.909   2.445  22.123  1.00  0.00     0.031 C 
ATOM     70  C   UNL     1       2.204   0.684  24.892  1.00  0.00     0.029 A 
ATOM     71  C   UNL     1       1.173   0.819  23.975  1.00  0.00     0.049 A 
ATOM     72  H   UNL     1       0.901  -0.174  22.132  1.00  0.00     0.167 HD
ATOM     73  C   UNL     1      -0.951   1.745  23.091  1.00  0.00     0.074 A 
ATOM     74  C   UNL     1      -2.107   2.613  23.165  1.00  0.00     0.031 C 
ATOM     75  C   UNL     1       0.014   1.680  24.044  1.00  0.00     0.034 A 
BRANCH  62  76
ATOM     76  C   UNL     1       4.530  -2.376  22.739  1.00  0.00     0.023 A 
ATOM     77  C   UNL     1       5.713  -2.273  21.985  1.00  0.00     0.031 A 
ATOM     78  C   UNL     1       4.558  -3.168  23.900  1.00  0.00     0.131 A 
ATOM     79  C   UNL     1       6.847  -3.010  22.357  1.00  0.00     0.055 A 
ATOM     80  C   UNL     1       5.715  -3.832  24.311  1.00  0.00     0.041 A 
ATOM     81  F   UNL     1       3.454  -3.323  24.648  1.00  0.00    -0.206 F 
ATOM     82  C   UNL     1       6.864  -3.768  23.530  1.00  0.00     0.022 A 
BRANCH  79  83
ATOM     83  S   UNL     1       8.248  -3.086  21.207  1.00  0.00     0.124 S 
ATOM     84  O   UNL     1       7.618  -3.634  20.009  1.00  0.00    -0.237 OA
ATOM     85  O   UNL     1       8.668  -1.692  21.129  1.00  0.00    -0.237 OA
ATOM     86  O   UNL     1       9.189  -3.985  21.873  1.00  0.00    -0.744 OA
ENDBRANCH  79  83
ENDBRANCH  62  76
BRANCH  63  87
ATOM     87  C   UNL     1      -4.044   1.684  19.534  1.00  0.00     0.023 A 
ATOM     88  C   UNL     1      -4.177   3.064  19.311  1.00  0.00     0.031 A 
ATOM     89  C   UNL     1      -5.189   0.881  19.389  1.00  0.00     0.131 A 
ATOM     90  C   UNL     1      -5.436   3.606  19.003  1.00  0.00     0.055 A 
ATOM     91  C   UNL     1      -6.427   1.417  19.029  1.00  0.00     0.041 A 
ATOM     92  F   UNL     1      -5.121  -0.444  19.597  1.00  0.00    -0.206 F 
ATOM     93  C   UNL     1      -6.558   2.790  18.846  1.00  0.00     0.022 A 
BRANCH  90  94
ATOM     94  S   UNL     1      -5.605   5.410  18.896  1.00  0.00     0.124 S 
ATOM     95  O   UNL     1      -5.177   5.827  20.226  1.00  0.00    -0.237 OA
ATOM     96  O   UNL     1      -4.700   5.734  17.799  1.00  0.00    -0.237 OA
ATOM     97  O   UNL     1      -7.025   5.602  18.608  1.00  0.00    -0.744 OA
ENDBRANCH  90  94
ENDBRANCH  63  87
BRANCH  75  98
ATOM     98  C   UNL     1      -0.107   2.620  25.222  1.00  0.00     0.023 A 
ATOM     99  C   UNL     1      -1.149   2.515  26.160  1.00  0.00     0.031 A 
ATOM    100  C   UNL     1       0.840   3.646  25.402  1.00  0.00     0.131 A 
ATOM    101  C   UNL     1      -1.251   3.451  27.201  1.00  0.00     0.055 A 
ATOM    102  C   UNL     1       0.769   4.536  26.475  1.00  0.00     0.041 A 
ATOM    103  F   UNL     1       1.856   3.797  24.537  1.00  0.00    -0.206 F 
ATOM    104  C   UNL     1      -0.289   4.450  27.374  1.00  0.00     0.022 A 
BRANCH 101 105
ATOM    105  S   UNL     1      -2.712   3.409  28.276  1.00  0.00     0.124 S 
ATOM    106  O   UNL     1      -3.800   3.554  27.314  1.00  0.00    -0.237 OA
ATOM    107  O   UNL     1      -2.594   2.101  28.912  1.00  0.00    -0.237 OA
ATOM    108  O   UNL     1      -2.517   4.551  29.167  1.00  0.00    -0.744 OA
ENDBRANCH 101 105
ENDBRANCH  75  98
ENDBRANCH  49  50
ENDBRANCH  42  44
ENDBRANCH  41  42
ENDBRANCH  40  41
ENDBRANCH  39  40
ENDBRANCH  38  39
ENDBRANCH  37  38
ENDBRANCH   1  37
TORSDOF 25
