REMARK SMILES CSc1ccc(/C=C2\C(C)=C(CC(=O)OCCOCCOCCOC(=O)c3ccc(-c4c5nc(c(-c6cc(S(=O)(=O)[O-])ccc6F)c6ccc([nH]6)c(-c6cc(S(=O)(=O)[O-])ccc6F)c6nc(c(-c7cc(S(=O)(=O)[O-])ccc7F)c7ccc4[nH]7)C=C6)C=C5)cc3)c3cc(F)ccc32)cc1
REMARK SMILES IDX 19 1 18 2 17 3 16 4 15 5 13 6 14 7 12 8 11 9 7 10 8 11 9 12
REMARK SMILES IDX 96 13 10 14 90 15 95 16 91 17 94 18 92 19 93 20 6 21 3 22
REMARK SMILES IDX 4 23 98 24 5 25 97 26 2 27 1 28 20 29 21 30 22 31 23 32
REMARK SMILES IDX 24 33 25 34 26 35 27 36 28 37 89 38 29 39 88 40 30 41 31 42
REMARK SMILES IDX 32 43 82 44 33 45 87 46 81 47 83 48 34 49 86 50 80 51 79 52
REMARK SMILES IDX 35 54 67 55 47 56 66 57 48 58 51 59 65 60 84 61 49 62 50 63
REMARK SMILES IDX 64 65 85 66 52 67 36 68 37 69 45 70 38 71 44 72 46 73 43 74
REMARK SMILES IDX 39 75 40 76 41 77 42 78 68 79 69 80 77 81 70 82 76 83 78 84
REMARK SMILES IDX 75 85 71 86 72 87 73 88 74 89 53 90 54 91 62 92 55 93 61 94
REMARK SMILES IDX 63 95 60 96 56 97 57 98 58 99 59 100
REMARK H PARENT 83 53 51 64
REMARK Flexibility Score: inf
ROOT
ATOM      1  C   UNL     1       7.073  -6.165  -9.704  1.00  0.00     0.188 C 
ENDROOT
BRANCH   1   2
ATOM      2  O   UNL     1       8.420  -5.741  -9.850  1.00  0.00    -0.376 OA
BRANCH   2   3
ATOM      3  C   UNL     1       8.814  -4.546  -9.176  1.00  0.00     0.202 C 
BRANCH   3   4
ATOM      4  C   UNL     1       7.888  -3.334  -9.329  1.00  0.00     0.261 C 
BRANCH   4   5
ATOM      5  O   UNL     1       6.668  -3.452  -8.555  1.00  0.00    -0.463 OA
BRANCH   5   6
ATOM      6  C   UNL     1       5.539  -3.064  -9.197  1.00  0.00     0.310 C 
ATOM      7  O   UNL     1       5.529  -2.589 -10.332  1.00  0.00    -0.252 OA
BRANCH   6   8
ATOM      8  C   UNL     1       4.232  -3.248  -8.430  1.00  0.00     0.159 C 
BRANCH   8   9
ATOM      9  C   UNL     1       4.146  -3.919  -7.045  1.00  0.00    -0.025 C 
ATOM     10  C   UNL     1       1.447  -2.014  -5.865  1.00  0.00     0.017 C 
ATOM     11  C   UNL     1       2.296  -3.003  -6.167  1.00  0.00    -0.014 C 
ATOM     12  C   UNL     1       3.763  -3.176  -5.965  1.00  0.00    -0.039 C 
ATOM     13  C   UNL     1       1.822  -4.291  -6.722  1.00  0.00    -0.010 A 
ATOM     14  C   UNL     1       4.136  -3.756  -4.594  1.00  0.00     0.045 C 
ATOM     15  C   UNL     1       3.031  -4.939  -7.011  1.00  0.00    -0.011 A 
ATOM     16  C   UNL     1       0.654  -4.984  -6.401  1.00  0.00     0.012 A 
ATOM     17  C   UNL     1       3.127  -6.287  -6.723  1.00  0.00     0.048 A 
ATOM     18  C   UNL     1       0.735  -6.369  -6.264  1.00  0.00     0.040 A 
ATOM     19  C   UNL     1       1.975  -6.998  -6.382  1.00  0.00     0.123 A 
ATOM     20  F   UNL     1       2.081  -8.295  -6.065  1.00  0.00    -0.207 F 
BRANCH  10  21
ATOM     21  C   UNL     1       1.562  -0.922  -4.878  1.00  0.00    -0.025 A 
ATOM     22  C   UNL     1       0.710  -0.097  -2.349  1.00  0.00     0.007 A 
ATOM     23  C   UNL     1       1.946  -0.720  -2.503  1.00  0.00     0.015 A 
ATOM     24  C   UNL     1       0.013   0.306  -3.492  1.00  0.00     0.015 A 
ATOM     25  C   UNL     1       2.399  -1.064  -3.773  1.00  0.00     0.009 A 
ATOM     26  C   UNL     1       0.444  -0.092  -4.758  1.00  0.00     0.009 A 
BRANCH  22  27
ATOM     27  S   UNL     1      -0.134  -0.003  -0.781  1.00  0.00    -0.130 SA
ATOM     28  C   UNL     1       1.203   0.466   0.336  1.00  0.00     0.091 C 
ENDBRANCH  22  27
ENDBRANCH  10  21
ENDBRANCH   8   9
ENDBRANCH   6   8
ENDBRANCH   5   6
ENDBRANCH   4   5
ENDBRANCH   3   4
ENDBRANCH   2   3
ENDBRANCH   1   2
BRANCH   1  29
ATOM     29  C   UNL     1       6.530  -6.335  -8.283  1.00  0.00     0.188 C 
BRANCH  29  30
ATOM     30  O   UNL     1       7.460  -6.043  -7.254  1.00  0.00    -0.376 OA
BRANCH  30  31
ATOM     31  C   UNL     1       7.289  -6.787  -6.052  1.00  0.00     0.202 C 
BRANCH  31  32
ATOM     32  C   UNL     1       7.869  -8.204  -6.194  1.00  0.00     0.261 C 
BRANCH  32  33
ATOM     33  O   UNL     1       7.109  -9.059  -7.072  1.00  0.00    -0.460 OA
BRANCH  33  34
ATOM     34  C   UNL     1       5.853  -9.349  -6.651  1.00  0.00     0.338 C 
ATOM     35  O   UNL     1       5.362  -9.051  -5.580  1.00  0.00    -0.246 OA
BRANCH  34  36
ATOM     36  C   UNL     1       5.093  -9.895  -7.793  1.00  0.00     0.060 A 
ATOM     37  C   UNL     1       4.160  -9.077  -8.440  1.00  0.00     0.016 A 
ATOM     38  C   UNL     1       5.255 -11.213  -8.193  1.00  0.00     0.016 A 
ATOM     39  C   UNL     1       3.328  -9.570  -9.431  1.00  0.00     0.010 A 
ATOM     40  C   UNL     1       4.441 -11.710  -9.214  1.00  0.00     0.010 A 
ATOM     41  C   UNL     1       3.455 -10.899  -9.814  1.00  0.00    -0.014 A 
BRANCH  41  42
ATOM     42  C   UNL     1       2.479 -11.501 -10.744  1.00  0.00     0.031 A 
ATOM     43  C   UNL     1       1.523 -12.512 -10.197  1.00  0.00     0.074 A 
ATOM     44  C   UNL     1       2.461 -11.171 -12.046  1.00  0.00     0.049 A 
ATOM     45  N   UNL     1       0.829 -13.421 -10.823  1.00  0.00    -0.248 NA
ATOM     46  C   UNL     1       1.351 -12.504  -8.737  1.00  0.00     0.031 C 
ATOM     47  C   UNL     1       3.246 -10.103 -12.665  1.00  0.00     0.029 A 
ATOM     48  N   UNL     1       1.778 -11.739 -13.091  1.00  0.00    -0.354 N 
ATOM     49  C   UNL     1       0.184 -14.144  -9.826  1.00  0.00     0.074 A 
ATOM     50  C   UNL     1       0.571 -13.559  -8.559  1.00  0.00     0.031 C 
ATOM     51  C   UNL     1       3.039 -10.125 -13.991  1.00  0.00     0.029 A 
ATOM     52  C   UNL     1       2.181 -11.262 -14.315  1.00  0.00     0.049 A 
ATOM     53  H   UNL     1       1.074 -12.417 -12.976  1.00  0.00     0.167 HD
ATOM     54  C   UNL     1      -0.636 -15.213  -9.973  1.00  0.00     0.034 A 
ATOM     55  C   UNL     1       1.958 -11.746 -15.553  1.00  0.00     0.034 A 
ATOM     56  C   UNL     1      -0.999 -15.754 -11.260  1.00  0.00     0.049 A 
ATOM     57  C   UNL     1       1.132 -12.998 -15.702  1.00  0.00     0.074 A 
ATOM     58  C   UNL     1      -1.819 -16.829 -11.546  1.00  0.00     0.029 A 
ATOM     59  N   UNL     1      -0.554 -15.257 -12.481  1.00  0.00    -0.354 N 
ATOM     60  N   UNL     1       0.584 -13.742 -14.767  1.00  0.00    -0.248 NA
ATOM     61  C   UNL     1       0.902 -13.483 -17.068  1.00  0.00     0.031 C 
ATOM     62  C   UNL     1      -1.811 -17.027 -12.932  1.00  0.00     0.029 A 
ATOM     63  C   UNL     1      -1.056 -16.023 -13.520  1.00  0.00     0.049 A 
ATOM     64  H   UNL     1       0.034 -14.475 -12.591  1.00  0.00     0.167 HD
ATOM     65  C   UNL     1      -0.083 -14.765 -15.435  1.00  0.00     0.074 A 
ATOM     66  C   UNL     1       0.138 -14.545 -16.851  1.00  0.00     0.031 C 
ATOM     67  C   UNL     1      -0.823 -15.784 -14.927  1.00  0.00     0.034 A 
BRANCH  54  68
ATOM     68  C   UNL     1      -1.094 -15.906  -8.713  1.00  0.00     0.023 A 
ATOM     69  C   UNL     1      -1.874 -15.257  -7.741  1.00  0.00     0.031 A 
ATOM     70  C   UNL     1      -0.668 -17.219  -8.444  1.00  0.00     0.131 A 
ATOM     71  C   UNL     1      -2.122 -15.884  -6.510  1.00  0.00     0.055 A 
ATOM     72  C   UNL     1      -0.997 -17.873  -7.255  1.00  0.00     0.041 A 
ATOM     73  F   UNL     1       0.103 -17.882  -9.320  1.00  0.00    -0.206 F 
ATOM     74  C   UNL     1      -1.711 -17.197  -6.271  1.00  0.00     0.022 A 
BRANCH  71  75
ATOM     75  S   UNL     1      -2.825 -14.895  -5.161  1.00  0.00     0.124 S 
ATOM     76  O   UNL     1      -1.870 -13.791  -5.075  1.00  0.00    -0.237 OA
ATOM     77  O   UNL     1      -4.147 -14.557  -5.674  1.00  0.00    -0.237 OA
ATOM     78  O   UNL     1      -2.811 -15.810  -4.021  1.00  0.00    -0.744 OA
ENDBRANCH  71  75
ENDBRANCH  54  68
BRANCH  55  79
ATOM     79  C   UNL     1       2.608 -11.102 -16.727  1.00  0.00     0.023 A 
ATOM     80  C   UNL     1       1.851 -10.447 -17.709  1.00  0.00     0.031 A 
ATOM     81  C   UNL     1       4.007 -11.131 -16.879  1.00  0.00     0.131 A 
ATOM     82  C   UNL     1       2.496  -9.866 -18.812  1.00  0.00     0.055 A 
ATOM     83  C   UNL     1       4.646 -10.511 -17.953  1.00  0.00     0.041 A 
ATOM     84  F   UNL     1       4.777 -11.744 -15.966  1.00  0.00    -0.206 F 
ATOM     85  C   UNL     1       3.888  -9.879 -18.932  1.00  0.00     0.022 A 
BRANCH  82  86
ATOM     86  S   UNL     1       1.480  -9.126 -20.120  1.00  0.00     0.124 S 
ATOM     87  O   UNL     1       0.717 -10.277 -20.588  1.00  0.00    -0.237 OA
ATOM     88  O   UNL     1       0.730  -8.113 -19.386  1.00  0.00    -0.237 OA
ATOM     89  O   UNL     1       2.467  -8.605 -21.063  1.00  0.00    -0.744 OA
ENDBRANCH  82  86
ENDBRANCH  55  79
BRANCH  67  90
ATOM     90  C   UNL     1      -1.515 -16.694 -15.909  1.00  0.00     0.023 A 
ATOM     91  C   UNL     1      -0.811 -17.615 -16.703  1.00  0.00     0.031 A 
ATOM     92  C   UNL     1      -2.917 -16.656 -16.019  1.00  0.00     0.131 A 
ATOM     93  C   UNL     1      -1.513 -18.444 -17.593  1.00  0.00     0.055 A 
ATOM     94  C   UNL     1      -3.612 -17.517 -16.867  1.00  0.00     0.041 A 
ATOM     95  F   UNL     1      -3.636 -15.792 -15.284  1.00  0.00    -0.206 F 
ATOM     96  C   UNL     1      -2.909 -18.413 -17.666  1.00  0.00     0.022 A 
BRANCH  93  97
ATOM     97  S   UNL     1      -0.576 -19.534 -18.699  1.00  0.00     0.124 S 
ATOM     98  O   UNL     1       0.203 -18.578 -19.479  1.00  0.00    -0.237 OA
ATOM     99  O   UNL     1       0.180 -20.359 -17.762  1.00  0.00    -0.237 OA
ATOM    100  O   UNL     1      -1.615 -20.242 -19.445  1.00  0.00    -0.744 OA
ENDBRANCH  93  97
ENDBRANCH  67  90
ENDBRANCH  41  42
ENDBRANCH  34  36
ENDBRANCH  33  34
ENDBRANCH  32  33
ENDBRANCH  31  32
ENDBRANCH  30  31
ENDBRANCH  29  30
ENDBRANCH   1  29
TORSDOF 23
