REMARK SMILES Cc1ccc(-c2cc(C(=O)OCCOCCOCCOC(=O)c3ccc(-c4c5nc(c(-c6cc(S(=O)(=O)[O-])ccc6F)c6ccc([nH]6)c(-c6cc(S(=O)(=O)[O-])ccc6F)c6nc(c(-c7cc(S(=O)(=O)[O-])ccc7F)c7ccc4[nH]7)C=C6)C=C5)cc3)c3cc(C)ccc3n2)c(C)c1
REMARK SMILES IDX 16 1 15 2 14 3 13 4 12 5 11 6 9 7 10 8 8 9 6 10 7 11 93 12
REMARK SMILES IDX 92 13 86 14 91 15 87 16 90 17 88 18 89 19 5 20 1 21 2 22
REMARK SMILES IDX 3 23 96 24 4 25 94 26 95 27 17 28 18 29 19 30 20 31 21 32
REMARK SMILES IDX 22 33 23 34 24 35 85 36 25 37 84 38 26 39 27 40 28 41 78 42
REMARK SMILES IDX 29 43 83 44 77 45 79 46 30 47 82 48 76 49 75 50 31 52 63 53
REMARK SMILES IDX 43 54 62 55 44 56 47 57 61 58 80 59 45 60 46 61 60 63 81 64
REMARK SMILES IDX 48 65 32 66 33 67 41 68 34 69 40 70 42 71 39 72 35 73 36 74
REMARK SMILES IDX 37 75 38 76 64 77 65 78 73 79 66 80 72 81 74 82 71 83 67 84
REMARK SMILES IDX 68 85 69 86 70 87 49 88 50 89 58 90 51 91 57 92 59 93 56 94
REMARK SMILES IDX 52 95 53 96 54 97 55 98
REMARK H PARENT 79 51 47 62
REMARK Flexibility Score: inf
ROOT
ATOM      1  C   UNL     1      -3.505  -6.176   1.222  1.00  0.00     0.188 C 
ENDROOT
BRANCH   1   2
ATOM      2  C   UNL     1      -2.947  -5.841   2.624  1.00  0.00     0.188 C 
BRANCH   2   3
ATOM      3  O   UNL     1      -3.497  -6.488   3.766  1.00  0.00    -0.376 OA
BRANCH   3   4
ATOM      4  C   UNL     1      -4.904  -6.463   3.974  1.00  0.00     0.202 C 
BRANCH   4   5
ATOM      5  C   UNL     1      -5.671  -5.140   3.830  1.00  0.00     0.261 C 
BRANCH   5   6
ATOM      6  O   UNL     1      -5.440  -4.468   2.581  1.00  0.00    -0.460 OA
BRANCH   6   7
ATOM      7  C   UNL     1      -5.008  -3.186   2.657  1.00  0.00     0.338 C 
ATOM      8  O   UNL     1      -4.879  -2.525   3.674  1.00  0.00    -0.246 OA
BRANCH   7   9
ATOM      9  C   UNL     1      -4.522  -2.717   1.337  1.00  0.00     0.071 A 
ATOM     10  C   UNL     1      -2.749  -1.641   0.146  1.00  0.00     0.072 A 
ATOM     11  C   UNL     1      -3.250  -2.133   1.337  1.00  0.00     0.045 A 
ATOM     12  N   UNL     1      -3.455  -1.693  -1.005  1.00  0.00    -0.248 NA
ATOM     13  C   UNL     1      -4.672  -2.254  -1.007  1.00  0.00     0.072 A 
ATOM     14  C   UNL     1      -5.269  -2.817   0.139  1.00  0.00     0.015 A 
ATOM     15  C   UNL     1      -5.369  -2.266  -2.205  1.00  0.00     0.029 A 
ATOM     16  C   UNL     1      -6.545  -3.426   0.006  1.00  0.00     0.014 A 
ATOM     17  C   UNL     1      -6.627  -2.857  -2.325  1.00  0.00     0.005 A 
ATOM     18  C   UNL     1      -7.220  -3.458  -1.220  1.00  0.00    -0.050 A 
ATOM     19  C   UNL     1      -8.524  -4.187  -1.343  1.00  0.00     0.044 C 
BRANCH  10  20
ATOM     20  C   UNL     1      -1.450  -0.960   0.073  1.00  0.00     0.003 A 
ATOM     21  C   UNL     1       2.433   0.969   0.018  1.00  0.00     0.044 C 
ATOM     22  C   UNL     1       1.096   0.286   0.021  1.00  0.00    -0.051 A 
ATOM     23  C   UNL     1       0.992  -1.105  -0.011  1.00  0.00     0.004 A 
ATOM     24  C   UNL     1      -0.076   1.051   0.055  1.00  0.00     0.007 A 
ATOM     25  C   UNL     1      -0.266  -1.718   0.011  1.00  0.00     0.011 A 
ATOM     26  C   UNL     1      -1.347   0.447   0.082  1.00  0.00    -0.041 A 
ATOM     27  C   UNL     1      -2.549   1.351   0.093  1.00  0.00     0.045 C 
ENDBRANCH  10  20
ENDBRANCH   7   9
ENDBRANCH   6   7
ENDBRANCH   5   6
ENDBRANCH   4   5
ENDBRANCH   3   4
ENDBRANCH   2   3
ENDBRANCH   1   2
BRANCH   1  28
ATOM     28  O   UNL     1      -4.643  -7.005   1.239  1.00  0.00    -0.376 OA
BRANCH  28  29
ATOM     29  C   UNL     1      -4.486  -8.397   1.025  1.00  0.00     0.202 C 
BRANCH  29  30
ATOM     30  C   UNL     1      -3.219  -9.209   1.378  1.00  0.00     0.261 C 
BRANCH  30  31
ATOM     31  O   UNL     1      -2.006  -8.507   1.667  1.00  0.00    -0.460 OA
BRANCH  31  32
ATOM     32  C   UNL     1      -1.139  -8.340   0.642  1.00  0.00     0.338 C 
ATOM     33  O   UNL     1      -1.312  -8.678  -0.523  1.00  0.00    -0.246 OA
BRANCH  32  34
ATOM     34  C   UNL     1      -0.010  -7.514   1.111  1.00  0.00     0.060 A 
ATOM     35  C   UNL     1       0.140  -6.215   0.607  1.00  0.00     0.016 A 
ATOM     36  C   UNL     1       0.907  -8.022   2.035  1.00  0.00     0.016 A 
ATOM     37  C   UNL     1       1.218  -5.427   1.017  1.00  0.00     0.010 A 
ATOM     38  C   UNL     1       1.997  -7.235   2.428  1.00  0.00     0.010 A 
ATOM     39  C   UNL     1       2.171  -5.941   1.905  1.00  0.00    -0.014 A 
BRANCH  39  40
ATOM     40  C   UNL     1       3.439  -5.200   2.136  1.00  0.00     0.031 A 
ATOM     41  C   UNL     1       4.660  -5.615   1.358  1.00  0.00     0.074 A 
ATOM     42  C   UNL     1       3.504  -4.154   2.982  1.00  0.00     0.049 A 
ATOM     43  N   UNL     1       5.891  -5.187   1.449  1.00  0.00    -0.248 NA
ATOM     44  C   UNL     1       4.456  -6.653   0.334  1.00  0.00     0.031 C 
ATOM     45  C   UNL     1       2.377  -3.599   3.730  1.00  0.00     0.029 A 
ATOM     46  N   UNL     1       4.571  -3.374   3.358  1.00  0.00    -0.354 N 
ATOM     47  C   UNL     1       6.610  -5.897   0.493  1.00  0.00     0.074 A 
ATOM     48  C   UNL     1       5.683  -6.812  -0.137  1.00  0.00     0.031 C 
ATOM     49  C   UNL     1       2.817  -2.577   4.487  1.00  0.00     0.029 A 
ATOM     50  C   UNL     1       4.262  -2.436   4.318  1.00  0.00     0.049 A 
ATOM     51  H   UNL     1       5.473  -3.477   2.977  1.00  0.00     0.167 HD
ATOM     52  C   UNL     1       7.920  -5.787   0.163  1.00  0.00     0.034 A 
ATOM     53  C   UNL     1       5.062  -1.590   5.003  1.00  0.00     0.034 A 
ATOM     54  C   UNL     1       8.841  -4.886   0.809  1.00  0.00     0.049 A 
ATOM     55  C   UNL     1       6.550  -1.591   4.715  1.00  0.00     0.074 A 
ATOM     56  C   UNL     1      10.195  -4.722   0.572  1.00  0.00     0.029 A 
ATOM     57  N   UNL     1       8.505  -3.998   1.821  1.00  0.00    -0.354 N 
ATOM     58  N   UNL     1       7.223  -2.287   3.827  1.00  0.00    -0.248 NA
ATOM     59  C   UNL     1       7.385  -0.686   5.518  1.00  0.00     0.031 C 
ATOM     60  C   UNL     1      10.690  -3.786   1.485  1.00  0.00     0.029 A 
ATOM     61  C   UNL     1       9.630  -3.302   2.234  1.00  0.00     0.049 A 
ATOM     62  H   UNL     1       7.601  -3.880   2.192  1.00  0.00     0.167 HD
ATOM     63  C   UNL     1       8.547  -1.863   3.936  1.00  0.00     0.074 A 
ATOM     64  C   UNL     1       8.575  -0.844   4.961  1.00  0.00     0.031 C 
ATOM     65  C   UNL     1       9.643  -2.275   3.248  1.00  0.00     0.034 A 
BRANCH  52  66
ATOM     66  C   UNL     1       8.441  -6.697  -0.921  1.00  0.00     0.023 A 
ATOM     67  C   UNL     1       8.004  -6.581  -2.252  1.00  0.00     0.031 A 
ATOM     68  C   UNL     1       9.387  -7.692  -0.621  1.00  0.00     0.131 A 
ATOM     69  C   UNL     1       8.474  -7.477  -3.223  1.00  0.00     0.055 A 
ATOM     70  C   UNL     1       9.908  -8.533  -1.606  1.00  0.00     0.041 A 
ATOM     71  F   UNL     1       9.821  -7.866   0.638  1.00  0.00    -0.206 F 
ATOM     72  C   UNL     1       9.444  -8.435  -2.914  1.00  0.00     0.022 A 
BRANCH  69  73
ATOM     73  S   UNL     1       7.715  -7.451  -4.869  1.00  0.00     0.124 S 
ATOM     74  O   UNL     1       6.321  -7.754  -4.554  1.00  0.00    -0.237 OA
ATOM     75  O   UNL     1       7.987  -6.091  -5.320  1.00  0.00    -0.237 OA
ATOM     76  O   UNL     1       8.427  -8.503  -5.591  1.00  0.00    -0.744 OA
ENDBRANCH  69  73
ENDBRANCH  52  66
BRANCH  53  77
ATOM     77  C   UNL     1       4.515  -0.705   6.078  1.00  0.00     0.023 A 
ATOM     78  C   UNL     1       4.681   0.689   6.021  1.00  0.00     0.031 A 
ATOM     79  C   UNL     1       3.934  -1.246   7.239  1.00  0.00     0.131 A 
ATOM     80  C   UNL     1       4.353   1.482   7.133  1.00  0.00     0.055 A 
ATOM     81  C   UNL     1       3.537  -0.445   8.311  1.00  0.00     0.041 A 
ATOM     82  F   UNL     1       3.761  -2.572   7.358  1.00  0.00    -0.206 F 
ATOM     83  C   UNL     1       3.767   0.926   8.271  1.00  0.00     0.022 A 
BRANCH  80  84
ATOM     84  S   UNL     1       4.853   3.227   7.129  1.00  0.00     0.124 S 
ATOM     85  O   UNL     1       6.288   3.120   6.891  1.00  0.00    -0.237 OA
ATOM     86  O   UNL     1       4.058   3.767   6.032  1.00  0.00    -0.237 OA
ATOM     87  O   UNL     1       4.473   3.692   8.461  1.00  0.00    -0.744 OA
ENDBRANCH  80  84
ENDBRANCH  53  77
BRANCH  65  88
ATOM     88  C   UNL     1      10.948  -1.565   3.527  1.00  0.00     0.023 A 
ATOM     89  C   UNL     1      11.595  -1.652   4.772  1.00  0.00     0.031 A 
ATOM     90  C   UNL     1      11.551  -0.784   2.523  1.00  0.00     0.131 A 
ATOM     91  C   UNL     1      12.772  -0.923   5.000  1.00  0.00     0.055 A 
ATOM     92  C   UNL     1      12.757  -0.116   2.735  1.00  0.00     0.041 A 
ATOM     93  F   UNL     1      10.979  -0.663   1.314  1.00  0.00    -0.206 F 
ATOM     94  C   UNL     1      13.367  -0.171   3.984  1.00  0.00     0.022 A 
BRANCH  91  95
ATOM     95  S   UNL     1      13.468  -0.892   6.675  1.00  0.00     0.124 S 
ATOM     96  O   UNL     1      12.357  -0.358   7.456  1.00  0.00    -0.237 OA
ATOM     97  O   UNL     1      13.791  -2.296   6.905  1.00  0.00    -0.237 OA
ATOM     98  O   UNL     1      14.623  -0.004   6.551  1.00  0.00    -0.744 OA
ENDBRANCH  91  95
ENDBRANCH  65  88
ENDBRANCH  39  40
ENDBRANCH  32  34
ENDBRANCH  31  32
ENDBRANCH  30  31
ENDBRANCH  29  30
ENDBRANCH  28  29
ENDBRANCH   1  28
TORSDOF 21
