REMARK SMILES Cc1ccc(C2=NN(C(=O)CCC(=O)OCCOCCOCCOC(=O)c3ccc(-c4c5nc(c(-c6cc(S(=O)(=O)[O-])ccc6F)c6ccc([nH]6)c(-c6cc(S(=O)(=O)[O-])ccc6F)c6nc(c(-c7cc(S(=O)(=O)[O-])ccc7F)c7ccc4[nH]7)C=C6)C=C5)cc3)[C@H](C[C@@H]3C=c4cccc(C)c4=NC3=O)C2)cc1
REMARK SMILES IDX 19 1 18 2 17 3 16 4 15 5 13 6 14 7 12 8 11 9 9 10 10 11 8 12
REMARK SMILES IDX 6 13 7 14 104 15 90 16 5 17 1 18 2 19 3 20 106 21 4 22
REMARK SMILES IDX 105 23 91 24 92 25 93 26 102 27 94 28 101 29 103 30 95 31
REMARK SMILES IDX 100 32 96 33 98 34 97 35 99 36 20 37 21 38 22 39 23 40 24 41
REMARK SMILES IDX 25 42 26 43 27 44 28 45 89 46 29 47 88 48 30 49 31 50 32 51
REMARK SMILES IDX 82 52 33 53 87 54 81 55 83 56 34 57 86 58 80 59 79 60 35 62
REMARK SMILES IDX 67 63 47 64 66 65 48 66 51 67 65 68 84 69 49 70 50 71 64 73
REMARK SMILES IDX 85 74 52 75 36 76 37 77 45 78 38 79 44 80 46 81 43 82 39 83
REMARK SMILES IDX 40 84 41 85 42 86 68 87 69 88 77 89 70 90 76 91 78 92 75 93
REMARK SMILES IDX 71 94 72 95 73 96 74 97 53 98 54 99 62 100 55 101 61 102
REMARK SMILES IDX 63 103 60 104 56 105 57 106 58 107 59 108
REMARK H PARENT 83 61 51 72
REMARK Flexibility Score: inf
ROOT
ATOM      1  C   UNL     1      -6.483   1.564  -4.040  1.00  0.00     0.188 C 
ENDROOT
BRANCH   1   2
ATOM      2  O   UNL     1      -5.699   2.486  -3.212  1.00  0.00    -0.376 OA
BRANCH   2   3
ATOM      3  C   UNL     1      -4.478   2.189  -2.511  1.00  0.00     0.202 C 
BRANCH   3   4
ATOM      4  C   UNL     1      -4.146   2.846  -0.993  1.00  0.00     0.261 C 
BRANCH   4   5
ATOM      5  O   UNL     1      -4.393   2.210   0.425  1.00  0.00    -0.463 OA
BRANCH   5   6
ATOM      6  C   UNL     1      -5.607   1.629   0.585  1.00  0.00     0.306 C 
ATOM      7  O   UNL     1      -6.196   1.619  -0.495  1.00  0.00    -0.252 OA
BRANCH   6   8
ATOM      8  C   UNL     1      -6.298   0.722   2.109  1.00  0.00     0.132 C 
BRANCH   8   9
ATOM      9  C   UNL     1      -5.920  -0.597   2.701  1.00  0.00     0.114 C 
BRANCH   9  10
ATOM     10  C   UNL     1      -4.925  -1.505   2.062  1.00  0.00     0.243 C 
ATOM     11  O   UNL     1      -4.570  -2.452   2.785  1.00  0.00    -0.273 OA
BRANCH  10  12
ATOM     12  N   UNL     1      -4.322  -1.274   0.833  1.00  0.00    -0.230 N 
ATOM     13  C   UNL     1      -2.399  -0.732   0.043  1.00  0.00     0.070 C 
ATOM     14  N   UNL     1      -2.999  -1.096   1.114  1.00  0.00    -0.174 NA
ATOM     15  C   UNL     1      -3.160  -0.802  -1.249  1.00  0.00     0.086 C 
ATOM     16  C   UNL     1      -4.569  -0.707  -0.661  1.00  0.00     0.118 C 
BRANCH  13  17
ATOM     17  C   UNL     1      -0.998  -0.418   0.102  1.00  0.00    -0.002 A 
ATOM     18  C   UNL     1       3.186   0.115  -0.077  1.00  0.00     0.044 C 
ATOM     19  C   UNL     1       1.708  -0.043   0.070  1.00  0.00    -0.051 A 
ATOM     20  C   UNL     1       1.186  -1.343   0.110  1.00  0.00     0.004 A 
ATOM     21  C   UNL     1       0.855   1.073   0.147  1.00  0.00     0.004 A 
ATOM     22  C   UNL     1      -0.176  -1.533   0.147  1.00  0.00     0.010 A 
ATOM     23  C   UNL     1      -0.522   0.888   0.175  1.00  0.00     0.010 A 
ENDBRANCH  13  17
BRANCH  16  24
ATOM     24  C   UNL     1      -5.993  -0.690  -1.731  1.00  0.00     0.045 C 
BRANCH  24  25
ATOM     25  C   UNL     1      -7.874  -0.913  -1.590  1.00  0.00     0.106 C 
ATOM     26  C   UNL     1      -8.846  -1.670   0.238  1.00  0.00    -0.003 C 
ATOM     27  C   UNL     1      -8.629  -2.035  -3.115  1.00  0.00     0.253 C 
ATOM     28  C   UNL     1      -9.569  -2.956   0.278  1.00  0.00    -0.003 A 
ATOM     29  N   UNL     1      -9.550  -3.456  -2.630  1.00  0.00    -0.212 NA
ATOM     30  O   UNL     1      -8.567  -1.737  -4.297  1.00  0.00    -0.272 OA
ATOM     31  C   UNL     1      -9.409  -3.702   1.513  1.00  0.00     0.010 A 
ATOM     32  C   UNL     1      -9.836  -3.883  -1.282  1.00  0.00     0.077 A 
ATOM     33  C   UNL     1      -9.418  -5.035   1.503  1.00  0.00     0.001 A 
ATOM     34  C   UNL     1     -10.013  -5.356  -0.913  1.00  0.00    -0.025 A 
ATOM     35  C   UNL     1      -9.776  -5.808   0.340  1.00  0.00     0.005 A 
ATOM     36  C   UNL     1     -10.237  -6.337  -2.014  1.00  0.00     0.047 C 
ENDBRANCH  24  25
ENDBRANCH  16  24
ENDBRANCH  10  12
ENDBRANCH   9  10
ENDBRANCH   8   9
ENDBRANCH   6   8
ENDBRANCH   5   6
ENDBRANCH   4   5
ENDBRANCH   3   4
ENDBRANCH   2   3
ENDBRANCH   1   2
BRANCH   1  37
ATOM     37  C   UNL     1      -6.014   0.405  -5.018  1.00  0.00     0.188 C 
BRANCH  37  38
ATOM     38  O   UNL     1      -6.085  -0.942  -4.517  1.00  0.00    -0.376 OA
BRANCH  38  39
ATOM     39  C   UNL     1      -4.950  -1.816  -4.540  1.00  0.00     0.202 C 
BRANCH  39  40
ATOM     40  C   UNL     1      -5.357  -3.242  -3.959  1.00  0.00     0.261 C 
BRANCH  40  41
ATOM     41  O   UNL     1      -5.957  -3.156  -2.614  1.00  0.00    -0.460 OA
BRANCH  41  42
ATOM     42  C   UNL     1      -7.128  -3.798  -2.286  1.00  0.00     0.338 C 
ATOM     43  O   UNL     1      -7.409  -4.886  -2.747  1.00  0.00    -0.246 OA
BRANCH  42  44
ATOM     44  C   UNL     1      -8.013  -2.739  -1.247  1.00  0.00     0.060 A 
ATOM     45  C   UNL     1      -9.645  -1.546  -1.472  1.00  0.00     0.016 A 
ATOM     46  C   UNL     1      -6.873  -2.224  -0.201  1.00  0.00     0.016 A 
ATOM     47  C   UNL     1      -9.698   0.111  -0.726  1.00  0.00     0.010 A 
ATOM     48  C   UNL     1      -7.116  -0.542   0.310  1.00  0.00     0.010 A 
ATOM     49  C   UNL     1      -8.375   0.724   0.155  1.00  0.00    -0.014 A 
BRANCH  49  50
ATOM     50  C   UNL     1      -8.034   2.471   0.709  1.00  0.00     0.031 A 
ATOM     51  C   UNL     1      -7.020   3.238   2.080  1.00  0.00     0.074 A 
ATOM     52  C   UNL     1      -7.957   3.375  -0.331  1.00  0.00     0.049 A 
ATOM     53  N   UNL     1      -7.115   4.434   2.674  1.00  0.00    -0.248 NA
ATOM     54  C   UNL     1      -5.745   2.734   2.877  1.00  0.00     0.031 C 
ATOM     55  C   UNL     1      -6.933   4.444  -0.413  1.00  0.00     0.029 A 
ATOM     56  N   UNL     1      -8.481   3.402  -1.633  1.00  0.00    -0.354 N 
ATOM     57  C   UNL     1      -5.992   4.468   3.631  1.00  0.00     0.074 A 
ATOM     58  C   UNL     1      -5.951   3.162   4.119  1.00  0.00     0.031 C 
ATOM     59  C   UNL     1      -7.009   5.101  -1.583  1.00  0.00     0.029 A 
ATOM     60  C   UNL     1      -8.276   4.725  -2.142  1.00  0.00     0.049 A 
ATOM     61  H   UNL     1      -8.909   2.653  -2.108  1.00  0.00     0.167 HD
ATOM     62  C   UNL     1      -4.737   5.096   3.470  1.00  0.00     0.034 A 
ATOM     63  C   UNL     1      -9.314   5.612  -2.262  1.00  0.00     0.034 A 
ATOM     64  C   UNL     1      -4.810   6.017   2.380  1.00  0.00     0.049 A 
ATOM     65  C   UNL     1      -9.209   6.776  -1.261  1.00  0.00     0.074 A 
ATOM     66  C   UNL     1      -4.162   6.370   1.217  1.00  0.00     0.029 A 
ATOM     67  N   UNL     1      -5.978   6.705   2.388  1.00  0.00    -0.354 N 
ATOM     68  N   UNL     1      -8.292   6.806  -0.324  1.00  0.00    -0.248 NA
ATOM     69  C   UNL     1      -9.989   8.012  -1.230  1.00  0.00     0.031 C 
ATOM     70  C   UNL     1      -5.048   7.277   0.519  1.00  0.00     0.029 A 
ATOM     71  C   UNL     1      -6.166   7.487   1.313  1.00  0.00     0.049 A 
ATOM     72  H   UNL     1      -6.633   6.637   3.120  1.00  0.00     0.167 HD
ATOM     73  C   UNL     1      -8.316   7.966   0.387  1.00  0.00     0.074 A 
ATOM     74  C   UNL     1      -9.429   8.681  -0.197  1.00  0.00     0.031 C 
ATOM     75  C   UNL     1      -7.412   8.220   1.383  1.00  0.00     0.034 A 
BRANCH  62  76
ATOM     76  C   UNL     1      -3.379   4.783   4.219  1.00  0.00     0.023 A 
ATOM     77  C   UNL     1      -2.431   5.827   4.311  1.00  0.00     0.031 A 
ATOM     78  C   UNL     1      -2.931   3.571   4.831  1.00  0.00     0.131 A 
ATOM     79  C   UNL     1      -1.215   5.691   5.036  1.00  0.00     0.055 A 
ATOM     80  C   UNL     1      -1.754   3.456   5.604  1.00  0.00     0.041 A 
ATOM     81  F   UNL     1      -3.550   2.393   4.668  1.00  0.00    -0.206 F 
ATOM     82  C   UNL     1      -0.893   4.526   5.723  1.00  0.00     0.022 A 
BRANCH  79  83
ATOM     83  S   UNL     1      -0.048   7.081   5.086  1.00  0.00     0.124 S 
ATOM     84  O   UNL     1       0.426   7.123   3.706  1.00  0.00    -0.237 OA
ATOM     85  O   UNL     1      -0.900   8.183   5.516  1.00  0.00    -0.237 OA
ATOM     86  O   UNL     1       0.951   6.657   6.067  1.00  0.00    -0.744 OA
ENDBRANCH  79  83
ENDBRANCH  62  76
BRANCH  63  87
ATOM     87  C   UNL     1     -10.473   4.911  -2.911  1.00  0.00     0.023 A 
ATOM     88  C   UNL     1     -10.256   4.537  -4.267  1.00  0.00     0.031 A 
ATOM     89  C   UNL     1     -11.243   4.037  -2.123  1.00  0.00     0.131 A 
ATOM     90  C   UNL     1     -10.543   3.227  -4.699  1.00  0.00     0.055 A 
ATOM     91  C   UNL     1     -11.550   2.742  -2.572  1.00  0.00     0.041 A 
ATOM     92  F   UNL     1     -11.483   4.322  -0.834  1.00  0.00    -0.206 F 
ATOM     93  C   UNL     1     -11.128   2.305  -3.830  1.00  0.00     0.022 A 
BRANCH  90  94
ATOM     94  S   UNL     1      -9.937   2.666  -6.327  1.00  0.00     0.124 S 
ATOM     95  O   UNL     1     -10.979   3.161  -7.221  1.00  0.00    -0.237 OA
ATOM     96  O   UNL     1      -8.638   3.323  -6.444  1.00  0.00    -0.237 OA
ATOM     97  O   UNL     1      -9.871   1.215  -6.186  1.00  0.00    -0.744 OA
ENDBRANCH  90  94
ENDBRANCH  63  87
BRANCH  75  98
ATOM     98  C   UNL     1      -7.723   8.996   2.680  1.00  0.00     0.023 A 
ATOM     99  C   UNL     1      -8.949   9.618   2.865  1.00  0.00     0.031 A 
ATOM    100  C   UNL     1      -6.870   9.029   3.836  1.00  0.00     0.131 A 
ATOM    101  C   UNL     1      -9.244  10.322   4.044  1.00  0.00     0.055 A 
ATOM    102  C   UNL     1      -7.224   9.608   5.059  1.00  0.00     0.041 A 
ATOM    103  F   UNL     1      -5.649   8.476   3.864  1.00  0.00    -0.206 F 
ATOM    104  C   UNL     1      -8.409  10.304   5.156  1.00  0.00     0.022 A 
BRANCH 101 105
ATOM    105  S   UNL     1     -10.689  11.395   3.990  1.00  0.00     0.124 S 
ATOM    106  O   UNL     1     -10.403  12.210   2.811  1.00  0.00    -0.237 OA
ATOM    107  O   UNL     1     -11.779  10.436   3.847  1.00  0.00    -0.237 OA
ATOM    108  O   UNL     1     -10.636  12.106   5.264  1.00  0.00    -0.744 OA
ENDBRANCH 101 105
ENDBRANCH  75  98
ENDBRANCH  49  50
ENDBRANCH  42  44
ENDBRANCH  41  42
ENDBRANCH  40  41
ENDBRANCH  39  40
ENDBRANCH  38  39
ENDBRANCH  37  38
ENDBRANCH   1  37
TORSDOF 26
