REMARK SMILES COC(=O)[C@H]1CCN(S(=O)(=O)N2CCC[C@H](C(=O)OCCOCCOCCOC(=O)c3ccc(-c4c5nc(c(-c6cc(S(=O)(=O)[O-])ccc6F)c6ccc([nH]6)c(-c6cc(S(=O)(=O)[O-])ccc6F)c6nc(c(-c7cc(S(=O)(=O)[O-])ccc7F)c7ccc4[nH]7)C=C6)C=C5)cc3)C2)C1
REMARK SMILES IDX 23 1 22 2 21 3 20 4 19 5 17 6 18 7 16 8 12 9 13 10 94 11
REMARK SMILES IDX 14 12 15 13 9 14 10 15 11 16 8 17 5 18 6 19 95 20 7 21 3 22
REMARK SMILES IDX 4 23 2 24 1 25 24 26 25 27 26 28 27 29 28 30 29 31 30 32
REMARK SMILES IDX 31 33 32 34 93 35 33 36 92 37 34 38 35 39 36 40 86 41 37 42
REMARK SMILES IDX 91 43 85 44 87 45 38 46 90 47 84 48 83 49 39 51 71 52 51 53
REMARK SMILES IDX 70 54 52 55 55 56 69 57 88 58 53 59 54 60 68 62 89 63 56 64
REMARK SMILES IDX 40 65 41 66 49 67 42 68 48 69 50 70 47 71 43 72 44 73 45 74
REMARK SMILES IDX 46 75 72 76 73 77 81 78 74 79 80 80 82 81 79 82 75 83 76 84
REMARK SMILES IDX 77 85 78 86 57 87 58 88 66 89 59 90 65 91 67 92 64 93 60 94
REMARK SMILES IDX 61 95 62 96 63 97
REMARK H PARENT 87 50 55 61
REMARK Flexibility Score: inf
ROOT
ATOM      1  C   UNL     1      -3.811 -10.123  -3.057  1.00  0.00     0.188 C 
ENDROOT
BRANCH   1   2
ATOM      2  O   UNL     1      -4.335 -10.389  -4.354  1.00  0.00    -0.376 OA
BRANCH   2   3
ATOM      3  C   UNL     1      -3.429 -10.332  -5.458  1.00  0.00     0.202 C 
BRANCH   3   4
ATOM      4  C   UNL     1      -2.624  -9.036  -5.656  1.00  0.00     0.261 C 
BRANCH   4   5
ATOM      5  O   UNL     1      -1.694  -8.751  -4.588  1.00  0.00    -0.463 OA
BRANCH   5   6
ATOM      6  C   UNL     1      -1.990  -7.663  -3.839  1.00  0.00     0.310 C 
ATOM      7  O   UNL     1      -2.942  -6.916  -4.055  1.00  0.00    -0.252 OA
BRANCH   6   8
ATOM      8  C   UNL     1      -1.118  -7.478  -2.609  1.00  0.00     0.114 C 
ATOM      9  N   UNL     1       0.420  -5.978  -3.754  1.00  0.00    -0.188 NA
ATOM     10  C   UNL     1       1.626  -6.778  -3.492  1.00  0.00     0.103 C 
ATOM     11  C   UNL     1      -0.599  -6.061  -2.694  1.00  0.00     0.118 C 
ATOM     12  C   UNL     1       1.231  -8.241  -3.266  1.00  0.00     0.018 C 
ATOM     13  C   UNL     1       0.060  -8.405  -2.301  1.00  0.00     0.018 C 
BRANCH   9  14
ATOM     14  S   UNL     1       0.535  -4.577  -4.650  1.00  0.00     0.282 S 
ATOM     15  O   UNL     1      -0.786  -4.139  -5.015  1.00  0.00    -0.195 OA
ATOM     16  O   UNL     1       1.549  -4.780  -5.666  1.00  0.00    -0.195 OA
BRANCH  14  17
ATOM     17  N   UNL     1       1.163  -3.454  -3.539  1.00  0.00    -0.188 NA
ATOM     18  C   UNL     1       0.594  -1.089  -3.660  1.00  0.00     0.116 C 
ATOM     19  C   UNL     1      -0.433  -1.832  -2.825  1.00  0.00     0.033 C 
ATOM     20  C   UNL     1       1.537  -2.159  -4.209  1.00  0.00     0.118 C 
ATOM     21  C   UNL     1       0.335  -3.050  -2.373  1.00  0.00     0.104 C 
BRANCH  18  22
ATOM     22  C   UNL     1       0.019  -0.278  -4.793  1.00  0.00     0.310 C 
ATOM     23  O   UNL     1       0.504   0.785  -5.164  1.00  0.00    -0.252 OA
BRANCH  22  24
ATOM     24  O   UNL     1      -1.034  -0.898  -5.379  1.00  0.00    -0.469 OA
ATOM     25  C   UNL     1      -1.612  -0.206  -6.483  1.00  0.00     0.282 C 
ENDBRANCH  22  24
ENDBRANCH  18  22
ENDBRANCH  14  17
ENDBRANCH   9  14
ENDBRANCH   6   8
ENDBRANCH   5   6
ENDBRANCH   4   5
ENDBRANCH   3   4
ENDBRANCH   2   3
ENDBRANCH   1   2
BRANCH   1  26
ATOM     26  C   UNL     1      -2.655 -11.017  -2.605  1.00  0.00     0.188 C 
BRANCH  26  27
ATOM     27  O   UNL     1      -1.696 -11.287  -3.609  1.00  0.00    -0.376 OA
BRANCH  27  28
ATOM     28  C   UNL     1      -0.890 -12.457  -3.521  1.00  0.00     0.202 C 
BRANCH  28  29
ATOM     29  C   UNL     1      -1.540 -13.790  -3.091  1.00  0.00     0.261 C 
BRANCH  29  30
ATOM     30  O   UNL     1      -2.242 -13.807  -1.831  1.00  0.00    -0.460 OA
BRANCH  30  31
ATOM     31  C   UNL     1      -1.615 -13.280  -0.751  1.00  0.00     0.338 C 
ATOM     32  O   UNL     1      -0.422 -13.043  -0.666  1.00  0.00    -0.246 OA
BRANCH  31  33
ATOM     33  C   UNL     1      -2.651 -12.760   0.193  1.00  0.00     0.060 A 
ATOM     34  C   UNL     1      -2.394 -11.541   0.838  1.00  0.00     0.016 A 
ATOM     35  C   UNL     1      -3.890 -13.384   0.375  1.00  0.00     0.016 A 
ATOM     36  C   UNL     1      -3.343 -10.973   1.695  1.00  0.00     0.010 A 
ATOM     37  C   UNL     1      -4.836 -12.821   1.246  1.00  0.00     0.010 A 
ATOM     38  C   UNL     1      -4.555 -11.631   1.942  1.00  0.00    -0.014 A 
BRANCH  38  39
ATOM     39  C   UNL     1      -5.406 -11.213   3.093  1.00  0.00     0.031 A 
ATOM     40  C   UNL     1      -5.272 -11.981   4.384  1.00  0.00     0.074 A 
ATOM     41  C   UNL     1      -6.247 -10.163   3.035  1.00  0.00     0.049 A 
ATOM     42  N   UNL     1      -5.920 -11.847   5.512  1.00  0.00    -0.248 NA
ATOM     43  C   UNL     1      -4.267 -13.053   4.389  1.00  0.00     0.031 C 
ATOM     44  C   UNL     1      -6.432  -9.286   1.881  1.00  0.00     0.029 A 
ATOM     45  N   UNL     1      -7.105  -9.656   3.983  1.00  0.00    -0.354 N 
ATOM     46  C   UNL     1      -5.402 -12.818   6.363  1.00  0.00     0.074 A 
ATOM     47  C   UNL     1      -4.430 -13.568   5.595  1.00  0.00     0.031 C 
ATOM     48  C   UNL     1      -7.344  -8.346   2.192  1.00  0.00     0.029 A 
ATOM     49  C   UNL     1      -7.840  -8.576   3.549  1.00  0.00     0.049 A 
ATOM     50  H   UNL     1      -7.186 -10.032   4.889  1.00  0.00     0.167 HD
ATOM     51  C   UNL     1      -5.691 -13.058   7.668  1.00  0.00     0.034 A 
ATOM     52  C   UNL     1      -8.811  -7.870   4.168  1.00  0.00     0.034 A 
ATOM     53  C   UNL     1      -6.681 -12.328   8.420  1.00  0.00     0.049 A 
ATOM     54  C   UNL     1      -9.224  -8.245   5.575  1.00  0.00     0.074 A 
ATOM     55  C   UNL     1      -7.059 -12.497   9.742  1.00  0.00     0.029 A 
ATOM     56  N   UNL     1      -7.469 -11.301   7.915  1.00  0.00    -0.354 N 
ATOM     57  N   UNL     1      -8.733  -9.170   6.367  1.00  0.00    -0.248 NA
ATOM     58  C   UNL     1     -10.325  -7.471   6.169  1.00  0.00     0.031 C 
ATOM     59  C   UNL     1      -8.129 -11.636  10.008  1.00  0.00     0.029 A 
ATOM     60  C   UNL     1      -8.357 -10.857   8.885  1.00  0.00     0.049 A 
ATOM     61  H   UNL     1      -7.407 -10.940   7.001  1.00  0.00     0.167 HD
ATOM     62  C   UNL     1      -9.438  -9.059   7.566  1.00  0.00     0.074 A 
ATOM     63  C   UNL     1     -10.380  -7.973   7.394  1.00  0.00     0.031 C 
ATOM     64  C   UNL     1      -9.308  -9.782   8.709  1.00  0.00     0.034 A 
BRANCH  51  65
ATOM     65  C   UNL     1      -4.957 -14.203   8.329  1.00  0.00     0.023 A 
ATOM     66  C   UNL     1      -3.554 -14.213   8.440  1.00  0.00     0.031 A 
ATOM     67  C   UNL     1      -5.657 -15.334   8.783  1.00  0.00     0.131 A 
ATOM     68  C   UNL     1      -2.895 -15.369   8.883  1.00  0.00     0.055 A 
ATOM     69  C   UNL     1      -4.999 -16.441   9.322  1.00  0.00     0.041 A 
ATOM     70  F   UNL     1      -6.994 -15.397   8.683  1.00  0.00    -0.206 F 
ATOM     71  C   UNL     1      -3.608 -16.473   9.352  1.00  0.00     0.022 A 
BRANCH  68  72
ATOM     72  S   UNL     1      -1.100 -15.483   8.636  1.00  0.00     0.124 S 
ATOM     73  O   UNL     1      -0.986 -15.256   7.197  1.00  0.00    -0.237 OA
ATOM     74  O   UNL     1      -0.596 -14.417   9.493  1.00  0.00    -0.237 OA
ATOM     75  O   UNL     1      -0.781 -16.841   9.072  1.00  0.00    -0.744 OA
ENDBRANCH  68  72
ENDBRANCH  51  65
BRANCH  52  76
ATOM     76  C   UNL     1      -9.494  -6.742   3.467  1.00  0.00     0.023 A 
ATOM     77  C   UNL     1      -9.406  -5.428   3.957  1.00  0.00     0.031 A 
ATOM     78  C   UNL     1     -10.295  -6.968   2.333  1.00  0.00     0.131 A 
ATOM     79  C   UNL     1     -10.136  -4.399   3.341  1.00  0.00     0.055 A 
ATOM     80  C   UNL     1     -10.975  -5.931   1.691  1.00  0.00     0.041 A 
ATOM     81  F   UNL     1     -10.425  -8.205   1.830  1.00  0.00    -0.206 F 
ATOM     82  C   UNL     1     -10.906  -4.638   2.201  1.00  0.00     0.022 A 
BRANCH  79  83
ATOM     83  S   UNL     1     -10.125  -2.750   4.099  1.00  0.00     0.124 S 
ATOM     84  O   UNL     1     -10.698  -3.024   5.412  1.00  0.00    -0.237 OA
ATOM     85  O   UNL     1      -8.705  -2.415   4.075  1.00  0.00    -0.237 OA
ATOM     86  O   UNL     1     -10.965  -1.958   3.203  1.00  0.00    -0.744 OA
ENDBRANCH  79  83
ENDBRANCH  52  76
BRANCH  64  87
ATOM     87  C   UNL     1     -10.170  -9.385   9.889  1.00  0.00     0.023 A 
ATOM     88  C   UNL     1     -11.572  -9.488   9.860  1.00  0.00     0.031 A 
ATOM     89  C   UNL     1      -9.575  -8.882  11.061  1.00  0.00     0.131 A 
ATOM     90  C   UNL     1     -12.333  -9.036  10.951  1.00  0.00     0.055 A 
ATOM     91  C   UNL     1     -10.332  -8.501  12.170  1.00  0.00     0.041 A 
ATOM     92  F   UNL     1      -8.241  -8.755  11.150  1.00  0.00    -0.206 F 
ATOM     93  C   UNL     1     -11.720  -8.562  12.114  1.00  0.00     0.022 A 
BRANCH  90  94
ATOM     94  S   UNL     1     -14.139  -8.970  10.789  1.00  0.00     0.124 S 
ATOM     95  O   UNL     1     -14.307  -8.117   9.617  1.00  0.00    -0.237 OA
ATOM     96  O   UNL     1     -14.488 -10.376  10.610  1.00  0.00    -0.237 OA
ATOM     97  O   UNL     1     -14.575  -8.380  12.054  1.00  0.00    -0.744 OA
ENDBRANCH  90  94
ENDBRANCH  64  87
ENDBRANCH  38  39
ENDBRANCH  31  33
ENDBRANCH  30  31
ENDBRANCH  29  30
ENDBRANCH  28  29
ENDBRANCH  27  28
ENDBRANCH  26  27
ENDBRANCH   1  26
TORSDOF 24
