REMARK SMILES CCOC(=O)NC(=O)COc1csc(C(=O)OCCOCCOCCOC(=O)c2ccc(-c3c4nc(c(-c5cc(S(=O)(=O)[O-])ccc5F)c5ccc([nH]5)c(-c5cc(S(=O)(=O)[O-])ccc5F)c5nc(c(-c6cc(S(=O)(=O)[O-])ccc6F)c6ccc3[nH]6)C=C5)C=C4)cc2)c1
REMARK SMILES IDX 21 1 20 2 19 3 18 4 17 5 15 6 16 7 14 8 11 9 12 10 92 11
REMARK SMILES IDX 13 12 10 13 9 14 7 15 4 16 5 17 6 18 8 20 3 21 2 22 1 23
REMARK SMILES IDX 22 24 23 25 24 26 25 27 26 28 27 29 28 30 29 31 30 32 91 33
REMARK SMILES IDX 31 34 90 35 32 36 33 37 34 38 84 39 35 40 89 41 83 42 85 43
REMARK SMILES IDX 36 44 88 45 82 46 81 47 37 49 69 50 49 51 68 52 50 53 53 54
REMARK SMILES IDX 67 55 86 56 51 57 52 58 66 60 87 61 54 62 38 63 39 64 47 65
REMARK SMILES IDX 40 66 46 67 48 68 45 69 41 70 42 71 43 72 44 73 70 74 71 75
REMARK SMILES IDX 79 76 72 77 78 78 80 79 77 80 73 81 74 82 75 83 76 84 55 85
REMARK SMILES IDX 56 86 64 87 57 88 63 89 65 90 62 91 58 92 59 93 60 94 61 95
REMARK H PARENT 6 19 85 48 53 59
REMARK Flexibility Score: inf
ROOT
ATOM      1  C   UNL     1      -1.194  -3.232   8.044  1.00  0.00     0.188 C 
ENDROOT
BRANCH   1   2
ATOM      2  O   UNL     1      -1.788  -2.323   8.966  1.00  0.00    -0.376 OA
BRANCH   2   3
ATOM      3  C   UNL     1      -2.719  -1.353   8.506  1.00  0.00     0.202 C 
BRANCH   3   4
ATOM      4  C   UNL     1      -2.265  -0.355   7.434  1.00  0.00     0.261 C 
BRANCH   4   5
ATOM      5  O   UNL     1      -1.734  -0.968   6.248  1.00  0.00    -0.459 OA
BRANCH   5   6
ATOM      6  C   UNL     1      -0.424  -0.685   5.972  1.00  0.00     0.348 C 
ATOM      7  O   UNL     1       0.244   0.152   6.566  1.00  0.00    -0.245 OA
BRANCH   6   8
ATOM      8  C   UNL     1       0.070  -1.591   4.956  1.00  0.00     0.116 A 
ATOM      9  C   UNL     1       0.296  -2.981   3.087  1.00  0.00     0.131 A 
ATOM     10  C   UNL     1       1.463  -3.246   3.765  1.00  0.00     0.112 A 
ATOM     11  C   UNL     1      -0.527  -2.054   3.799  1.00  0.00     0.074 A 
ATOM     12  S   UNL     1       1.623  -2.280   5.170  1.00  0.00    -0.133 S 
BRANCH   9  13
ATOM     13  O   UNL     1      -0.081  -3.450   1.872  1.00  0.00    -0.483 OA
BRANCH  13  14
ATOM     14  C   UNL     1       0.530  -4.631   1.397  1.00  0.00     0.329 C 
BRANCH  14  15
ATOM     15  C   UNL     1       2.040  -4.769   1.150  1.00  0.00     0.267 C 
ATOM     16  C   UNL     1       2.423  -2.684  -0.245  1.00  0.00     0.413 C 
ATOM     17  O   UNL     1       3.285  -2.018  -0.807  1.00  0.00    -0.224 OA
ATOM     18  N   UNL     1       2.751  -3.824   0.450  1.00  0.00    -0.258 N 
ATOM     19  H   UNL     1       3.718  -4.005   0.446  1.00  0.00     0.176 HD
ATOM     20  O   UNL     1       2.646  -5.768   1.549  1.00  0.00    -0.271 OA
BRANCH  16  21
ATOM     21  O   UNL     1       1.103  -2.401  -0.258  1.00  0.00    -0.450 OA
BRANCH  21  22
ATOM     22  C   UNL     1       0.727  -1.174  -0.900  1.00  0.00     0.231 C 
ATOM     23  C   UNL     1       1.011   0.020  -0.005  1.00  0.00     0.049 C 
ENDBRANCH  21  22
ENDBRANCH  16  21
ENDBRANCH  14  15
ENDBRANCH  13  14
ENDBRANCH   9  13
ENDBRANCH   6   8
ENDBRANCH   5   6
ENDBRANCH   4   5
ENDBRANCH   3   4
ENDBRANCH   2   3
ENDBRANCH   1   2
BRANCH   1  24
ATOM     24  C   UNL     1      -2.053  -3.888   6.944  1.00  0.00     0.188 C 
BRANCH  24  25
ATOM     25  O   UNL     1      -3.440  -3.623   7.059  1.00  0.00    -0.376 OA
BRANCH  25  26
ATOM     26  C   UNL     1      -4.265  -4.726   7.403  1.00  0.00     0.202 C 
BRANCH  26  27
ATOM     27  C   UNL     1      -4.071  -5.321   8.806  1.00  0.00     0.261 C 
BRANCH  27  28
ATOM     28  O   UNL     1      -2.728  -5.692   9.156  1.00  0.00    -0.460 OA
BRANCH  28  29
ATOM     29  C   UNL     1      -2.218  -6.798   8.565  1.00  0.00     0.338 C 
ATOM     30  O   UNL     1      -2.768  -7.495   7.732  1.00  0.00    -0.246 OA
BRANCH  29  31
ATOM     31  C   UNL     1      -0.804  -6.919   8.984  1.00  0.00     0.060 A 
ATOM     32  C   UNL     1       0.205  -6.852   8.015  1.00  0.00     0.016 A 
ATOM     33  C   UNL     1      -0.476  -7.091  10.332  1.00  0.00     0.016 A 
ATOM     34  C   UNL     1       1.546  -6.977   8.393  1.00  0.00     0.010 A 
ATOM     35  C   UNL     1       0.865  -7.232  10.705  1.00  0.00     0.010 A 
ATOM     36  C   UNL     1       1.884  -7.199   9.736  1.00  0.00    -0.014 A 
BRANCH  36  37
ATOM     37  C   UNL     1       3.279  -7.555  10.109  1.00  0.00     0.031 A 
ATOM     38  C   UNL     1       3.628  -9.009  10.284  1.00  0.00     0.074 A 
ATOM     39  C   UNL     1       4.222  -6.611  10.281  1.00  0.00     0.049 A 
ATOM     40  N   UNL     1       4.757  -9.557  10.655  1.00  0.00    -0.248 NA
ATOM     41  C   UNL     1       2.552  -9.972  10.006  1.00  0.00     0.031 C 
ATOM     42  C   UNL     1       4.023  -5.174  10.101  1.00  0.00     0.029 A 
ATOM     43  N   UNL     1       5.540  -6.723  10.655  1.00  0.00    -0.354 N 
ATOM     44  C   UNL     1       4.531 -10.930  10.650  1.00  0.00     0.074 A 
ATOM     45  C   UNL     1       3.144 -11.124  10.282  1.00  0.00     0.031 C 
ATOM     46  C   UNL     1       5.176  -4.537  10.373  1.00  0.00     0.029 A 
ATOM     47  C   UNL     1       6.184  -5.514  10.782  1.00  0.00     0.049 A 
ATOM     48  H   UNL     1       5.982  -7.588  10.816  1.00  0.00     0.167 HD
ATOM     49  C   UNL     1       5.400 -11.936  10.918  1.00  0.00     0.034 A 
ATOM     50  C   UNL     1       7.434  -5.228  11.204  1.00  0.00     0.034 A 
ATOM     51  C   UNL     1       6.774 -11.730  11.309  1.00  0.00     0.049 A 
ATOM     52  C   UNL     1       8.355  -6.360  11.599  1.00  0.00     0.074 A 
ATOM     53  C   UNL     1       7.739 -12.678  11.601  1.00  0.00     0.029 A 
ATOM     54  N   UNL     1       7.375 -10.489  11.479  1.00  0.00    -0.354 N 
ATOM     55  N   UNL     1       8.132  -7.655  11.585  1.00  0.00    -0.248 NA
ATOM     56  C   UNL     1       9.700  -5.991  12.062  1.00  0.00     0.031 C 
ATOM     57  C   UNL     1       8.898 -12.012  12.016  1.00  0.00     0.029 A 
ATOM     58  C   UNL     1       8.686 -10.648  11.905  1.00  0.00     0.049 A 
ATOM     59  H   UNL     1       6.935  -9.623  11.320  1.00  0.00     0.167 HD
ATOM     60  C   UNL     1       9.320  -8.251  12.004  1.00  0.00     0.074 A 
ATOM     61  C   UNL     1      10.258  -7.177  12.252  1.00  0.00     0.031 C 
ATOM     62  C   UNL     1       9.611  -9.569  12.161  1.00  0.00     0.034 A 
BRANCH  49  63
ATOM     63  C   UNL     1       4.864 -13.346  10.847  1.00  0.00     0.023 A 
ATOM     64  C   UNL     1       4.402 -13.901   9.640  1.00  0.00     0.031 A 
ATOM     65  C   UNL     1       4.781 -14.133  12.008  1.00  0.00     0.131 A 
ATOM     66  C   UNL     1       3.811 -15.174   9.636  1.00  0.00     0.055 A 
ATOM     67  C   UNL     1       4.265 -15.431  11.983  1.00  0.00     0.041 A 
ATOM     68  F   UNL     1       5.184 -13.649  13.193  1.00  0.00    -0.206 F 
ATOM     69  C   UNL     1       3.762 -15.952  10.794  1.00  0.00     0.022 A 
BRANCH  66  70
ATOM     70  S   UNL     1       2.976 -15.738   8.128  1.00  0.00     0.124 S 
ATOM     71  O   UNL     1       1.979 -14.688   7.931  1.00  0.00    -0.237 OA
ATOM     72  O   UNL     1       4.065 -15.775   7.159  1.00  0.00    -0.237 OA
ATOM     73  O   UNL     1       2.431 -17.041   8.505  1.00  0.00    -0.744 OA
ENDBRANCH  66  70
ENDBRANCH  49  63
BRANCH  50  74
ATOM     74  C   UNL     1       7.891  -3.812  11.323  1.00  0.00     0.023 A 
ATOM     75  C   UNL     1       8.959  -3.324  10.553  1.00  0.00     0.031 A 
ATOM     76  C   UNL     1       7.308  -2.944  12.264  1.00  0.00     0.131 A 
ATOM     77  C   UNL     1       9.441  -2.023  10.768  1.00  0.00     0.055 A 
ATOM     78  C   UNL     1       7.755  -1.633  12.436  1.00  0.00     0.041 A 
ATOM     79  F   UNL     1       6.289  -3.361  13.032  1.00  0.00    -0.206 F 
ATOM     80  C   UNL     1       8.837  -1.169  11.694  1.00  0.00     0.022 A 
BRANCH  77  81
ATOM     81  S   UNL     1      10.931  -1.489   9.882  1.00  0.00     0.124 S 
ATOM     82  O   UNL     1      11.909  -2.477  10.323  1.00  0.00    -0.237 OA
ATOM     83  O   UNL     1      10.507  -1.583   8.489  1.00  0.00    -0.237 OA
ATOM     84  O   UNL     1      11.152  -0.130  10.373  1.00  0.00    -0.744 OA
ENDBRANCH  77  81
ENDBRANCH  50  74
BRANCH  62  85
ATOM     85  C   UNL     1      11.022  -9.919  12.575  1.00  0.00     0.023 A 
ATOM     86  C   UNL     1      11.533  -9.581  13.840  1.00  0.00     0.031 A 
ATOM     87  C   UNL     1      11.870 -10.598  11.681  1.00  0.00     0.131 A 
ATOM     88  C   UNL     1      12.870  -9.872  14.156  1.00  0.00     0.055 A 
ATOM     89  C   UNL     1      13.180 -10.940  12.023  1.00  0.00     0.041 A 
ATOM     90  F   UNL     1      11.437 -10.946  10.459  1.00  0.00    -0.206 F 
ATOM     91  C   UNL     1      13.690 -10.565  13.262  1.00  0.00     0.022 A 
BRANCH  88  92
ATOM     92  S   UNL     1      13.553  -9.255  15.719  1.00  0.00     0.124 S 
ATOM     93  O   UNL     1      13.347  -7.816  15.594  1.00  0.00    -0.237 OA
ATOM     94  O   UNL     1      12.725  -9.934  16.712  1.00  0.00    -0.237 OA
ATOM     95  O   UNL     1      14.949  -9.687  15.679  1.00  0.00    -0.744 OA
ENDBRANCH  88  92
ENDBRANCH  62  85
ENDBRANCH  36  37
ENDBRANCH  29  31
ENDBRANCH  28  29
ENDBRANCH  27  28
ENDBRANCH  26  27
ENDBRANCH  25  26
ENDBRANCH  24  25
ENDBRANCH   1  24
TORSDOF 25
