REMARK SMILES O=C(COc1cccc(NC(=O)c2ccc3c(c2)C(=O)N(c2ccccc2-c2ccccc2)C3=O)c1)OCCOCCOCCOC(=O)c1ccc(-c2c3nc(c(-c4cc(S(=O)(=O)[O-])ccc4F)c4ccc([nH]4)c(-c4cc(S(=O)(=O)[O-])ccc4F)c4nc(c(-c5cc(S(=O)(=O)[O-])ccc5F)c5ccc2[nH]5)C=C4)C=C3)cc1
REMARK SMILES IDX 40 1 39 2 38 3 37 4 2 5 1 6 3 7 4 8 5 9 6 10 36 11 7 12 9 13
REMARK SMILES IDX 8 14 10 15 11 16 12 18 13 19 14 20 18 21 15 22 17 23 16 24
REMARK SMILES IDX 19 25 34 26 20 27 21 28 35 29 22 30 23 31 27 32 24 33 26 34
REMARK SMILES IDX 25 35 28 36 29 37 33 38 30 39 32 40 31 41 41 42 42 43 43 44
REMARK SMILES IDX 44 45 45 46 46 47 47 48 48 49 49 50 50 51 111 52 51 53
REMARK SMILES IDX 110 54 52 55 53 56 54 57 104 58 55 59 109 60 103 61 105 62
REMARK SMILES IDX 56 63 108 64 102 65 101 66 57 68 89 69 69 70 88 71 70 72
REMARK SMILES IDX 73 73 87 74 106 75 71 76 72 77 86 79 107 80 74 81 58 82
REMARK SMILES IDX 59 83 67 84 60 85 66 86 68 87 65 88 61 89 62 90 63 91 64 92
REMARK SMILES IDX 90 93 91 94 99 95 92 96 98 97 100 98 97 99 93 100 94 101
REMARK SMILES IDX 95 102 96 103 75 104 76 105 84 106 77 107 83 108 85 109
REMARK SMILES IDX 82 110 78 111 79 112 80 113 81 114
REMARK H PARENT 10 17 105 67 73 78
REMARK Flexibility Score: inf
ROOT
ATOM      1  O   UNL     1       4.682  -1.216   0.992  1.00  0.00    -0.376 OA
ENDROOT
BRANCH   1   2
ATOM      2  C   UNL     1       4.900  -0.190   0.036  1.00  0.00     0.202 C 
BRANCH   2   3
ATOM      3  C   UNL     1       4.088   1.045   0.406  1.00  0.00     0.261 C 
BRANCH   3   4
ATOM      4  O   UNL     1       2.653   0.848   0.455  1.00  0.00    -0.461 OA
BRANCH   4   5
ATOM      5  C   UNL     1       1.816   0.478  -0.537  1.00  0.00     0.344 C 
ATOM      6  O   UNL     1       0.633   0.262  -0.279  1.00  0.00    -0.248 OA
BRANCH   5   7
ATOM      7  C   UNL     1       2.336   0.316  -1.958  1.00  0.00     0.351 C 
BRANCH   7   8
ATOM      8  O   UNL     1       3.471   1.060  -2.350  1.00  0.00    -0.482 OA
BRANCH   8   9
ATOM      9  C   UNL     1       3.199   2.339  -2.744  1.00  0.00     0.122 A 
ATOM     10  C   UNL     1       3.932   2.777  -3.839  1.00  0.00     0.046 A 
ATOM     11  C   UNL     1       2.311   3.200  -2.083  1.00  0.00     0.072 A 
ATOM     12  C   UNL     1       3.773   4.079  -4.279  1.00  0.00     0.006 A 
ATOM     13  C   UNL     1       2.101   4.494  -2.552  1.00  0.00     0.045 A 
ATOM     14  C   UNL     1       2.882   4.931  -3.622  1.00  0.00     0.026 A 
BRANCH  13  15
ATOM     15  N   UNL     1       1.147   5.295  -1.877  1.00  0.00    -0.322 N 
ATOM     16  C   UNL     1       0.359   6.340  -2.335  1.00  0.00     0.255 C 
ATOM     17  H   UNL     1       1.023   5.072  -0.927  1.00  0.00     0.170 HD
ATOM     18  O   UNL     1      -0.305   7.038  -1.577  1.00  0.00    -0.269 OA
BRANCH  16  19
ATOM     19  C   UNL     1       0.179   6.484  -3.792  1.00  0.00     0.041 A 
ATOM     20  C   UNL     1       1.000   7.371  -4.519  1.00  0.00     0.015 A 
ATOM     21  C   UNL     1      -0.555   5.478  -4.418  1.00  0.00     0.028 A 
ATOM     22  C   UNL     1       1.297   7.088  -5.863  1.00  0.00     0.015 A 
ATOM     23  C   UNL     1      -0.238   5.242  -5.735  1.00  0.00     0.054 A 
ATOM     24  C   UNL     1       0.718   5.955  -6.414  1.00  0.00     0.053 A 
ATOM     25  C   UNL     1      -0.558   4.068  -6.508  1.00  0.00     0.266 C 
ATOM     26  C   UNL     1       1.096   5.145  -7.578  1.00  0.00     0.266 C 
ATOM     27  O   UNL     1      -1.543   3.423  -6.199  1.00  0.00    -0.268 OA
ATOM     28  N   UNL     1       0.420   3.945  -7.474  1.00  0.00    -0.242 N 
ATOM     29  O   UNL     1       1.842   5.625  -8.411  1.00  0.00    -0.268 OA
BRANCH  28  30
ATOM     30  C   UNL     1       0.655   2.714  -8.185  1.00  0.00     0.060 A 
ATOM     31  C   UNL     1      -0.364   1.726  -8.138  1.00  0.00     0.027 A 
ATOM     32  C   UNL     1       1.865   2.353  -8.839  1.00  0.00     0.006 A 
ATOM     33  C   UNL     1      -0.224   0.455  -8.685  1.00  0.00     0.002 A 
ATOM     34  C   UNL     1       1.961   1.068  -9.433  1.00  0.00     0.011 A 
ATOM     35  C   UNL     1       0.940   0.131  -9.340  1.00  0.00     0.001 A 
BRANCH  32  36
ATOM     36  C   UNL     1       3.124   3.113  -8.859  1.00  0.00    -0.016 A 
ATOM     37  C   UNL     1       3.512   3.845  -9.992  1.00  0.00     0.009 A 
ATOM     38  C   UNL     1       4.043   2.988  -7.804  1.00  0.00     0.009 A 
ATOM     39  C   UNL     1       4.751   4.490 -10.039  1.00  0.00     0.001 A 
ATOM     40  C   UNL     1       5.289   3.619  -7.856  1.00  0.00     0.001 A 
ATOM     41  C   UNL     1       5.636   4.383  -8.968  1.00  0.00     0.000 A 
ENDBRANCH  32  36
ENDBRANCH  28  30
ENDBRANCH  16  19
ENDBRANCH  13  15
ENDBRANCH   8   9
ENDBRANCH   7   8
ENDBRANCH   5   7
ENDBRANCH   4   5
ENDBRANCH   3   4
ENDBRANCH   2   3
ENDBRANCH   1   2
BRANCH   1  42
ATOM     42  C   UNL     1       3.577  -2.068   0.705  1.00  0.00     0.188 C 
BRANCH  42  43
ATOM     43  C   UNL     1       2.574  -2.112   1.865  1.00  0.00     0.188 C 
BRANCH  43  44
ATOM     44  O   UNL     1       3.058  -2.346   3.186  1.00  0.00    -0.376 OA
BRANCH  44  45
ATOM     45  C   UNL     1       4.287  -3.035   3.358  1.00  0.00     0.202 C 
BRANCH  45  46
ATOM     46  C   UNL     1       4.246  -4.552   3.143  1.00  0.00     0.261 C 
BRANCH  46  47
ATOM     47  O   UNL     1       3.997  -4.938   1.778  1.00  0.00    -0.460 OA
BRANCH  47  48
ATOM     48  C   UNL     1       2.731  -5.342   1.501  1.00  0.00     0.338 C 
ATOM     49  O   UNL     1       1.814  -5.447   2.297  1.00  0.00    -0.246 OA
BRANCH  48  50
ATOM     50  C   UNL     1       2.549  -5.497   0.036  1.00  0.00     0.060 A 
ATOM     51  C   UNL     1       1.379  -4.985  -0.547  1.00  0.00     0.016 A 
ATOM     52  C   UNL     1       3.469  -6.194  -0.750  1.00  0.00     0.016 A 
ATOM     53  C   UNL     1       1.098  -5.219  -1.899  1.00  0.00     0.010 A 
ATOM     54  C   UNL     1       3.179  -6.442  -2.098  1.00  0.00     0.010 A 
ATOM     55  C   UNL     1       1.974  -5.992  -2.672  1.00  0.00    -0.014 A 
BRANCH  55  56
ATOM     56  C   UNL     1       1.548  -6.539  -3.991  1.00  0.00     0.031 A 
ATOM     57  C   UNL     1       0.987  -7.936  -4.028  1.00  0.00     0.074 A 
ATOM     58  C   UNL     1       1.692  -5.849  -5.137  1.00  0.00     0.049 A 
ATOM     59  N   UNL     1       0.713  -8.701  -5.054  1.00  0.00    -0.248 NA
ATOM     60  C   UNL     1       0.714  -8.555  -2.723  1.00  0.00     0.031 C 
ATOM     61  C   UNL     1       2.169  -4.473  -5.243  1.00  0.00     0.029 A 
ATOM     62  N   UNL     1       1.481  -6.235  -6.441  1.00  0.00    -0.354 N 
ATOM     63  C   UNL     1       0.256  -9.901  -4.518  1.00  0.00     0.074 A 
ATOM     64  C   UNL     1       0.315  -9.765  -3.078  1.00  0.00     0.031 C 
ATOM     65  C   UNL     1       2.259  -4.144  -6.545  1.00  0.00     0.029 A 
ATOM     66  C   UNL     1       1.895  -5.302  -7.364  1.00  0.00     0.049 A 
ATOM     67  H   UNL     1       1.074  -7.096  -6.689  1.00  0.00     0.167 HD
ATOM     68  C   UNL     1      -0.171 -11.015  -5.165  1.00  0.00     0.034 A 
ATOM     69  C   UNL     1       2.018  -5.390  -8.707  1.00  0.00     0.034 A 
ATOM     70  C   UNL     1      -0.215 -11.146  -6.600  1.00  0.00     0.049 A 
ATOM     71  C   UNL     1       1.631  -6.674  -9.409  1.00  0.00     0.074 A 
ATOM     72  C   UNL     1      -0.662 -12.217  -7.355  1.00  0.00     0.029 A 
ATOM     73  N   UNL     1       0.226 -10.184  -7.499  1.00  0.00    -0.354 N 
ATOM     74  N   UNL     1       1.173  -7.793  -8.896  1.00  0.00    -0.248 NA
ATOM     75  C   UNL     1       1.776  -6.707 -10.873  1.00  0.00     0.031 C 
ATOM     76  C   UNL     1      -0.419 -11.934  -8.704  1.00  0.00     0.029 A 
ATOM     77  C   UNL     1       0.103 -10.654  -8.797  1.00  0.00     0.049 A 
ATOM     78  H   UNL     1       0.574  -9.297  -7.251  1.00  0.00     0.167 HD
ATOM     79  C   UNL     1       0.944  -8.644  -9.977  1.00  0.00     0.074 A 
ATOM     80  C   UNL     1       1.308  -7.911 -11.170  1.00  0.00     0.031 C 
ATOM     81  C   UNL     1       0.465  -9.914  -9.983  1.00  0.00     0.034 A 
BRANCH  68  82
ATOM     82  C   UNL     1      -0.554 -12.200  -4.311  1.00  0.00     0.023 A 
ATOM     83  C   UNL     1      -1.626 -12.145  -3.404  1.00  0.00     0.031 A 
ATOM     84  C   UNL     1       0.206 -13.382  -4.362  1.00  0.00     0.131 A 
ATOM     85  C   UNL     1      -1.849 -13.212  -2.521  1.00  0.00     0.055 A 
ATOM     86  C   UNL     1      -0.077 -14.475  -3.542  1.00  0.00     0.041 A 
ATOM     87  F   UNL     1       1.255 -13.485  -5.194  1.00  0.00    -0.206 F 
ATOM     88  C   UNL     1      -1.097 -14.386  -2.599  1.00  0.00     0.022 A 
BRANCH  85  89
ATOM     89  S   UNL     1      -3.011 -12.969  -1.149  1.00  0.00     0.124 S 
ATOM     90  O   UNL     1      -2.473 -11.767  -0.515  1.00  0.00    -0.237 OA
ATOM     91  O   UNL     1      -4.284 -12.811  -1.842  1.00  0.00    -0.237 OA
ATOM     92  O   UNL     1      -2.873 -14.193  -0.363  1.00  0.00    -0.744 OA
ENDBRANCH  85  89
ENDBRANCH  68  82
BRANCH  69  93
ATOM     93  C   UNL     1       2.614  -4.265  -9.487  1.00  0.00     0.023 A 
ATOM     94  C   UNL     1       1.885  -3.595 -10.482  1.00  0.00     0.031 A 
ATOM     95  C   UNL     1       3.958  -3.893  -9.295  1.00  0.00     0.131 A 
ATOM     96  C   UNL     1       2.518  -2.631 -11.284  1.00  0.00     0.055 A 
ATOM     97  C   UNL     1       4.561  -2.882 -10.044  1.00  0.00     0.041 A 
ATOM     98  F   UNL     1       4.707  -4.509  -8.366  1.00  0.00    -0.206 F 
ATOM     99  C   UNL     1       3.842  -2.251 -11.052  1.00  0.00     0.022 A 
BRANCH  96 100
ATOM    100  S   UNL     1       1.592  -1.853 -12.640  1.00  0.00     0.124 S 
ATOM    101  O   UNL     1       1.703  -2.863 -13.684  1.00  0.00    -0.237 OA
ATOM    102  O   UNL     1       0.266  -1.679 -12.057  1.00  0.00    -0.237 OA
ATOM    103  O   UNL     1       2.334  -0.615 -12.871  1.00  0.00    -0.744 OA
ENDBRANCH  96 100
ENDBRANCH  69  93
BRANCH  81 104
ATOM    104  C   UNL     1       0.239 -10.572 -11.324  1.00  0.00     0.023 A 
ATOM    105  C   UNL     1       1.302 -10.963 -12.156  1.00  0.00     0.031 A 
ATOM    106  C   UNL     1      -1.073 -10.837 -11.759  1.00  0.00     0.131 A 
ATOM    107  C   UNL     1       1.033 -11.569 -13.395  1.00  0.00     0.055 A 
ATOM    108  C   UNL     1      -1.333 -11.483 -12.968  1.00  0.00     0.041 A 
ATOM    109  F   UNL     1      -2.126 -10.483 -11.005  1.00  0.00    -0.206 F 
ATOM    110  C   UNL     1      -0.277 -11.847 -13.797  1.00  0.00     0.022 A 
BRANCH 107 111
ATOM    111  S   UNL     1       2.417 -11.946 -14.507  1.00  0.00     0.124 S 
ATOM    112  O   UNL     1       2.978 -10.622 -14.753  1.00  0.00    -0.237 OA
ATOM    113  O   UNL     1       3.233 -12.845 -13.698  1.00  0.00    -0.237 OA
ATOM    114  O   UNL     1       1.770 -12.570 -15.661  1.00  0.00    -0.744 OA
ENDBRANCH 107 111
ENDBRANCH  81 104
ENDBRANCH  55  56
ENDBRANCH  48  50
ENDBRANCH  47  48
ENDBRANCH  46  47
ENDBRANCH  45  46
ENDBRANCH  44  45
ENDBRANCH  43  44
ENDBRANCH  42  43
ENDBRANCH   1  42
TORSDOF 26
