REMARK SMILES CS(=O)(=O)c1ccc(/C=C(/C(=O)OCCOCCOCCOC(=O)c2ccc(-c3c4nc(c(-c5cc(S(=O)(=O)[O-])ccc5F)c5ccc([nH]5)c(-c5cc(S(=O)(=O)[O-])ccc5F)c5nc(c(-c6cc(S(=O)(=O)[O-])ccc6F)c6ccc3[nH]6)C=C5)C=C4)cc2)c2ccc(F)cc2)cc1
REMARK SMILES IDX 18 1 17 2 16 3 15 4 14 5 13 6 11 7 12 8 10 9 9 10 8 11 5 12
REMARK SMILES IDX 6 13 96 14 7 15 95 16 2 17 1 18 3 19 4 20 88 21 89 22 94 23
REMARK SMILES IDX 90 24 93 25 91 26 92 27 19 28 20 29 21 30 22 31 23 32 24 33
REMARK SMILES IDX 25 34 26 35 87 36 27 37 86 38 28 39 29 40 30 41 80 42 31 43
REMARK SMILES IDX 85 44 79 45 81 46 32 47 84 48 78 49 77 50 33 52 65 53 45 54
REMARK SMILES IDX 64 55 46 56 49 57 63 58 82 59 47 60 48 61 62 63 83 64 50 65
REMARK SMILES IDX 34 66 35 67 43 68 36 69 42 70 44 71 41 72 37 73 38 74 39 75
REMARK SMILES IDX 40 76 66 77 67 78 75 79 68 80 74 81 76 82 73 83 69 84 70 85
REMARK SMILES IDX 71 86 72 87 51 88 52 89 60 90 53 91 59 92 61 93 58 94 54 95
REMARK SMILES IDX 55 96 56 97 57 98
REMARK H PARENT 81 51 49 62
REMARK Flexibility Score: inf
ROOT
ATOM      1  C   UNL     1       1.002   8.763   3.682  1.00  0.00     0.188 C 
ENDROOT
BRANCH   1   2
ATOM      2  C   UNL     1       2.284   9.219   4.409  1.00  0.00     0.188 C 
BRANCH   2   3
ATOM      3  O   UNL     1       2.510  10.606   4.299  1.00  0.00    -0.376 OA
BRANCH   3   4
ATOM      4  C   UNL     1       3.449  11.062   3.343  1.00  0.00     0.202 C 
BRANCH   4   5
ATOM      5  C   UNL     1       3.600  10.440   1.936  1.00  0.00     0.261 C 
BRANCH   5   6
ATOM      6  O   UNL     1       3.100   9.112   1.728  1.00  0.00    -0.460 OA
BRANCH   6   7
ATOM      7  C   UNL     1       3.996   8.093   1.763  1.00  0.00     0.338 C 
ATOM      8  O   UNL     1       5.194   8.220   1.968  1.00  0.00    -0.246 OA
BRANCH   7   9
ATOM      9  C   UNL     1       3.310   6.760   1.634  1.00  0.00     0.067 C 
ATOM     10  C   UNL     1       2.267   6.614   0.779  1.00  0.00     0.024 C 
BRANCH  10  11
ATOM     11  C   UNL     1       1.551   5.370   0.396  1.00  0.00    -0.025 A 
ATOM     12  C   UNL     1       0.570   2.915  -0.574  1.00  0.00     0.067 A 
ATOM     13  C   UNL     1       0.874   3.050   0.777  1.00  0.00     0.021 A 
ATOM     14  C   UNL     1       0.641   4.023  -1.421  1.00  0.00     0.021 A 
ATOM     15  C   UNL     1       1.325   4.286   1.258  1.00  0.00     0.009 A 
ATOM     16  C   UNL     1       1.125   5.243  -0.934  1.00  0.00     0.009 A 
BRANCH  12  17
ATOM     17  S   UNL     1       0.182   1.336  -1.292  1.00  0.00     0.175 S 
ATOM     18  C   UNL     1       0.881   0.095  -0.236  1.00  0.00     0.163 C 
ATOM     19  O   UNL     1       0.905   1.272  -2.551  1.00  0.00    -0.224 OA
ATOM     20  O   UNL     1      -1.262   1.207  -1.261  1.00  0.00    -0.224 OA
ENDBRANCH  12  17
ENDBRANCH  10  11
BRANCH   9  21
ATOM     21  C   UNL     1       3.826   5.649   2.460  1.00  0.00    -0.011 A 
ATOM     22  C   UNL     1       3.496   5.605   3.825  1.00  0.00     0.012 A 
ATOM     23  C   UNL     1       4.531   4.577   1.891  1.00  0.00     0.012 A 
ATOM     24  C   UNL     1       3.837   4.497   4.598  1.00  0.00     0.040 A 
ATOM     25  C   UNL     1       4.870   3.470   2.672  1.00  0.00     0.040 A 
ATOM     26  C   UNL     1       4.516   3.439   4.015  1.00  0.00     0.123 A 
ATOM     27  F   UNL     1       4.809   2.363   4.754  1.00  0.00    -0.207 F 
ENDBRANCH   9  21
ENDBRANCH   7   9
ENDBRANCH   6   7
ENDBRANCH   5   6
ENDBRANCH   4   5
ENDBRANCH   3   4
ENDBRANCH   2   3
ENDBRANCH   1   2
BRANCH   1  28
ATOM     28  O   UNL     1       0.174   9.718   3.035  1.00  0.00    -0.376 OA
BRANCH  28  29
ATOM     29  C   UNL     1      -0.158  10.926   3.703  1.00  0.00     0.202 C 
BRANCH  29  30
ATOM     30  C   UNL     1      -0.610  10.950   5.178  1.00  0.00     0.261 C 
BRANCH  30  31
ATOM     31  O   UNL     1      -0.055   9.962   6.057  1.00  0.00    -0.460 OA
BRANCH  31  32
ATOM     32  C   UNL     1      -0.863   8.911   6.328  1.00  0.00     0.338 C 
ATOM     33  O   UNL     1      -2.001   8.733   5.897  1.00  0.00    -0.246 OA
BRANCH  32  34
ATOM     34  C   UNL     1      -0.118   7.880   7.078  1.00  0.00     0.060 A 
ATOM     35  C   UNL     1      -0.001   6.605   6.510  1.00  0.00     0.016 A 
ATOM     36  C   UNL     1       0.405   8.135   8.349  1.00  0.00     0.016 A 
ATOM     37  C   UNL     1       0.607   5.573   7.223  1.00  0.00     0.010 A 
ATOM     38  C   UNL     1       0.994   7.089   9.074  1.00  0.00     0.010 A 
ATOM     39  C   UNL     1       1.066   5.795   8.528  1.00  0.00    -0.014 A 
BRANCH  39  40
ATOM     40  C   UNL     1       1.441   4.619   9.357  1.00  0.00     0.031 A 
ATOM     41  C   UNL     1       0.405   4.015  10.267  1.00  0.00     0.074 A 
ATOM     42  C   UNL     1       2.649   4.039   9.235  1.00  0.00     0.049 A 
ATOM     43  N   UNL     1       0.479   2.946  11.016  1.00  0.00    -0.248 NA
ATOM     44  C   UNL     1      -0.882   4.721  10.347  1.00  0.00     0.031 C 
ATOM     45  C   UNL     1       3.727   4.529   8.383  1.00  0.00     0.029 A 
ATOM     46  N   UNL     1       3.162   2.901   9.806  1.00  0.00    -0.354 N 
ATOM     47  C   UNL     1      -0.749   2.851  11.663  1.00  0.00     0.074 A 
ATOM     48  C   UNL     1      -1.532   3.994  11.242  1.00  0.00     0.031 C 
ATOM     49  C   UNL     1       4.756   3.666   8.441  1.00  0.00     0.029 A 
ATOM     50  C   UNL     1       4.437   2.596   9.384  1.00  0.00     0.049 A 
ATOM     51  H   UNL     1       2.665   2.354  10.457  1.00  0.00     0.167 HD
ATOM     52  C   UNL     1      -1.183   1.898  12.525  1.00  0.00     0.034 A 
ATOM     53  C   UNL     1       5.255   1.580   9.732  1.00  0.00     0.034 A 
ATOM     54  C   UNL     1      -0.381   0.777  12.954  1.00  0.00     0.049 A 
ATOM     55  C   UNL     1       4.767   0.561  10.737  1.00  0.00     0.074 A 
ATOM     56  C   UNL     1      -0.722  -0.240  13.830  1.00  0.00     0.029 A 
ATOM     57  N   UNL     1       0.926   0.529  12.553  1.00  0.00    -0.354 N 
ATOM     58  N   UNL     1       3.601   0.481  11.338  1.00  0.00    -0.248 NA
ATOM     59  C   UNL     1       5.706  -0.505  11.108  1.00  0.00     0.031 C 
ATOM     60  C   UNL     1       0.401  -1.054  14.018  1.00  0.00     0.029 A 
ATOM     61  C   UNL     1       1.414  -0.605  13.186  1.00  0.00     0.049 A 
ATOM     62  H   UNL     1       1.433   1.079  11.913  1.00  0.00     0.167 HD
ATOM     63  C   UNL     1       3.661  -0.662  12.135  1.00  0.00     0.074 A 
ATOM     64  C   UNL     1       4.966  -1.249  11.916  1.00  0.00     0.031 C 
ATOM     65  C   UNL     1       2.724  -1.179  12.972  1.00  0.00     0.034 A 
BRANCH  52  66
ATOM     66  C   UNL     1      -2.567   2.072  13.106  1.00  0.00     0.023 A 
ATOM     67  C   UNL     1      -3.719   2.056  12.299  1.00  0.00     0.031 A 
ATOM     68  C   UNL     1      -2.734   2.295  14.484  1.00  0.00     0.131 A 
ATOM     69  C   UNL     1      -4.973   2.333  12.864  1.00  0.00     0.055 A 
ATOM     70  C   UNL     1      -3.994   2.483  15.054  1.00  0.00     0.041 A 
ATOM     71  F   UNL     1      -1.670   2.349  15.302  1.00  0.00    -0.206 F 
ATOM     72  C   UNL     1      -5.122   2.519  14.240  1.00  0.00     0.022 A 
BRANCH  69  73
ATOM     73  S   UNL     1      -6.383   2.601  11.755  1.00  0.00     0.124 S 
ATOM     74  O   UNL     1      -5.904   3.709  10.933  1.00  0.00    -0.237 OA
ATOM     75  O   UNL     1      -6.505   1.312  11.083  1.00  0.00    -0.237 OA
ATOM     76  O   UNL     1      -7.476   2.937  12.665  1.00  0.00    -0.744 OA
ENDBRANCH  69  73
ENDBRANCH  52  66
BRANCH  53  77
ATOM     77  C   UNL     1       6.637   1.484   9.169  1.00  0.00     0.023 A 
ATOM     78  C   UNL     1       7.050   0.365   8.426  1.00  0.00     0.031 A 
ATOM     79  C   UNL     1       7.592   2.483   9.434  1.00  0.00     0.131 A 
ATOM     80  C   UNL     1       8.390   0.247   8.021  1.00  0.00     0.055 A 
ATOM     81  C   UNL     1       8.906   2.393   8.972  1.00  0.00     0.041 A 
ATOM     82  F   UNL     1       7.258   3.570  10.148  1.00  0.00    -0.206 F 
ATOM     83  C   UNL     1       9.316   1.262   8.274  1.00  0.00     0.022 A 
BRANCH  80  84
ATOM     84  S   UNL     1       8.939  -1.304   7.254  1.00  0.00     0.124 S 
ATOM     85  O   UNL     1       8.612  -2.278   8.288  1.00  0.00    -0.237 OA
ATOM     86  O   UNL     1       8.123  -1.352   6.045  1.00  0.00    -0.237 OA
ATOM     87  O   UNL     1      10.367  -1.086   7.029  1.00  0.00    -0.744 OA
ENDBRANCH  80  84
ENDBRANCH  53  77
BRANCH  65  88
ATOM     88  C   UNL     1       3.063  -2.479  13.669  1.00  0.00     0.023 A 
ATOM     89  C   UNL     1       4.126  -2.580  14.585  1.00  0.00     0.031 A 
ATOM     90  C   UNL     1       2.330  -3.646  13.384  1.00  0.00     0.131 A 
ATOM     91  C   UNL     1       4.474  -3.831  15.120  1.00  0.00     0.055 A 
ATOM     92  C   UNL     1       2.633  -4.872  13.978  1.00  0.00     0.041 A 
ATOM     93  F   UNL     1       1.306  -3.615  12.516  1.00  0.00    -0.206 F 
ATOM     94  C   UNL     1       3.723  -4.974  14.836  1.00  0.00     0.022 A 
BRANCH  91  95
ATOM     95  S   UNL     1       6.005  -3.971  16.084  1.00  0.00     0.124 S 
ATOM     96  O   UNL     1       6.997  -3.432  15.159  1.00  0.00    -0.237 OA
ATOM     97  O   UNL     1       5.712  -3.149  17.254  1.00  0.00    -0.237 OA
ATOM     98  O   UNL     1       6.116  -5.405  16.346  1.00  0.00    -0.744 OA
ENDBRANCH  91  95
ENDBRANCH  65  88
ENDBRANCH  39  40
ENDBRANCH  32  34
ENDBRANCH  31  32
ENDBRANCH  30  31
ENDBRANCH  29  30
ENDBRANCH  28  29
ENDBRANCH   1  28
TORSDOF 23
