REMARK SMILES O=C(OCCOCCOCCOC(=O)[C@@H]1[NH2+]CC[C@H]1c1ccc2c(c1)OCCCO2)c1ccc(-c2c3nc(c(-c4cc(S(=O)(=O)[O-])ccc4F)c4ccc([nH]4)c(-c4cc(S(=O)(=O)[O-])ccc4F)c4nc(c(-c5cc(S(=O)(=O)[O-])ccc5F)c5ccc2[nH]5)C=C4)C=C3)cc1
REMARK SMILES IDX 8 1 7 2 6 3 5 4 4 5 3 6 2 7 1 8 31 9 32 10 93 11 33 12 92 13
REMARK SMILES IDX 34 14 35 15 36 16 86 17 37 18 91 19 85 20 87 21 38 22 90 23
REMARK SMILES IDX 84 24 83 25 39 27 71 28 51 29 70 30 52 31 55 32 69 33 88 34
REMARK SMILES IDX 53 35 54 36 68 38 89 39 56 40 40 41 41 42 49 43 42 44 48 45
REMARK SMILES IDX 50 46 47 47 43 48 44 49 45 50 46 51 72 52 73 53 81 54 74 55
REMARK SMILES IDX 80 56 82 57 79 58 75 59 76 60 77 61 78 62 57 63 58 64 66 65
REMARK SMILES IDX 59 66 65 67 67 68 64 69 60 70 61 71 62 72 63 73 9 74 10 75
REMARK SMILES IDX 11 76 12 77 13 78 14 79 15 80 16 81 19 82 17 83 18 86 20 87
REMARK SMILES IDX 21 88 25 89 22 90 24 91 23 92 26 93 27 94 30 96 29 97 28 98
REMARK H PARENT 87 26 55 37 16 84 16 85
REMARK Flexibility Score: 90.00
ROOT
ATOM      1  C   UNL     1       4.299  -2.172  -0.967  1.00  0.00     0.188 C 
ENDROOT
BRANCH   1   2
ATOM      2  C   UNL     1       3.489  -0.876  -0.941  1.00  0.00     0.188 C 
BRANCH   2   3
ATOM      3  O   UNL     1       2.076  -1.092  -0.990  1.00  0.00    -0.376 OA
BRANCH   3   4
ATOM      4  C   UNL     1       1.367  -0.118  -1.766  1.00  0.00     0.202 C 
BRANCH   4   5
ATOM      5  C   UNL     1       1.179   1.250  -1.091  1.00  0.00     0.261 C 
BRANCH   5   6
ATOM      6  O   UNL     1       2.234   1.578  -0.181  1.00  0.00    -0.460 OA
BRANCH   6   7
ATOM      7  C   UNL     1       2.264   1.342   1.154  1.00  0.00     0.338 C 
ATOM      8  O   UNL     1       3.213   1.795   1.794  1.00  0.00    -0.246 OA
BRANCH   7   9
ATOM      9  C   UNL     1       1.234   0.538   1.891  1.00  0.00     0.060 A 
ATOM     10  C   UNL     1       1.206   0.705   3.272  1.00  0.00     0.016 A 
ATOM     11  C   UNL     1       0.340  -0.395   1.352  1.00  0.00     0.016 A 
ATOM     12  C   UNL     1       0.318  -0.041   4.049  1.00  0.00     0.010 A 
ATOM     13  C   UNL     1      -0.563  -1.131   2.130  1.00  0.00     0.010 A 
ATOM     14  C   UNL     1      -0.575  -0.989   3.503  1.00  0.00    -0.014 A 
BRANCH  14  15
ATOM     15  C   UNL     1      -1.589  -1.670   4.356  1.00  0.00     0.031 A 
ATOM     16  C   UNL     1      -1.692  -3.165   4.550  1.00  0.00     0.074 A 
ATOM     17  C   UNL     1      -2.433  -0.867   5.028  1.00  0.00     0.049 A 
ATOM     18  N   UNL     1      -2.060  -3.827   5.621  1.00  0.00    -0.248 NA
ATOM     19  C   UNL     1      -1.366  -4.042   3.418  1.00  0.00     0.031 C 
ATOM     20  C   UNL     1      -2.505   0.585   4.859  1.00  0.00     0.029 A 
ATOM     21  N   UNL     1      -3.343  -1.140   6.011  1.00  0.00    -0.354 N 
ATOM     22  C   UNL     1      -1.864  -5.182   5.334  1.00  0.00     0.074 A 
ATOM     23  C   UNL     1      -1.467  -5.256   3.954  1.00  0.00     0.031 C 
ATOM     24  C   UNL     1      -3.358   1.085   5.756  1.00  0.00     0.029 A 
ATOM     25  C   UNL     1      -3.947  -0.014   6.511  1.00  0.00     0.049 A 
ATOM     26  H   UNL     1      -3.544  -2.050   6.328  1.00  0.00     0.167 HD
ATOM     27  C   UNL     1      -2.030  -6.252   6.151  1.00  0.00     0.034 A 
ATOM     28  C   UNL     1      -4.881   0.120   7.471  1.00  0.00     0.034 A 
ATOM     29  C   UNL     1      -2.757  -6.139   7.384  1.00  0.00     0.049 A 
ATOM     30  C   UNL     1      -5.259  -1.109   8.242  1.00  0.00     0.074 A 
ATOM     31  C   UNL     1      -3.035  -7.125   8.308  1.00  0.00     0.029 A 
ATOM     32  N   UNL     1      -3.458  -5.004   7.769  1.00  0.00    -0.354 N 
ATOM     33  N   UNL     1      -4.722  -2.308   8.183  1.00  0.00    -0.248 NA
ATOM     34  C   UNL     1      -6.353  -0.982   9.206  1.00  0.00     0.031 C 
ATOM     35  C   UNL     1      -4.035  -6.631   9.152  1.00  0.00     0.029 A 
ATOM     36  C   UNL     1      -4.300  -5.306   8.820  1.00  0.00     0.049 A 
ATOM     37  H   UNL     1      -3.367  -4.116   7.355  1.00  0.00     0.167 HD
ATOM     38  C   UNL     1      -5.424  -3.090   9.092  1.00  0.00     0.074 A 
ATOM     39  C   UNL     1      -6.395  -2.208   9.717  1.00  0.00     0.031 C 
ATOM     40  C   UNL     1      -5.287  -4.410   9.383  1.00  0.00     0.034 A 
BRANCH  27  41
ATOM     41  C   UNL     1      -1.498  -7.625   5.775  1.00  0.00     0.023 A 
ATOM     42  C   UNL     1      -2.317  -8.646   5.269  1.00  0.00     0.031 A 
ATOM     43  C   UNL     1      -0.191  -7.994   6.147  1.00  0.00     0.131 A 
ATOM     44  C   UNL     1      -1.796  -9.950   5.117  1.00  0.00     0.055 A 
ATOM     45  C   UNL     1       0.349  -9.262   5.923  1.00  0.00     0.041 A 
ATOM     46  F   UNL     1       0.563  -7.153   6.853  1.00  0.00    -0.206 F 
ATOM     47  C   UNL     1      -0.460 -10.252   5.402  1.00  0.00     0.022 A 
BRANCH  44  48
ATOM     48  S   UNL     1      -2.865 -11.350   4.681  1.00  0.00     0.124 S 
ATOM     49  O   UNL     1      -2.261 -11.802   3.426  1.00  0.00    -0.237 OA
ATOM     50  O   UNL     1      -2.665 -12.248   5.821  1.00  0.00    -0.237 OA
ATOM     51  O   UNL     1      -4.184 -10.759   4.564  1.00  0.00    -0.744 OA
ENDBRANCH  44  48
ENDBRANCH  27  41
BRANCH  28  52
ATOM     52  C   UNL     1      -5.429   1.487   7.713  1.00  0.00     0.023 A 
ATOM     53  C   UNL     1      -6.009   2.200   6.641  1.00  0.00     0.031 A 
ATOM     54  C   UNL     1      -5.146   2.185   8.894  1.00  0.00     0.131 A 
ATOM     55  C   UNL     1      -6.135   3.591   6.715  1.00  0.00     0.055 A 
ATOM     56  C   UNL     1      -5.369   3.562   8.999  1.00  0.00     0.041 A 
ATOM     57  F   UNL     1      -4.582   1.555   9.935  1.00  0.00    -0.206 F 
ATOM     58  C   UNL     1      -5.830   4.277   7.894  1.00  0.00     0.022 A 
BRANCH  55  59
ATOM     59  S   UNL     1      -6.441   4.567   5.211  1.00  0.00     0.124 S 
ATOM     60  O   UNL     1      -7.724   5.193   5.509  1.00  0.00    -0.237 OA
ATOM     61  O   UNL     1      -5.287   5.464   5.194  1.00  0.00    -0.237 OA
ATOM     62  O   UNL     1      -6.455   3.567   4.148  1.00  0.00    -0.744 OA
ENDBRANCH  55  59
ENDBRANCH  28  52
BRANCH  40  63
ATOM     63  C   UNL     1      -6.258  -5.019  10.360  1.00  0.00     0.023 A 
ATOM     64  C   UNL     1      -5.782  -5.604  11.545  1.00  0.00     0.031 A 
ATOM     65  C   UNL     1      -7.615  -5.178  10.029  1.00  0.00     0.131 A 
ATOM     66  C   UNL     1      -6.640  -6.387  12.322  1.00  0.00     0.055 A 
ATOM     67  C   UNL     1      -8.483  -5.900  10.846  1.00  0.00     0.041 A 
ATOM     68  F   UNL     1      -8.110  -4.643   8.901  1.00  0.00    -0.206 F 
ATOM     69  C   UNL     1      -7.990  -6.529  11.987  1.00  0.00     0.022 A 
BRANCH  66  70
ATOM     70  S   UNL     1      -5.998  -7.356  13.714  1.00  0.00     0.124 S 
ATOM     71  O   UNL     1      -6.726  -6.779  14.841  1.00  0.00    -0.237 OA
ATOM     72  O   UNL     1      -6.386  -8.715  13.347  1.00  0.00    -0.237 OA
ATOM     73  O   UNL     1      -4.564  -7.087  13.696  1.00  0.00    -0.744 OA
ENDBRANCH  66  70
ENDBRANCH  40  63
ENDBRANCH  14  15
ENDBRANCH   7   9
ENDBRANCH   6   7
ENDBRANCH   5   6
ENDBRANCH   4   5
ENDBRANCH   3   4
ENDBRANCH   2   3
ENDBRANCH   1   2
BRANCH   1  74
ATOM     74  O   UNL     1       4.096  -3.048  -2.070  1.00  0.00    -0.376 OA
BRANCH  74  75
ATOM     75  C   UNL     1       2.761  -3.436  -2.365  1.00  0.00     0.202 C 
BRANCH  75  76
ATOM     76  C   UNL     1       1.943  -4.233  -1.325  1.00  0.00     0.261 C 
BRANCH  76  77
ATOM     77  O   UNL     1       2.174  -3.956   0.073  1.00  0.00    -0.459 OA
BRANCH  77  78
ATOM     78  C   UNL     1       3.111  -4.772   0.647  1.00  0.00     0.365 C 
ATOM     79  O   UNL     1       3.776  -5.573  -0.005  1.00  0.00    -0.245 OA
BRANCH  78  80
ATOM     80  C   UNL     1       3.267  -4.551   2.202  1.00  0.00     0.301 C 
ATOM     81  N   UNL     1       3.966  -5.755   2.749  1.00  0.00    -0.334 N 
ATOM     82  C   UNL     1       1.951  -4.585   3.000  1.00  0.00     0.095 C 
ATOM     83  C   UNL     1       2.923  -6.803   2.739  1.00  0.00     0.262 C 
ATOM     84  H   UNL     1       4.298  -5.583   3.698  1.00  0.00     0.347 HD
ATOM     85  H   UNL     1       4.790  -6.013   2.207  1.00  0.00     0.347 HD
ATOM     86  C   UNL     1       1.580  -6.068   2.773  1.00  0.00     0.076 C 
BRANCH  82  87
ATOM     87  C   UNL     1       2.010  -4.196   4.506  1.00  0.00    -0.034 A 
ATOM     88  C   UNL     1       2.060  -5.171   5.512  1.00  0.00     0.008 A 
ATOM     89  C   UNL     1       1.910  -2.863   4.962  1.00  0.00     0.054 A 
ATOM     90  C   UNL     1       1.891  -4.861   6.866  1.00  0.00     0.051 A 
ATOM     91  C   UNL     1       1.663  -2.552   6.330  1.00  0.00     0.161 A 
ATOM     92  C   UNL     1       1.611  -3.573   7.268  1.00  0.00     0.161 A 
BRANCH  91  93
ATOM     93  O   UNL     1       1.609  -1.237   6.730  1.00  0.00    -0.490 OA
BRANCH  93  94
ATOM     94  C   UNL     1       0.379  -0.866   7.380  1.00  0.00     0.233 CG0
ATOM     95  G   UNL     1       0.173  -1.346   8.805  1.00  0.00     0.000 G0
ENDBRANCH  93  94
ENDBRANCH  91  93
BRANCH  92  96
ATOM     96  O   UNL     1       1.379  -3.400   8.603  1.00  0.00    -0.490 OA
BRANCH  96  97
ATOM     97  C   UNL     1       0.075  -2.856   8.832  1.00  0.00     0.233 C 
BRANCH  97  98
ATOM     98  C   UNL     1       0.173  -1.346   8.805  1.00  0.00     0.083 CG0
ATOM     99  G   UNL     1       0.379  -0.866   7.380  1.00  0.00     0.000 G0
ENDBRANCH  97  98
ENDBRANCH  96  97
ENDBRANCH  92  96
ENDBRANCH  82  87
ENDBRANCH  78  80
ENDBRANCH  77  78
ENDBRANCH  76  77
ENDBRANCH  75  76
ENDBRANCH  74  75
ENDBRANCH   1  74
TORSDOF 21
