REMARK SMILES O=C(OCCOCCOCCOC(=O)c1ccc(-c2c3nc(c(-c4cc(S(=O)(=O)[O-])ccc4F)c4ccc([nH]4)c(-c4cc(S(=O)(=O)[O-])ccc4F)c4nc(c(-c5cc(S(=O)(=O)[O-])ccc5F)c5ccc2[nH]5)C=C4)C=C3)cc1)C1=Cc2c(ccc(Cl)c2Sc2ccccc2)O[C@H]1C(F)(F)F
REMARK SMILES IDX 8 1 7 2 6 3 5 4 4 5 3 6 2 7 1 8 78 9 79 10 95 11 80 12 94 13
REMARK SMILES IDX 81 14 86 15 82 16 84 17 83 18 85 19 96 20 97 21 98 22 99 23
REMARK SMILES IDX 87 24 88 25 89 26 93 27 90 28 92 29 91 30 9 31 10 32 11 33
REMARK SMILES IDX 12 34 13 35 14 36 15 37 16 38 77 39 17 40 76 41 18 42 19 43
REMARK SMILES IDX 20 44 70 45 21 46 75 47 69 48 71 49 22 50 74 51 68 52 67 53
REMARK SMILES IDX 23 55 55 56 35 57 54 58 36 59 39 60 53 61 72 62 37 63 38 64
REMARK SMILES IDX 52 66 73 67 40 68 24 69 25 70 33 71 26 72 32 73 34 74 31 75
REMARK SMILES IDX 27 76 28 77 29 78 30 79 56 80 57 81 65 82 58 83 64 84 66 85
REMARK SMILES IDX 63 86 59 87 60 88 61 89 62 90 41 91 42 92 50 93 43 94 49 95
REMARK SMILES IDX 51 96 48 97 44 98 45 99 46 100 47 101
REMARK H PARENT 71 54 39 65
REMARK Flexibility Score: inf
ROOT
ATOM      1  C   UNL     1       3.236   2.860   2.603  1.00  0.00     0.188 C 
ENDROOT
BRANCH   1   2
ATOM      2  C   UNL     1       3.788   1.586   3.282  1.00  0.00     0.188 C 
BRANCH   2   3
ATOM      3  O   UNL     1       4.795   0.867   2.581  1.00  0.00    -0.376 OA
BRANCH   3   4
ATOM      4  C   UNL     1       4.308  -0.005   1.574  1.00  0.00     0.202 C 
BRANCH   4   5
ATOM      5  C   UNL     1       3.379  -1.152   2.050  1.00  0.00     0.261 C 
BRANCH   5   6
ATOM      6  O   UNL     1       3.930  -2.450   1.741  1.00  0.00    -0.460 OA
BRANCH   6   7
ATOM      7  C   UNL     1       3.260  -3.135   0.772  1.00  0.00     0.338 C 
ATOM      8  O   UNL     1       2.218  -3.761   0.900  1.00  0.00    -0.246 OA
BRANCH   7   9
ATOM      9  C   UNL     1       3.898  -2.838  -0.518  1.00  0.00     0.087 C 
ATOM     10  C   UNL     1       3.395  -1.694  -0.982  1.00  0.00     0.028 C 
ATOM     11  C   UNL     1       5.212  -3.416  -0.917  1.00  0.00     0.316 C 
ATOM     12  C   UNL     1       4.216  -0.777  -1.718  1.00  0.00     0.033 A 
ATOM     13  O   UNL     1       6.042  -2.463  -1.664  1.00  0.00    -0.475 OA
ATOM     14  C   UNL     1       5.550  -1.206  -1.963  1.00  0.00     0.129 A 
ATOM     15  C   UNL     1       3.774   0.571  -1.886  1.00  0.00     0.042 A 
ATOM     16  C   UNL     1       6.485  -0.290  -2.428  1.00  0.00     0.049 A 
ATOM     17  C   UNL     1       4.781   1.470  -2.324  1.00  0.00     0.055 A 
ATOM     18  C   UNL     1       6.104   1.043  -2.589  1.00  0.00     0.025 A 
ATOM     19  Cl  UNL     1       4.512   3.179  -2.477  1.00  0.00    -0.083 Cl
BRANCH  11  20
ATOM     20  C   UNL     1       5.999  -4.021   0.274  1.00  0.00     0.430 C 
ATOM     21  F   UNL     1       5.205  -4.737   1.105  1.00  0.00    -0.167 F 
ATOM     22  F   UNL     1       6.956  -4.881  -0.151  1.00  0.00    -0.167 F 
ATOM     23  F   UNL     1       6.608  -3.063   1.008  1.00  0.00    -0.167 F 
ENDBRANCH  11  20
BRANCH  15  24
ATOM     24  S   UNL     1       2.058   1.260  -1.605  1.00  0.00    -0.088 SA
BRANCH  24  25
ATOM     25  C   UNL     1       0.985   0.476  -0.374  1.00  0.00     0.012 A 
ATOM     26  C   UNL     1      -0.063  -0.364  -0.764  1.00  0.00     0.015 A 
ATOM     27  C   UNL     1       1.004   0.792   0.992  1.00  0.00     0.015 A 
ATOM     28  C   UNL     1      -0.897  -1.003   0.181  1.00  0.00     0.001 A 
ATOM     29  C   UNL     1       0.215   0.123   1.957  1.00  0.00     0.001 A 
ATOM     30  C   UNL     1      -0.712  -0.817   1.547  1.00  0.00     0.000 A 
ENDBRANCH  24  25
ENDBRANCH  15  24
ENDBRANCH   7   9
ENDBRANCH   6   7
ENDBRANCH   5   6
ENDBRANCH   4   5
ENDBRANCH   3   4
ENDBRANCH   2   3
ENDBRANCH   1   2
BRANCH   1  31
ATOM     31  O   UNL     1       3.758   4.145   2.910  1.00  0.00    -0.376 OA
BRANCH  31  32
ATOM     32  C   UNL     1       5.099   4.215   3.345  1.00  0.00     0.202 C 
BRANCH  32  33
ATOM     33  C   UNL     1       5.169   4.428   4.868  1.00  0.00     0.261 C 
BRANCH  33  34
ATOM     34  O   UNL     1       4.571   3.356   5.638  1.00  0.00    -0.460 OA
BRANCH  34  35
ATOM     35  C   UNL     1       3.223   3.413   5.844  1.00  0.00     0.338 C 
ATOM     36  O   UNL     1       2.510   4.376   5.619  1.00  0.00    -0.246 OA
BRANCH  35  37
ATOM     37  C   UNL     1       2.675   2.053   6.191  1.00  0.00     0.060 A 
ATOM     38  C   UNL     1       1.333   1.772   5.878  1.00  0.00     0.016 A 
ATOM     39  C   UNL     1       3.457   1.032   6.753  1.00  0.00     0.016 A 
ATOM     40  C   UNL     1       0.755   0.536   6.216  1.00  0.00     0.010 A 
ATOM     41  C   UNL     1       2.877  -0.205   7.102  1.00  0.00     0.010 A 
ATOM     42  C   UNL     1       1.503  -0.435   6.904  1.00  0.00    -0.014 A 
BRANCH  42  43
ATOM     43  C   UNL     1       0.778  -1.408   7.787  1.00  0.00     0.031 A 
ATOM     44  C   UNL     1       0.336  -0.870   9.134  1.00  0.00     0.074 A 
ATOM     45  C   UNL     1       0.495  -2.688   7.469  1.00  0.00     0.049 A 
ATOM     46  N   UNL     1      -0.358  -1.439  10.086  1.00  0.00    -0.248 NA
ATOM     47  C   UNL     1       0.743   0.512   9.437  1.00  0.00     0.031 C 
ATOM     48  C   UNL     1       0.838  -3.360   6.219  1.00  0.00     0.029 A 
ATOM     49  N   UNL     1      -0.164  -3.660   8.196  1.00  0.00    -0.354 N 
ATOM     50  C   UNL     1      -0.487  -0.476  11.084  1.00  0.00     0.074 A 
ATOM     51  C   UNL     1       0.236   0.693  10.642  1.00  0.00     0.031 C 
ATOM     52  C   UNL     1       0.384  -4.629   6.264  1.00  0.00     0.029 A 
ATOM     53  C   UNL     1      -0.268  -4.876   7.553  1.00  0.00     0.049 A 
ATOM     54  H   UNL     1      -0.527  -3.499   9.097  1.00  0.00     0.167 HD
ATOM     55  C   UNL     1      -1.147  -0.540  12.265  1.00  0.00     0.034 A 
ATOM     56  C   UNL     1      -0.820  -6.044   7.959  1.00  0.00     0.034 A 
ATOM     57  C   UNL     1      -1.800  -1.723  12.757  1.00  0.00     0.049 A 
ATOM     58  C   UNL     1      -1.468  -6.128   9.332  1.00  0.00     0.074 A 
ATOM     59  C   UNL     1      -2.463  -1.905  13.957  1.00  0.00     0.029 A 
ATOM     60  N   UNL     1      -1.843  -2.938  12.088  1.00  0.00    -0.354 N 
ATOM     61  N   UNL     1      -1.622  -5.192  10.241  1.00  0.00    -0.248 NA
ATOM     62  C   UNL     1      -2.026  -7.432   9.726  1.00  0.00     0.031 C 
ATOM     63  C   UNL     1      -2.836  -3.250  14.049  1.00  0.00     0.029 A 
ATOM     64  C   UNL     1      -2.493  -3.883  12.865  1.00  0.00     0.049 A 
ATOM     65  H   UNL     1      -1.466  -3.104  11.194  1.00  0.00     0.167 HD
ATOM     66  C   UNL     1      -2.335  -5.785  11.286  1.00  0.00     0.074 A 
ATOM     67  C   UNL     1      -2.590  -7.152  10.891  1.00  0.00     0.031 C 
ATOM     68  C   UNL     1      -2.750  -5.246  12.463  1.00  0.00     0.034 A 
BRANCH  55  69
ATOM     69  C   UNL     1      -1.108   0.699  13.127  1.00  0.00     0.023 A 
ATOM     70  C   UNL     1      -1.687   1.909  12.700  1.00  0.00     0.031 A 
ATOM     71  C   UNL     1      -0.407   0.695  14.344  1.00  0.00     0.131 A 
ATOM     72  C   UNL     1      -1.475   3.082  13.439  1.00  0.00     0.055 A 
ATOM     73  C   UNL     1      -0.277   1.848  15.120  1.00  0.00     0.041 A 
ATOM     74  F   UNL     1       0.194  -0.421  14.784  1.00  0.00    -0.206 F 
ATOM     75  C   UNL     1      -0.796   3.055  14.659  1.00  0.00     0.022 A 
BRANCH  72  76
ATOM     76  S   UNL     1      -1.942   4.669  12.695  1.00  0.00     0.124 S 
ATOM     77  O   UNL     1      -1.137   4.670  11.476  1.00  0.00    -0.237 OA
ATOM     78  O   UNL     1      -3.381   4.521  12.511  1.00  0.00    -0.237 OA
ATOM     79  O   UNL     1      -1.539   5.650  13.701  1.00  0.00    -0.744 OA
ENDBRANCH  72  76
ENDBRANCH  55  69
BRANCH  56  80
ATOM     80  C   UNL     1      -0.783  -7.269   7.094  1.00  0.00     0.023 A 
ATOM     81  C   UNL     1      -1.967  -7.901   6.665  1.00  0.00     0.031 A 
ATOM     82  C   UNL     1       0.436  -7.897   6.784  1.00  0.00     0.131 A 
ATOM     83  C   UNL     1      -1.907  -9.143   6.008  1.00  0.00     0.055 A 
ATOM     84  C   UNL     1       0.492  -9.102   6.077  1.00  0.00     0.041 A 
ATOM     85  F   UNL     1       1.599  -7.355   7.181  1.00  0.00    -0.206 F 
ATOM     86  C   UNL     1      -0.684  -9.741   5.699  1.00  0.00     0.022 A 
BRANCH  83  87
ATOM     87  S   UNL     1      -3.456 -10.029   5.661  1.00  0.00     0.124 S 
ATOM     88  O   UNL     1      -4.007 -10.198   7.000  1.00  0.00    -0.237 OA
ATOM     89  O   UNL     1      -4.156  -9.089   4.792  1.00  0.00    -0.237 OA
ATOM     90  O   UNL     1      -3.008 -11.258   5.010  1.00  0.00    -0.744 OA
ENDBRANCH  83  87
ENDBRANCH  56  80
BRANCH  68  91
ATOM     91  C   UNL     1      -3.589  -6.110  13.379  1.00  0.00     0.023 A 
ATOM     92  C   UNL     1      -3.088  -7.276  13.984  1.00  0.00     0.031 A 
ATOM     93  C   UNL     1      -4.923  -5.751  13.652  1.00  0.00     0.131 A 
ATOM     94  C   UNL     1      -3.931  -8.072  14.777  1.00  0.00     0.055 A 
ATOM     95  C   UNL     1      -5.736  -6.510  14.495  1.00  0.00     0.041 A 
ATOM     96  F   UNL     1      -5.460  -4.648  13.105  1.00  0.00    -0.206 F 
ATOM     97  C   UNL     1      -5.246  -7.687  15.051  1.00  0.00     0.022 A 
BRANCH  94  98
ATOM     98  S   UNL     1      -3.323  -9.680  15.360  1.00  0.00     0.124 S 
ATOM     99  O   UNL     1      -2.919 -10.323  14.114  1.00  0.00    -0.237 OA
ATOM    100  O   UNL     1      -2.239  -9.295  16.259  1.00  0.00    -0.237 OA
ATOM    101  O   UNL     1      -4.489 -10.272  16.014  1.00  0.00    -0.744 OA
ENDBRANCH  94  98
ENDBRANCH  68  91
ENDBRANCH  42  43
ENDBRANCH  35  37
ENDBRANCH  34  35
ENDBRANCH  33  34
ENDBRANCH  32  33
ENDBRANCH  31  32
ENDBRANCH   1  31
TORSDOF 23
