REMARK SMILES Cc1cscc1-c1noc(SCC(=O)OCCOCCOCCOC(=O)c2ccc(-c3c4nc(c(-c5cc(S(=O)(=O)[O-])ccc5F)c5ccc([nH]5)c(-c5cc(S(=O)(=O)[O-])ccc5F)c5nc(c(-c6cc(S(=O)(=O)[O-])ccc6F)c6ccc3[nH]6)C=C5)C=C4)cc2)n1
REMARK SMILES IDX 19 1 18 2 17 3 16 4 15 5 13 6 14 7 12 8 11 9 10 10 7 11 8 12
REMARK SMILES IDX 90 13 9 14 6 15 1 16 2 17 3 18 4 19 5 20 20 21 21 22 22 23
REMARK SMILES IDX 23 24 24 25 25 26 26 27 27 28 28 29 89 30 29 31 88 32 30 33
REMARK SMILES IDX 31 34 32 35 82 36 33 37 87 38 81 39 83 40 34 41 86 42 80 43
REMARK SMILES IDX 79 44 35 46 67 47 47 48 66 49 48 50 51 51 65 52 84 53 49 54
REMARK SMILES IDX 50 55 64 57 85 58 52 59 36 60 37 61 45 62 38 63 44 64 46 65
REMARK SMILES IDX 43 66 39 67 40 68 41 69 42 70 68 71 69 72 77 73 70 74 76 75
REMARK SMILES IDX 78 76 75 77 71 78 72 79 73 80 74 81 53 82 54 83 62 84 55 85
REMARK SMILES IDX 61 86 63 87 60 88 56 89 57 90 58 91 59 92
REMARK H PARENT 83 45 51 56
REMARK Flexibility Score: inf
ROOT
ATOM      1  C   UNL     1       5.064   0.939  -2.244  1.00  0.00     0.188 C 
ENDROOT
BRANCH   1   2
ATOM      2  O   UNL     1       6.304   0.635  -2.881  1.00  0.00    -0.376 OA
BRANCH   2   3
ATOM      3  C   UNL     1       7.360   1.568  -2.657  1.00  0.00     0.202 C 
BRANCH   3   4
ATOM      4  C   UNL     1       7.085   2.979  -3.215  1.00  0.00     0.261 C 
BRANCH   4   5
ATOM      5  O   UNL     1       6.013   3.633  -2.480  1.00  0.00    -0.463 OA
BRANCH   5   6
ATOM      6  C   UNL     1       5.035   4.275  -3.178  1.00  0.00     0.316 C 
ATOM      7  O   UNL     1       5.144   4.562  -4.365  1.00  0.00    -0.251 OA
BRANCH   6   8
ATOM      8  C   UNL     1       3.713   4.429  -2.397  1.00  0.00     0.202 C 
BRANCH   8   9
ATOM      9  S   UNL     1       3.917   4.933  -0.676  1.00  0.00    -0.053 SA
BRANCH   9  10
ATOM     10  C   UNL     1       2.590   4.317   0.311  1.00  0.00     0.286 A 
ATOM     11  C   UNL     1       1.049   3.192   1.269  1.00  0.00     0.204 A 
ATOM     12  N   UNL     1       1.554   3.937   2.260  1.00  0.00    -0.056 NA
ATOM     13  N   UNL     1       1.615   3.475   0.012  1.00  0.00    -0.181 NA
ATOM     14  O   UNL     1       2.555   4.670   1.640  1.00  0.00    -0.327 OA
BRANCH  11  15
ATOM     15  C   UNL     1      -0.119   2.296   1.509  1.00  0.00     0.036 A 
ATOM     16  C   UNL     1       1.003   0.131   2.649  1.00  0.00     0.046 C 
ATOM     17  C   UNL     1      -0.123   0.961   2.118  1.00  0.00    -0.029 A 
ATOM     18  C   UNL     1      -1.412   0.451   2.180  1.00  0.00     0.069 A 
ATOM     19  S   UNL     1      -2.593   1.635   1.895  1.00  0.00    -0.151 S 
ATOM     20  C   UNL     1      -1.416   2.747   1.342  1.00  0.00     0.077 A 
ENDBRANCH  11  15
ENDBRANCH   9  10
ENDBRANCH   8   9
ENDBRANCH   6   8
ENDBRANCH   5   6
ENDBRANCH   4   5
ENDBRANCH   3   4
ENDBRANCH   2   3
ENDBRANCH   1   2
BRANCH   1  21
ATOM     21  C   UNL     1       5.179   1.475  -0.813  1.00  0.00     0.188 C 
BRANCH  21  22
ATOM     22  O   UNL     1       5.812   0.519   0.028  1.00  0.00    -0.376 OA
BRANCH  22  23
ATOM     23  C   UNL     1       5.024   0.162   1.153  1.00  0.00     0.202 C 
BRANCH  23  24
ATOM     24  C   UNL     1       4.185  -1.097   0.854  1.00  0.00     0.261 C 
BRANCH  24  25
ATOM     25  O   UNL     1       3.212  -1.063  -0.229  1.00  0.00    -0.460 OA
BRANCH  25  26
ATOM     26  C   UNL     1       2.386   0.000  -0.226  1.00  0.00     0.338 C 
ATOM     27  O   UNL     1       2.499   0.944   0.531  1.00  0.00    -0.246 OA
BRANCH  26  28
ATOM     28  C   UNL     1       1.288  -0.010  -1.205  1.00  0.00     0.060 A 
ATOM     29  C   UNL     1       1.076   1.165  -1.936  1.00  0.00     0.016 A 
ATOM     30  C   UNL     1       0.317  -1.006  -1.194  1.00  0.00     0.016 A 
ATOM     31  C   UNL     1      -0.120   1.379  -2.617  1.00  0.00     0.010 A 
ATOM     32  C   UNL     1      -0.875  -0.806  -1.905  1.00  0.00     0.010 A 
ATOM     33  C   UNL     1      -1.107   0.389  -2.612  1.00  0.00    -0.014 A 
BRANCH  33  34
ATOM     34  C   UNL     1      -2.334   0.543  -3.435  1.00  0.00     0.031 A 
ATOM     35  C   UNL     1      -3.684   0.776  -2.827  1.00  0.00     0.074 A 
ATOM     36  C   UNL     1      -2.220   0.398  -4.765  1.00  0.00     0.049 A 
ATOM     37  N   UNL     1      -4.879   0.656  -3.343  1.00  0.00    -0.248 NA
ATOM     38  C   UNL     1      -3.679   1.212  -1.434  1.00  0.00     0.031 C 
ATOM     39  C   UNL     1      -0.959   0.238  -5.490  1.00  0.00     0.029 A 
ATOM     40  N   UNL     1      -3.185   0.312  -5.730  1.00  0.00    -0.354 N 
ATOM     41  C   UNL     1      -5.774   0.962  -2.318  1.00  0.00     0.074 A 
ATOM     42  C   UNL     1      -4.973   1.268  -1.150  1.00  0.00     0.031 C 
ATOM     43  C   UNL     1      -1.231   0.016  -6.782  1.00  0.00     0.029 A 
ATOM     44  C   UNL     1      -2.678  -0.048  -6.953  1.00  0.00     0.049 A 
ATOM     45  H   UNL     1      -4.139   0.490  -5.566  1.00  0.00     0.167 HD
ATOM     46  C   UNL     1      -7.131   0.982  -2.360  1.00  0.00     0.034 A 
ATOM     47  C   UNL     1      -3.306  -0.458  -8.067  1.00  0.00     0.034 A 
ATOM     48  C   UNL     1      -7.892   0.708  -3.560  1.00  0.00     0.049 A 
ATOM     49  C   UNL     1      -4.805  -0.511  -8.086  1.00  0.00     0.074 A 
ATOM     50  C   UNL     1      -9.264   0.752  -3.745  1.00  0.00     0.029 A 
ATOM     51  N   UNL     1      -7.343   0.335  -4.781  1.00  0.00    -0.354 N 
ATOM     52  N   UNL     1      -5.652  -0.261  -7.115  1.00  0.00    -0.248 NA
ATOM     53  C   UNL     1      -5.429  -0.887  -9.357  1.00  0.00     0.031 C 
ATOM     54  C   UNL     1      -9.546   0.339  -5.053  1.00  0.00     0.029 A 
ATOM     55  C   UNL     1      -8.348   0.112  -5.711  1.00  0.00     0.049 A 
ATOM     56  H   UNL     1      -6.380   0.242  -4.960  1.00  0.00     0.167 HD
ATOM     57  C   UNL     1      -6.917  -0.421  -7.670  1.00  0.00     0.074 A 
ATOM     58  C   UNL     1      -6.716  -0.782  -9.060  1.00  0.00     0.031 C 
ATOM     59  C   UNL     1      -8.135  -0.272  -7.087  1.00  0.00     0.034 A 
BRANCH  46  60
ATOM     60  C   UNL     1      -7.888   1.254  -1.076  1.00  0.00     0.023 A 
ATOM     61  C   UNL     1      -7.811   2.481  -0.395  1.00  0.00     0.031 A 
ATOM     62  C   UNL     1      -8.728   0.261  -0.536  1.00  0.00     0.131 A 
ATOM     63  C   UNL     1      -8.520   2.666   0.805  1.00  0.00     0.055 A 
ATOM     64  C   UNL     1      -9.484   0.474   0.619  1.00  0.00     0.041 A 
ATOM     65  F   UNL     1      -8.833  -0.941  -1.127  1.00  0.00    -0.206 F 
ATOM     66  C   UNL     1      -9.374   1.680   1.304  1.00  0.00     0.022 A 
BRANCH  63  67
ATOM     67  S   UNL     1      -8.227   4.175   1.772  1.00  0.00     0.124 S 
ATOM     68  O   UNL     1      -6.780   4.127   1.970  1.00  0.00    -0.237 OA
ATOM     69  O   UNL     1      -8.715   5.219   0.879  1.00  0.00    -0.237 OA
ATOM     70  O   UNL     1      -9.020   3.967   2.982  1.00  0.00    -0.744 OA
ENDBRANCH  63  67
ENDBRANCH  46  60
BRANCH  47  71
ATOM     71  C   UNL     1      -2.494  -0.889  -9.232  1.00  0.00     0.023 A 
ATOM     72  C   UNL     1      -2.453  -0.114 -10.396  1.00  0.00     0.031 A 
ATOM     73  C   UNL     1      -1.713  -2.058  -9.175  1.00  0.00     0.131 A 
ATOM     74  C   UNL     1      -1.660  -0.527 -11.474  1.00  0.00     0.055 A 
ATOM     75  C   UNL     1      -0.891  -2.441 -10.233  1.00  0.00     0.041 A 
ATOM     76  F   UNL     1      -1.708  -2.819  -8.068  1.00  0.00    -0.206 F 
ATOM     77  C   UNL     1      -0.867  -1.676 -11.396  1.00  0.00     0.022 A 
BRANCH  74  78
ATOM     78  S   UNL     1      -1.712   0.447 -12.999  1.00  0.00     0.124 S 
ATOM     79  O   UNL     1      -3.129   0.392 -13.340  1.00  0.00    -0.237 OA
ATOM     80  O   UNL     1      -1.211   1.741 -12.547  1.00  0.00    -0.237 OA
ATOM     81  O   UNL     1      -0.823  -0.284 -13.899  1.00  0.00    -0.744 OA
ENDBRANCH  74  78
ENDBRANCH  47  71
BRANCH  59  82
ATOM     82  C   UNL     1      -9.335  -0.459  -7.980  1.00  0.00     0.023 A 
ATOM     83  C   UNL     1      -9.662  -1.715  -8.521  1.00  0.00     0.031 A 
ATOM     84  C   UNL     1     -10.132   0.644  -8.333  1.00  0.00     0.131 A 
ATOM     85  C   UNL     1     -10.715  -1.824  -9.441  1.00  0.00     0.055 A 
ATOM     86  C   UNL     1     -11.217   0.517  -9.201  1.00  0.00     0.041 A 
ATOM     87  F   UNL     1      -9.862   1.866  -7.848  1.00  0.00    -0.206 F 
ATOM     88  C   UNL     1     -11.504  -0.720  -9.773  1.00  0.00     0.022 A 
BRANCH  85  89
ATOM     89  S   UNL     1     -10.973  -3.411 -10.281  1.00  0.00     0.124 S 
ATOM     90  O   UNL     1      -9.687  -3.616 -10.940  1.00  0.00    -0.237 OA
ATOM     91  O   UNL     1     -11.271  -4.308  -9.171  1.00  0.00    -0.237 OA
ATOM     92  O   UNL     1     -12.094  -3.144 -11.181  1.00  0.00    -0.744 OA
ENDBRANCH  85  89
ENDBRANCH  59  82
ENDBRANCH  33  34
ENDBRANCH  26  28
ENDBRANCH  25  26
ENDBRANCH  24  25
ENDBRANCH  23  24
ENDBRANCH  22  23
ENDBRANCH  21  22
ENDBRANCH   1  21
TORSDOF 23
