REMARK SMILES C[C@H](NC(=O)c1cccc(NC(=O)c2ccccc2C(=O)OCCOCCOCCOC(=O)c2ccc(-c3c4nc(c(-c5cc(S(=O)(=O)[O-])ccc5F)c5ccc([nH]5)c(-c5cc(S(=O)(=O)[O-])ccc5F)c5nc(c(-c6cc(S(=O)(=O)[O-])ccc6F)c6ccc3[nH]6)C=C5)C=C4)cc2)c1)c1ccccc1
REMARK SMILES IDX 26 1 25 2 24 3 23 4 22 5 20 6 21 7 19 8 14 9 15 10 16 11
REMARK SMILES IDX 18 12 17 13 12 14 11 15 13 17 10 18 6 19 7 20 97 21 8 22
REMARK SMILES IDX 9 23 4 24 3 25 5 27 2 28 1 29 98 30 99 31 103 32 100 33
REMARK SMILES IDX 102 34 101 35 27 36 28 37 29 38 30 39 31 40 32 41 33 42
REMARK SMILES IDX 34 43 35 44 96 45 36 46 95 47 37 48 38 49 39 50 89 51 40 52
REMARK SMILES IDX 94 53 88 54 90 55 41 56 93 57 87 58 86 59 42 61 74 62 54 63
REMARK SMILES IDX 73 64 55 65 58 66 72 67 91 68 56 69 57 70 71 72 92 73 59 74
REMARK SMILES IDX 43 75 44 76 52 77 45 78 51 79 53 80 50 81 46 82 47 83 48 84
REMARK SMILES IDX 49 85 75 86 76 87 84 88 77 89 83 90 85 91 82 92 78 93 79 94
REMARK SMILES IDX 80 95 81 96 60 97 61 98 69 99 62 100 68 101 70 102 67 103
REMARK SMILES IDX 63 104 64 105 65 106 66 107
REMARK H PARENT 11 16 3 26 90 60 58 71
REMARK Flexibility Score: inf
ROOT
ATOM      1  C   UNL     1       0.331   6.772   1.826  1.00  0.00     0.188 C 
ENDROOT
BRANCH   1   2
ATOM      2  O   UNL     1       0.530   6.115   0.580  1.00  0.00    -0.376 OA
BRANCH   2   3
ATOM      3  C   UNL     1      -0.009   4.820   0.415  1.00  0.00     0.202 C 
BRANCH   3   4
ATOM      4  C   UNL     1       0.319   3.777   1.476  1.00  0.00     0.261 C 
BRANCH   4   5
ATOM      5  O   UNL     1      -0.033   4.116   2.817  1.00  0.00    -0.460 OA
BRANCH   5   6
ATOM      6  C   UNL     1       1.007   4.216   3.672  1.00  0.00     0.339 C 
ATOM      7  O   UNL     1       2.192   4.181   3.384  1.00  0.00    -0.246 OA
BRANCH   6   8
ATOM      8  C   UNL     1       0.535   4.502   5.041  1.00  0.00     0.072 A 
ATOM      9  C   UNL     1      -0.588   3.924   5.656  1.00  0.00     0.054 A 
ATOM     10  C   UNL     1      -0.927   4.357   6.955  1.00  0.00     0.015 A 
ATOM     11  C   UNL     1      -0.149   5.298   7.638  1.00  0.00     0.001 A 
ATOM     12  C   UNL     1       1.322   5.437   5.744  1.00  0.00     0.016 A 
ATOM     13  C   UNL     1       0.982   5.833   7.034  1.00  0.00     0.001 A 
BRANCH   9  14
ATOM     14  C   UNL     1      -1.533   2.943   5.050  1.00  0.00     0.256 C 
ATOM     15  N   UNL     1      -1.173   1.869   4.263  1.00  0.00    -0.322 N 
ATOM     16  H   UNL     1      -1.937   1.420   3.835  1.00  0.00     0.170 HD
ATOM     17  O   UNL     1      -2.739   3.122   5.250  1.00  0.00    -0.269 OA
BRANCH  15  18
ATOM     18  C   UNL     1       0.067   1.291   3.952  1.00  0.00     0.042 A 
ATOM     19  C   UNL     1       1.427   0.223   2.241  1.00  0.00     0.041 A 
ATOM     20  C   UNL     1       2.563   0.462   3.024  1.00  0.00     0.014 A 
ATOM     21  C   UNL     1       0.173   0.612   2.724  1.00  0.00     0.040 A 
ATOM     22  C   UNL     1       2.443   1.039   4.289  1.00  0.00     0.003 A 
ATOM     23  C   UNL     1       1.190   1.420   4.767  1.00  0.00     0.026 A 
BRANCH  19  24
ATOM     24  C   UNL     1       1.600  -0.594   1.016  1.00  0.00     0.251 C 
ATOM     25  N   UNL     1       1.073  -0.271  -0.208  1.00  0.00    -0.346 N 
ATOM     26  H   UNL     1       1.136  -0.994  -0.873  1.00  0.00     0.164 HD
ATOM     27  O   UNL     1       2.254  -1.634   1.106  1.00  0.00    -0.269 OA
BRANCH  25  28
ATOM     28  C   UNL     1       0.439   0.941  -0.712  1.00  0.00     0.109 C 
ATOM     29  C   UNL     1       0.955   1.242  -2.124  1.00  0.00     0.036 C 
BRANCH  28  30
ATOM     30  C   UNL     1      -1.084   0.888  -0.688  1.00  0.00    -0.026 A 
ATOM     31  C   UNL     1      -1.831   2.047  -0.971  1.00  0.00     0.006 A 
ATOM     32  C   UNL     1      -1.793  -0.277  -0.358  1.00  0.00     0.006 A 
ATOM     33  C   UNL     1      -3.223   2.062  -0.857  1.00  0.00     0.000 A 
ATOM     34  C   UNL     1      -3.188  -0.266  -0.255  1.00  0.00     0.000 A 
ATOM     35  C   UNL     1      -3.901   0.906  -0.489  1.00  0.00     0.000 A 
ENDBRANCH  28  30
ENDBRANCH  25  28
ENDBRANCH  19  24
ENDBRANCH  15  18
ENDBRANCH   9  14
ENDBRANCH   6   8
ENDBRANCH   5   6
ENDBRANCH   4   5
ENDBRANCH   3   4
ENDBRANCH   2   3
ENDBRANCH   1   2
BRANCH   1  36
ATOM     36  C   UNL     1      -1.074   6.751   2.476  1.00  0.00     0.188 C 
BRANCH  36  37
ATOM     37  O   UNL     1      -2.067   6.175   1.646  1.00  0.00    -0.376 OA
BRANCH  37  38
ATOM     38  C   UNL     1      -3.044   7.054   1.118  1.00  0.00     0.202 C 
BRANCH  38  39
ATOM     39  C   UNL     1      -2.576   8.180   0.181  1.00  0.00     0.261 C 
BRANCH  39  40
ATOM     40  O   UNL     1      -1.399   8.903   0.569  1.00  0.00    -0.460 OA
BRANCH  40  41
ATOM     41  C   UNL     1      -1.497   9.794   1.584  1.00  0.00     0.338 C 
ATOM     42  O   UNL     1      -2.499  10.055   2.225  1.00  0.00    -0.246 OA
BRANCH  41  43
ATOM     43  C   UNL     1      -0.113  10.213   1.927  1.00  0.00     0.060 A 
ATOM     44  C   UNL     1       0.367  10.012   3.231  1.00  0.00     0.016 A 
ATOM     45  C   UNL     1       0.741  10.703   0.934  1.00  0.00     0.016 A 
ATOM     46  C   UNL     1       1.696  10.319   3.548  1.00  0.00     0.010 A 
ATOM     47  C   UNL     1       2.057  11.043   1.260  1.00  0.00     0.010 A 
ATOM     48  C   UNL     1       2.533  10.883   2.574  1.00  0.00    -0.014 A 
BRANCH  48  49
ATOM     49  C   UNL     1       3.775  11.601   2.963  1.00  0.00     0.031 A 
ATOM     50  C   UNL     1       3.637  13.071   3.263  1.00  0.00     0.074 A 
ATOM     51  C   UNL     1       4.985  11.014   2.992  1.00  0.00     0.049 A 
ATOM     52  N   UNL     1       4.558  13.983   3.425  1.00  0.00    -0.248 NA
ATOM     53  C   UNL     1       2.259  13.576   3.373  1.00  0.00     0.031 C 
ATOM     54  C   UNL     1       5.246   9.592   2.785  1.00  0.00     0.029 A 
ATOM     55  N   UNL     1       6.232  11.561   3.185  1.00  0.00    -0.354 N 
ATOM     56  C   UNL     1       3.870  15.173   3.638  1.00  0.00     0.074 A 
ATOM     57  C   UNL     1       2.459  14.869   3.560  1.00  0.00     0.031 C 
ATOM     58  C   UNL     1       6.576   9.383   2.835  1.00  0.00     0.029 A 
ATOM     59  C   UNL     1       7.262  10.662   3.023  1.00  0.00     0.049 A 
ATOM     60  H   UNL     1       6.375  12.507   3.418  1.00  0.00     0.167 HD
ATOM     61  C   UNL     1       4.369  16.411   3.870  1.00  0.00     0.034 A 
ATOM     62  C   UNL     1       8.598  10.861   2.986  1.00  0.00     0.034 A 
ATOM     63  C   UNL     1       5.777  16.705   3.912  1.00  0.00     0.049 A 
ATOM     64  C   UNL     1       9.138  12.269   3.144  1.00  0.00     0.074 A 
ATOM     65  C   UNL     1       6.397  17.923   4.123  1.00  0.00     0.029 A 
ATOM     66  N   UNL     1       6.786  15.770   3.724  1.00  0.00    -0.354 N 
ATOM     67  N   UNL     1       8.481  13.393   3.325  1.00  0.00    -0.248 NA
ATOM     68  C   UNL     1      10.598  12.435   3.090  1.00  0.00     0.031 C 
ATOM     69  C   UNL     1       7.777  17.738   3.993  1.00  0.00     0.029 A 
ATOM     70  C   UNL     1       8.023  16.389   3.789  1.00  0.00     0.049 A 
ATOM     71  H   UNL     1       6.644  14.809   3.566  1.00  0.00     0.167 HD
ATOM     72  C   UNL     1       9.451  14.387   3.453  1.00  0.00     0.074 A 
ATOM     73  C   UNL     1      10.736  13.733   3.322  1.00  0.00     0.031 C 
ATOM     74  C   UNL     1       9.296  15.717   3.673  1.00  0.00     0.034 A 
BRANCH  61  75
ATOM     75  C   UNL     1       3.374  17.533   4.021  1.00  0.00     0.023 A 
ATOM     76  C   UNL     1       2.447  17.562   5.078  1.00  0.00     0.031 A 
ATOM     77  C   UNL     1       3.308  18.555   3.058  1.00  0.00     0.131 A 
ATOM     78  C   UNL     1       1.447  18.545   5.104  1.00  0.00     0.055 A 
ATOM     79  C   UNL     1       2.365  19.581   3.138  1.00  0.00     0.041 A 
ATOM     80  F   UNL     1       4.147  18.562   2.010  1.00  0.00    -0.206 F 
ATOM     81  C   UNL     1       1.416  19.570   4.156  1.00  0.00     0.022 A 
BRANCH  78  82
ATOM     82  S   UNL     1       0.095  18.371   6.300  1.00  0.00     0.124 S 
ATOM     83  O   UNL     1      -0.457  17.069   5.933  1.00  0.00    -0.237 OA
ATOM     84  O   UNL     1       0.794  18.430   7.578  1.00  0.00    -0.237 OA
ATOM     85  O   UNL     1      -0.770  19.511   6.007  1.00  0.00    -0.744 OA
ENDBRANCH  78  82
ENDBRANCH  61  75
BRANCH  62  86
ATOM     86  C   UNL     1       9.534   9.725   2.732  1.00  0.00     0.023 A 
ATOM     87  C   UNL     1      10.492   9.344   3.686  1.00  0.00     0.031 A 
ATOM     88  C   UNL     1       9.535   9.050   1.497  1.00  0.00     0.131 A 
ATOM     89  C   UNL     1      11.439   8.354   3.375  1.00  0.00     0.055 A 
ATOM     90  C   UNL     1      10.443   8.028   1.213  1.00  0.00     0.041 A 
ATOM     91  F   UNL     1       8.650   9.379   0.543  1.00  0.00    -0.206 F 
ATOM     92  C   UNL     1      11.412   7.683   2.150  1.00  0.00     0.022 A 
BRANCH  89  93
ATOM     93  S   UNL     1      12.771   8.019   4.561  1.00  0.00     0.124 S 
ATOM     94  O   UNL     1      13.412   9.326   4.662  1.00  0.00    -0.237 OA
ATOM     95  O   UNL     1      12.028   7.576   5.735  1.00  0.00    -0.237 OA
ATOM     96  O   UNL     1      13.564   6.984   3.900  1.00  0.00    -0.744 OA
ENDBRANCH  89  93
ENDBRANCH  62  86
BRANCH  74  97
ATOM     97  C   UNL     1      10.540  16.547   3.880  1.00  0.00     0.023 A 
ATOM     98  C   UNL     1      11.441  16.826   2.840  1.00  0.00     0.031 A 
ATOM     99  C   UNL     1      10.794  17.106   5.147  1.00  0.00     0.131 A 
ATOM    100  C   UNL     1      12.574  17.618   3.094  1.00  0.00     0.055 A 
ATOM    101  C   UNL     1      11.892  17.934   5.380  1.00  0.00     0.041 A 
ATOM    102  F   UNL     1       9.963  16.872   6.176  1.00  0.00    -0.206 F 
ATOM    103  C   UNL     1      12.794  18.188   4.351  1.00  0.00     0.022 A 
BRANCH 100 104
ATOM    104  S   UNL     1      13.793  17.854   1.771  1.00  0.00     0.124 S 
ATOM    105  O   UNL     1      14.213  16.484   1.496  1.00  0.00    -0.237 OA
ATOM    106  O   UNL     1      13.002  18.500   0.728  1.00  0.00    -0.237 OA
ATOM    107  O   UNL     1      14.810  18.703   2.389  1.00  0.00    -0.744 OA
ENDBRANCH 100 104
ENDBRANCH  74  97
ENDBRANCH  48  49
ENDBRANCH  41  43
ENDBRANCH  40  41
ENDBRANCH  39  40
ENDBRANCH  38  39
ENDBRANCH  37  38
ENDBRANCH  36  37
ENDBRANCH   1  36
TORSDOF 25
