REMARK SMILES Cc1c(C(=O)OCCOCCOCCOC(=O)c2ccc(-c3c4nc(c(-c5cc(S(=O)(=O)[O-])ccc5F)c5ccc([nH]5)c(-c5cc(S(=O)(=O)[O-])ccc5F)c5nc(c(-c6cc(S(=O)(=O)[O-])ccc6F)c6ccc3[nH]6)C=C5)C=C4)cc2)cccc1-n1c(C)cc(/C=C2/C(=O)NC(=S)N=C2O)c1C
REMARK SMILES IDX 10 1 9 2 8 3 7 4 6 5 4 6 5 7 3 8 1 9 2 10 84 11 81 12 83 13
REMARK SMILES IDX 82 14 85 15 86 16 100 17 87 18 88 19 89 20 101 21 90 22
REMARK SMILES IDX 91 23 92 24 98 25 93 26 94 27 97 28 95 29 96 31 99 32 11 34
REMARK SMILES IDX 12 35 13 36 14 37 15 38 16 39 17 40 18 41 19 42 80 43 20 44
REMARK SMILES IDX 79 45 21 46 22 47 23 48 73 49 24 50 78 51 72 52 74 53 25 54
REMARK SMILES IDX 77 55 71 56 70 57 26 59 58 60 38 61 57 62 39 63 42 64 56 65
REMARK SMILES IDX 75 66 40 67 41 68 55 70 76 71 43 72 27 73 28 74 36 75 29 76
REMARK SMILES IDX 35 77 37 78 34 79 30 80 31 81 32 82 33 83 59 84 60 85 68 86
REMARK SMILES IDX 61 87 67 88 69 89 66 90 62 91 63 92 64 93 65 94 44 95 45 96
REMARK SMILES IDX 53 97 46 98 52 99 54 100 51 101 47 102 48 103 49 104 50 105
REMARK H PARENT 94 30 99 33 74 58 42 69
REMARK Flexibility Score: inf
ROOT
ATOM      1  C   UNL     1       2.766  -5.784   2.296  1.00  0.00     0.188 C 
ENDROOT
BRANCH   1   2
ATOM      2  O   UNL     1       3.692  -5.070   1.443  1.00  0.00    -0.376 OA
BRANCH   2   3
ATOM      3  C   UNL     1       4.516  -3.982   1.867  1.00  0.00     0.202 C 
BRANCH   3   4
ATOM      4  C   UNL     1       4.530  -2.501   1.139  1.00  0.00     0.261 C 
BRANCH   4   5
ATOM      5  O   UNL     1       3.314  -1.298   0.997  1.00  0.00    -0.460 OA
BRANCH   5   6
ATOM      6  C   UNL     1       2.252  -0.905   0.131  1.00  0.00     0.338 C 
ATOM      7  O   UNL     1       2.033  -1.156  -1.051  1.00  0.00    -0.246 OA
BRANCH   6   8
ATOM      8  C   UNL     1       1.151   0.001   0.471  1.00  0.00     0.065 A 
ATOM      9  C   UNL     1       2.949   1.701   0.610  1.00  0.00     0.047 C 
ATOM     10  C   UNL     1       1.505   1.332   0.401  1.00  0.00    -0.012 A 
ATOM     11  C   UNL     1       0.501   2.225  -0.013  1.00  0.00     0.049 A 
ATOM     12  C   UNL     1      -0.185  -0.388   0.111  1.00  0.00     0.016 A 
ATOM     13  C   UNL     1      -0.821   1.870  -0.320  1.00  0.00     0.027 A 
ATOM     14  C   UNL     1      -1.168   0.537  -0.259  1.00  0.00     0.003 A 
BRANCH  11  15
ATOM     15  N   UNL     1       0.805   3.581   0.018  1.00  0.00    -0.318 N 
ATOM     16  C   UNL     1       1.461   4.275  -0.977  1.00  0.00     0.020 A 
ATOM     17  C   UNL     1       0.872   4.265   1.217  1.00  0.00     0.027 A 
ATOM     18  C   UNL     1       1.757   3.683  -2.319  1.00  0.00     0.065 C 
ATOM     19  C   UNL     1       1.806   5.498  -0.438  1.00  0.00     0.031 A 
ATOM     20  C   UNL     1       1.407   5.504   0.928  1.00  0.00    -0.003 A 
ATOM     21  C   UNL     1       0.457   3.587   2.494  1.00  0.00     0.065 C 
BRANCH  20  22
ATOM     22  C   UNL     1       1.715   6.525   1.867  1.00  0.00     0.029 C 
ATOM     23  C   UNL     1       1.011   6.939   2.936  1.00  0.00     0.102 C 
ATOM     24  C   UNL     1       1.732   7.822   3.877  1.00  0.00     0.262 C 
ATOM     25  C   UNL     1      -0.318   6.530   3.398  1.00  0.00     0.226 C 
ATOM     26  O   UNL     1       2.745   8.454   3.604  1.00  0.00    -0.269 OA
ATOM     27  N   UNL     1       1.189   7.835   5.134  1.00  0.00    -0.297 N 
ATOM     28  N   UNL     1      -0.778   6.638   4.591  1.00  0.00    -0.184 NA
ATOM     29  C   UNL     1       0.026   7.221   5.533  1.00  0.00     0.203 C 
ATOM     30  H   UNL     1       1.684   8.334   5.823  1.00  0.00     0.172 HD
ATOM     31  S   UNL     1      -0.365   7.293   7.162  1.00  0.00    -0.038 S 
BRANCH  25  32
ATOM     32  O   UNL     1      -1.151   6.049   2.472  1.00  0.00    -0.493 OA
ATOM     33  H   UNL     1      -0.861   5.951   1.586  1.00  0.00     0.295 HD
ENDBRANCH  25  32
ENDBRANCH  20  22
ENDBRANCH  11  15
ENDBRANCH   6   8
ENDBRANCH   5   6
ENDBRANCH   4   5
ENDBRANCH   3   4
ENDBRANCH   2   3
ENDBRANCH   1   2
BRANCH   1  34
ATOM     34  C   UNL     1       2.762  -5.640   3.822  1.00  0.00     0.188 C 
BRANCH  34  35
ATOM     35  O   UNL     1       2.961  -4.287   4.199  1.00  0.00    -0.376 OA
BRANCH  35  36
ATOM     36  C   UNL     1       2.988  -4.022   5.586  1.00  0.00     0.202 C 
BRANCH  36  37
ATOM     37  C   UNL     1       1.581  -3.925   6.197  1.00  0.00     0.261 C 
BRANCH  37  38
ATOM     38  O   UNL     1       0.798  -2.874   5.581  1.00  0.00    -0.460 OA
BRANCH  38  39
ATOM     39  C   UNL     1      -0.291  -3.259   4.825  1.00  0.00     0.338 C 
ATOM     40  O   UNL     1      -1.353  -3.603   5.320  1.00  0.00    -0.246 OA
BRANCH  39  41
ATOM     41  C   UNL     1      -0.004  -3.094   3.359  1.00  0.00     0.060 A 
ATOM     42  C   UNL     1      -0.600  -3.738   2.268  1.00  0.00     0.016 A 
ATOM     43  C   UNL     1       1.122  -2.417   3.064  1.00  0.00     0.016 A 
ATOM     44  C   UNL     1       0.054  -3.825   0.946  1.00  0.00     0.010 A 
ATOM     45  C   UNL     1       1.796  -2.830   1.915  1.00  0.00     0.010 A 
ATOM     46  C   UNL     1       1.377  -3.418   0.703  1.00  0.00    -0.014 A 
BRANCH  46  47
ATOM     47  C   UNL     1       2.345  -3.770  -0.643  1.00  0.00     0.031 A 
ATOM     48  C   UNL     1       3.341  -2.861  -1.720  1.00  0.00     0.074 A 
ATOM     49  C   UNL     1       2.199  -5.023  -1.135  1.00  0.00     0.049 A 
ATOM     50  N   UNL     1       3.269  -2.953  -3.041  1.00  0.00    -0.248 NA
ATOM     51  C   UNL     1       4.337  -1.744  -1.454  1.00  0.00     0.031 C 
ATOM     52  C   UNL     1       2.869  -5.632  -2.280  1.00  0.00     0.029 A 
ATOM     53  N   UNL     1       1.208  -5.942  -0.802  1.00  0.00    -0.354 N 
ATOM     54  C   UNL     1       4.131  -2.013  -3.630  1.00  0.00     0.074 A 
ATOM     55  C   UNL     1       4.712  -1.245  -2.610  1.00  0.00     0.031 C 
ATOM     56  C   UNL     1       2.079  -6.602  -2.763  1.00  0.00     0.029 A 
ATOM     57  C   UNL     1       0.858  -6.611  -1.980  1.00  0.00     0.049 A 
ATOM     58  H   UNL     1       0.827  -6.092   0.093  1.00  0.00     0.167 HD
ATOM     59  C   UNL     1       4.451  -1.891  -4.941  1.00  0.00     0.034 A 
ATOM     60  C   UNL     1      -0.427  -6.596  -2.431  1.00  0.00     0.034 A 
ATOM     61  C   UNL     1       3.905  -2.968  -5.691  1.00  0.00     0.049 A 
ATOM     62  C   UNL     1      -0.559  -6.030  -3.835  1.00  0.00     0.074 A 
ATOM     63  C   UNL     1       4.351  -4.241  -5.979  1.00  0.00     0.029 A 
ATOM     64  N   UNL     1       2.548  -2.961  -5.879  1.00  0.00    -0.354 N 
ATOM     65  N   UNL     1       0.427  -5.543  -4.542  1.00  0.00    -0.248 NA
ATOM     66  C   UNL     1      -1.845  -5.893  -4.522  1.00  0.00     0.031 C 
ATOM     67  C   UNL     1       3.210  -5.017  -6.327  1.00  0.00     0.029 A 
ATOM     68  C   UNL     1       2.105  -4.185  -6.310  1.00  0.00     0.049 A 
ATOM     69  H   UNL     1       1.968  -2.180  -5.725  1.00  0.00     0.167 HD
ATOM     70  C   UNL     1      -0.071  -4.977  -5.689  1.00  0.00     0.074 A 
ATOM     71  C   UNL     1      -1.499  -5.219  -5.630  1.00  0.00     0.031 C 
ATOM     72  C   UNL     1       0.696  -4.306  -6.596  1.00  0.00     0.034 A 
BRANCH  59  73
ATOM     73  C   UNL     1       5.523  -0.917  -5.370  1.00  0.00     0.023 A 
ATOM     74  C   UNL     1       6.682  -1.402  -5.989  1.00  0.00     0.031 A 
ATOM     75  C   UNL     1       5.518   0.457  -5.023  1.00  0.00     0.131 A 
ATOM     76  C   UNL     1       7.812  -0.577  -6.141  1.00  0.00     0.055 A 
ATOM     77  C   UNL     1       6.660   1.265  -5.132  1.00  0.00     0.041 A 
ATOM     78  F   UNL     1       4.433   1.022  -4.465  1.00  0.00    -0.206 F 
ATOM     79  C   UNL     1       7.825   0.740  -5.677  1.00  0.00     0.022 A 
BRANCH  76  80
ATOM     80  S   UNL     1       9.294  -1.274  -6.917  1.00  0.00     0.124 S 
ATOM     81  O   UNL     1       9.570  -2.433  -6.075  1.00  0.00    -0.237 OA
ATOM     82  O   UNL     1       8.825  -1.556  -8.269  1.00  0.00    -0.237 OA
ATOM     83  O   UNL     1      10.275  -0.193  -6.815  1.00  0.00    -0.744 OA
ENDBRANCH  76  80
ENDBRANCH  59  73
BRANCH  60  84
ATOM     84  C   UNL     1      -1.463  -6.555  -1.339  1.00  0.00     0.023 A 
ATOM     85  C   UNL     1      -1.293  -7.439  -0.240  1.00  0.00     0.031 A 
ATOM     86  C   UNL     1      -2.409  -5.530  -1.187  1.00  0.00     0.131 A 
ATOM     87  C   UNL     1      -1.919  -7.192   0.990  1.00  0.00     0.055 A 
ATOM     88  C   UNL     1      -3.112  -5.349   0.016  1.00  0.00     0.041 A 
ATOM     89  F   UNL     1      -2.582  -4.603  -2.138  1.00  0.00    -0.206 F 
ATOM     90  C   UNL     1      -2.851  -6.164   1.118  1.00  0.00     0.022 A 
BRANCH  87  91
ATOM     91  S   UNL     1      -1.325  -8.024   2.499  1.00  0.00     0.124 S 
ATOM     92  O   UNL     1      -2.490  -8.806   2.898  1.00  0.00    -0.237 OA
ATOM     93  O   UNL     1      -0.171  -8.793   2.041  1.00  0.00    -0.237 OA
ATOM     94  O   UNL     1      -0.985  -6.899   3.368  1.00  0.00    -0.744 OA
ENDBRANCH  87  91
ENDBRANCH  60  84
BRANCH  72  95
ATOM     95  C   UNL     1       0.167  -3.671  -7.853  1.00  0.00     0.023 A 
ATOM     96  C   UNL     1      -0.757  -4.341  -8.660  1.00  0.00     0.031 A 
ATOM     97  C   UNL     1       0.656  -2.435  -8.344  1.00  0.00     0.131 A 
ATOM     98  C   UNL     1      -1.198  -3.767  -9.861  1.00  0.00     0.055 A 
ATOM     99  C   UNL     1       0.289  -1.916  -9.586  1.00  0.00     0.041 A 
ATOM    100  F   UNL     1       1.479  -1.657  -7.626  1.00  0.00    -0.206 F 
ATOM    101  C   UNL     1      -0.655  -2.579 -10.351  1.00  0.00     0.022 A 
BRANCH  98 102
ATOM    102  S   UNL     1      -2.561  -4.568 -10.735  1.00  0.00     0.124 S 
ATOM    103  O   UNL     1      -2.076  -5.935 -10.895  1.00  0.00    -0.237 OA
ATOM    104  O   UNL     1      -3.659  -4.390  -9.789  1.00  0.00    -0.237 OA
ATOM    105  O   UNL     1      -2.676  -3.799 -11.972  1.00  0.00    -0.744 OA
ENDBRANCH  98 102
ENDBRANCH  72  95
ENDBRANCH  46  47
ENDBRANCH  39  41
ENDBRANCH  38  39
ENDBRANCH  37  38
ENDBRANCH  36  37
ENDBRANCH  35  36
ENDBRANCH  34  35
ENDBRANCH   1  34
TORSDOF 23
