REMARK SMILES Cc1cccc(C[N@@H+](C)C[C@]2(C(=O)OCCOCCOCCOC(=O)c3ccc(-c4c5nc(c(-c6cc(S(=O)(=O)[O-])ccc6F)c6ccc([nH]6)c(-c6cc(S(=O)(=O)[O-])ccc6F)c6nc(c(-c7cc(S(=O)(=O)[O-])ccc7F)c7ccc4[nH]7)C=C6)C=C5)cc3)CCOC2)n1
REMARK SMILES IDX 18 1 17 2 16 3 15 4 14 5 12 6 13 7 11 8 89 9 92 10 90 11
REMARK SMILES IDX 91 12 10 13 8 14 9 15 7 17 6 18 1 19 2 20 3 21 93 22 4 23
REMARK SMILES IDX 5 24 19 25 20 26 21 27 22 28 23 29 24 30 25 31 26 32 27 33
REMARK SMILES IDX 88 34 28 35 87 36 29 37 30 38 31 39 81 40 32 41 86 42 80 43
REMARK SMILES IDX 82 44 33 45 85 46 79 47 78 48 34 50 66 51 46 52 65 53 47 54
REMARK SMILES IDX 50 55 64 56 83 57 48 58 49 59 63 61 84 62 51 63 35 64 36 65
REMARK SMILES IDX 44 66 37 67 43 68 45 69 42 70 38 71 39 72 40 73 41 74 67 75
REMARK SMILES IDX 68 76 76 77 69 78 75 79 77 80 74 81 70 82 71 83 72 84 73 85
REMARK SMILES IDX 52 86 53 87 61 88 54 89 60 90 62 91 59 92 55 93 56 94 57 95
REMARK SMILES IDX 58 96
REMARK H PARENT 8 16 82 49 50 60
REMARK Flexibility Score: inf
ROOT
ATOM      1  C   UNL     1      -4.059   3.993  -0.509  1.00  0.00     0.188 C 
ENDROOT
BRANCH   1   2
ATOM      2  O   UNL     1      -4.827   3.292  -1.478  1.00  0.00    -0.376 OA
BRANCH   2   3
ATOM      3  C   UNL     1      -4.810   1.875  -1.404  1.00  0.00     0.202 C 
BRANCH   3   4
ATOM      4  C   UNL     1      -5.612   1.350  -0.216  1.00  0.00     0.261 C 
BRANCH   4   5
ATOM      5  O   UNL     1      -5.000   1.737   1.029  1.00  0.00    -0.463 OA
BRANCH   5   6
ATOM      6  C   UNL     1      -4.261   0.804   1.688  1.00  0.00     0.320 C 
ATOM      7  O   UNL     1      -4.133  -0.345   1.324  1.00  0.00    -0.251 OA
BRANCH   6   8
ATOM      8  C   UNL     1      -3.625   1.384   2.944  1.00  0.00     0.142 C 
ATOM      9  C   UNL     1      -4.295   2.645   3.481  1.00  0.00     0.055 C 
ATOM     10  C   UNL     1      -3.981   0.418   4.087  1.00  0.00     0.185 C 
ATOM     11  C   UNL     1      -4.043   2.573   4.968  1.00  0.00     0.161 C 
ATOM     12  O   UNL     1      -4.058   1.182   5.304  1.00  0.00    -0.380 OA
BRANCH   8  13
ATOM     13  C   UNL     1      -2.076   1.432   2.818  1.00  0.00     0.283 C 
BRANCH  13  14
ATOM     14  N   UNL     1      -1.391   2.405   1.982  1.00  0.00    -0.331 N 
ATOM     15  C   UNL     1      -1.364   3.782   2.409  1.00  0.00     0.333 C 
ATOM     16  H   UNL     1      -0.519   1.995   2.315  1.00  0.00     0.348 HD
BRANCH  14  17
ATOM     17  C   UNL     1      -1.071   2.147   0.580  1.00  0.00     0.319 C 
BRANCH  17  18
ATOM     18  C   UNL     1      -0.407   0.817   0.278  1.00  0.00     0.095 A 
ATOM     19  C   UNL     1       3.035  -0.480   0.203  1.00  0.00     0.067 C 
ATOM     20  C   UNL     1       1.537  -0.447   0.149  1.00  0.00     0.038 A 
ATOM     21  C   UNL     1       0.819  -1.588  -0.196  1.00  0.00     0.023 A 
ATOM     22  N   UNL     1       0.941   0.747   0.382  1.00  0.00    -0.252 NA
ATOM     23  C   UNL     1      -0.561  -1.500  -0.317  1.00  0.00     0.004 A 
ATOM     24  C   UNL     1      -1.181  -0.279  -0.095  1.00  0.00     0.030 A 
ENDBRANCH  17  18
ENDBRANCH  14  17
ENDBRANCH  13  14
ENDBRANCH   8  13
ENDBRANCH   6   8
ENDBRANCH   5   6
ENDBRANCH   4   5
ENDBRANCH   3   4
ENDBRANCH   2   3
ENDBRANCH   1   2
BRANCH   1  25
ATOM     25  C   UNL     1      -4.888   5.019   0.275  1.00  0.00     0.188 C 
BRANCH  25  26
ATOM     26  O   UNL     1      -6.093   5.486  -0.318  1.00  0.00    -0.376 OA
BRANCH  26  27
ATOM     27  C   UNL     1      -6.043   5.889  -1.683  1.00  0.00     0.202 C 
BRANCH  27  28
ATOM     28  C   UNL     1      -5.085   7.037  -2.002  1.00  0.00     0.261 C 
BRANCH  28  29
ATOM     29  O   UNL     1      -3.695   6.663  -1.891  1.00  0.00    -0.460 OA
BRANCH  29  30
ATOM     30  C   UNL     1      -2.900   7.614  -1.343  1.00  0.00     0.338 C 
ATOM     31  O   UNL     1      -3.254   8.711  -0.934  1.00  0.00    -0.246 OA
BRANCH  30  32
ATOM     32  C   UNL     1      -1.493   7.179  -1.260  1.00  0.00     0.060 A 
ATOM     33  C   UNL     1      -1.056   6.483  -0.131  1.00  0.00     0.016 A 
ATOM     34  C   UNL     1      -0.562   7.681  -2.172  1.00  0.00     0.016 A 
ATOM     35  C   UNL     1       0.315   6.330   0.109  1.00  0.00     0.010 A 
ATOM     36  C   UNL     1       0.810   7.503  -1.940  1.00  0.00     0.010 A 
ATOM     37  C   UNL     1       1.265   6.854  -0.778  1.00  0.00    -0.014 A 
BRANCH  37  38
ATOM     38  C   UNL     1       2.711   6.871  -0.404  1.00  0.00     0.031 A 
ATOM     39  C   UNL     1       3.358   8.183  -0.037  1.00  0.00     0.074 A 
ATOM     40  C   UNL     1       3.436   5.738  -0.317  1.00  0.00     0.049 A 
ATOM     41  N   UNL     1       4.620   8.472   0.148  1.00  0.00    -0.248 NA
ATOM     42  C   UNL     1       2.446   9.320   0.156  1.00  0.00     0.031 C 
ATOM     43  C   UNL     1       2.913   4.385  -0.496  1.00  0.00     0.029 A 
ATOM     44  N   UNL     1       4.772   5.545  -0.048  1.00  0.00    -0.354 N 
ATOM     45  C   UNL     1       4.660   9.832   0.446  1.00  0.00     0.074 A 
ATOM     46  C   UNL     1       3.292  10.307   0.406  1.00  0.00     0.031 C 
ATOM     47  C   UNL     1       3.914   3.504  -0.333  1.00  0.00     0.029 A 
ATOM     48  C   UNL     1       5.166   4.227  -0.124  1.00  0.00     0.049 A 
ATOM     49  H   UNL     1       5.388   6.279   0.176  1.00  0.00     0.167 HD
ATOM     50  C   UNL     1       5.738  10.612   0.718  1.00  0.00     0.034 A 
ATOM     51  C   UNL     1       6.396   3.671  -0.086  1.00  0.00     0.034 A 
ATOM     52  C   UNL     1       7.095  10.119   0.759  1.00  0.00     0.049 A 
ATOM     53  C   UNL     1       7.599   4.574   0.073  1.00  0.00     0.074 A 
ATOM     54  C   UNL     1       8.267  10.826   0.969  1.00  0.00     0.029 A 
ATOM     55  N   UNL     1       7.463   8.790   0.586  1.00  0.00    -0.354 N 
ATOM     56  N   UNL     1       7.641   5.876   0.246  1.00  0.00    -0.248 NA
ATOM     57  C   UNL     1       8.922   3.935   0.026  1.00  0.00     0.031 C 
ATOM     58  C   UNL     1       9.344   9.939   0.851  1.00  0.00     0.029 A 
ATOM     59  C   UNL     1       8.843   8.663   0.652  1.00  0.00     0.049 A 
ATOM     60  H   UNL     1       6.835   8.046   0.439  1.00  0.00     0.167 HD
ATOM     61  C   UNL     1       8.991   6.203   0.357  1.00  0.00     0.074 A 
ATOM     62  C   UNL     1       9.729   4.962   0.246  1.00  0.00     0.031 C 
ATOM     63  C   UNL     1       9.569   7.419   0.535  1.00  0.00     0.034 A 
BRANCH  50  64
ATOM     64  C   UNL     1       5.489  12.092   0.891  1.00  0.00     0.023 A 
ATOM     65  C   UNL     1       4.721  12.605   1.951  1.00  0.00     0.031 A 
ATOM     66  C   UNL     1       5.976  13.001  -0.067  1.00  0.00     0.131 A 
ATOM     67  C   UNL     1       4.391  13.970   1.978  1.00  0.00     0.055 A 
ATOM     68  C   UNL     1       5.716  14.370   0.013  1.00  0.00     0.041 A 
ATOM     69  F   UNL     1       6.697  12.569  -1.114  1.00  0.00    -0.206 F 
ATOM     70  C   UNL     1       4.902  14.860   1.030  1.00  0.00     0.022 A 
BRANCH  67  71
ATOM     71  S   UNL     1       3.146  14.539   3.170  1.00  0.00     0.124 S 
ATOM     72  O   UNL     1       1.996  13.711   2.813  1.00  0.00    -0.237 OA
ATOM     73  O   UNL     1       3.775  14.242   4.451  1.00  0.00    -0.237 OA
ATOM     74  O   UNL     1       2.999  15.960   2.861  1.00  0.00    -0.744 OA
ENDBRANCH  67  71
ENDBRANCH  50  64
BRANCH  51  75
ATOM     75  C   UNL     1       6.580   2.202  -0.305  1.00  0.00     0.023 A 
ATOM     76  C   UNL     1       7.193   1.385   0.659  1.00  0.00     0.031 A 
ATOM     77  C   UNL     1       6.217   1.609  -1.529  1.00  0.00     0.131 A 
ATOM     78  C   UNL     1       7.463   0.036   0.367  1.00  0.00     0.055 A 
ATOM     79  C   UNL     1       6.431   0.254  -1.790  1.00  0.00     0.041 A 
ATOM     80  F   UNL     1       5.645   2.341  -2.498  1.00  0.00    -0.206 F 
ATOM     81  C   UNL     1       7.070  -0.538  -0.844  1.00  0.00     0.022 A 
BRANCH  78  82
ATOM     82  S   UNL     1       8.431  -0.941   1.552  1.00  0.00     0.124 S 
ATOM     83  O   UNL     1       9.664  -0.166   1.638  1.00  0.00    -0.237 OA
ATOM     84  O   UNL     1       7.575  -0.921   2.733  1.00  0.00    -0.237 OA
ATOM     85  O   UNL     1       8.555  -2.242   0.898  1.00  0.00    -0.744 OA
ENDBRANCH  78  82
ENDBRANCH  51  75
BRANCH  63  86
ATOM     86  C   UNL     1      11.073   7.455   0.678  1.00  0.00     0.023 A 
ATOM     87  C   UNL     1      11.930   7.133  -0.389  1.00  0.00     0.031 A 
ATOM     88  C   UNL     1      11.655   7.816   1.907  1.00  0.00     0.131 A 
ATOM     89  C   UNL     1      13.320   7.128  -0.192  1.00  0.00     0.055 A 
ATOM     90  C   UNL     1      13.039   7.868   2.079  1.00  0.00     0.041 A 
ATOM     91  F   UNL     1      10.885   8.131   2.961  1.00  0.00    -0.206 F 
ATOM     92  C   UNL     1      13.880   7.511   1.030  1.00  0.00     0.022 A 
BRANCH  89  93
ATOM     93  S   UNL     1      14.391   6.531  -1.530  1.00  0.00     0.124 S 
ATOM     94  O   UNL     1      13.897   5.172  -1.730  1.00  0.00    -0.237 OA
ATOM     95  O   UNL     1      14.107   7.477  -2.604  1.00  0.00    -0.237 OA
ATOM     96  O   UNL     1      15.735   6.625  -0.963  1.00  0.00    -0.744 OA
ENDBRANCH  89  93
ENDBRANCH  63  86
ENDBRANCH  37  38
ENDBRANCH  30  32
ENDBRANCH  29  30
ENDBRANCH  28  29
ENDBRANCH  27  28
ENDBRANCH  26  27
ENDBRANCH  25  26
ENDBRANCH   1  25
TORSDOF 24
