REMARK SMILES Cc1nsc(NC(=O)[C@H]2Cc3[nH]cnc3C[NH2+]2)c1C(=O)OCCOCCOCCOC(=O)c1ccc(-c2c3nc(c(-c4cc(S(=O)(=O)[O-])ccc4F)c4ccc([nH]4)c(-c4cc(S(=O)(=O)[O-])ccc4F)c4nc(c(-c5cc(S(=O)(=O)[O-])ccc5F)c5ccc2[nH]5)C=C4)C=C3)cc1
REMARK SMILES IDX 26 1 25 2 24 3 23 4 22 5 21 6 19 7 20 8 18 9 1 10 2 11 3 12
REMARK SMILES IDX 4 13 5 14 6 15 7 16 8 18 9 19 10 20 17 21 11 22 16 23 12 26
REMARK SMILES IDX 15 27 13 28 14 30 27 31 28 32 29 33 30 34 31 35 32 36 33 37
REMARK SMILES IDX 34 38 95 39 35 40 94 41 36 42 37 43 38 44 88 45 39 46 93 47
REMARK SMILES IDX 87 48 89 49 40 50 92 51 86 52 85 53 41 55 73 56 53 57 72 58
REMARK SMILES IDX 54 59 57 60 71 61 90 62 55 63 56 64 70 66 91 67 58 68 42 69
REMARK SMILES IDX 43 70 51 71 44 72 50 73 52 74 49 75 45 76 46 77 47 78 48 79
REMARK SMILES IDX 74 80 75 81 83 82 76 83 82 84 84 85 81 86 77 87 78 88 79 89
REMARK SMILES IDX 80 90 59 91 60 92 68 93 61 94 67 95 69 96 66 97 62 98 63 99
REMARK SMILES IDX 64 100 65 101
REMARK H PARENT 6 17 17 24 17 25 12 29 89 54 57 65
REMARK Flexibility Score: inf
ROOT
ATOM      1  C   UNL     1       2.779   2.342  -2.756  1.00  0.00     0.188 C 
ENDROOT
BRANCH   1   2
ATOM      2  C   UNL     1       3.467   3.614  -2.220  1.00  0.00     0.188 C 
BRANCH   2   3
ATOM      3  O   UNL     1       4.880   3.655  -2.062  1.00  0.00    -0.376 OA
BRANCH   3   4
ATOM      4  C   UNL     1       5.564   2.516  -1.553  1.00  0.00     0.202 C 
BRANCH   4   5
ATOM      5  C   UNL     1       5.139   1.949  -0.182  1.00  0.00     0.261 C 
BRANCH   5   6
ATOM      6  O   UNL     1       3.766   1.515  -0.109  1.00  0.00    -0.460 OA
BRANCH   6   7
ATOM      7  C   UNL     1       2.937   2.190   0.738  1.00  0.00     0.343 C 
ATOM      8  O   UNL     1       3.310   2.974   1.600  1.00  0.00    -0.246 OA
BRANCH   7   9
ATOM      9  C   UNL     1       1.543   2.087   0.323  1.00  0.00     0.117 A 
ATOM     10  C   UNL     1       1.230  -0.494  -0.029  1.00  0.00     0.069 C 
ATOM     11  C   UNL     1       0.809   0.929  -0.131  1.00  0.00     0.068 A 
ATOM     12  N   UNL     1      -0.365   1.183  -0.722  1.00  0.00    -0.195 NA
ATOM     13  S   UNL     1      -0.532   2.829  -0.873  1.00  0.00    -0.017 S 
ATOM     14  C   UNL     1       0.721   3.201   0.229  1.00  0.00     0.131 A 
BRANCH  14  15
ATOM     15  N   UNL     1       0.969   4.473   0.678  1.00  0.00    -0.310 N 
ATOM     16  C   UNL     1       0.132   5.449   1.125  1.00  0.00     0.283 C 
ATOM     17  H   UNL     1       1.920   4.725   0.676  1.00  0.00     0.171 HD
ATOM     18  O   UNL     1       0.697   6.496   1.476  1.00  0.00    -0.268 OA
BRANCH  16  19
ATOM     19  C   UNL     1      -1.405   5.318   1.210  1.00  0.00     0.279 C 
ATOM     20  C   UNL     1      -2.034   3.981   1.706  1.00  0.00     0.131 C 
ATOM     21  N   UNL     1      -1.955   6.444   2.067  1.00  0.00    -0.331 N 
ATOM     22  C   UNL     1      -3.452   4.135   1.295  1.00  0.00     0.050 A 
ATOM     23  C   UNL     1      -3.424   6.402   2.341  1.00  0.00     0.320 C 
ATOM     24  H   UNL     1      -1.751   7.324   1.595  1.00  0.00     0.347 HD
ATOM     25  H   UNL     1      -1.504   6.343   2.976  1.00  0.00     0.347 HD
ATOM     26  N   UNL     1      -4.131   3.558   0.261  1.00  0.00    -0.348 N 
ATOM     27  C   UNL     1      -4.097   5.322   1.555  1.00  0.00     0.116 A 
ATOM     28  C   UNL     1      -5.158   4.418  -0.049  1.00  0.00     0.197 A 
ATOM     29  H   UNL     1      -3.926   2.700  -0.176  1.00  0.00     0.167 HD
ATOM     30  N   UNL     1      -5.193   5.463   0.753  1.00  0.00    -0.236 NA
ENDBRANCH  16  19
ENDBRANCH  14  15
ENDBRANCH   7   9
ENDBRANCH   6   7
ENDBRANCH   5   6
ENDBRANCH   4   5
ENDBRANCH   3   4
ENDBRANCH   2   3
ENDBRANCH   1   2
BRANCH   1  31
ATOM     31  O   UNL     1       3.628   1.222  -2.892  1.00  0.00    -0.376 OA
BRANCH  31  32
ATOM     32  C   UNL     1       3.658   0.570  -4.150  1.00  0.00     0.202 C 
BRANCH  32  33
ATOM     33  C   UNL     1       4.184   1.369  -5.341  1.00  0.00     0.261 C 
BRANCH  33  34
ATOM     34  O   UNL     1       3.920   2.759  -5.281  1.00  0.00    -0.460 OA
BRANCH  34  35
ATOM     35  C   UNL     1       2.689   3.136  -5.678  1.00  0.00     0.338 C 
ATOM     36  O   UNL     1       1.730   2.398  -5.875  1.00  0.00    -0.246 OA
BRANCH  35  37
ATOM     37  C   UNL     1       2.694   4.589  -5.862  1.00  0.00     0.060 A 
ATOM     38  C   UNL     1       1.489   5.171  -6.251  1.00  0.00     0.016 A 
ATOM     39  C   UNL     1       3.930   5.239  -6.016  1.00  0.00     0.016 A 
ATOM     40  C   UNL     1       1.556   6.246  -7.101  1.00  0.00     0.010 A 
ATOM     41  C   UNL     1       3.997   6.298  -6.880  1.00  0.00     0.010 A 
ATOM     42  C   UNL     1       2.820   6.693  -7.504  1.00  0.00    -0.014 A 
BRANCH  42  43
ATOM     43  C   UNL     1       2.884   7.571  -8.646  1.00  0.00     0.031 A 
ATOM     44  C   UNL     1       2.481   8.953  -8.336  1.00  0.00     0.074 A 
ATOM     45  C   UNL     1       3.321   7.145  -9.847  1.00  0.00     0.049 A 
ATOM     46  N   UNL     1       1.430   9.576  -8.744  1.00  0.00    -0.248 NA
ATOM     47  C   UNL     1       3.242   9.659  -7.296  1.00  0.00     0.031 C 
ATOM     48  C   UNL     1       3.977   5.881 -10.193  1.00  0.00     0.029 A 
ATOM     49  N   UNL     1       3.346   7.829 -11.018  1.00  0.00    -0.354 N 
ATOM     50  C   UNL     1       1.503  10.839  -8.173  1.00  0.00     0.074 A 
ATOM     51  C   UNL     1       2.512  10.762  -7.151  1.00  0.00     0.031 C 
ATOM     52  C   UNL     1       4.537   5.992 -11.421  1.00  0.00     0.029 A 
ATOM     53  C   UNL     1       4.160   7.274 -11.996  1.00  0.00     0.049 A 
ATOM     54  H   UNL     1       2.827   8.653 -11.162  1.00  0.00     0.167 HD
ATOM     55  C   UNL     1       0.879  11.905  -8.740  1.00  0.00     0.034 A 
ATOM     56  C   UNL     1       4.552   7.878 -13.152  1.00  0.00     0.034 A 
ATOM     57  C   UNL     1      -0.159  11.476  -9.648  1.00  0.00     0.049 A 
ATOM     58  C   UNL     1       3.567   8.961 -13.418  1.00  0.00     0.074 A 
ATOM     59  C   UNL     1      -1.326  10.752  -9.491  1.00  0.00     0.029 A 
ATOM     60  N   UNL     1       0.126  11.427 -10.995  1.00  0.00    -0.354 N 
ATOM     61  N   UNL     1       2.310   8.733 -13.689  1.00  0.00    -0.248 NA
ATOM     62  C   UNL     1       3.849  10.288 -12.884  1.00  0.00     0.031 C 
ATOM     63  C   UNL     1      -1.393   9.905 -10.636  1.00  0.00     0.029 A 
ATOM     64  C   UNL     1      -0.311  10.210 -11.466  1.00  0.00     0.049 A 
ATOM     65  H   UNL     1       0.562  12.134 -11.524  1.00  0.00     0.167 HD
ATOM     66  C   UNL     1       1.603   9.693 -12.978  1.00  0.00     0.074 A 
ATOM     67  C   UNL     1       2.607  10.675 -12.572  1.00  0.00     0.031 C 
ATOM     68  C   UNL     1       0.329   9.464 -12.538  1.00  0.00     0.034 A 
BRANCH  55  69
ATOM     69  C   UNL     1       1.422  13.311  -8.705  1.00  0.00     0.023 A 
ATOM     70  C   UNL     1       0.645  14.324  -9.294  1.00  0.00     0.031 A 
ATOM     71  C   UNL     1       2.749  13.670  -8.369  1.00  0.00     0.131 A 
ATOM     72  C   UNL     1       1.202  15.581  -9.585  1.00  0.00     0.055 A 
ATOM     73  C   UNL     1       3.276  14.943  -8.595  1.00  0.00     0.041 A 
ATOM     74  F   UNL     1       3.644  12.793  -7.899  1.00  0.00    -0.206 F 
ATOM     75  C   UNL     1       2.511  15.900  -9.233  1.00  0.00     0.022 A 
BRANCH  72  76
ATOM     76  S   UNL     1       0.242  16.736 -10.594  1.00  0.00     0.124 S 
ATOM     77  O   UNL     1      -0.127  15.903 -11.734  1.00  0.00    -0.237 OA
ATOM     78  O   UNL     1      -0.839  17.101  -9.684  1.00  0.00    -0.237 OA
ATOM     79  O   UNL     1       1.197  17.802 -10.888  1.00  0.00    -0.744 OA
ENDBRANCH  72  76
ENDBRANCH  55  69
BRANCH  56  80
ATOM     80  C   UNL     1       5.917   7.832 -13.750  1.00  0.00     0.023 A 
ATOM     81  C   UNL     1       6.179   8.149 -15.100  1.00  0.00     0.031 A 
ATOM     82  C   UNL     1       7.042   7.696 -12.904  1.00  0.00     0.131 A 
ATOM     83  C   UNL     1       7.514   8.307 -15.550  1.00  0.00     0.055 A 
ATOM     84  C   UNL     1       8.355   7.851 -13.353  1.00  0.00     0.041 A 
ATOM     85  F   UNL     1       6.900   7.488 -11.585  1.00  0.00    -0.206 F 
ATOM     86  C   UNL     1       8.597   8.166 -14.679  1.00  0.00     0.022 A 
BRANCH  83  87
ATOM     87  S   UNL     1       7.864   8.781 -17.276  1.00  0.00     0.124 S 
ATOM     88  O   UNL     1       7.422   7.605 -18.016  1.00  0.00    -0.237 OA
ATOM     89  O   UNL     1       7.063   9.989 -17.438  1.00  0.00    -0.237 OA
ATOM     90  O   UNL     1       9.311   9.002 -17.284  1.00  0.00    -0.744 OA
ENDBRANCH  83  87
ENDBRANCH  56  80
BRANCH  68  91
ATOM     91  C   UNL     1      -0.401   8.231 -13.046  1.00  0.00     0.023 A 
ATOM     92  C   UNL     1       0.043   6.897 -12.876  1.00  0.00     0.031 A 
ATOM     93  C   UNL     1      -1.674   8.422 -13.611  1.00  0.00     0.131 A 
ATOM     94  C   UNL     1      -0.780   5.821 -13.272  1.00  0.00     0.055 A 
ATOM     95  C   UNL     1      -2.494   7.356 -13.980  1.00  0.00     0.041 A 
ATOM     96  F   UNL     1      -2.165   9.661 -13.778  1.00  0.00    -0.206 F 
ATOM     97  C   UNL     1      -2.049   6.050 -13.815  1.00  0.00     0.022 A 
BRANCH  94  98
ATOM     98  S   UNL     1      -0.215   4.095 -13.098  1.00  0.00     0.124 S 
ATOM     99  O   UNL     1       1.120   4.112 -13.684  1.00  0.00    -0.237 OA
ATOM    100  O   UNL     1      -0.279   3.885 -11.654  1.00  0.00    -0.237 OA
ATOM    101  O   UNL     1      -1.205   3.334 -13.864  1.00  0.00    -0.744 OA
ENDBRANCH  94  98
ENDBRANCH  68  91
ENDBRANCH  42  43
ENDBRANCH  35  37
ENDBRANCH  34  35
ENDBRANCH  33  34
ENDBRANCH  32  33
ENDBRANCH  31  32
ENDBRANCH   1  31
TORSDOF 22
