REMARK SMILES O=C(OCCOCCOCCOC(=O)[C@@H]1C=C[C@@H]([NH+]2CC3(CC3)C2)C1)c1ccc(-c2c3nc(c(-c4cc(S(=O)(=O)[O-])ccc4F)c4ccc([nH]4)c(-c4cc(S(=O)(=O)[O-])ccc4F)c4nc(c(-c5cc(S(=O)(=O)[O-])ccc5F)c5ccc2[nH]5)C=C4)C=C3)cc1
REMARK SMILES IDX 7 1 6 2 5 3 4 4 3 5 2 6 1 7 26 8 27 9 88 10 28 11 87 12
REMARK SMILES IDX 29 13 30 14 31 15 81 16 32 17 86 18 80 19 82 20 33 21 85 22
REMARK SMILES IDX 79 23 78 24 34 26 66 27 46 28 65 29 47 30 50 31 64 32 83 33
REMARK SMILES IDX 48 34 49 35 63 37 84 38 51 39 35 40 36 41 44 42 37 43 43 44
REMARK SMILES IDX 45 45 42 46 38 47 39 48 40 49 41 50 67 51 68 52 76 53 69 54
REMARK SMILES IDX 75 55 77 56 74 57 70 58 71 59 72 60 73 61 52 62 53 63 61 64
REMARK SMILES IDX 54 65 60 66 62 67 59 68 55 69 56 70 57 71 58 72 8 73 9 74
REMARK SMILES IDX 10 75 11 76 12 77 13 78 14 79 15 80 16 81 25 82 17 83 18 84
REMARK SMILES IDX 19 85 20 86 24 87 21 89 22 90 23 91
REMARK H PARENT 82 25 50 36 19 88
REMARK Flexibility Score: inf
ROOT
ATOM      1  C   UNL     1      -1.860   1.019   4.680  1.00  0.00     0.188 C 
ENDROOT
BRANCH   1   2
ATOM      2  O   UNL     1      -1.373   2.250   4.146  1.00  0.00    -0.376 OA
BRANCH   2   3
ATOM      3  C   UNL     1      -2.361   3.030   3.459  1.00  0.00     0.202 C 
BRANCH   3   4
ATOM      4  C   UNL     1      -2.933   2.432   2.154  1.00  0.00     0.261 C 
BRANCH   4   5
ATOM      5  O   UNL     1      -2.822   0.997   2.054  1.00  0.00    -0.460 OA
BRANCH   5   6
ATOM      6  C   UNL     1      -1.860   0.262   1.434  1.00  0.00     0.338 C 
ATOM      7  O   UNL     1      -2.009  -0.954   1.334  1.00  0.00    -0.246 OA
BRANCH   6   8
ATOM      8  C   UNL     1      -0.616   0.869   0.880  1.00  0.00     0.060 A 
ATOM      9  C   UNL     1      -0.081   2.062   1.345  1.00  0.00     0.016 A 
ATOM     10  C   UNL     1       0.089   0.183  -0.122  1.00  0.00     0.016 A 
ATOM     11  C   UNL     1       0.996   2.664   0.734  1.00  0.00     0.010 A 
ATOM     12  C   UNL     1       1.252   0.734  -0.681  1.00  0.00     0.010 A 
ATOM     13  C   UNL     1       1.678   2.006  -0.281  1.00  0.00    -0.014 A 
BRANCH  13  14
ATOM     14  C   UNL     1       2.740   2.779  -0.953  1.00  0.00     0.031 A 
ATOM     15  C   UNL     1       2.475   3.293  -2.335  1.00  0.00     0.074 A 
ATOM     16  C   UNL     1       3.795   3.199  -0.226  1.00  0.00     0.049 A 
ATOM     17  N   UNL     1       3.224   4.043  -3.096  1.00  0.00    -0.248 NA
ATOM     18  C   UNL     1       1.178   2.933  -2.935  1.00  0.00     0.031 C 
ATOM     19  C   UNL     1       4.037   2.853   1.182  1.00  0.00     0.029 A 
ATOM     20  N   UNL     1       4.819   4.053  -0.532  1.00  0.00    -0.354 N 
ATOM     21  C   UNL     1       2.498   4.233  -4.266  1.00  0.00     0.074 A 
ATOM     22  C   UNL     1       1.262   3.498  -4.128  1.00  0.00     0.031 C 
ATOM     23  C   UNL     1       5.106   3.530   1.625  1.00  0.00     0.029 A 
ATOM     24  C   UNL     1       5.687   4.271   0.514  1.00  0.00     0.049 A 
ATOM     25  H   UNL     1       4.924   4.472  -1.417  1.00  0.00     0.167 HD
ATOM     26  C   UNL     1       2.840   4.965  -5.352  1.00  0.00     0.034 A 
ATOM     27  C   UNL     1       6.846   4.957   0.547  1.00  0.00     0.034 A 
ATOM     28  C   UNL     1       4.093   5.669  -5.450  1.00  0.00     0.049 A 
ATOM     29  C   UNL     1       7.269   5.648  -0.726  1.00  0.00     0.074 A 
ATOM     30  C   UNL     1       4.623   6.352  -6.527  1.00  0.00     0.029 A 
ATOM     31  N   UNL     1       5.016   5.776  -4.413  1.00  0.00    -0.354 N 
ATOM     32  N   UNL     1       6.622   5.738  -1.869  1.00  0.00    -0.248 NA
ATOM     33  C   UNL     1       8.568   6.323  -0.713  1.00  0.00     0.031 C 
ATOM     34  C   UNL     1       5.893   6.816  -6.162  1.00  0.00     0.029 A 
ATOM     35  C   UNL     1       6.121   6.496  -4.832  1.00  0.00     0.049 A 
ATOM     36  H   UNL     1       4.899   5.395  -3.513  1.00  0.00     0.167 HD
ATOM     37  C   UNL     1       7.436   6.492  -2.707  1.00  0.00     0.074 A 
ATOM     38  C   UNL     1       8.595   6.867  -1.919  1.00  0.00     0.031 C 
ATOM     39  C   UNL     1       7.260   6.837  -4.010  1.00  0.00     0.034 A 
BRANCH  26  40
ATOM     40  C   UNL     1       1.887   4.944  -6.519  1.00  0.00     0.023 A 
ATOM     41  C   UNL     1       0.595   5.494  -6.434  1.00  0.00     0.031 A 
ATOM     42  C   UNL     1       2.243   4.283  -7.708  1.00  0.00     0.131 A 
ATOM     43  C   UNL     1      -0.316   5.309  -7.487  1.00  0.00     0.055 A 
ATOM     44  C   UNL     1       1.359   4.172  -8.783  1.00  0.00     0.041 A 
ATOM     45  F   UNL     1       3.449   3.707  -7.833  1.00  0.00    -0.206 F 
ATOM     46  C   UNL     1       0.066   4.673  -8.671  1.00  0.00     0.022 A 
BRANCH  43  47
ATOM     47  S   UNL     1      -2.050   5.775  -7.228  1.00  0.00     0.124 S 
ATOM     48  O   UNL     1      -2.426   4.905  -6.116  1.00  0.00    -0.237 OA
ATOM     49  O   UNL     1      -1.954   7.197  -6.920  1.00  0.00    -0.237 OA
ATOM     50  O   UNL     1      -2.686   5.455  -8.504  1.00  0.00    -0.744 OA
ENDBRANCH  43  47
ENDBRANCH  26  40
BRANCH  27  51
ATOM     51  C   UNL     1       7.721   4.941   1.760  1.00  0.00     0.023 A 
ATOM     52  C   UNL     1       8.155   6.125   2.376  1.00  0.00     0.031 A 
ATOM     53  C   UNL     1       8.211   3.723   2.276  1.00  0.00     0.131 A 
ATOM     54  C   UNL     1       9.094   6.071   3.420  1.00  0.00     0.055 A 
ATOM     55  C   UNL     1       9.088   3.672   3.361  1.00  0.00     0.041 A 
ATOM     56  F   UNL     1       7.844   2.553   1.730  1.00  0.00    -0.206 F 
ATOM     57  C   UNL     1       9.551   4.853   3.926  1.00  0.00     0.022 A 
BRANCH  54  58
ATOM     58  S   UNL     1       9.815   7.624   4.024  1.00  0.00     0.124 S 
ATOM     59  O   UNL     1      10.307   8.222   2.788  1.00  0.00    -0.237 OA
ATOM     60  O   UNL     1       8.660   8.272   4.636  1.00  0.00    -0.237 OA
ATOM     61  O   UNL     1      10.847   7.178   4.957  1.00  0.00    -0.744 OA
ENDBRANCH  54  58
ENDBRANCH  27  51
BRANCH  39  62
ATOM     62  C   UNL     1       8.340   7.687  -4.628  1.00  0.00     0.023 A 
ATOM     63  C   UNL     1       9.646   7.200  -4.800  1.00  0.00     0.031 A 
ATOM     64  C   UNL     1       8.065   9.008  -5.019  1.00  0.00     0.131 A 
ATOM     65  C   UNL     1      10.650   8.055  -5.272  1.00  0.00     0.055 A 
ATOM     66  C   UNL     1       9.051   9.829  -5.565  1.00  0.00     0.041 A 
ATOM     67  F   UNL     1       6.834   9.523  -4.875  1.00  0.00    -0.206 F 
ATOM     68  C   UNL     1      10.357   9.360  -5.676  1.00  0.00     0.022 A 
BRANCH  65  69
ATOM     69  S   UNL     1      12.367   7.477  -5.225  1.00  0.00     0.124 S 
ATOM     70  O   UNL     1      12.537   7.152  -3.812  1.00  0.00    -0.237 OA
ATOM     71  O   UNL     1      12.339   6.342  -6.141  1.00  0.00    -0.237 OA
ATOM     72  O   UNL     1      13.129   8.633  -5.692  1.00  0.00    -0.744 OA
ENDBRANCH  65  69
ENDBRANCH  39  62
ENDBRANCH  13  14
ENDBRANCH   6   8
ENDBRANCH   5   6
ENDBRANCH   4   5
ENDBRANCH   3   4
ENDBRANCH   2   3
ENDBRANCH   1   2
BRANCH   1  73
ATOM     73  C   UNL     1      -1.204   0.636   6.006  1.00  0.00     0.188 C 
BRANCH  73  74
ATOM     74  O   UNL     1      -1.444   1.495   7.117  1.00  0.00    -0.376 OA
BRANCH  74  75
ATOM     75  C   UNL     1      -1.156   2.879   6.949  1.00  0.00     0.202 C 
BRANCH  75  76
ATOM     76  C   UNL     1       0.312   3.306   6.812  1.00  0.00     0.261 C 
BRANCH  76  77
ATOM     77  O   UNL     1       1.064   2.628   5.798  1.00  0.00    -0.463 OA
BRANCH  77  78
ATOM     78  C   UNL     1       1.915   1.659   6.251  1.00  0.00     0.313 C 
ATOM     79  O   UNL     1       1.966   1.251   7.401  1.00  0.00    -0.252 OA
BRANCH  78  80
ATOM     80  C   UNL     1       2.790   1.157   5.111  1.00  0.00     0.128 C 
ATOM     81  C   UNL     1       2.235  -0.002   4.340  1.00  0.00    -0.010 C 
ATOM     82  C   UNL     1       4.107   0.596   5.660  1.00  0.00     0.089 C 
ATOM     83  C   UNL     1       2.916  -1.132   4.564  1.00  0.00     0.033 C 
ATOM     84  C   UNL     1       4.008  -0.944   5.577  1.00  0.00     0.208 C 
BRANCH  84  85
ATOM     85  N   UNL     1       5.199  -1.752   5.272  1.00  0.00    -0.328 N 
ATOM     86  C   UNL     1       6.160  -1.095   4.362  1.00  0.00     0.275 C 
ATOM     87  C   UNL     1       6.190  -1.693   6.366  1.00  0.00     0.275 C 
ATOM     88  H   UNL     1       4.764  -2.630   4.989  1.00  0.00     0.348 HD
ATOM     89  C   UNL     1       6.918  -0.685   5.568  1.00  0.00     0.068 C 
ATOM     90  C   UNL     1       7.277   0.695   6.035  1.00  0.00     0.020 C 
ATOM     91  C   UNL     1       8.352  -0.279   5.640  1.00  0.00     0.020 C 
ENDBRANCH  84  85
ENDBRANCH  78  80
ENDBRANCH  77  78
ENDBRANCH  76  77
ENDBRANCH  75  76
ENDBRANCH  74  75
ENDBRANCH  73  74
ENDBRANCH   1  73
TORSDOF 21
