REMARK SMILES C[C@H](O)[C@H](NC(=O)COCC[NH3+])C(=O)OCCOCCOCCOC(=O)c1ccc(-c2c3nc(c(-c4cc(S(=O)(=O)[O-])ccc4F)c4ccc([nH]4)c(-c4cc(S(=O)(=O)[O-])ccc4F)c4nc(c(-c5cc(S(=O)(=O)[O-])ccc5F)c5ccc2[nH]5)C=C4)C=C3)cc1
REMARK SMILES IDX 18 1 17 2 16 3 15 4 13 5 14 6 4 7 2 8 1 9 3 10 5 12 6 13
REMARK SMILES IDX 7 15 8 16 9 17 10 18 11 19 12 20 19 24 20 25 21 26 22 27
REMARK SMILES IDX 23 28 24 29 25 30 26 31 27 32 28 33 89 34 29 35 88 36 30 37
REMARK SMILES IDX 31 38 32 39 82 40 33 41 87 42 81 43 83 44 34 45 86 46 80 47
REMARK SMILES IDX 79 48 35 50 67 51 47 52 66 53 48 54 51 55 65 56 84 57 49 58
REMARK SMILES IDX 50 59 64 61 85 62 52 63 36 64 37 65 45 66 38 67 44 68 46 69
REMARK SMILES IDX 43 70 39 71 40 72 41 73 42 74 68 75 69 76 77 77 70 78 76 79
REMARK SMILES IDX 78 80 75 81 71 82 72 83 73 84 74 85 53 86 54 87 62 88 55 89
REMARK SMILES IDX 61 90 63 91 60 92 56 93 57 94 58 95 59 96
REMARK H PARENT 3 11 5 14 12 21 12 22 12 23 83 49 51 60
REMARK Flexibility Score: inf
ROOT
ATOM      1  O   UNL     1      -1.966  -3.839   4.310  1.00  0.00    -0.376 OA
ENDROOT
BRANCH   1   2
ATOM      2  C   UNL     1      -1.864  -4.749   3.221  1.00  0.00     0.202 C 
BRANCH   2   3
ATOM      3  C   UNL     1      -2.474  -4.253   1.916  1.00  0.00     0.261 C 
BRANCH   3   4
ATOM      4  O   UNL     1      -1.679  -3.217   1.306  1.00  0.00    -0.462 OA
BRANCH   4   5
ATOM      5  C   UNL     1      -2.322  -2.042   1.063  1.00  0.00     0.331 C 
ATOM      6  O   UNL     1      -3.469  -1.798   1.425  1.00  0.00    -0.250 OA
BRANCH   5   7
ATOM      7  C   UNL     1      -1.536  -1.099   0.142  1.00  0.00     0.221 C 
BRANCH   7   8
ATOM      8  C   UNL     1      -2.000  -1.316  -1.325  1.00  0.00     0.145 C 
ATOM      9  C   UNL     1      -3.494  -1.519  -1.535  1.00  0.00     0.041 C 
BRANCH   8  10
ATOM     10  O   UNL     1      -1.314  -2.458  -1.878  1.00  0.00    -0.391 OA
ATOM     11  H   UNL     1      -1.572  -3.257  -1.392  1.00  0.00     0.211 HD
ENDBRANCH   8  10
ENDBRANCH   7   8
BRANCH   7  12
ATOM     12  N   UNL     1      -0.071  -1.248   0.157  1.00  0.00    -0.339 N 
ATOM     13  C   UNL     1       0.881  -0.509   0.790  1.00  0.00     0.246 C 
ATOM     14  H   UNL     1       0.275  -2.001  -0.375  1.00  0.00     0.164 HD
ATOM     15  O   UNL     1       2.055  -0.638   0.437  1.00  0.00    -0.272 OA
BRANCH  13  16
ATOM     16  C   UNL     1       0.485   0.398   1.963  1.00  0.00     0.260 C 
BRANCH  16  17
ATOM     17  O   UNL     1       0.104   1.732   1.708  1.00  0.00    -0.366 OA
BRANCH  17  18
ATOM     18  C   UNL     1       1.200   2.627   1.481  1.00  0.00     0.222 C 
BRANCH  18  19
ATOM     19  C   UNL     1       1.802   3.237   2.764  1.00  0.00     0.287 C 
BRANCH  19  20
ATOM     20  N   UNL     1       2.736   2.349   3.465  1.00  0.00    -0.356 N 
ATOM     21  H   UNL     1       2.242   1.510   3.770  1.00  0.00     0.344 HD
ATOM     22  H   UNL     1       3.119   2.832   4.278  1.00  0.00     0.344 HD
ATOM     23  H   UNL     1       3.494   2.088   2.836  1.00  0.00     0.344 HD
ENDBRANCH  19  20
ENDBRANCH  18  19
ENDBRANCH  17  18
ENDBRANCH  16  17
ENDBRANCH  13  16
ENDBRANCH   7  12
ENDBRANCH   5   7
ENDBRANCH   4   5
ENDBRANCH   3   4
ENDBRANCH   2   3
ENDBRANCH   1   2
BRANCH   1  24
ATOM     24  C   UNL     1      -1.154  -2.668   4.270  1.00  0.00     0.188 C 
BRANCH  24  25
ATOM     25  C   UNL     1       0.303  -2.841   3.800  1.00  0.00     0.188 C 
BRANCH  25  26
ATOM     26  O   UNL     1       0.978  -4.022   4.229  1.00  0.00    -0.376 OA
BRANCH  26  27
ATOM     27  C   UNL     1       0.951  -4.305   5.626  1.00  0.00     0.202 C 
BRANCH  27  28
ATOM     28  C   UNL     1       1.712  -3.281   6.461  1.00  0.00     0.261 C 
BRANCH  28  29
ATOM     29  O   UNL     1       0.907  -2.099   6.609  1.00  0.00    -0.460 OA
BRANCH  29  30
ATOM     30  C   UNL     1       1.608  -0.982   6.894  1.00  0.00     0.338 C 
ATOM     31  O   UNL     1       2.805  -0.894   7.098  1.00  0.00    -0.246 OA
BRANCH  30  32
ATOM     32  C   UNL     1       0.696   0.172   6.899  1.00  0.00     0.060 A 
ATOM     33  C   UNL     1       0.259   0.708   5.687  1.00  0.00     0.016 A 
ATOM     34  C   UNL     1       0.404   0.812   8.100  1.00  0.00     0.016 A 
ATOM     35  C   UNL     1      -0.389   1.945   5.663  1.00  0.00     0.010 A 
ATOM     36  C   UNL     1      -0.285   2.028   8.078  1.00  0.00     0.010 A 
ATOM     37  C   UNL     1      -0.632   2.638   6.857  1.00  0.00    -0.014 A 
BRANCH  37  38
ATOM     38  C   UNL     1      -1.095   4.056   6.839  1.00  0.00     0.031 A 
ATOM     39  C   UNL     1      -0.179   5.132   7.370  1.00  0.00     0.074 A 
ATOM     40  C   UNL     1      -2.294   4.404   6.333  1.00  0.00     0.049 A 
ATOM     41  N   UNL     1      -0.433   6.386   7.643  1.00  0.00    -0.248 NA
ATOM     42  C   UNL     1       1.211   4.730   7.640  1.00  0.00     0.031 C 
ATOM     43  C   UNL     1      -3.248   3.490   5.707  1.00  0.00     0.029 A 
ATOM     44  N   UNL     1      -2.914   5.629   6.269  1.00  0.00    -0.354 N 
ATOM     45  C   UNL     1       0.745   6.908   8.171  1.00  0.00     0.074 A 
ATOM     46  C   UNL     1       1.711   5.829   8.183  1.00  0.00     0.031 C 
ATOM     47  C   UNL     1      -4.325   4.188   5.309  1.00  0.00     0.029 A 
ATOM     48  C   UNL     1      -4.175   5.580   5.722  1.00  0.00     0.049 A 
ATOM     49  H   UNL     1      -2.495   6.462   6.584  1.00  0.00     0.167 HD
ATOM     50  C   UNL     1       0.997   8.168   8.609  1.00  0.00     0.034 A 
ATOM     51  C   UNL     1      -5.122   6.535   5.611  1.00  0.00     0.034 A 
ATOM     52  C   UNL     1       0.040   9.246   8.554  1.00  0.00     0.049 A 
ATOM     53  C   UNL     1      -4.845   7.914   6.155  1.00  0.00     0.074 A 
ATOM     54  C   UNL     1       0.189  10.557   8.973  1.00  0.00     0.029 A 
ATOM     55  N   UNL     1      -1.245   9.141   8.037  1.00  0.00    -0.354 N 
ATOM     56  N   UNL     1      -3.760   8.371   6.737  1.00  0.00    -0.248 NA
ATOM     57  C   UNL     1      -5.928   8.900   6.042  1.00  0.00     0.031 C 
ATOM     58  C   UNL     1      -1.020  11.229   8.759  1.00  0.00     0.029 A 
ATOM     59  C   UNL     1      -1.904  10.357   8.146  1.00  0.00     0.049 A 
ATOM     60  H   UNL     1      -1.632   8.323   7.649  1.00  0.00     0.167 HD
ATOM     61  C   UNL     1      -4.032   9.701   7.053  1.00  0.00     0.074 A 
ATOM     62  C   UNL     1      -5.370   9.977   6.573  1.00  0.00     0.031 C 
ATOM     63  C   UNL     1      -3.248  10.611   7.685  1.00  0.00     0.034 A 
BRANCH  50  64
ATOM     64  C   UNL     1       2.340   8.420   9.251  1.00  0.00     0.023 A 
ATOM     65  C   UNL     1       3.542   8.345   8.527  1.00  0.00     0.031 A 
ATOM     66  C   UNL     1       2.417   8.697  10.629  1.00  0.00     0.131 A 
ATOM     67  C   UNL     1       4.769   8.472   9.196  1.00  0.00     0.055 A 
ATOM     68  C   UNL     1       3.638   8.899  11.274  1.00  0.00     0.041 A 
ATOM     69  F   UNL     1       1.303   8.759  11.376  1.00  0.00    -0.206 F 
ATOM     70  C   UNL     1       4.825   8.770  10.560  1.00  0.00     0.022 A 
BRANCH  67  71
ATOM     71  S   UNL     1       6.293   8.090   8.289  1.00  0.00     0.124 S 
ATOM     72  O   UNL     1       6.040   6.720   7.850  1.00  0.00    -0.237 OA
ATOM     73  O   UNL     1       6.299   9.106   7.244  1.00  0.00    -0.237 OA
ATOM     74  O   UNL     1       7.338   8.229   9.301  1.00  0.00    -0.744 OA
ENDBRANCH  67  71
ENDBRANCH  50  64
BRANCH  51  75
ATOM     75  C   UNL     1      -6.456   6.207   5.031  1.00  0.00     0.023 A 
ATOM     76  C   UNL     1      -6.901   6.805   3.842  1.00  0.00     0.031 A 
ATOM     77  C   UNL     1      -7.327   5.319   5.690  1.00  0.00     0.131 A 
ATOM     78  C   UNL     1      -8.193   6.535   3.365  1.00  0.00     0.055 A 
ATOM     79  C   UNL     1      -8.591   5.014   5.184  1.00  0.00     0.041 A 
ATOM     80  F   UNL     1      -6.952   4.724   6.834  1.00  0.00    -0.206 F 
ATOM     81  C   UNL     1      -9.035   5.632   4.020  1.00  0.00     0.022 A 
BRANCH  78  82
ATOM     82  S   UNL     1      -8.790   7.436   1.908  1.00  0.00     0.124 S 
ATOM     83  O   UNL     1      -8.708   8.820   2.360  1.00  0.00    -0.237 OA
ATOM     84  O   UNL     1      -7.827   7.035   0.888  1.00  0.00    -0.237 OA
ATOM     85  O   UNL     1     -10.144   6.919   1.719  1.00  0.00    -0.744 OA
ENDBRANCH  78  82
ENDBRANCH  51  75
BRANCH  63  86
ATOM     86  C   UNL     1      -3.819  11.995   7.863  1.00  0.00     0.023 A 
ATOM     87  C   UNL     1      -4.891  12.242   8.740  1.00  0.00     0.031 A 
ATOM     88  C   UNL     1      -3.299  13.076   7.131  1.00  0.00     0.131 A 
ATOM     89  C   UNL     1      -5.443  13.529   8.822  1.00  0.00     0.055 A 
ATOM     90  C   UNL     1      -3.820  14.365   7.255  1.00  0.00     0.041 A 
ATOM     91  F   UNL     1      -2.277  12.896   6.279  1.00  0.00    -0.206 F 
ATOM     92  C   UNL     1      -4.906  14.595   8.095  1.00  0.00     0.022 A 
BRANCH  89  93
ATOM     93  S   UNL     1      -6.931  13.777   9.830  1.00  0.00     0.124 S 
ATOM     94  O   UNL     1      -7.873  12.846   9.217  1.00  0.00    -0.237 OA
ATOM     95  O   UNL     1      -6.465  13.424  11.167  1.00  0.00    -0.237 OA
ATOM     96  O   UNL     1      -7.244  15.192   9.638  1.00  0.00    -0.744 OA
ENDBRANCH  89  93
ENDBRANCH  63  86
ENDBRANCH  37  38
ENDBRANCH  30  32
ENDBRANCH  29  30
ENDBRANCH  28  29
ENDBRANCH  27  28
ENDBRANCH  26  27
ENDBRANCH  25  26
ENDBRANCH  24  25
ENDBRANCH   1  24
TORSDOF 28
