REMARK SMILES CC(C)Cc1noc(CCCCC(=O)OCCOCCOCCOC(=O)c2ccc(-c3c4nc(c(-c5cc(S(=O)(=O)[O-])ccc5F)c5ccc([nH]5)c(-c5cc(S(=O)(=O)[O-])ccc5F)c5nc(c(-c6cc(S(=O)(=O)[O-])ccc6F)c6ccc3[nH]6)C=C5)C=C4)cc2)n1
REMARK SMILES IDX 18 1 17 2 16 3 15 4 13 5 14 6 12 7 11 8 10 9 9 10 8 11 5 12
REMARK SMILES IDX 6 13 90 14 7 15 4 16 2 17 1 18 3 19 19 20 20 21 21 22 22 23
REMARK SMILES IDX 23 24 24 25 25 26 26 27 27 28 28 29 89 30 29 31 88 32 30 33
REMARK SMILES IDX 31 34 32 35 82 36 33 37 87 38 81 39 83 40 34 41 86 42 80 43
REMARK SMILES IDX 79 44 35 46 67 47 47 48 66 49 48 50 51 51 65 52 84 53 49 54
REMARK SMILES IDX 50 55 64 57 85 58 52 59 36 60 37 61 45 62 38 63 44 64 46 65
REMARK SMILES IDX 43 66 39 67 40 68 41 69 42 70 68 71 69 72 77 73 70 74 76 75
REMARK SMILES IDX 78 76 75 77 71 78 72 79 73 80 74 81 53 82 54 83 62 84 55 85
REMARK SMILES IDX 61 86 63 87 60 88 56 89 57 90 58 91 59 92
REMARK H PARENT 83 45 51 56
REMARK Flexibility Score: inf
ROOT
ATOM      1  O   UNL     1      -5.445   9.323   0.289  1.00  0.00    -0.376 OA
ENDROOT
BRANCH   1   2
ATOM      2  C   UNL     1      -6.535   8.405   0.347  1.00  0.00     0.202 C 
BRANCH   2   3
ATOM      3  C   UNL     1      -6.458   7.197  -0.597  1.00  0.00     0.261 C 
BRANCH   3   4
ATOM      4  O   UNL     1      -5.245   6.435  -0.448  1.00  0.00    -0.463 OA
BRANCH   4   5
ATOM      5  C   UNL     1      -4.533   6.224  -1.585  1.00  0.00     0.305 C 
ATOM      6  O   UNL     1      -4.929   6.486  -2.715  1.00  0.00    -0.252 OA
BRANCH   5   7
ATOM      7  C   UNL     1      -3.131   5.702  -1.334  1.00  0.00     0.123 C 
BRANCH   7   8
ATOM      8  C   UNL     1      -2.806   5.038   0.004  1.00  0.00     0.012 C 
BRANCH   8   9
ATOM      9  C   UNL     1      -3.742   3.923   0.483  1.00  0.00     0.010 C 
BRANCH   9  10
ATOM     10  C   UNL     1      -4.137   2.888  -0.567  1.00  0.00     0.100 C 
BRANCH  10  11
ATOM     11  C   UNL     1      -3.004   2.033  -0.986  1.00  0.00     0.226 A 
ATOM     12  C   UNL     1      -1.571   0.563  -1.355  1.00  0.00     0.172 A 
ATOM     13  N   UNL     1      -1.229   1.540  -2.204  1.00  0.00    -0.063 NA
ATOM     14  N   UNL     1      -2.678   0.825  -0.588  1.00  0.00    -0.196 NA
ATOM     15  O   UNL     1      -2.180   2.527  -1.954  1.00  0.00    -0.339 OA
BRANCH  12  16
ATOM     16  C   UNL     1      -0.876  -0.747  -1.306  1.00  0.00     0.084 C 
BRANCH  16  17
ATOM     17  C   UNL     1       0.658  -0.665  -1.229  1.00  0.00    -0.010 C 
ATOM     18  C   UNL     1       1.134  -0.050   0.089  1.00  0.00     0.008 C 
ATOM     19  C   UNL     1       1.252  -2.066  -1.394  1.00  0.00     0.008 C 
ENDBRANCH  16  17
ENDBRANCH  12  16
ENDBRANCH  10  11
ENDBRANCH   9  10
ENDBRANCH   8   9
ENDBRANCH   7   8
ENDBRANCH   5   7
ENDBRANCH   4   5
ENDBRANCH   3   4
ENDBRANCH   2   3
ENDBRANCH   1   2
BRANCH   1  20
ATOM     20  C   UNL     1      -4.165   8.820   0.660  1.00  0.00     0.188 C 
BRANCH  20  21
ATOM     21  C   UNL     1      -4.045   8.250   2.074  1.00  0.00     0.188 C 
BRANCH  21  22
ATOM     22  O   UNL     1      -5.046   7.315   2.462  1.00  0.00    -0.376 OA
BRANCH  22  23
ATOM     23  C   UNL     1      -4.922   6.790   3.790  1.00  0.00     0.202 C 
BRANCH  23  24
ATOM     24  C   UNL     1      -4.779   7.821   4.931  1.00  0.00     0.261 C 
BRANCH  24  25
ATOM     25  O   UNL     1      -3.609   8.667   4.872  1.00  0.00    -0.460 OA
BRANCH  25  26
ATOM     26  C   UNL     1      -2.403   8.070   4.714  1.00  0.00     0.338 C 
ATOM     27  O   UNL     1      -2.167   6.883   4.861  1.00  0.00    -0.246 OA
BRANCH  26  28
ATOM     28  C   UNL     1      -1.478   9.037   4.055  1.00  0.00     0.060 A 
ATOM     29  C   UNL     1      -0.593   8.549   3.081  1.00  0.00     0.016 A 
ATOM     30  C   UNL     1      -1.522  10.410   4.320  1.00  0.00     0.016 A 
ATOM     31  C   UNL     1       0.276   9.417   2.412  1.00  0.00     0.010 A 
ATOM     32  C   UNL     1      -0.643  11.277   3.658  1.00  0.00     0.010 A 
ATOM     33  C   UNL     1       0.288  10.782   2.726  1.00  0.00    -0.014 A 
BRANCH  33  34
ATOM     34  C   UNL     1       1.415  11.642   2.269  1.00  0.00     0.031 A 
ATOM     35  C   UNL     1       2.551  11.880   3.231  1.00  0.00     0.074 A 
ATOM     36  C   UNL     1       1.463  12.182   1.037  1.00  0.00     0.049 A 
ATOM     37  N   UNL     1       3.612  12.634   3.104  1.00  0.00    -0.248 NA
ATOM     38  C   UNL     1       2.467  11.168   4.516  1.00  0.00     0.031 C 
ATOM     39  C   UNL     1       0.468  11.989  -0.014  1.00  0.00     0.029 A 
ATOM     40  N   UNL     1       2.397  13.015   0.466  1.00  0.00    -0.354 N 
ATOM     41  C   UNL     1       4.321  12.492   4.293  1.00  0.00     0.074 A 
ATOM     42  C   UNL     1       3.543  11.615   5.142  1.00  0.00     0.031 C 
ATOM     43  C   UNL     1       0.840  12.691  -1.100  1.00  0.00     0.029 A 
ATOM     44  C   UNL     1       2.077  13.418  -0.811  1.00  0.00     0.049 A 
ATOM     45  H   UNL     1       3.219  13.298   0.927  1.00  0.00     0.167 HD
ATOM     46  C   UNL     1       5.514  13.032   4.645  1.00  0.00     0.034 A 
ATOM     47  C   UNL     1       2.693  14.290  -1.637  1.00  0.00     0.034 A 
ATOM     48  C   UNL     1       6.276  13.920   3.802  1.00  0.00     0.049 A 
ATOM     49  C   UNL     1       3.966  14.973  -1.182  1.00  0.00     0.074 A 
ATOM     50  C   UNL     1       7.496  14.518   4.063  1.00  0.00     0.029 A 
ATOM     51  N   UNL     1       5.886  14.352   2.541  1.00  0.00    -0.354 N 
ATOM     52  N   UNL     1       4.625  14.834  -0.055  1.00  0.00    -0.248 NA
ATOM     53  C   UNL     1       4.578  15.930  -2.116  1.00  0.00     0.031 C 
ATOM     54  C   UNL     1       7.804  15.373   2.999  1.00  0.00     0.029 A 
ATOM     55  C   UNL     1       6.822  15.239   2.030  1.00  0.00     0.049 A 
ATOM     56  H   UNL     1       5.064  14.071   2.077  1.00  0.00     0.167 HD
ATOM     57  C   UNL     1       5.747  15.656  -0.163  1.00  0.00     0.074 A 
ATOM     58  C   UNL     1       5.678  16.281  -1.467  1.00  0.00     0.031 C 
ATOM     59  C   UNL     1       6.747  15.867   0.731  1.00  0.00     0.034 A 
BRANCH  46  60
ATOM     60  C   UNL     1       6.027  12.720   6.030  1.00  0.00     0.023 A 
ATOM     61  C   UNL     1       6.342  11.408   6.426  1.00  0.00     0.031 A 
ATOM     62  C   UNL     1       6.154  13.743   6.986  1.00  0.00     0.131 A 
ATOM     63  C   UNL     1       6.685  11.142   7.760  1.00  0.00     0.055 A 
ATOM     64  C   UNL     1       6.584  13.485   8.289  1.00  0.00     0.041 A 
ATOM     65  F   UNL     1       5.842  15.011   6.676  1.00  0.00    -0.206 F 
ATOM     66  C   UNL     1       6.835  12.175   8.688  1.00  0.00     0.022 A 
BRANCH  63  67
ATOM     67  S   UNL     1       6.764   9.414   8.306  1.00  0.00     0.124 S 
ATOM     68  O   UNL     1       5.425   8.937   7.969  1.00  0.00    -0.237 OA
ATOM     69  O   UNL     1       7.855   8.879   7.500  1.00  0.00    -0.237 OA
ATOM     70  O   UNL     1       7.038   9.519   9.738  1.00  0.00    -0.744 OA
ENDBRANCH  63  67
ENDBRANCH  46  60
BRANCH  47  71
ATOM     71  C   UNL     1       2.103  14.623  -2.969  1.00  0.00     0.023 A 
ATOM     72  C   UNL     1       2.789  14.345  -4.163  1.00  0.00     0.031 A 
ATOM     73  C   UNL     1       0.869  15.293  -3.062  1.00  0.00     0.131 A 
ATOM     74  C   UNL     1       2.260  14.775  -5.392  1.00  0.00     0.055 A 
ATOM     75  C   UNL     1       0.321  15.667  -4.290  1.00  0.00     0.041 A 
ATOM     76  F   UNL     1       0.176  15.595  -1.952  1.00  0.00    -0.206 F 
ATOM     77  C   UNL     1       1.024  15.419  -5.464  1.00  0.00     0.022 A 
BRANCH  74  78
ATOM     78  S   UNL     1       3.256  14.559  -6.894  1.00  0.00     0.124 S 
ATOM     79  O   UNL     1       4.450  15.331  -6.571  1.00  0.00    -0.237 OA
ATOM     80  O   UNL     1       3.422  13.110  -6.943  1.00  0.00    -0.237 OA
ATOM     81  O   UNL     1       2.413  15.123  -7.946  1.00  0.00    -0.744 OA
ENDBRANCH  74  78
ENDBRANCH  47  71
BRANCH  59  82
ATOM     82  C   UNL     1       7.886  16.768   0.307  1.00  0.00     0.023 A 
ATOM     83  C   UNL     1       7.708  18.143   0.075  1.00  0.00     0.031 A 
ATOM     84  C   UNL     1       9.178  16.235   0.139  1.00  0.00     0.131 A 
ATOM     85  C   UNL     1       8.789  18.927  -0.360  1.00  0.00     0.055 A 
ATOM     86  C   UNL     1      10.263  17.031  -0.233  1.00  0.00     0.041 A 
ATOM     87  F   UNL     1       9.411  14.928   0.343  1.00  0.00    -0.206 F 
ATOM     88  C   UNL     1      10.069  18.383  -0.497  1.00  0.00     0.022 A 
BRANCH  85  89
ATOM     89  S   UNL     1       8.486  20.652  -0.832  1.00  0.00     0.124 S 
ATOM     90  O   UNL     1       7.483  20.508  -1.883  1.00  0.00    -0.237 OA
ATOM     91  O   UNL     1       8.018  21.241   0.418  1.00  0.00    -0.237 OA
ATOM     92  O   UNL     1       9.795  21.120  -1.285  1.00  0.00    -0.744 OA
ENDBRANCH  85  89
ENDBRANCH  59  82
ENDBRANCH  33  34
ENDBRANCH  26  28
ENDBRANCH  25  26
ENDBRANCH  24  25
ENDBRANCH  23  24
ENDBRANCH  22  23
ENDBRANCH  21  22
ENDBRANCH  20  21
ENDBRANCH   1  20
TORSDOF 26
