REMARK SMILES C[C@@H]1[C@@H](C(=O)OCCOCCOCCOC(=O)c2ccc(-c3c4nc(c(-c5cc(S(=O)(=O)[O-])ccc5F)c5ccc([nH]5)c(-c5cc(S(=O)(=O)[O-])ccc5F)c5nc(c(-c6cc(S(=O)(=O)[O-])ccc6F)c6ccc3[nH]6)C=C5)C=C4)cc2)CCN1C(=O)CCCC1CCCCC1
REMARK SMILES IDX 10 1 9 2 8 3 7 4 6 5 4 6 5 7 3 8 1 9 2 10 83 11 81 12 82 13
REMARK SMILES IDX 84 14 85 15 86 16 87 17 88 18 89 19 90 20 94 21 91 22 93 23
REMARK SMILES IDX 92 24 11 25 12 26 13 27 14 28 15 29 16 30 17 31 18 32 19 33
REMARK SMILES IDX 80 34 20 35 79 36 21 37 22 38 23 39 73 40 24 41 78 42 72 43
REMARK SMILES IDX 74 44 25 45 77 46 71 47 70 48 26 50 58 51 38 52 57 53 39 54
REMARK SMILES IDX 42 55 56 56 75 57 40 58 41 59 55 61 76 62 43 63 27 64 28 65
REMARK SMILES IDX 36 66 29 67 35 68 37 69 34 70 30 71 31 72 32 73 33 74 59 75
REMARK SMILES IDX 60 76 68 77 61 78 67 79 69 80 66 81 62 82 63 83 64 84 65 85
REMARK SMILES IDX 44 86 45 87 53 88 46 89 52 90 54 91 51 92 47 93 48 94 49 95
REMARK SMILES IDX 50 96
REMARK H PARENT 74 49 42 60
REMARK Flexibility Score: inf
ROOT
ATOM      1  C   UNL     1       0.412   2.487  -3.360  1.00  0.00     0.188 C 
ENDROOT
BRANCH   1   2
ATOM      2  O   UNL     1      -0.367   2.767  -4.498  1.00  0.00    -0.376 OA
BRANCH   2   3
ATOM      3  C   UNL     1      -1.670   2.230  -4.643  1.00  0.00     0.202 C 
BRANCH   3   4
ATOM      4  C   UNL     1      -2.499   1.530  -3.549  1.00  0.00     0.261 C 
BRANCH   4   5
ATOM      5  O   UNL     1      -2.077   1.625  -2.186  1.00  0.00    -0.463 OA
BRANCH   5   6
ATOM      6  C   UNL     1      -1.525   0.479  -1.695  1.00  0.00     0.311 C 
ATOM      7  O   UNL     1      -1.260  -0.496  -2.386  1.00  0.00    -0.252 OA
BRANCH   6   8
ATOM      8  C   UNL     1      -1.288   0.575  -0.194  1.00  0.00     0.123 C 
ATOM      9  C   UNL     1       0.361  -0.129   1.619  1.00  0.00     0.032 C 
ATOM     10  C   UNL     1      -0.226  -0.443   0.243  1.00  0.00     0.096 C 
ATOM     11  N   UNL     1      -0.969  -1.692   0.232  1.00  0.00    -0.339 N 
ATOM     12  C   UNL     1      -2.523   0.087   0.559  1.00  0.00     0.039 C 
ATOM     13  C   UNL     1      -2.370  -1.438   0.548  1.00  0.00     0.121 C 
BRANCH  11  14
ATOM     14  C   UNL     1      -0.613  -2.842  -0.459  1.00  0.00     0.222 C 
ATOM     15  O   UNL     1      -1.464  -3.692  -0.744  1.00  0.00    -0.275 OA
BRANCH  14  16
ATOM     16  C   UNL     1       0.863  -3.127  -0.743  1.00  0.00     0.100 C 
BRANCH  16  17
ATOM     17  C   UNL     1       1.541  -2.623  -2.030  1.00  0.00     0.010 C 
BRANCH  17  18
ATOM     18  C   UNL     1       2.238  -1.248  -2.131  1.00  0.00     0.004 C 
BRANCH  18  19
ATOM     19  C   UNL     1       3.385  -0.817  -1.167  1.00  0.00    -0.011 C 
ATOM     20  C   UNL     1       3.232   0.679  -0.808  1.00  0.00     0.003 C 
ATOM     21  C   UNL     1       3.589  -1.666   0.087  1.00  0.00     0.003 C 
ATOM     22  C   UNL     1       4.257   1.188   0.205  1.00  0.00     0.000 C 
ATOM     23  C   UNL     1       4.685  -1.136   1.004  1.00  0.00     0.000 C 
ATOM     24  C   UNL     1       4.365   0.291   1.429  1.00  0.00     0.000 C 
ENDBRANCH  18  19
ENDBRANCH  17  18
ENDBRANCH  16  17
ENDBRANCH  14  16
ENDBRANCH  11  14
ENDBRANCH   6   8
ENDBRANCH   5   6
ENDBRANCH   4   5
ENDBRANCH   3   4
ENDBRANCH   2   3
ENDBRANCH   1   2
BRANCH   1  25
ATOM     25  C   UNL     1       0.315   3.522  -2.220  1.00  0.00     0.188 C 
BRANCH  25  26
ATOM     26  O   UNL     1      -0.755   4.454  -2.185  1.00  0.00    -0.376 OA
BRANCH  26  27
ATOM     27  C   UNL     1      -0.991   5.294  -3.308  1.00  0.00     0.202 C 
BRANCH  27  28
ATOM     28  C   UNL     1       0.145   6.013  -4.061  1.00  0.00     0.261 C 
BRANCH  28  29
ATOM     29  O   UNL     1       1.333   5.246  -4.295  1.00  0.00    -0.460 OA
BRANCH  29  30
ATOM     30  C   UNL     1       2.441   5.706  -3.661  1.00  0.00     0.338 C 
ATOM     31  O   UNL     1       2.525   6.690  -2.950  1.00  0.00    -0.246 OA
BRANCH  30  32
ATOM     32  C   UNL     1       3.528   4.717  -3.792  1.00  0.00     0.060 A 
ATOM     33  C   UNL     1       4.016   4.137  -2.617  1.00  0.00     0.016 A 
ATOM     34  C   UNL     1       4.105   4.410  -5.026  1.00  0.00     0.016 A 
ATOM     35  C   UNL     1       5.086   3.249  -2.677  1.00  0.00     0.010 A 
ATOM     36  C   UNL     1       5.193   3.526  -5.079  1.00  0.00     0.010 A 
ATOM     37  C   UNL     1       5.693   2.945  -3.902  1.00  0.00    -0.014 A 
BRANCH  37  38
ATOM     38  C   UNL     1       6.954   2.163  -3.892  1.00  0.00     0.031 A 
ATOM     39  C   UNL     1       8.243   2.894  -3.640  1.00  0.00     0.074 A 
ATOM     40  C   UNL     1       6.953   0.823  -4.015  1.00  0.00     0.049 A 
ATOM     41  N   UNL     1       9.466   2.435  -3.602  1.00  0.00    -0.248 NA
ATOM     42  C   UNL     1       8.128   4.338  -3.382  1.00  0.00     0.031 C 
ATOM     43  C   UNL     1       5.761  -0.010  -4.154  1.00  0.00     0.029 A 
ATOM     44  N   UNL     1       7.992  -0.076  -4.027  1.00  0.00    -0.354 N 
ATOM     45  C   UNL     1      10.269   3.530  -3.304  1.00  0.00     0.074 A 
ATOM     46  C   UNL     1       9.393   4.677  -3.191  1.00  0.00     0.031 C 
ATOM     47  C   UNL     1       6.137  -1.300  -4.237  1.00  0.00     0.029 A 
ATOM     48  C   UNL     1       7.597  -1.382  -4.210  1.00  0.00     0.049 A 
ATOM     49  H   UNL     1       8.934   0.190  -3.914  1.00  0.00     0.167 HD
ATOM     50  C   UNL     1      11.614   3.577  -3.146  1.00  0.00     0.034 A 
ATOM     51  C   UNL     1       8.333  -2.503  -4.372  1.00  0.00     0.034 A 
ATOM     52  C   UNL     1      12.483   2.441  -3.317  1.00  0.00     0.049 A 
ATOM     53  C   UNL     1       9.844  -2.395  -4.354  1.00  0.00     0.074 A 
ATOM     54  C   UNL     1      13.865   2.394  -3.252  1.00  0.00     0.029 A 
ATOM     55  N   UNL     1      12.056   1.152  -3.607  1.00  0.00    -0.354 N 
ATOM     56  N   UNL     1      10.597  -1.344  -4.122  1.00  0.00    -0.248 NA
ATOM     57  C   UNL     1      10.602  -3.623  -4.631  1.00  0.00     0.031 C 
ATOM     58  C   UNL     1      14.275   1.095  -3.569  1.00  0.00     0.029 A 
ATOM     59  C   UNL     1      13.148   0.310  -3.753  1.00  0.00     0.049 A 
ATOM     60  H   UNL     1      11.116   0.876  -3.695  1.00  0.00     0.167 HD
ATOM     61  C   UNL     1      11.914  -1.796  -4.193  1.00  0.00     0.074 A 
ATOM     62  C   UNL     1      11.852  -3.214  -4.475  1.00  0.00     0.031 C 
ATOM     63  C   UNL     1      13.072  -1.104  -4.037  1.00  0.00     0.034 A 
BRANCH  50  64
ATOM     64  C   UNL     1      12.216   4.928  -2.856  1.00  0.00     0.023 A 
ATOM     65  C   UNL     1      11.958   5.606  -1.652  1.00  0.00     0.031 A 
ATOM     66  C   UNL     1      13.007   5.572  -3.823  1.00  0.00     0.131 A 
ATOM     67  C   UNL     1      12.428   6.916  -1.476  1.00  0.00     0.055 A 
ATOM     68  C   UNL     1      13.536   6.845  -3.610  1.00  0.00     0.041 A 
ATOM     69  F   UNL     1      13.258   4.982  -5.003  1.00  0.00    -0.206 F 
ATOM     70  C   UNL     1      13.235   7.531  -2.436  1.00  0.00     0.022 A 
BRANCH  67  71
ATOM     71  S   UNL     1      11.847   7.860  -0.040  1.00  0.00     0.124 S 
ATOM     72  O   UNL     1      10.400   7.851  -0.247  1.00  0.00    -0.237 OA
ATOM     73  O   UNL     1      12.337   7.066   1.080  1.00  0.00    -0.237 OA
ATOM     74  O   UNL     1      12.484   9.165  -0.207  1.00  0.00    -0.744 OA
ENDBRANCH  67  71
ENDBRANCH  50  64
BRANCH  51  75
ATOM     75  C   UNL     1       7.683  -3.822  -4.646  1.00  0.00     0.023 A 
ATOM     76  C   UNL     1       7.894  -4.927  -3.804  1.00  0.00     0.031 A 
ATOM     77  C   UNL     1       6.931  -4.026  -5.817  1.00  0.00     0.131 A 
ATOM     78  C   UNL     1       7.413  -6.194  -4.175  1.00  0.00     0.055 A 
ATOM     79  C   UNL     1       6.401  -5.274  -6.149  1.00  0.00     0.041 A 
ATOM     80  F   UNL     1       6.710  -3.011  -6.668  1.00  0.00    -0.206 F 
ATOM     81  C   UNL     1       6.656  -6.371  -5.335  1.00  0.00     0.022 A 
BRANCH  78  82
ATOM     82  S   UNL     1       7.896  -7.634  -3.182  1.00  0.00     0.124 S 
ATOM     83  O   UNL     1       9.351  -7.568  -3.254  1.00  0.00    -0.237 OA
ATOM     84  O   UNL     1       7.303  -7.321  -1.886  1.00  0.00    -0.237 OA
ATOM     85  O   UNL     1       7.286  -8.757  -3.891  1.00  0.00    -0.744 OA
ENDBRANCH  78  82
ENDBRANCH  51  75
BRANCH  63  86
ATOM     86  C   UNL     1      14.364  -1.883  -4.113  1.00  0.00     0.023 A 
ATOM     87  C   UNL     1      14.810  -2.471  -5.310  1.00  0.00     0.031 A 
ATOM     88  C   UNL     1      15.163  -2.033  -2.965  1.00  0.00     0.131 A 
ATOM     89  C   UNL     1      15.998  -3.220  -5.320  1.00  0.00     0.055 A 
ATOM     90  C   UNL     1      16.371  -2.730  -2.995  1.00  0.00     0.041 A 
ATOM     91  F   UNL     1      14.786  -1.492  -1.795  1.00  0.00    -0.206 F 
ATOM     92  C   UNL     1      16.789  -3.338  -4.174  1.00  0.00     0.022 A 
BRANCH  89  93
ATOM     93  S   UNL     1      16.461  -4.105  -6.835  1.00  0.00     0.124 S 
ATOM     94  O   UNL     1      15.308  -4.975  -7.044  1.00  0.00    -0.237 OA
ATOM     95  O   UNL     1      16.622  -3.018  -7.795  1.00  0.00    -0.237 OA
ATOM     96  O   UNL     1      17.698  -4.793  -6.467  1.00  0.00    -0.744 OA
ENDBRANCH  89  93
ENDBRANCH  63  86
ENDBRANCH  37  38
ENDBRANCH  30  32
ENDBRANCH  29  30
ENDBRANCH  28  29
ENDBRANCH  27  28
ENDBRANCH  26  27
ENDBRANCH  25  26
ENDBRANCH   1  25
TORSDOF 25
