REMARK SMILES C[C@@H]1CSCCN1c1ccc(C(F)(F)F)cc1C(=O)OCCOCCOCCOC(=O)c1ccc(-c2c3nc(c(-c4cc(S(=O)(=O)[O-])ccc4F)c4ccc([nH]4)c(-c4cc(S(=O)(=O)[O-])ccc4F)c4nc(c(-c5cc(S(=O)(=O)[O-])ccc5F)c5ccc2[nH]5)C=C4)C=C3)cc1
REMARK SMILES IDX 25 1 24 2 23 3 22 4 21 5 20 6 18 7 19 8 17 9 8 10 9 11 10 12
REMARK SMILES IDX 16 13 11 14 7 15 1 16 2 17 3 18 4 19 6 20 5 21 12 22 13 23
REMARK SMILES IDX 14 24 15 25 26 26 27 27 28 28 29 29 30 30 31 31 32 32 33 33
REMARK SMILES IDX 94 34 34 35 93 36 35 37 36 38 37 39 87 40 38 41 92 42 86 43
REMARK SMILES IDX 88 44 39 45 91 46 85 47 84 48 40 50 72 51 52 52 71 53 53 54
REMARK SMILES IDX 56 55 70 56 89 57 54 58 55 59 69 61 90 62 57 63 41 64 42 65
REMARK SMILES IDX 50 66 43 67 49 68 51 69 48 70 44 71 45 72 46 73 47 74 73 75
REMARK SMILES IDX 74 76 82 77 75 78 81 79 83 80 80 81 76 82 77 83 78 84 79 85
REMARK SMILES IDX 58 86 59 87 67 88 60 89 66 90 68 91 65 92 61 93 62 94 63 95
REMARK SMILES IDX 64 96
REMARK H PARENT 88 49 56 60
REMARK Flexibility Score: inf
ROOT
ATOM      1  C   UNL     1       0.847   2.501   1.586  1.00  0.00     0.188 C 
ENDROOT
BRANCH   1   2
ATOM      2  C   UNL     1       1.329   2.462   3.054  1.00  0.00     0.188 C 
BRANCH   2   3
ATOM      3  O   UNL     1       2.661   2.058   3.355  1.00  0.00    -0.376 OA
BRANCH   3   4
ATOM      4  C   UNL     1       3.099   0.778   2.911  1.00  0.00     0.202 C 
BRANCH   4   5
ATOM      5  C   UNL     1       2.231  -0.392   3.354  1.00  0.00     0.261 C 
BRANCH   5   6
ATOM      6  O   UNL     1       1.011  -0.335   2.606  1.00  0.00    -0.460 OA
BRANCH   6   7
ATOM      7  C   UNL     1       0.046  -1.184   2.994  1.00  0.00     0.340 C 
ATOM      8  O   UNL     1       0.153  -2.071   3.825  1.00  0.00    -0.246 OA
BRANCH   7   9
ATOM      9  C   UNL     1      -1.235  -0.742   2.409  1.00  0.00     0.084 A 
ATOM     10  C   UNL     1      -1.559  -0.695   1.032  1.00  0.00     0.052 A 
ATOM     11  C   UNL     1      -2.906  -0.348   0.764  1.00  0.00     0.027 A 
ATOM     12  C   UNL     1      -3.809   0.089   1.744  1.00  0.00     0.015 A 
ATOM     13  C   UNL     1      -2.139  -0.285   3.402  1.00  0.00     0.031 A 
ATOM     14  C   UNL     1      -3.411   0.187   3.072  1.00  0.00     0.057 A 
BRANCH  10  15
ATOM     15  N   UNL     1      -0.705  -0.911  -0.050  1.00  0.00    -0.366 N 
ATOM     16  C   UNL     1       1.772  -1.031  -0.313  1.00  0.00     0.032 C 
ATOM     17  C   UNL     1       0.473  -1.808  -0.051  1.00  0.00     0.089 C 
ATOM     18  C   UNL     1       0.280  -2.940  -1.083  1.00  0.00     0.094 C 
ATOM     19  S   UNL     1      -0.005  -2.378  -2.804  1.00  0.00    -0.158 SA
ATOM     20  C   UNL     1      -0.931  -0.180  -1.323  1.00  0.00     0.128 C 
ATOM     21  C   UNL     1      -1.305  -1.140  -2.457  1.00  0.00     0.091 C 
ENDBRANCH  10  15
BRANCH  14  22
ATOM     22  C   UNL     1      -4.335   0.763   4.118  1.00  0.00     0.416 C 
ATOM     23  F   UNL     1      -5.127   1.752   3.619  1.00  0.00    -0.166 F 
ATOM     24  F   UNL     1      -5.172  -0.172   4.637  1.00  0.00    -0.166 F 
ATOM     25  F   UNL     1      -3.663   1.312   5.165  1.00  0.00    -0.166 F 
ENDBRANCH  14  22
ENDBRANCH   7   9
ENDBRANCH   6   7
ENDBRANCH   5   6
ENDBRANCH   4   5
ENDBRANCH   3   4
ENDBRANCH   2   3
ENDBRANCH   1   2
BRANCH   1  26
ATOM     26  O   UNL     1       1.767   2.575   0.505  1.00  0.00    -0.376 OA
BRANCH  26  27
ATOM     27  C   UNL     1       2.918   3.395   0.617  1.00  0.00     0.202 C 
BRANCH  27  28
ATOM     28  C   UNL     1       2.710   4.906   0.676  1.00  0.00     0.261 C 
BRANCH  28  29
ATOM     29  O   UNL     1       1.973   5.313   1.836  1.00  0.00    -0.460 OA
BRANCH  29  30
ATOM     30  C   UNL     1       0.740   5.814   1.582  1.00  0.00     0.338 C 
ATOM     31  O   UNL     1       0.230   5.984   0.487  1.00  0.00    -0.246 OA
BRANCH  30  32
ATOM     32  C   UNL     1      -0.003   5.967   2.849  1.00  0.00     0.060 A 
ATOM     33  C   UNL     1      -1.321   5.496   2.886  1.00  0.00     0.016 A 
ATOM     34  C   UNL     1       0.563   6.588   3.967  1.00  0.00     0.016 A 
ATOM     35  C   UNL     1      -2.095   5.687   4.027  1.00  0.00     0.010 A 
ATOM     36  C   UNL     1      -0.221   6.793   5.106  1.00  0.00     0.010 A 
ATOM     37  C   UNL     1      -1.563   6.374   5.126  1.00  0.00    -0.014 A 
BRANCH  37  38
ATOM     38  C   UNL     1      -2.477   6.814   6.206  1.00  0.00     0.031 A 
ATOM     39  C   UNL     1      -3.082   8.188   6.114  1.00  0.00     0.074 A 
ATOM     40  C   UNL     1      -2.805   5.987   7.214  1.00  0.00     0.049 A 
ATOM     41  N   UNL     1      -3.921   8.784   6.921  1.00  0.00    -0.248 NA
ATOM     42  C   UNL     1      -2.686   8.997   4.950  1.00  0.00     0.031 C 
ATOM     43  C   UNL     1      -2.311   4.622   7.380  1.00  0.00     0.029 A 
ATOM     44  N   UNL     1      -3.634   6.180   8.289  1.00  0.00    -0.354 N 
ATOM     45  C   UNL     1      -4.173  10.027   6.351  1.00  0.00     0.074 A 
ATOM     46  C   UNL     1      -3.357  10.118   5.159  1.00  0.00     0.031 C 
ATOM     47  C   UNL     1      -2.835   4.104   8.505  1.00  0.00     0.029 A 
ATOM     48  C   UNL     1      -3.682   5.107   9.148  1.00  0.00     0.049 A 
ATOM     49  H   UNL     1      -4.147   7.008   8.432  1.00  0.00     0.167 HD
ATOM     50  C   UNL     1      -5.021  10.996   6.774  1.00  0.00     0.034 A 
ATOM     51  C   UNL     1      -4.321   4.964  10.326  1.00  0.00     0.034 A 
ATOM     52  C   UNL     1      -5.796  10.909   7.986  1.00  0.00     0.049 A 
ATOM     53  C   UNL     1      -5.188   6.096  10.828  1.00  0.00     0.074 A 
ATOM     54  C   UNL     1      -6.659  11.844   8.531  1.00  0.00     0.029 A 
ATOM     55  N   UNL     1      -5.790   9.823   8.853  1.00  0.00    -0.354 N 
ATOM     56  N   UNL     1      -5.423   7.266  10.277  1.00  0.00    -0.248 NA
ATOM     57  C   UNL     1      -5.888   5.880  12.100  1.00  0.00     0.031 C 
ATOM     58  C   UNL     1      -7.128  11.348   9.754  1.00  0.00     0.029 A 
ATOM     59  C   UNL     1      -6.614  10.074   9.939  1.00  0.00     0.049 A 
ATOM     60  H   UNL     1      -5.274   8.996   8.716  1.00  0.00     0.167 HD
ATOM     61  C   UNL     1      -6.319   7.912  11.125  1.00  0.00     0.074 A 
ATOM     62  C   UNL     1      -6.597   6.994  12.210  1.00  0.00     0.031 C 
ATOM     63  C   UNL     1      -6.867   9.150  11.019  1.00  0.00     0.034 A 
BRANCH  50  64
ATOM     64  C   UNL     1      -5.106  12.246   5.932  1.00  0.00     0.023 A 
ATOM     65  C   UNL     1      -5.617  12.214   4.622  1.00  0.00     0.031 A 
ATOM     66  C   UNL     1      -4.630  13.473   6.425  1.00  0.00     0.131 A 
ATOM     67  C   UNL     1      -5.580  13.370   3.828  1.00  0.00     0.055 A 
ATOM     68  C   UNL     1      -4.664  14.637   5.655  1.00  0.00     0.041 A 
ATOM     69  F   UNL     1      -4.107  13.557   7.659  1.00  0.00    -0.206 F 
ATOM     70  C   UNL     1      -5.128  14.587   4.344  1.00  0.00     0.022 A 
BRANCH  67  71
ATOM     71  S   UNL     1      -6.007  13.232   2.071  1.00  0.00     0.124 S 
ATOM     72  O   UNL     1      -5.009  12.275   1.599  1.00  0.00    -0.237 OA
ATOM     73  O   UNL     1      -7.383  12.751   2.116  1.00  0.00    -0.237 OA
ATOM     74  O   UNL     1      -5.839  14.595   1.569  1.00  0.00    -0.744 OA
ENDBRANCH  67  71
ENDBRANCH  50  64
BRANCH  51  75
ATOM     75  C   UNL     1      -4.136   3.731  11.144  1.00  0.00     0.023 A 
ATOM     76  C   UNL     1      -5.210   2.875  11.436  1.00  0.00     0.031 A 
ATOM     77  C   UNL     1      -2.883   3.430  11.707  1.00  0.00     0.131 A 
ATOM     78  C   UNL     1      -5.024   1.793  12.311  1.00  0.00     0.055 A 
ATOM     79  C   UNL     1      -2.690   2.322  12.534  1.00  0.00     0.041 A 
ATOM     80  F   UNL     1      -1.822   4.216  11.462  1.00  0.00    -0.206 F 
ATOM     81  C   UNL     1      -3.769   1.504  12.852  1.00  0.00     0.022 A 
BRANCH  78  82
ATOM     82  S   UNL     1      -6.472   0.822  12.814  1.00  0.00     0.124 S 
ATOM     83  O   UNL     1      -7.341   1.851  13.374  1.00  0.00    -0.237 OA
ATOM     84  O   UNL     1      -6.901   0.240  11.547  1.00  0.00    -0.237 OA
ATOM     85  O   UNL     1      -5.926  -0.128  13.781  1.00  0.00    -0.744 OA
ENDBRANCH  78  82
ENDBRANCH  51  75
BRANCH  63  86
ATOM     86  C   UNL     1      -7.851   9.556  12.090  1.00  0.00     0.023 A 
ATOM     87  C   UNL     1      -7.451   9.760  13.423  1.00  0.00     0.031 A 
ATOM     88  C   UNL     1      -9.212   9.720  11.775  1.00  0.00     0.131 A 
ATOM     89  C   UNL     1      -8.410  10.056  14.403  1.00  0.00     0.055 A 
ATOM     90  C   UNL     1     -10.153  10.072  12.744  1.00  0.00     0.041 A 
ATOM     91  F   UNL     1      -9.649   9.538  10.519  1.00  0.00    -0.206 F 
ATOM     92  C   UNL     1      -9.756  10.227  14.069  1.00  0.00     0.022 A 
BRANCH  89  93
ATOM     93  S   UNL     1      -7.891  10.117  16.140  1.00  0.00     0.124 S 
ATOM     94  O   UNL     1      -7.310   8.793  16.331  1.00  0.00    -0.237 OA
ATOM     95  O   UNL     1      -6.951  11.233  16.144  1.00  0.00    -0.237 OA
ATOM     96  O   UNL     1      -9.139  10.357  16.863  1.00  0.00    -0.744 OA
ENDBRANCH  89  93
ENDBRANCH  63  86
ENDBRANCH  37  38
ENDBRANCH  30  32
ENDBRANCH  29  30
ENDBRANCH  28  29
ENDBRANCH  27  28
ENDBRANCH  26  27
ENDBRANCH   1  26
TORSDOF 22
