REMARK SMILES C[C@]1(C(=O)OCCOCCOCCOC(=O)c2ccc(-c3c4nc(c(-c5cc(S(=O)(=O)[O-])ccc5F)c5ccc([nH]5)c(-c5cc(S(=O)(=O)[O-])ccc5F)c5nc(c(-c6cc(S(=O)(=O)[O-])ccc6F)c6ccc3[nH]6)C=C5)C=C4)cc2)[NH2+]C2(C(=O)c3ccccc3C2=O)[C@@H]2C(=O)N(c3ccccc3)C(=O)[C@H]21
REMARK SMILES IDX 10 1 9 2 8 3 7 4 6 5 5 6 3 7 4 8 2 9 1 10 80 11 104 12 81 13
REMARK SMILES IDX 92 16 102 17 82 18 90 19 93 20 95 21 103 22 83 23 84 24
REMARK SMILES IDX 89 25 91 26 94 27 85 28 88 29 86 30 87 31 96 32 97 33 101 34
REMARK SMILES IDX 98 35 100 36 99 37 11 38 12 39 13 40 14 41 15 42 16 43 17 44
REMARK SMILES IDX 18 45 79 46 19 47 78 48 20 49 21 50 22 51 72 52 23 53 77 54
REMARK SMILES IDX 71 55 73 56 24 57 76 58 70 59 69 60 25 62 57 63 37 64 56 65
REMARK SMILES IDX 38 66 41 67 55 68 74 69 39 70 40 71 54 73 75 74 42 75 26 76
REMARK SMILES IDX 27 77 35 78 28 79 34 80 36 81 33 82 29 83 30 84 31 85 32 86
REMARK SMILES IDX 58 87 59 88 67 89 60 90 66 91 68 92 65 93 61 94 62 95 63 96
REMARK SMILES IDX 64 97 43 98 44 99 52 100 45 101 51 102 53 103 50 104 46 105
REMARK SMILES IDX 47 106 48 107 49 108
REMARK H PARENT 80 14 80 15 73 61 41 72
REMARK Flexibility Score: inf
ROOT
ATOM      1  C   UNL     1      -0.855  -0.701  -3.048  1.00  0.00     0.188 C 
ENDROOT
BRANCH   1   2
ATOM      2  C   UNL     1      -1.747  -1.400  -2.012  1.00  0.00     0.188 C 
BRANCH   2   3
ATOM      3  O   UNL     1      -3.150  -1.224  -2.068  1.00  0.00    -0.376 OA
BRANCH   3   4
ATOM      4  C   UNL     1      -3.695   0.082  -2.157  1.00  0.00     0.202 C 
BRANCH   4   5
ATOM      5  C   UNL     1      -3.131   1.263  -1.349  1.00  0.00     0.261 C 
BRANCH   5   6
ATOM      6  O   UNL     1      -1.708   1.462  -1.403  1.00  0.00    -0.459 OA
BRANCH   6   7
ATOM      7  C   UNL     1      -1.023   1.215  -0.254  1.00  0.00     0.368 C 
ATOM      8  O   UNL     1      -1.562   0.823   0.774  1.00  0.00    -0.245 OA
BRANCH   7   9
ATOM      9  C   UNL     1       0.507   1.522  -0.336  1.00  0.00     0.205 C 
ATOM     10  C   UNL     1       1.224   0.422   0.451  1.00  0.00     0.093 C 
ATOM     11  N   UNL     1       1.111   1.595  -1.741  1.00  0.00    -0.313 N 
ATOM     12  C   UNL     1       0.777   2.917   0.147  1.00  0.00     0.172 C 
ATOM     13  C   UNL     1       1.261   3.053  -2.131  1.00  0.00     0.237 C 
ATOM     14  H   UNL     1       0.496   1.124  -2.405  1.00  0.00     0.348 HD
ATOM     15  H   UNL     1       2.023   1.137  -1.752  1.00  0.00     0.348 HD
ATOM     16  C   UNL     1       0.414   3.706  -1.102  1.00  0.00     0.177 C 
ATOM     17  C   UNL     1      -0.021   3.643   1.175  1.00  0.00     0.244 C 
ATOM     18  C   UNL     1       2.739   3.445  -2.183  1.00  0.00     0.232 C 
ATOM     19  C   UNL     1       0.799   3.289  -3.572  1.00  0.00     0.232 C 
ATOM     20  C   UNL     1       0.416   5.087  -0.576  1.00  0.00     0.245 C 
ATOM     21  N   UNL     1      -0.133   4.949   0.697  1.00  0.00    -0.250 N 
ATOM     22  O   UNL     1      -0.411   3.155   2.213  1.00  0.00    -0.273 OA
ATOM     23  O   UNL     1       3.535   3.446  -1.261  1.00  0.00    -0.286 OA
ATOM     24  C   UNL     1       3.095   3.740  -3.570  1.00  0.00     0.036 A 
ATOM     25  C   UNL     1       1.974   3.629  -4.381  1.00  0.00     0.036 A 
ATOM     26  O   UNL     1      -0.336   3.284  -4.016  1.00  0.00    -0.286 OA
ATOM     27  O   UNL     1       0.700   6.081  -1.223  1.00  0.00    -0.273 OA
ATOM     28  C   UNL     1       4.337   4.071  -4.084  1.00  0.00     0.013 A 
ATOM     29  C   UNL     1       2.046   3.850  -5.746  1.00  0.00     0.013 A 
ATOM     30  C   UNL     1       4.429   4.299  -5.460  1.00  0.00     0.001 A 
ATOM     31  C   UNL     1       3.293   4.188  -6.285  1.00  0.00     0.001 A 
BRANCH  21  32
ATOM     32  C   UNL     1      -0.906   5.924   1.357  1.00  0.00     0.052 A 
ATOM     33  C   UNL     1      -0.970   5.961   2.755  1.00  0.00     0.027 A 
ATOM     34  C   UNL     1      -1.742   6.770   0.615  1.00  0.00     0.027 A 
ATOM     35  C   UNL     1      -1.860   6.815   3.403  1.00  0.00     0.002 A 
ATOM     36  C   UNL     1      -2.661   7.596   1.266  1.00  0.00     0.002 A 
ATOM     37  C   UNL     1      -2.717   7.620   2.658  1.00  0.00     0.000 A 
ENDBRANCH  21  32
ENDBRANCH   7   9
ENDBRANCH   6   7
ENDBRANCH   5   6
ENDBRANCH   4   5
ENDBRANCH   3   4
ENDBRANCH   2   3
ENDBRANCH   1   2
BRANCH   1  38
ATOM     38  O   UNL     1      -1.471   0.140  -3.985  1.00  0.00    -0.376 OA
BRANCH  38  39
ATOM     39  C   UNL     1      -2.006  -0.390  -5.179  1.00  0.00     0.202 C 
BRANCH  39  40
ATOM     40  C   UNL     1      -2.012  -1.880  -5.583  1.00  0.00     0.261 C 
BRANCH  40  41
ATOM     41  O   UNL     1      -1.506  -2.848  -4.660  1.00  0.00    -0.460 OA
BRANCH  41  42
ATOM     42  C   UNL     1      -0.208  -3.224  -4.824  1.00  0.00     0.338 C 
ATOM     43  O   UNL     1       0.559  -2.832  -5.685  1.00  0.00    -0.246 OA
BRANCH  42  44
ATOM     44  C   UNL     1       0.198  -3.976  -3.609  1.00  0.00     0.060 A 
ATOM     45  C   UNL     1      -0.527  -5.089  -3.185  1.00  0.00     0.016 A 
ATOM     46  C   UNL     1       1.285  -3.511  -2.849  1.00  0.00     0.016 A 
ATOM     47  C   UNL     1      -0.136  -5.760  -2.022  1.00  0.00     0.010 A 
ATOM     48  C   UNL     1       1.666  -4.176  -1.678  1.00  0.00     0.010 A 
ATOM     49  C   UNL     1       0.980  -5.328  -1.274  1.00  0.00    -0.014 A 
BRANCH  49  50
ATOM     50  C   UNL     1       1.567  -6.251  -0.267  1.00  0.00     0.031 A 
ATOM     51  C   UNL     1       1.427  -6.073   1.212  1.00  0.00     0.074 A 
ATOM     52  C   UNL     1       2.250  -7.309  -0.746  1.00  0.00     0.049 A 
ATOM     53  N   UNL     1       1.705  -6.927   2.165  1.00  0.00    -0.248 NA
ATOM     54  C   UNL     1       0.940  -4.773   1.687  1.00  0.00     0.031 C 
ATOM     55  C   UNL     1       2.529  -7.534  -2.164  1.00  0.00     0.029 A 
ATOM     56  N   UNL     1       2.801  -8.395  -0.116  1.00  0.00    -0.354 N 
ATOM     57  C   UNL     1       1.389  -6.290   3.358  1.00  0.00     0.074 A 
ATOM     58  C   UNL     1       0.973  -4.945   3.005  1.00  0.00     0.031 C 
ATOM     59  C   UNL     1       3.140  -8.716  -2.305  1.00  0.00     0.029 A 
ATOM     60  C   UNL     1       3.319  -9.322  -0.988  1.00  0.00     0.049 A 
ATOM     61  H   UNL     1       2.823  -8.500   0.863  1.00  0.00     0.167 HD
ATOM     62  C   UNL     1       1.416  -6.795   4.619  1.00  0.00     0.034 A 
ATOM     63  C   UNL     1       3.850 -10.542  -0.768  1.00  0.00     0.034 A 
ATOM     64  C   UNL     1       1.878  -8.129   4.945  1.00  0.00     0.049 A 
ATOM     65  C   UNL     1       3.864 -11.090   0.632  1.00  0.00     0.074 A 
ATOM     66  C   UNL     1       1.893  -8.754   6.181  1.00  0.00     0.029 A 
ATOM     67  N   UNL     1       2.422  -9.038   4.044  1.00  0.00    -0.354 N 
ATOM     68  N   UNL     1       3.420 -10.540   1.737  1.00  0.00    -0.248 NA
ATOM     69  C   UNL     1       4.427 -12.434   0.813  1.00  0.00     0.031 C 
ATOM     70  C   UNL     1       2.514  -9.998   6.043  1.00  0.00     0.029 A 
ATOM     71  C   UNL     1       2.812 -10.197   4.705  1.00  0.00     0.049 A 
ATOM     72  H   UNL     1       2.517  -8.883   3.076  1.00  0.00     0.167 HD
ATOM     73  C   UNL     1       3.648 -11.470   2.748  1.00  0.00     0.074 A 
ATOM     74  C   UNL     1       4.221 -12.637   2.108  1.00  0.00     0.031 C 
ATOM     75  C   UNL     1       3.414 -11.357   4.081  1.00  0.00     0.034 A 
BRANCH  62  76
ATOM     76  C   UNL     1       0.896  -5.933   5.752  1.00  0.00     0.023 A 
ATOM     77  C   UNL     1       1.711  -5.622   6.858  1.00  0.00     0.031 A 
ATOM     78  C   UNL     1      -0.454  -5.532   5.798  1.00  0.00     0.131 A 
ATOM     79  C   UNL     1       1.165  -4.955   7.965  1.00  0.00     0.055 A 
ATOM     80  C   UNL     1      -0.979  -4.825   6.880  1.00  0.00     0.041 A 
ATOM     81  F   UNL     1      -1.286  -5.822   4.784  1.00  0.00    -0.206 F 
ATOM     82  C   UNL     1      -0.171  -4.544   7.976  1.00  0.00     0.022 A 
BRANCH  79  83
ATOM     83  S   UNL     1       2.138  -4.667   9.471  1.00  0.00     0.124 S 
ATOM     84  O   UNL     1       2.146  -3.208   9.548  1.00  0.00    -0.237 OA
ATOM     85  O   UNL     1       1.334  -5.340  10.488  1.00  0.00    -0.237 OA
ATOM     86  O   UNL     1       3.428  -5.282   9.179  1.00  0.00    -0.744 OA
ENDBRANCH  79  83
ENDBRANCH  62  76
BRANCH  63  87
ATOM     87  C   UNL     1       4.295 -11.338  -1.947  1.00  0.00     0.023 A 
ATOM     88  C   UNL     1       5.321 -10.862  -2.784  1.00  0.00     0.031 A 
ATOM     89  C   UNL     1       3.584 -12.480  -2.350  1.00  0.00     0.131 A 
ATOM     90  C   UNL     1       5.536 -11.467  -4.028  1.00  0.00     0.055 A 
ATOM     91  C   UNL     1       3.861 -13.130  -3.553  1.00  0.00     0.041 A 
ATOM     92  F   UNL     1       2.585 -12.957  -1.592  1.00  0.00    -0.206 F 
ATOM     93  C   UNL     1       4.825 -12.609  -4.410  1.00  0.00     0.022 A 
BRANCH  90  94
ATOM     94  S   UNL     1       6.622 -10.690  -5.257  1.00  0.00     0.124 S 
ATOM     95  O   UNL     1       7.561 -11.765  -5.560  1.00  0.00    -0.237 OA
ATOM     96  O   UNL     1       5.675 -10.361  -6.320  1.00  0.00    -0.237 OA
ATOM     97  O   UNL     1       7.182  -9.544  -4.548  1.00  0.00    -0.744 OA
ENDBRANCH  90  94
ENDBRANCH  63  87
BRANCH  75  98
ATOM     98  C   UNL     1       3.820 -12.511   4.977  1.00  0.00     0.023 A 
ATOM     99  C   UNL     1       2.865 -13.175   5.772  1.00  0.00     0.031 A 
ATOM    100  C   UNL     1       5.170 -12.883   5.124  1.00  0.00     0.131 A 
ATOM    101  C   UNL     1       3.275 -14.150   6.693  1.00  0.00     0.055 A 
ATOM    102  C   UNL     1       5.566 -13.896   6.000  1.00  0.00     0.041 A 
ATOM    103  F   UNL     1       6.127 -12.275   4.405  1.00  0.00    -0.206 F 
ATOM    104  C   UNL     1       4.618 -14.525   6.800  1.00  0.00     0.022 A 
BRANCH 101 105
ATOM    105  S   UNL     1       2.100 -14.910   7.849  1.00  0.00     0.124 S 
ATOM    106  O   UNL     1       2.170 -16.319   7.469  1.00  0.00    -0.237 OA
ATOM    107  O   UNL     1       2.691 -14.585   9.145  1.00  0.00    -0.237 OA
ATOM    108  O   UNL     1       0.836 -14.246   7.553  1.00  0.00    -0.744 OA
ENDBRANCH 101 105
ENDBRANCH  75  98
ENDBRANCH  49  50
ENDBRANCH  42  44
ENDBRANCH  41  42
ENDBRANCH  40  41
ENDBRANCH  39  40
ENDBRANCH  38  39
ENDBRANCH   1  38
TORSDOF 21
