REMARK SMILES O=C(OCCOCCOCCOC(=O)[C@H]1O[C@@H](Oc2c(-c3cc(O)c(O)c(O)c3)oc3cc(O)cc(O)c3c2=O)[C@H](O)[C@@H](O)[C@@H]1O)c1ccc(-c2c3nc(c(-c4cc(S(=O)(=O)[O-])ccc4F)c4ccc([nH]4)c(-c4cc(S(=O)(=O)[O-])ccc4F)c4nc(c(-c5cc(S(=O)(=O)[O-])ccc5F)c5ccc2[nH]5)C=C4)C=C3)cc1
REMARK SMILES IDX 8 1 7 2 6 3 5 4 4 5 3 6 2 7 1 8 47 9 48 10 109 11 49 12
REMARK SMILES IDX 108 13 50 14 51 15 52 16 102 17 53 18 107 19 101 20 103 21
REMARK SMILES IDX 54 22 106 23 100 24 99 25 55 27 87 28 67 29 86 30 68 31
REMARK SMILES IDX 71 32 85 33 104 34 69 35 70 36 84 38 105 39 72 40 56 41
REMARK SMILES IDX 57 42 65 43 58 44 64 45 66 46 63 47 59 48 60 49 61 50 62 51
REMARK SMILES IDX 88 52 89 53 97 54 90 55 96 56 98 57 95 58 91 59 92 60 93 61
REMARK SMILES IDX 94 62 73 63 74 64 82 65 75 66 81 67 83 68 80 69 76 70 77 71
REMARK SMILES IDX 78 72 79 73 9 74 10 75 11 76 12 77 13 78 14 79 15 80 16 81
REMARK SMILES IDX 45 82 17 83 43 84 41 85 46 86 18 88 19 89 20 90 39 91 30 92
REMARK SMILES IDX 38 93 40 94 31 95 36 96 32 97 35 98 33 99 21 100 22 101
REMARK SMILES IDX 29 102 23 103 27 104 25 105 24 106 28 108 26 110 37 112
REMARK SMILES IDX 34 114 44 116 42 118
REMARK H PARENT 103 26 71 37 46 87 24 107 28 109 26 111 37 113 34 115 44 117
REMARK H PARENT 42 119
REMARK Flexibility Score: inf
ROOT
ATOM      1  C   UNL     1       5.524   4.536   3.742  1.00  0.00     0.188 C 
ENDROOT
BRANCH   1   2
ATOM      2  C   UNL     1       4.870   5.371   4.845  1.00  0.00     0.188 C 
BRANCH   2   3
ATOM      3  O   UNL     1       4.313   6.588   4.331  1.00  0.00    -0.376 OA
BRANCH   3   4
ATOM      4  C   UNL     1       4.369   7.686   5.247  1.00  0.00     0.202 C 
BRANCH   4   5
ATOM      5  C   UNL     1       3.254   7.710   6.301  1.00  0.00     0.261 C 
BRANCH   5   6
ATOM      6  O   UNL     1       2.849   6.389   6.697  1.00  0.00    -0.460 OA
BRANCH   6   7
ATOM      7  C   UNL     1       1.748   5.716   6.273  1.00  0.00     0.338 C 
ATOM      8  O   UNL     1       1.467   4.644   6.805  1.00  0.00    -0.246 OA
BRANCH   7   9
ATOM      9  C   UNL     1       0.824   6.258   5.233  1.00  0.00     0.060 A 
ATOM     10  C   UNL     1       1.215   7.077   4.176  1.00  0.00     0.016 A 
ATOM     11  C   UNL     1      -0.527   5.904   5.319  1.00  0.00     0.016 A 
ATOM     12  C   UNL     1       0.279   7.691   3.350  1.00  0.00     0.010 A 
ATOM     13  C   UNL     1      -1.457   6.418   4.409  1.00  0.00     0.010 A 
ATOM     14  C   UNL     1      -1.070   7.367   3.449  1.00  0.00    -0.014 A 
BRANCH  14  15
ATOM     15  C   UNL     1      -2.076   8.099   2.634  1.00  0.00     0.031 A 
ATOM     16  C   UNL     1      -3.183   8.831   3.342  1.00  0.00     0.074 A 
ATOM     17  C   UNL     1      -1.990   8.154   1.290  1.00  0.00     0.049 A 
ATOM     18  N   UNL     1      -4.262   9.385   2.856  1.00  0.00    -0.248 NA
ATOM     19  C   UNL     1      -3.054   8.940   4.803  1.00  0.00     0.031 C 
ATOM     20  C   UNL     1      -0.917   7.573   0.481  1.00  0.00     0.029 A 
ATOM     21  N   UNL     1      -2.830   8.713   0.359  1.00  0.00    -0.354 N 
ATOM     22  C   UNL     1      -4.946   9.893   3.956  1.00  0.00     0.074 A 
ATOM     23  C   UNL     1      -4.206   9.495   5.133  1.00  0.00     0.031 C 
ATOM     24  C   UNL     1      -1.177   7.780  -0.818  1.00  0.00     0.029 A 
ATOM     25  C   UNL     1      -2.470   8.432  -0.938  1.00  0.00     0.049 A 
ATOM     26  H   UNL     1      -3.614   9.261   0.596  1.00  0.00     0.167 HD
ATOM     27  C   UNL     1      -6.063  10.662   3.982  1.00  0.00     0.034 A 
ATOM     28  C   UNL     1      -3.129   8.621  -2.095  1.00  0.00     0.034 A 
ATOM     29  C   UNL     1      -6.771  11.064   2.793  1.00  0.00     0.049 A 
ATOM     30  C   UNL     1      -4.442   9.341  -2.054  1.00  0.00     0.074 A 
ATOM     31  C   UNL     1      -7.911  11.838   2.679  1.00  0.00     0.029 A 
ATOM     32  N   UNL     1      -6.394  10.718   1.500  1.00  0.00    -0.354 N 
ATOM     33  N   UNL     1      -5.106   9.773  -1.007  1.00  0.00    -0.248 NA
ATOM     34  C   UNL     1      -5.080   9.624  -3.343  1.00  0.00     0.031 C 
ATOM     35  C   UNL     1      -8.250  11.918   1.322  1.00  0.00     0.029 A 
ATOM     36  C   UNL     1      -7.289  11.244   0.583  1.00  0.00     0.049 A 
ATOM     37  H   UNL     1      -5.604  10.177   1.269  1.00  0.00     0.167 HD
ATOM     38  C   UNL     1      -6.216  10.436  -1.515  1.00  0.00     0.074 A 
ATOM     39  C   UNL     1      -6.139  10.321  -2.960  1.00  0.00     0.031 C 
ATOM     40  C   UNL     1      -7.194  11.102  -0.850  1.00  0.00     0.034 A 
BRANCH  27  41
ATOM     41  C   UNL     1      -6.572  11.060   5.347  1.00  0.00     0.023 A 
ATOM     42  C   UNL     1      -5.787  11.831   6.225  1.00  0.00     0.031 A 
ATOM     43  C   UNL     1      -7.790  10.553   5.829  1.00  0.00     0.131 A 
ATOM     44  C   UNL     1      -6.162  11.959   7.570  1.00  0.00     0.055 A 
ATOM     45  C   UNL     1      -8.207  10.772   7.144  1.00  0.00     0.041 A 
ATOM     46  F   UNL     1      -8.573   9.795   5.046  1.00  0.00    -0.206 F 
ATOM     47  C   UNL     1      -7.379  11.455   8.031  1.00  0.00     0.022 A 
BRANCH  44  48
ATOM     48  S   UNL     1      -4.939  12.602   8.748  1.00  0.00     0.124 S 
ATOM     49  O   UNL     1      -3.849  11.641   8.593  1.00  0.00    -0.237 OA
ATOM     50  O   UNL     1      -4.682  13.944   8.235  1.00  0.00    -0.237 OA
ATOM     51  O   UNL     1      -5.633  12.545  10.031  1.00  0.00    -0.744 OA
ENDBRANCH  44  48
ENDBRANCH  27  41
BRANCH  28  52
ATOM     52  C   UNL     1      -2.581   8.074  -3.366  1.00  0.00     0.023 A 
ATOM     53  C   UNL     1      -2.107   8.920  -4.379  1.00  0.00     0.031 A 
ATOM     54  C   UNL     1      -2.540   6.683  -3.584  1.00  0.00     0.131 A 
ATOM     55  C   UNL     1      -1.641   8.371  -5.583  1.00  0.00     0.055 A 
ATOM     56  C   UNL     1      -2.033   6.141  -4.767  1.00  0.00     0.041 A 
ATOM     57  F   UNL     1      -2.991   5.832  -2.644  1.00  0.00    -0.206 F 
ATOM     58  C   UNL     1      -1.589   6.988  -5.779  1.00  0.00     0.022 A 
BRANCH  55  59
ATOM     59  S   UNL     1      -1.163   9.499  -6.920  1.00  0.00     0.124 S 
ATOM     60  O   UNL     1      -2.381  10.281  -7.098  1.00  0.00    -0.237 OA
ATOM     61  O   UNL     1      -0.030  10.203  -6.327  1.00  0.00    -0.237 OA
ATOM     62  O   UNL     1      -0.830   8.599  -8.022  1.00  0.00    -0.744 OA
ENDBRANCH  55  59
ENDBRANCH  28  52
BRANCH  40  63
ATOM     63  C   UNL     1      -8.211  11.807  -1.704  1.00  0.00     0.023 A 
ATOM     64  C   UNL     1      -9.142  11.095  -2.477  1.00  0.00     0.031 A 
ATOM     65  C   UNL     1      -8.207  13.210  -1.784  1.00  0.00     0.131 A 
ATOM     66  C   UNL     1      -9.988  11.789  -3.353  1.00  0.00     0.055 A 
ATOM     67  C   UNL     1      -9.095  13.898  -2.610  1.00  0.00     0.041 A 
ATOM     68  F   UNL     1      -7.329  13.932  -1.069  1.00  0.00    -0.206 F 
ATOM     69  C   UNL     1      -9.982  13.185  -3.412  1.00  0.00     0.022 A 
BRANCH  66  70
ATOM     70  S   UNL     1     -11.020  10.829  -4.493  1.00  0.00     0.124 S 
ATOM     71  O   UNL     1     -10.018  10.084  -5.248  1.00  0.00    -0.237 OA
ATOM     72  O   UNL     1     -11.844  10.043  -3.581  1.00  0.00    -0.237 OA
ATOM     73  O   UNL     1     -11.735  11.854  -5.251  1.00  0.00    -0.744 OA
ENDBRANCH  66  70
ENDBRANCH  40  63
ENDBRANCH  14  15
ENDBRANCH   7   9
ENDBRANCH   6   7
ENDBRANCH   5   6
ENDBRANCH   4   5
ENDBRANCH   3   4
ENDBRANCH   2   3
ENDBRANCH   1   2
BRANCH   1  74
ATOM     74  O   UNL     1       6.691   5.101   3.136  1.00  0.00    -0.376 OA
BRANCH  74  75
ATOM     75  C   UNL     1       6.559   6.386   2.537  1.00  0.00     0.202 C 
BRANCH  75  76
ATOM     76  C   UNL     1       5.740   6.499   1.242  1.00  0.00     0.261 C 
BRANCH  76  77
ATOM     77  O   UNL     1       4.477   5.817   1.238  1.00  0.00    -0.461 OA
BRANCH  77  78
ATOM     78  C   UNL     1       4.498   4.627   0.575  1.00  0.00     0.338 C 
ATOM     79  O   UNL     1       5.521   4.078   0.166  1.00  0.00    -0.249 OA
BRANCH  78  80
ATOM     80  C   UNL     1       3.115   4.004   0.362  1.00  0.00     0.263 C 
ATOM     81  O   UNL     1       2.466   3.302   1.440  1.00  0.00    -0.322 OA
ATOM     82  C   UNL     1       2.103   4.985  -0.238  1.00  0.00     0.186 C 
ATOM     83  C   UNL     1       1.516   2.361   0.898  1.00  0.00     0.340 C 
ATOM     84  C   UNL     1       1.062   4.117  -0.946  1.00  0.00     0.181 C 
ATOM     85  C   UNL     1       0.483   3.050  -0.024  1.00  0.00     0.214 C 
BRANCH  82  86
ATOM     86  O   UNL     1       2.667   5.877  -1.197  1.00  0.00    -0.387 OA
ATOM     87  H   UNL     1       3.041   5.367  -1.932  1.00  0.00     0.211 HD
ENDBRANCH  82  86
BRANCH  83  88
ATOM     88  O   UNL     1       0.846   1.475   1.826  1.00  0.00    -0.454 OA
BRANCH  88  89
ATOM     89  C   UNL     1       0.329   1.917   3.026  1.00  0.00     0.214 A 
ATOM     90  C   UNL     1      -0.959   2.288   3.215  1.00  0.00     0.181 A 
ATOM     91  C   UNL     1       1.151   1.656   4.258  1.00  0.00     0.239 A 
ATOM     92  O   UNL     1      -1.521   2.591   4.440  1.00  0.00    -0.452 OA
ATOM     93  C   UNL     1       0.455   1.752   5.569  1.00  0.00     0.111 A 
ATOM     94  O   UNL     1       2.335   1.351   4.159  1.00  0.00    -0.285 OA
ATOM     95  C   UNL     1      -0.848   2.243   5.576  1.00  0.00     0.146 A 
ATOM     96  C   UNL     1       1.038   1.398   6.796  1.00  0.00     0.134 A 
ATOM     97  C   UNL     1      -1.552   2.420   6.772  1.00  0.00     0.094 A 
ATOM     98  C   UNL     1       0.345   1.583   8.002  1.00  0.00     0.093 A 
ATOM     99  C   UNL     1      -0.942   2.107   7.976  1.00  0.00     0.123 A 
BRANCH  90 100
ATOM    100  C   UNL     1      -1.939   2.493   2.132  1.00  0.00     0.029 A 
ATOM    101  C   UNL     1      -2.400   3.801   1.900  1.00  0.00     0.062 A 
ATOM    102  C   UNL     1      -2.384   1.460   1.298  1.00  0.00     0.062 A 
ATOM    103  C   UNL     1      -3.190   4.091   0.794  1.00  0.00     0.162 A 
ATOM    104  C   UNL     1      -3.192   1.767   0.203  1.00  0.00     0.162 A 
ATOM    105  C   UNL     1      -3.554   3.083  -0.079  1.00  0.00     0.200 A 
BRANCH 103 106
ATOM    106  O   UNL     1      -3.522   5.390   0.582  1.00  0.00    -0.504 OA
ATOM    107  H   UNL     1      -3.258   6.048   1.195  1.00  0.00     0.293 HD
ENDBRANCH 103 106
BRANCH 104 108
ATOM    108  O   UNL     1      -3.568   0.768  -0.651  1.00  0.00    -0.504 OA
ATOM    109  H   UNL     1      -4.111   0.962  -1.390  1.00  0.00     0.293 HD
ENDBRANCH 104 108
BRANCH 105 110
ATOM    110  O   UNL     1      -4.188   3.348  -1.261  1.00  0.00    -0.502 OA
ATOM    111  H   UNL     1      -4.440   4.226  -1.471  1.00  0.00     0.293 HD
ENDBRANCH 105 110
ENDBRANCH  90 100
BRANCH  96 112
ATOM    112  O   UNL     1       2.283   0.835   6.852  1.00  0.00    -0.507 OA
ATOM    113  H   UNL     1       2.656   0.605   7.680  1.00  0.00     0.293 HD
ENDBRANCH  96 112
BRANCH  99 114
ATOM    114  O   UNL     1      -1.649   2.323   9.122  1.00  0.00    -0.508 OA
ATOM    115  H   UNL     1      -2.515   2.678   9.079  1.00  0.00     0.293 HD
ENDBRANCH  99 114
ENDBRANCH  88  89
ENDBRANCH  83  88
BRANCH  84 116
ATOM    116  O   UNL     1       0.011   4.926  -1.493  1.00  0.00    -0.387 OA
ATOM    117  H   UNL     1      -0.451   5.386  -0.775  1.00  0.00     0.211 HD
ENDBRANCH  84 116
BRANCH  85 118
ATOM    118  O   UNL     1      -0.188   2.082  -0.839  1.00  0.00    -0.384 OA
ATOM    119  H   UNL     1       0.452   1.660  -1.433  1.00  0.00     0.211 HD
ENDBRANCH  85 118
ENDBRANCH  78  80
ENDBRANCH  77  78
ENDBRANCH  76  77
ENDBRANCH  75  76
ENDBRANCH  74  75
ENDBRANCH   1  74
TORSDOF 31
