REMARK SMILES CC[C@](C)(NC(=O)CCOc1ccc(Cl)c(Cl)c1)C(=O)OCCOCCOCCOC(=O)c1ccc(-c2c3nc(c(-c4cc(S(=O)(=O)[O-])ccc4F)c4ccc([nH]4)c(-c4cc(S(=O)(=O)[O-])ccc4F)c4nc(c(-c5cc(S(=O)(=O)[O-])ccc5F)c5ccc2[nH]5)C=C4)C=C3)cc1
REMARK SMILES IDX 25 1 24 2 23 3 22 4 21 5 19 6 20 7 3 8 4 9 2 10 1 11 5 12
REMARK SMILES IDX 6 13 7 15 8 16 9 17 10 18 11 19 12 20 18 21 13 22 16 23
REMARK SMILES IDX 14 24 17 25 15 26 26 27 27 28 28 29 29 30 30 31 31 32 32 33
REMARK SMILES IDX 33 34 34 35 95 36 35 37 94 38 36 39 37 40 38 41 88 42 39 43
REMARK SMILES IDX 93 44 87 45 89 46 40 47 92 48 86 49 85 50 41 52 73 53 53 54
REMARK SMILES IDX 72 55 54 56 57 57 71 58 90 59 55 60 56 61 70 63 91 64 58 65
REMARK SMILES IDX 42 66 43 67 51 68 44 69 50 70 52 71 49 72 45 73 46 74 47 75
REMARK SMILES IDX 48 76 74 77 75 78 83 79 76 80 82 81 84 82 81 83 77 84 78 85
REMARK SMILES IDX 79 86 80 87 59 88 60 89 68 90 61 91 67 92 69 93 66 94 62 95
REMARK SMILES IDX 63 96 64 97 65 98
REMARK H PARENT 5 14 89 51 57 62
REMARK Flexibility Score: inf
ROOT
ATOM      1  C   UNL     1       4.647   1.367  -2.183  1.00  0.00     0.188 C 
ENDROOT
BRANCH   1   2
ATOM      2  O   UNL     1       5.217   0.263  -2.890  1.00  0.00    -0.376 OA
BRANCH   2   3
ATOM      3  C   UNL     1       5.354  -0.890  -2.046  1.00  0.00     0.202 C 
BRANCH   3   4
ATOM      4  C   UNL     1       4.796  -2.144  -2.735  1.00  0.00     0.261 C 
BRANCH   4   5
ATOM      5  O   UNL     1       3.349  -2.140  -2.812  1.00  0.00    -0.462 OA
BRANCH   5   6
ATOM      6  C   UNL     1       2.677  -2.595  -1.721  1.00  0.00     0.331 C 
ATOM      7  O   UNL     1       3.252  -2.993  -0.712  1.00  0.00    -0.249 OA
BRANCH   6   8
ATOM      8  C   UNL     1       1.135  -2.336  -1.791  1.00  0.00     0.135 C 
ATOM      9  C   UNL     1       0.909  -1.075  -0.934  1.00  0.00     0.047 C 
BRANCH   8  10
ATOM     10  C   UNL     1       0.425  -3.546  -1.082  1.00  0.00     0.037 C 
ATOM     11  C   UNL     1      -0.940  -3.209  -0.469  1.00  0.00     0.007 C 
ENDBRANCH   8  10
BRANCH   8  12
ATOM     12  N   UNL     1       0.444  -2.279  -3.130  1.00  0.00    -0.340 N 
ATOM     13  C   UNL     1       0.512  -1.725  -4.353  1.00  0.00     0.224 C 
ATOM     14  H   UNL     1      -0.349  -2.863  -3.096  1.00  0.00     0.164 HD
ATOM     15  O   UNL     1      -0.435  -1.988  -5.107  1.00  0.00    -0.275 OA
BRANCH  13  16
ATOM     16  C   UNL     1       1.669  -0.951  -4.894  1.00  0.00     0.141 C 
BRANCH  16  17
ATOM     17  C   UNL     1       2.024   0.251  -4.063  1.00  0.00     0.239 C 
BRANCH  17  18
ATOM     18  O   UNL     1       1.231   1.414  -4.328  1.00  0.00    -0.493 OA
BRANCH  18  19
ATOM     19  C   UNL     1       0.057   1.420  -3.632  1.00  0.00     0.120 A 
ATOM     20  C   UNL     1      -1.091   1.020  -4.305  1.00  0.00     0.048 A 
ATOM     21  C   UNL     1      -0.015   1.865  -2.313  1.00  0.00     0.068 A 
ATOM     22  C   UNL     1      -2.308   0.960  -3.632  1.00  0.00     0.026 A 
ATOM     23  C   UNL     1      -1.242   1.823  -1.638  1.00  0.00     0.063 A 
ATOM     24  C   UNL     1      -2.387   1.349  -2.293  1.00  0.00     0.059 A 
ATOM     25  Cl  UNL     1      -1.266   2.309   0.019  1.00  0.00    -0.083 Cl
ATOM     26  Cl  UNL     1      -3.917   1.192  -1.508  1.00  0.00    -0.083 Cl
ENDBRANCH  18  19
ENDBRANCH  17  18
ENDBRANCH  16  17
ENDBRANCH  13  16
ENDBRANCH   8  12
ENDBRANCH   6   8
ENDBRANCH   5   6
ENDBRANCH   4   5
ENDBRANCH   3   4
ENDBRANCH   2   3
ENDBRANCH   1   2
BRANCH   1  27
ATOM     27  C   UNL     1       4.539   2.633  -3.033  1.00  0.00     0.188 C 
BRANCH  27  28
ATOM     28  O   UNL     1       4.008   2.407  -4.331  1.00  0.00    -0.376 OA
BRANCH  28  29
ATOM     29  C   UNL     1       4.948   2.387  -5.402  1.00  0.00     0.202 C 
BRANCH  29  30
ATOM     30  C   UNL     1       5.479   3.779  -5.791  1.00  0.00     0.261 C 
BRANCH  30  31
ATOM     31  O   UNL     1       4.894   4.828  -5.011  1.00  0.00    -0.460 OA
BRANCH  31  32
ATOM     32  C   UNL     1       3.567   5.016  -5.244  1.00  0.00     0.338 C 
ATOM     33  O   UNL     1       2.963   4.689  -6.254  1.00  0.00    -0.246 OA
BRANCH  32  34
ATOM     34  C   UNL     1       2.937   5.478  -3.980  1.00  0.00     0.060 A 
ATOM     35  C   UNL     1       1.646   5.026  -3.681  1.00  0.00     0.016 A 
ATOM     36  C   UNL     1       3.626   6.280  -3.061  1.00  0.00     0.016 A 
ATOM     37  C   UNL     1       1.020   5.422  -2.496  1.00  0.00     0.010 A 
ATOM     38  C   UNL     1       3.001   6.676  -1.874  1.00  0.00     0.010 A 
ATOM     39  C   UNL     1       1.677   6.286  -1.608  1.00  0.00    -0.014 A 
BRANCH  39  40
ATOM     40  C   UNL     1       0.884   7.014  -0.584  1.00  0.00     0.031 A 
ATOM     41  C   UNL     1       0.349   8.369  -0.971  1.00  0.00     0.074 A 
ATOM     42  C   UNL     1       0.599   6.490   0.622  1.00  0.00     0.049 A 
ATOM     43  N   UNL     1      -0.342   9.228  -0.269  1.00  0.00    -0.248 NA
ATOM     44  C   UNL     1       0.641   8.810  -2.345  1.00  0.00     0.031 C 
ATOM     45  C   UNL     1       1.010   5.170   1.092  1.00  0.00     0.029 A 
ATOM     46  N   UNL     1      -0.112   7.014   1.675  1.00  0.00    -0.354 N 
ATOM     47  C   UNL     1      -0.583  10.301  -1.122  1.00  0.00     0.074 A 
ATOM     48  C   UNL     1       0.086  10.010  -2.370  1.00  0.00     0.031 C 
ATOM     49  C   UNL     1       0.548   4.989   2.344  1.00  0.00     0.029 A 
ATOM     50  C   UNL     1      -0.159   6.193   2.779  1.00  0.00     0.049 A 
ATOM     51  H   UNL     1      -0.548   7.896   1.643  1.00  0.00     0.167 HD
ATOM     52  C   UNL     1      -1.309  11.421  -0.895  1.00  0.00     0.034 A 
ATOM     53  C   UNL     1      -0.691   6.404   4.003  1.00  0.00     0.034 A 
ATOM     54  C   UNL     1      -1.940  11.720   0.365  1.00  0.00     0.049 A 
ATOM     55  C   UNL     1      -1.403   7.714   4.271  1.00  0.00     0.074 A 
ATOM     56  C   UNL     1      -2.659  12.846   0.725  1.00  0.00     0.029 A 
ATOM     57  N   UNL     1      -1.919  10.889   1.478  1.00  0.00    -0.354 N 
ATOM     58  N   UNL     1      -1.608   8.731   3.462  1.00  0.00    -0.248 NA
ATOM     59  C   UNL     1      -1.966   7.900   5.616  1.00  0.00     0.031 C 
ATOM     60  C   UNL     1      -3.012  12.727   2.074  1.00  0.00     0.029 A 
ATOM     61  C   UNL     1      -2.590  11.489   2.533  1.00  0.00     0.049 A 
ATOM     62  H   UNL     1      -1.491  10.004   1.513  1.00  0.00     0.167 HD
ATOM     63  C   UNL     1      -2.347   9.660   4.195  1.00  0.00     0.074 A 
ATOM     64  C   UNL     1      -2.576   9.069   5.497  1.00  0.00     0.031 C 
ATOM     65  C   UNL     1      -2.795  10.891   3.831  1.00  0.00     0.034 A 
BRANCH  52  66
ATOM     66  C   UNL     1      -1.400  12.418  -2.024  1.00  0.00     0.023 A 
ATOM     67  C   UNL     1      -2.032  12.099  -3.240  1.00  0.00     0.031 A 
ATOM     68  C   UNL     1      -0.800  13.684  -1.906  1.00  0.00     0.131 A 
ATOM     69  C   UNL     1      -1.986  13.004  -4.311  1.00  0.00     0.055 A 
ATOM     70  C   UNL     1      -0.831  14.612  -2.947  1.00  0.00     0.041 A 
ATOM     71  F   UNL     1      -0.155  14.032  -0.781  1.00  0.00    -0.206 F 
ATOM     72  C   UNL     1      -1.414  14.270  -4.164  1.00  0.00     0.022 A 
BRANCH  69  73
ATOM     73  S   UNL     1      -2.554  12.450  -5.943  1.00  0.00     0.124 S 
ATOM     74  O   UNL     1      -1.658  11.326  -6.200  1.00  0.00    -0.237 OA
ATOM     75  O   UNL     1      -3.951  12.113  -5.694  1.00  0.00    -0.237 OA
ATOM     76  O   UNL     1      -2.337  13.618  -6.795  1.00  0.00    -0.744 OA
ENDBRANCH  69  73
ENDBRANCH  52  66
BRANCH  53  77
ATOM     77  C   UNL     1      -0.526   5.398   5.100  1.00  0.00     0.023 A 
ATOM     78  C   UNL     1      -1.631   4.809   5.739  1.00  0.00     0.031 A 
ATOM     79  C   UNL     1       0.755   5.087   5.594  1.00  0.00     0.131 A 
ATOM     80  C   UNL     1      -1.438   3.993   6.868  1.00  0.00     0.055 A 
ATOM     81  C   UNL     1       0.944   4.225   6.676  1.00  0.00     0.041 A 
ATOM     82  F   UNL     1       1.849   5.627   5.034  1.00  0.00    -0.206 F 
ATOM     83  C   UNL     1      -0.158   3.686   7.330  1.00  0.00     0.022 A 
BRANCH  80  84
ATOM     84  S   UNL     1      -2.891   3.431   7.803  1.00  0.00     0.124 S 
ATOM     85  O   UNL     1      -3.534   4.695   8.142  1.00  0.00    -0.237 OA
ATOM     86  O   UNL     1      -3.581   2.602   6.821  1.00  0.00    -0.237 OA
ATOM     87  O   UNL     1      -2.309   2.704   8.930  1.00  0.00    -0.744 OA
ENDBRANCH  80  84
ENDBRANCH  53  77
BRANCH  65  88
ATOM     88  C   UNL     1      -3.610  11.654   4.851  1.00  0.00     0.023 A 
ATOM     89  C   UNL     1      -3.061  12.069   6.077  1.00  0.00     0.031 A 
ATOM     90  C   UNL     1      -4.965  11.943   4.607  1.00  0.00     0.131 A 
ATOM     91  C   UNL     1      -3.880  12.671   7.044  1.00  0.00     0.055 A 
ATOM     92  C   UNL     1      -5.756  12.612   5.542  1.00  0.00     0.041 A 
ATOM     93  F   UNL     1      -5.547  11.573   3.454  1.00  0.00    -0.206 F 
ATOM     94  C   UNL     1      -5.220  12.963   6.777  1.00  0.00     0.022 A 
BRANCH  91  95
ATOM     95  S   UNL     1      -3.204  12.945   8.705  1.00  0.00     0.124 S 
ATOM     96  O   UNL     1      -2.761  11.605   9.077  1.00  0.00    -0.237 OA
ATOM     97  O   UNL     1      -2.147  13.919   8.455  1.00  0.00    -0.237 OA
ATOM     98  O   UNL     1      -4.348  13.453   9.461  1.00  0.00    -0.744 OA
ENDBRANCH  91  95
ENDBRANCH  65  88
ENDBRANCH  39  40
ENDBRANCH  32  34
ENDBRANCH  31  32
ENDBRANCH  30  31
ENDBRANCH  29  30
ENDBRANCH  28  29
ENDBRANCH  27  28
ENDBRANCH   1  27
TORSDOF 26
