REMARK SMILES Cc1nnc(SCC(=O)Nc2cccc(C(=O)OCCOCCOCCOC(=O)c3ccc(-c4c5nc(c(-c6cc(S(=O)(=O)[O-])ccc6F)c6ccc([nH]6)c(-c6cc(S(=O)(=O)[O-])ccc6F)c6nc(c(-c7cc(S(=O)(=O)[O-])ccc7F)c7ccc4[nH]7)C=C6)C=C5)cc3)c2)n1-c1ccccc1
REMARK SMILES IDX 22 1 21 2 20 3 19 4 18 5 16 6 17 7 15 8 11 9 12 10 93 11
REMARK SMILES IDX 13 12 14 13 10 14 8 15 9 16 7 18 6 19 5 20 1 21 2 22 3 23
REMARK SMILES IDX 94 24 4 25 95 26 96 27 100 28 97 29 99 30 98 31 23 32 24 33
REMARK SMILES IDX 25 34 26 35 27 36 28 37 29 38 30 39 31 40 92 41 32 42 91 43
REMARK SMILES IDX 33 44 34 45 35 46 85 47 36 48 90 49 84 50 86 51 37 52 89 53
REMARK SMILES IDX 83 54 82 55 38 57 70 58 50 59 69 60 51 61 54 62 68 63 87 64
REMARK SMILES IDX 52 65 53 66 67 68 88 69 55 70 39 71 40 72 48 73 41 74 47 75
REMARK SMILES IDX 49 76 46 77 42 78 43 79 44 80 45 81 71 82 72 83 80 84 73 85
REMARK SMILES IDX 79 86 81 87 78 88 74 89 75 90 76 91 77 92 56 93 57 94 65 95
REMARK SMILES IDX 58 96 64 97 66 98 63 99 59 100 60 101 61 102 62 103
REMARK H PARENT 10 17 86 56 54 67
REMARK Flexibility Score: inf
ROOT
ATOM      1  C   UNL     1      -1.635   8.247   3.386  1.00  0.00     0.188 C 
ENDROOT
BRANCH   1   2
ATOM      2  O   UNL     1      -2.704   8.797   2.623  1.00  0.00    -0.376 OA
BRANCH   2   3
ATOM      3  C   UNL     1      -2.963   8.316   1.315  1.00  0.00     0.202 C 
BRANCH   3   4
ATOM      4  C   UNL     1      -1.873   8.495   0.247  1.00  0.00     0.261 C 
BRANCH   4   5
ATOM      5  O   UNL     1      -0.550   8.168   0.692  1.00  0.00    -0.460 OA
BRANCH   5   6
ATOM      6  C   UNL     1       0.318   9.194   0.863  1.00  0.00     0.338 C 
ATOM      7  O   UNL     1       0.151  10.361   0.560  1.00  0.00    -0.246 OA
BRANCH   6   8
ATOM      8  C   UNL     1       1.495   8.709   1.628  1.00  0.00     0.062 A 
ATOM      9  C   UNL     1       2.992   6.929   2.288  1.00  0.00     0.042 A 
ATOM     10  C   UNL     1       3.518   7.752   3.287  1.00  0.00     0.026 A 
ATOM     11  C   UNL     1       1.955   7.397   1.492  1.00  0.00     0.041 A 
ATOM     12  C   UNL     1       3.084   9.072   3.411  1.00  0.00     0.003 A 
ATOM     13  C   UNL     1       2.087   9.559   2.567  1.00  0.00     0.016 A 
BRANCH   9  14
ATOM     14  N   UNL     1       3.549   5.658   2.164  1.00  0.00    -0.325 N 
ATOM     15  C   UNL     1       3.767   4.871   1.078  1.00  0.00     0.234 C 
ATOM     16  O   UNL     1       4.474   3.881   1.298  1.00  0.00    -0.274 OA
ATOM     17  H   UNL     1       3.836   5.258   3.016  1.00  0.00     0.169 HD
BRANCH  15  18
ATOM     18  C   UNL     1       3.411   5.261  -0.342  1.00  0.00     0.178 C 
BRANCH  18  19
ATOM     19  S   UNL     1       1.769   4.881  -0.975  1.00  0.00    -0.076 SA
BRANCH  19  20
ATOM     20  C   UNL     1       1.174   3.481  -0.158  1.00  0.00     0.196 A 
ATOM     21  C   UNL     1       0.710  -0.089   0.255  1.00  0.00     0.090 C 
ATOM     22  C   UNL     1       0.696   1.390   0.288  1.00  0.00     0.135 A 
ATOM     23  N   UNL     1      -0.246   2.148   0.813  1.00  0.00    -0.134 NA
ATOM     24  N   UNL     1       1.638   2.195  -0.320  1.00  0.00    -0.274 N 
ATOM     25  N   UNL     1       0.053   3.459   0.527  1.00  0.00    -0.123 NA
BRANCH  24  26
ATOM     26  C   UNL     1       2.829   1.790  -0.938  1.00  0.00     0.049 A 
ATOM     27  C   UNL     1       3.946   1.583  -0.131  1.00  0.00     0.027 A 
ATOM     28  C   UNL     1       2.929   1.806  -2.329  1.00  0.00     0.027 A 
ATOM     29  C   UNL     1       5.205   1.512  -0.720  1.00  0.00     0.002 A 
ATOM     30  C   UNL     1       4.188   1.667  -2.911  1.00  0.00     0.002 A 
ATOM     31  C   UNL     1       5.326   1.557  -2.108  1.00  0.00     0.000 A 
ENDBRANCH  24  26
ENDBRANCH  19  20
ENDBRANCH  18  19
ENDBRANCH  15  18
ENDBRANCH   9  14
ENDBRANCH   6   8
ENDBRANCH   5   6
ENDBRANCH   4   5
ENDBRANCH   3   4
ENDBRANCH   2   3
ENDBRANCH   1   2
BRANCH   1  32
ATOM     32  C   UNL     1      -1.147   6.789   3.217  1.00  0.00     0.188 C 
BRANCH  32  33
ATOM     33  O   UNL     1      -1.845   6.004   2.264  1.00  0.00    -0.376 OA
BRANCH  33  34
ATOM     34  C   UNL     1      -2.395   4.785   2.760  1.00  0.00     0.202 C 
BRANCH  34  35
ATOM     35  C   UNL     1      -3.728   5.001   3.472  1.00  0.00     0.261 C 
BRANCH  35  36
ATOM     36  O   UNL     1      -3.665   5.982   4.502  1.00  0.00    -0.460 OA
BRANCH  36  37
ATOM     37  C   UNL     1      -2.891   5.674   5.564  1.00  0.00     0.338 C 
ATOM     38  O   UNL     1      -2.162   4.709   5.688  1.00  0.00    -0.246 OA
BRANCH  37  39
ATOM     39  C   UNL     1      -3.106   6.693   6.599  1.00  0.00     0.060 A 
ATOM     40  C   UNL     1      -2.395   6.532   7.789  1.00  0.00     0.016 A 
ATOM     41  C   UNL     1      -4.183   7.586   6.486  1.00  0.00     0.016 A 
ATOM     42  C   UNL     1      -2.936   7.057   8.938  1.00  0.00     0.010 A 
ATOM     43  C   UNL     1      -4.735   8.092   7.636  1.00  0.00     0.010 A 
ATOM     44  C   UNL     1      -4.161   7.723   8.850  1.00  0.00    -0.014 A 
BRANCH  44  45
ATOM     45  C   UNL     1      -4.880   7.949  10.081  1.00  0.00     0.031 A 
ATOM     46  C   UNL     1      -4.444   9.124  10.845  1.00  0.00     0.074 A 
ATOM     47  C   UNL     1      -5.916   7.173  10.446  1.00  0.00     0.049 A 
ATOM     48  N   UNL     1      -3.870   9.143  11.998  1.00  0.00    -0.248 NA
ATOM     49  C   UNL     1      -4.527  10.431  10.181  1.00  0.00     0.031 C 
ATOM     50  C   UNL     1      -6.606   6.169   9.630  1.00  0.00     0.029 A 
ATOM     51  N   UNL     1      -6.649   7.210  11.591  1.00  0.00    -0.354 N 
ATOM     52  C   UNL     1      -3.734  10.486  12.316  1.00  0.00     0.074 A 
ATOM     53  C   UNL     1      -3.948  11.210  11.093  1.00  0.00     0.031 C 
ATOM     54  C   UNL     1      -7.782   5.863  10.220  1.00  0.00     0.029 A 
ATOM     55  C   UNL     1      -7.870   6.560  11.493  1.00  0.00     0.049 A 
ATOM     56  H   UNL     1      -6.341   7.657  12.412  1.00  0.00     0.167 HD
ATOM     57  C   UNL     1      -3.714  10.898  13.611  1.00  0.00     0.034 A 
ATOM     58  C   UNL     1      -8.917   6.673  12.348  1.00  0.00     0.034 A 
ATOM     59  C   UNL     1      -3.392   9.801  14.504  1.00  0.00     0.049 A 
ATOM     60  C   UNL     1      -8.386   7.158  13.648  1.00  0.00     0.074 A 
ATOM     61  C   UNL     1      -2.340   8.906  14.588  1.00  0.00     0.029 A 
ATOM     62  N   UNL     1      -4.391   9.266  15.288  1.00  0.00    -0.354 N 
ATOM     63  N   UNL     1      -7.601   6.455  14.417  1.00  0.00    -0.248 NA
ATOM     64  C   UNL     1      -8.366   8.592  13.902  1.00  0.00     0.031 C 
ATOM     65  C   UNL     1      -2.922   7.678  15.016  1.00  0.00     0.029 A 
ATOM     66  C   UNL     1      -4.285   7.897  15.220  1.00  0.00     0.049 A 
ATOM     67  H   UNL     1      -5.060   9.772  15.803  1.00  0.00     0.167 HD
ATOM     68  C   UNL     1      -6.691   7.363  14.935  1.00  0.00     0.074 A 
ATOM     69  C   UNL     1      -7.287   8.672  14.687  1.00  0.00     0.031 C 
ATOM     70  C   UNL     1      -5.416   6.987  15.252  1.00  0.00     0.034 A 
BRANCH  57  71
ATOM     71  C   UNL     1      -4.344  12.188  14.092  1.00  0.00     0.023 A 
ATOM     72  C   UNL     1      -4.281  12.441  15.473  1.00  0.00     0.031 A 
ATOM     73  C   UNL     1      -5.230  13.015  13.361  1.00  0.00     0.131 A 
ATOM     74  C   UNL     1      -5.156  13.354  16.081  1.00  0.00     0.055 A 
ATOM     75  C   UNL     1      -6.040  13.983  13.961  1.00  0.00     0.041 A 
ATOM     76  F   UNL     1      -5.438  12.886  12.046  1.00  0.00    -0.206 F 
ATOM     77  C   UNL     1      -6.038  14.129  15.335  1.00  0.00     0.022 A 
BRANCH  74  78
ATOM     78  S   UNL     1      -5.266  13.343  17.886  1.00  0.00     0.124 S 
ATOM     79  O   UNL     1      -5.465  11.922  18.154  1.00  0.00    -0.237 OA
ATOM     80  O   UNL     1      -3.970  13.897  18.265  1.00  0.00    -0.237 OA
ATOM     81  O   UNL     1      -6.418  14.199  18.159  1.00  0.00    -0.744 OA
ENDBRANCH  74  78
ENDBRANCH  57  71
BRANCH  58  82
ATOM     82  C   UNL     1     -10.358   6.650  11.991  1.00  0.00     0.023 A 
ATOM     83  C   UNL     1     -11.364   6.420  12.948  1.00  0.00     0.031 A 
ATOM     84  C   UNL     1     -10.786   7.073  10.710  1.00  0.00     0.131 A 
ATOM     85  C   UNL     1     -12.723   6.599  12.605  1.00  0.00     0.055 A 
ATOM     86  C   UNL     1     -12.130   7.222  10.368  1.00  0.00     0.041 A 
ATOM     87  F   UNL     1      -9.906   7.442   9.765  1.00  0.00    -0.206 F 
ATOM     88  C   UNL     1     -13.107   6.992  11.320  1.00  0.00     0.022 A 
BRANCH  85  89
ATOM     89  S   UNL     1     -14.014   6.443  13.878  1.00  0.00     0.124 S 
ATOM     90  O   UNL     1     -14.077   5.000  14.080  1.00  0.00    -0.237 OA
ATOM     91  O   UNL     1     -13.468   7.230  14.977  1.00  0.00    -0.237 OA
ATOM     92  O   UNL     1     -15.193   7.027  13.237  1.00  0.00    -0.744 OA
ENDBRANCH  85  89
ENDBRANCH  58  82
BRANCH  70  93
ATOM     93  C   UNL     1      -5.111   5.508  15.392  1.00  0.00     0.023 A 
ATOM     94  C   UNL     1      -5.359   4.541  14.393  1.00  0.00     0.031 A 
ATOM     95  C   UNL     1      -4.444   5.083  16.555  1.00  0.00     0.131 A 
ATOM     96  C   UNL     1      -4.964   3.204  14.590  1.00  0.00     0.055 A 
ATOM     97  C   UNL     1      -4.037   3.762  16.739  1.00  0.00     0.041 A 
ATOM     98  F   UNL     1      -4.147   5.959  17.531  1.00  0.00    -0.206 F 
ATOM     99  C   UNL     1      -4.304   2.814  15.759  1.00  0.00     0.022 A 
BRANCH  96 100
ATOM    100  S   UNL     1      -5.325   1.937  13.333  1.00  0.00     0.124 S 
ATOM    101  O   UNL     1      -6.698   2.224  12.935  1.00  0.00    -0.237 OA
ATOM    102  O   UNL     1      -4.299   2.198  12.326  1.00  0.00    -0.237 OA
ATOM    103  O   UNL     1      -5.152   0.679  14.062  1.00  0.00    -0.744 OA
ENDBRANCH  96 100
ENDBRANCH  70  93
ENDBRANCH  44  45
ENDBRANCH  37  39
ENDBRANCH  36  37
ENDBRANCH  35  36
ENDBRANCH  34  35
ENDBRANCH  33  34
ENDBRANCH  32  33
ENDBRANCH   1  32
TORSDOF 25
