REMARK SMILES O=C(OCCOCCOCCOC(=O)c1ccc(-c2c3nc(c(-c4cc(S(=O)(=O)[O-])ccc4F)c4ccc([nH]4)c(-c4cc(S(=O)(=O)[O-])ccc4F)c4nc(c(-c5cc(S(=O)(=O)[O-])ccc5F)c5ccc2[nH]5)C=C4)C=C3)cc1)C1=Cc2cc(Cl)cc(-c3ccccc3)c2O[C@@H]1C(F)(F)F
REMARK SMILES IDX 8 1 7 2 6 3 5 4 4 5 3 6 2 7 1 8 78 9 79 10 94 11 80 12 93 13
REMARK SMILES IDX 81 14 92 15 82 16 85 17 83 18 84 19 95 20 96 21 97 22 98 23
REMARK SMILES IDX 86 24 87 25 91 26 88 27 90 28 89 29 9 30 10 31 11 32 12 33
REMARK SMILES IDX 13 34 14 35 15 36 16 37 77 38 17 39 76 40 18 41 19 42 20 43
REMARK SMILES IDX 70 44 21 45 75 46 69 47 71 48 22 49 74 50 68 51 67 52 23 54
REMARK SMILES IDX 55 55 35 56 54 57 36 58 39 59 53 60 72 61 37 62 38 63 52 65
REMARK SMILES IDX 73 66 40 67 24 68 25 69 33 70 26 71 32 72 34 73 31 74 27 75
REMARK SMILES IDX 28 76 29 77 30 78 56 79 57 80 65 81 58 82 64 83 66 84 63 85
REMARK SMILES IDX 59 86 60 87 61 88 62 89 41 90 42 91 50 92 43 93 49 94 51 95
REMARK SMILES IDX 48 96 44 97 45 98 46 99 47 100
REMARK H PARENT 71 53 39 64
REMARK Flexibility Score: inf
ROOT
ATOM      1  C   UNL     1       1.783   3.046  -1.728  1.00  0.00     0.188 C 
ENDROOT
BRANCH   1   2
ATOM      2  C   UNL     1       2.272   2.194  -0.550  1.00  0.00     0.188 C 
BRANCH   2   3
ATOM      3  O   UNL     1       3.720   2.132  -0.065  1.00  0.00    -0.376 OA
BRANCH   3   4
ATOM      4  C   UNL     1       4.613   0.686   0.446  1.00  0.00     0.202 C 
BRANCH   4   5
ATOM      5  C   UNL     1       3.925  -1.317  -0.044  1.00  0.00     0.261 C 
BRANCH   5   6
ATOM      6  O   UNL     1       2.924  -2.145   0.737  1.00  0.00    -0.460 OA
BRANCH   6   7
ATOM      7  C   UNL     1       3.081  -1.985   2.058  1.00  0.00     0.338 C 
ATOM      8  O   UNL     1       2.377  -2.402   2.944  1.00  0.00    -0.246 OA
BRANCH   7   9
ATOM      9  C   UNL     1       3.985  -0.842   2.007  1.00  0.00     0.087 C 
ATOM     10  C   UNL     1       5.369  -1.130   1.698  1.00  0.00     0.027 C 
ATOM     11  C   UNL     1       2.815   0.147   0.871  1.00  0.00     0.316 C 
ATOM     12  C   UNL     1       6.121  -0.907   0.098  1.00  0.00     0.019 A 
ATOM     13  O   UNL     1       3.543   0.255  -0.961  1.00  0.00    -0.475 OA
ATOM     14  C   UNL     1       7.376  -1.433  -0.070  1.00  0.00     0.032 A 
ATOM     15  C   UNL     1       5.264  -0.299  -1.278  1.00  0.00     0.135 A 
ATOM     16  C   UNL     1       7.873  -1.383  -1.374  1.00  0.00     0.042 A 
ATOM     17  C   UNL     1       5.866  -0.234  -2.526  1.00  0.00     0.026 A 
ATOM     18  Cl  UNL     1       9.425  -2.099  -1.661  1.00  0.00    -0.084 Cl
ATOM     19  C   UNL     1       7.180  -0.807  -2.504  1.00  0.00     0.033 A 
BRANCH  11  20
ATOM     20  C   UNL     1       2.631   1.322   2.148  1.00  0.00     0.430 C 
ATOM     21  F   UNL     1       2.523   2.632   1.907  1.00  0.00    -0.167 F 
ATOM     22  F   UNL     1       1.519   0.974   2.853  1.00  0.00    -0.167 F 
ATOM     23  F   UNL     1       3.646   1.253   3.067  1.00  0.00    -0.167 F 
ENDBRANCH  11  20
BRANCH  17  24
ATOM     24  C   UNL     1       5.433   0.319  -3.803  1.00  0.00    -0.015 A 
ATOM     25  C   UNL     1       4.670  -0.434  -4.700  1.00  0.00     0.009 A 
ATOM     26  C   UNL     1       5.968   1.539  -4.264  1.00  0.00     0.009 A 
ATOM     27  C   UNL     1       4.359   0.065  -5.971  1.00  0.00     0.001 A 
ATOM     28  C   UNL     1       5.632   2.055  -5.521  1.00  0.00     0.001 A 
ATOM     29  C   UNL     1       4.808   1.324  -6.367  1.00  0.00     0.000 A 
ENDBRANCH  17  24
ENDBRANCH   7   9
ENDBRANCH   6   7
ENDBRANCH   5   6
ENDBRANCH   4   5
ENDBRANCH   3   4
ENDBRANCH   2   3
ENDBRANCH   1   2
BRANCH   1  30
ATOM     30  O   UNL     1       2.493   3.007  -2.931  1.00  0.00    -0.376 OA
BRANCH  30  31
ATOM     31  C   UNL     1       3.874   3.261  -2.798  1.00  0.00     0.202 C 
BRANCH  31  32
ATOM     32  C   UNL     1       4.372   4.584  -2.212  1.00  0.00     0.261 C 
BRANCH  32  33
ATOM     33  O   UNL     1       3.972   4.834  -0.859  1.00  0.00    -0.460 OA
BRANCH  33  34
ATOM     34  C   UNL     1       2.994   5.759  -0.702  1.00  0.00     0.338 C 
ATOM     35  O   UNL     1       2.457   6.419  -1.573  1.00  0.00    -0.246 OA
BRANCH  34  36
ATOM     36  C   UNL     1       2.518   5.706   0.692  1.00  0.00     0.060 A 
ATOM     37  C   UNL     1       1.210   5.276   0.957  1.00  0.00     0.016 A 
ATOM     38  C   UNL     1       3.349   6.143   1.722  1.00  0.00     0.016 A 
ATOM     39  C   UNL     1       0.725   5.283   2.259  1.00  0.00     0.010 A 
ATOM     40  C   UNL     1       2.845   6.200   3.022  1.00  0.00     0.010 A 
ATOM     41  C   UNL     1       1.523   5.801   3.284  1.00  0.00    -0.014 A 
BRANCH  41  42
ATOM     42  C   UNL     1       0.865   6.173   4.555  1.00  0.00     0.031 A 
ATOM     43  C   UNL     1       0.359   7.582   4.686  1.00  0.00     0.074 A 
ATOM     44  C   UNL     1       0.650   5.264   5.521  1.00  0.00     0.049 A 
ATOM     45  N   UNL     1      -0.263   8.152   5.683  1.00  0.00    -0.248 NA
ATOM     46  C   UNL     1       0.587   8.467   3.530  1.00  0.00     0.031 C 
ATOM     47  C   UNL     1       1.048   3.860   5.461  1.00  0.00     0.029 A 
ATOM     48  N   UNL     1       0.037   5.392   6.740  1.00  0.00    -0.354 N 
ATOM     49  C   UNL     1      -0.518   9.454   5.268  1.00  0.00     0.074 A 
ATOM     50  C   UNL     1       0.071   9.608   3.957  1.00  0.00     0.031 C 
ATOM     51  C   UNL     1       0.678   3.255   6.604  1.00  0.00     0.029 A 
ATOM     52  C   UNL     1       0.049   4.237   7.487  1.00  0.00     0.049 A 
ATOM     53  H   UNL     1      -0.373   6.231   7.053  1.00  0.00     0.167 HD
ATOM     54  C   UNL     1      -1.200  10.427   5.918  1.00  0.00     0.034 A 
ATOM     55  C   UNL     1      -0.377   4.015   8.747  1.00  0.00     0.034 A 
ATOM     56  C   UNL     1      -1.747  10.262   7.240  1.00  0.00     0.049 A 
ATOM     57  C   UNL     1      -1.025   5.156   9.501  1.00  0.00     0.074 A 
ATOM     58  C   UNL     1      -2.432  11.185   8.009  1.00  0.00     0.029 A 
ATOM     59  N   UNL     1      -1.659   9.100   7.996  1.00  0.00    -0.354 N 
ATOM     60  N   UNL     1      -1.262   6.386   9.101  1.00  0.00    -0.248 NA
ATOM     61  C   UNL     1      -1.477   4.874  10.868  1.00  0.00     0.031 C 
ATOM     62  C   UNL     1      -2.681  10.611   9.259  1.00  0.00     0.029 A 
ATOM     63  C   UNL     1      -2.248   9.294   9.235  1.00  0.00     0.049 A 
ATOM     64  H   UNL     1      -1.240   8.261   7.695  1.00  0.00     0.167 HD
ATOM     65  C   UNL     1      -1.926   7.009  10.157  1.00  0.00     0.074 A 
ATOM     66  C   UNL     1      -2.072   6.010  11.195  1.00  0.00     0.031 C 
ATOM     67  C   UNL     1      -2.377   8.287  10.262  1.00  0.00     0.034 A 
BRANCH  54  68
ATOM     68  C   UNL     1      -1.345  11.755   5.220  1.00  0.00     0.023 A 
ATOM     69  C   UNL     1      -2.045  11.876   4.006  1.00  0.00     0.031 A 
ATOM     70  C   UNL     1      -0.755  12.912   5.757  1.00  0.00     0.131 A 
ATOM     71  C   UNL     1      -2.078  13.107   3.337  1.00  0.00     0.055 A 
ATOM     72  C   UNL     1      -0.868  14.154   5.130  1.00  0.00     0.041 A 
ATOM     73  F   UNL     1      -0.045  12.853   6.895  1.00  0.00    -0.206 F 
ATOM     74  C   UNL     1      -1.522  14.255   3.906  1.00  0.00     0.022 A 
BRANCH  71  75
ATOM     75  S   UNL     1      -2.723  13.154   1.642  1.00  0.00     0.124 S 
ATOM     76  O   UNL     1      -1.838  12.209   0.965  1.00  0.00    -0.237 OA
ATOM     77  O   UNL     1      -4.104  12.722   1.817  1.00  0.00    -0.237 OA
ATOM     78  O   UNL     1      -2.549  14.550   1.248  1.00  0.00    -0.744 OA
ENDBRANCH  71  75
ENDBRANCH  54  68
BRANCH  55  79
ATOM     79  C   UNL     1      -0.162   2.691   9.405  1.00  0.00     0.023 A 
ATOM     80  C   UNL     1      -1.234   1.937   9.909  1.00  0.00     0.031 A 
ATOM     81  C   UNL     1       1.141   2.204   9.624  1.00  0.00     0.131 A 
ATOM     82  C   UNL     1      -0.982   0.779  10.664  1.00  0.00     0.055 A 
ATOM     83  C   UNL     1       1.381   1.012  10.308  1.00  0.00     0.041 A 
ATOM     84  F   UNL     1       2.207   2.890   9.181  1.00  0.00    -0.206 F 
ATOM     85  C   UNL     1       0.317   0.301  10.850  1.00  0.00     0.022 A 
BRANCH  82  86
ATOM     86  S   UNL     1      -2.368  -0.012  11.529  1.00  0.00     0.124 S 
ATOM     87  O   UNL     1      -2.886   1.093  12.327  1.00  0.00    -0.237 OA
ATOM     88  O   UNL     1      -3.207  -0.452  10.420  1.00  0.00    -0.237 OA
ATOM     89  O   UNL     1      -1.727  -1.084  12.288  1.00  0.00    -0.744 OA
ENDBRANCH  82  86
ENDBRANCH  55  79
BRANCH  67  90
ATOM     90  C   UNL     1      -3.123   8.653  11.525  1.00  0.00     0.023 A 
ATOM     91  C   UNL     1      -2.509   8.607  12.789  1.00  0.00     0.031 A 
ATOM     92  C   UNL     1      -4.478   9.025  11.465  1.00  0.00     0.131 A 
ATOM     93  C   UNL     1      -3.271   8.837  13.944  1.00  0.00     0.055 A 
ATOM     94  C   UNL     1      -5.206   9.345  12.612  1.00  0.00     0.041 A 
ATOM     95  F   UNL     1      -5.122   9.083  10.288  1.00  0.00    -0.206 F 
ATOM     96  C   UNL     1      -4.609   9.230  13.863  1.00  0.00     0.022 A 
BRANCH  93  97
ATOM     97  S   UNL     1      -2.530   8.462  15.556  1.00  0.00     0.124 S 
ATOM     98  O   UNL     1      -2.145   7.064  15.392  1.00  0.00    -0.237 OA
ATOM     99  O   UNL     1      -1.433   9.422  15.627  1.00  0.00    -0.237 OA
ATOM    100  O   UNL     1      -3.623   8.699  16.498  1.00  0.00    -0.744 OA
ENDBRANCH  93  97
ENDBRANCH  67  90
ENDBRANCH  41  42
ENDBRANCH  34  36
ENDBRANCH  33  34
ENDBRANCH  32  33
ENDBRANCH  31  32
ENDBRANCH  30  31
ENDBRANCH   1  30
TORSDOF 22
