REMARK SMILES CC1=Nc2ncnn2[C@H](c2ccc(F)cc2)[C@@H]1C(=O)OCCOCCOCCOC(=O)c1ccc(-c2c3nc(c(-c4cc(S(=O)(=O)[O-])ccc4F)c4ccc([nH]4)c(-c4cc(S(=O)(=O)[O-])ccc4F)c4nc(c(-c5cc(S(=O)(=O)[O-])ccc5F)c5ccc2[nH]5)C=C4)C=C3)cc1
REMARK SMILES IDX 25 1 24 2 23 3 22 4 21 5 20 6 18 7 19 8 17 9 1 10 2 11 3 12
REMARK SMILES IDX 4 13 9 14 5 15 8 16 6 17 7 18 10 19 11 20 16 21 12 22 15 23
REMARK SMILES IDX 13 24 14 25 26 26 27 27 28 28 29 29 30 30 31 31 32 32 33 33
REMARK SMILES IDX 94 34 34 35 93 36 35 37 36 38 37 39 87 40 38 41 92 42 86 43
REMARK SMILES IDX 88 44 39 45 91 46 85 47 84 48 40 50 72 51 52 52 71 53 53 54
REMARK SMILES IDX 56 55 70 56 89 57 54 58 55 59 69 61 90 62 57 63 41 64 42 65
REMARK SMILES IDX 50 66 43 67 49 68 51 69 48 70 44 71 45 72 46 73 47 74 73 75
REMARK SMILES IDX 74 76 82 77 75 78 81 79 83 80 80 81 76 82 77 83 78 84 79 85
REMARK SMILES IDX 58 86 59 87 67 88 60 89 66 90 68 91 65 92 61 93 62 94 63 95
REMARK SMILES IDX 64 96
REMARK H PARENT 88 49 56 60
REMARK Flexibility Score: inf
ROOT
ATOM      1  C   UNL     1       3.152  -0.208   1.909  1.00  0.00     0.188 C 
ENDROOT
BRANCH   1   2
ATOM      2  C   UNL     1       2.198   0.044   3.088  1.00  0.00     0.188 C 
BRANCH   2   3
ATOM      3  O   UNL     1       2.446  -0.745   4.240  1.00  0.00    -0.376 OA
BRANCH   3   4
ATOM      4  C   UNL     1       1.722  -1.960   4.336  1.00  0.00     0.202 C 
BRANCH   4   5
ATOM      5  C   UNL     1       2.305  -3.074   3.470  1.00  0.00     0.261 C 
BRANCH   5   6
ATOM      6  O   UNL     1       2.024  -3.103   2.052  1.00  0.00    -0.463 OA
BRANCH   6   7
ATOM      7  C   UNL     1       0.878  -2.637   1.498  1.00  0.00     0.317 C 
ATOM      8  O   UNL     1      -0.018  -2.036   2.071  1.00  0.00    -0.251 OA
BRANCH   7   9
ATOM      9  C   UNL     1       0.832  -3.023   0.046  1.00  0.00     0.173 C 
ATOM     10  C   UNL     1       0.875  -0.577  -0.856  1.00  0.00     0.063 C 
ATOM     11  C   UNL     1       0.195  -1.931  -0.808  1.00  0.00     0.036 C 
ATOM     12  N   UNL     1      -0.893  -2.058  -1.500  1.00  0.00    -0.220 NA
ATOM     13  C   UNL     1      -1.531  -3.245  -1.511  1.00  0.00     0.248 A 
ATOM     14  C   UNL     1       0.193  -4.415  -0.144  1.00  0.00     0.161 C 
ATOM     15  N   UNL     1      -2.602  -3.596  -2.189  1.00  0.00    -0.198 NA
ATOM     16  N   UNL     1      -1.086  -4.348  -0.830  1.00  0.00    -0.221 N 
ATOM     17  C   UNL     1      -2.731  -4.928  -1.937  1.00  0.00     0.248 A 
ATOM     18  N   UNL     1      -1.801  -5.451  -1.136  1.00  0.00    -0.157 NA
BRANCH  14  19
ATOM     19  C   UNL     1       0.120  -5.335   1.083  1.00  0.00    -0.022 A 
ATOM     20  C   UNL     1       0.852  -6.535   1.092  1.00  0.00     0.009 A 
ATOM     21  C   UNL     1      -0.644  -5.015   2.224  1.00  0.00     0.009 A 
ATOM     22  C   UNL     1       0.875  -7.348   2.228  1.00  0.00     0.039 A 
ATOM     23  C   UNL     1      -0.577  -5.801   3.377  1.00  0.00     0.039 A 
ATOM     24  C   UNL     1       0.185  -6.959   3.369  1.00  0.00     0.123 A 
ATOM     25  F   UNL     1       0.253  -7.714   4.473  1.00  0.00    -0.207 F 
ENDBRANCH  14  19
ENDBRANCH   7   9
ENDBRANCH   6   7
ENDBRANCH   5   6
ENDBRANCH   4   5
ENDBRANCH   3   4
ENDBRANCH   2   3
ENDBRANCH   1   2
BRANCH   1  26
ATOM     26  O   UNL     1       4.510  -0.570   2.136  1.00  0.00    -0.376 OA
BRANCH  26  27
ATOM     27  C   UNL     1       5.205  -0.070   3.271  1.00  0.00     0.202 C 
BRANCH  27  28
ATOM     28  C   UNL     1       5.605   1.400   3.251  1.00  0.00     0.261 C 
BRANCH  28  29
ATOM     29  O   UNL     1       4.465   2.245   3.228  1.00  0.00    -0.460 OA
BRANCH  29  30
ATOM     30  C   UNL     1       4.110   2.699   2.005  1.00  0.00     0.338 C 
ATOM     31  O   UNL     1       4.640   2.437   0.940  1.00  0.00    -0.246 OA
BRANCH  30  32
ATOM     32  C   UNL     1       2.936   3.574   2.161  1.00  0.00     0.060 A 
ATOM     33  C   UNL     1       2.559   4.316   1.042  1.00  0.00     0.016 A 
ATOM     34  C   UNL     1       2.360   3.796   3.425  1.00  0.00     0.016 A 
ATOM     35  C   UNL     1       1.816   5.457   1.242  1.00  0.00     0.010 A 
ATOM     36  C   UNL     1       1.597   4.921   3.622  1.00  0.00     0.010 A 
ATOM     37  C   UNL     1       1.459   5.798   2.550  1.00  0.00    -0.014 A 
BRANCH  37  38
ATOM     38  C   UNL     1       1.174   7.193   2.806  1.00  0.00     0.031 A 
ATOM     39  C   UNL     1      -0.175   7.666   2.470  1.00  0.00     0.074 A 
ATOM     40  C   UNL     1       2.104   7.983   3.376  1.00  0.00     0.049 A 
ATOM     41  N   UNL     1      -0.500   8.571   1.610  1.00  0.00    -0.248 NA
ATOM     42  C   UNL     1      -1.311   6.999   3.119  1.00  0.00     0.031 C 
ATOM     43  C   UNL     1       3.373   7.574   3.990  1.00  0.00     0.029 A 
ATOM     44  N   UNL     1       2.047   9.316   3.636  1.00  0.00    -0.354 N 
ATOM     45  C   UNL     1      -1.868   8.739   1.748  1.00  0.00     0.074 A 
ATOM     46  C   UNL     1      -2.336   7.658   2.581  1.00  0.00     0.031 C 
ATOM     47  C   UNL     1       3.843   8.589   4.745  1.00  0.00     0.029 A 
ATOM     48  C   UNL     1       2.979   9.743   4.570  1.00  0.00     0.049 A 
ATOM     49  H   UNL     1       1.404   9.922   3.201  1.00  0.00     0.167 HD
ATOM     50  C   UNL     1      -2.496   9.873   1.345  1.00  0.00     0.034 A 
ATOM     51  C   UNL     1       2.974  10.929   5.225  1.00  0.00     0.034 A 
ATOM     52  C   UNL     1      -1.710  10.639   0.414  1.00  0.00     0.049 A 
ATOM     53  C   UNL     1       2.198  11.881   4.389  1.00  0.00     0.074 A 
ATOM     54  C   UNL     1      -1.151  10.370  -0.821  1.00  0.00     0.029 A 
ATOM     55  N   UNL     1      -1.081  11.775   0.866  1.00  0.00    -0.354 N 
ATOM     56  N   UNL     1       2.569  12.276   3.201  1.00  0.00    -0.248 NA
ATOM     57  C   UNL     1       0.789  12.084   4.692  1.00  0.00     0.031 C 
ATOM     58  C   UNL     1       0.094  11.064  -0.829  1.00  0.00     0.029 A 
ATOM     59  C   UNL     1       0.208  11.742   0.387  1.00  0.00     0.049 A 
ATOM     60  H   UNL     1      -1.478  12.480   1.426  1.00  0.00     0.167 HD
ATOM     61  C   UNL     1       1.394  12.386   2.473  1.00  0.00     0.074 A 
ATOM     62  C   UNL     1       0.331  12.373   3.471  1.00  0.00     0.031 C 
ATOM     63  C   UNL     1       1.373  12.199   1.120  1.00  0.00     0.034 A 
BRANCH  50  64
ATOM     64  C   UNL     1      -3.718  10.406   2.030  1.00  0.00     0.023 A 
ATOM     65  C   UNL     1      -4.511  11.358   1.373  1.00  0.00     0.031 A 
ATOM     66  C   UNL     1      -3.999  10.185   3.399  1.00  0.00     0.131 A 
ATOM     67  C   UNL     1      -5.526  12.038   2.069  1.00  0.00     0.055 A 
ATOM     68  C   UNL     1      -5.054  10.806   4.066  1.00  0.00     0.041 A 
ATOM     69  F   UNL     1      -3.209   9.426   4.172  1.00  0.00    -0.206 F 
ATOM     70  C   UNL     1      -5.818  11.751   3.403  1.00  0.00     0.022 A 
BRANCH  67  71
ATOM     71  S   UNL     1      -6.365  13.415   1.246  1.00  0.00     0.124 S 
ATOM     72  O   UNL     1      -5.242  14.266   0.865  1.00  0.00    -0.237 OA
ATOM     73  O   UNL     1      -7.059  12.739   0.155  1.00  0.00    -0.237 OA
ATOM     74  O   UNL     1      -7.230  13.959   2.291  1.00  0.00    -0.744 OA
ENDBRANCH  67  71
ENDBRANCH  50  64
BRANCH  51  75
ATOM     75  C   UNL     1       3.329  11.161   6.651  1.00  0.00     0.023 A 
ATOM     76  C   UNL     1       3.480  12.462   7.165  1.00  0.00     0.031 A 
ATOM     77  C   UNL     1       3.299  10.109   7.599  1.00  0.00     0.131 A 
ATOM     78  C   UNL     1       3.594  12.671   8.556  1.00  0.00     0.055 A 
ATOM     79  C   UNL     1       3.441  10.318   8.972  1.00  0.00     0.041 A 
ATOM     80  F   UNL     1       3.038   8.844   7.239  1.00  0.00    -0.206 F 
ATOM     81  C   UNL     1       3.579  11.606   9.459  1.00  0.00     0.022 A 
BRANCH  78  82
ATOM     82  S   UNL     1       3.608  14.361   9.229  1.00  0.00     0.124 S 
ATOM     83  O   UNL     1       5.012  14.730   9.090  1.00  0.00    -0.237 OA
ATOM     84  O   UNL     1       2.665  15.059   8.362  1.00  0.00    -0.237 OA
ATOM     85  O   UNL     1       3.148  14.175  10.605  1.00  0.00    -0.744 OA
ENDBRANCH  78  82
ENDBRANCH  51  75
BRANCH  63  86
ATOM     86  C   UNL     1       2.687  12.207   0.369  1.00  0.00     0.023 A 
ATOM     87  C   UNL     1       3.718  11.262   0.562  1.00  0.00     0.031 A 
ATOM     88  C   UNL     1       2.825  13.120  -0.691  1.00  0.00     0.131 A 
ATOM     89  C   UNL     1       4.841  11.263  -0.289  1.00  0.00     0.055 A 
ATOM     90  C   UNL     1       3.930  13.108  -1.541  1.00  0.00     0.041 A 
ATOM     91  F   UNL     1       1.856  14.017  -0.946  1.00  0.00    -0.206 F 
ATOM     92  C   UNL     1       4.945  12.179  -1.341  1.00  0.00     0.022 A 
BRANCH  89  93
ATOM     93  S   UNL     1       6.170  10.038  -0.058  1.00  0.00     0.124 S 
ATOM     94  O   UNL     1       6.628  10.296   1.302  1.00  0.00    -0.237 OA
ATOM     95  O   UNL     1       5.479   8.770  -0.275  1.00  0.00    -0.237 OA
ATOM     96  O   UNL     1       7.139  10.383  -1.100  1.00  0.00    -0.744 OA
ENDBRANCH  89  93
ENDBRANCH  63  86
ENDBRANCH  37  38
ENDBRANCH  30  32
ENDBRANCH  29  30
ENDBRANCH  28  29
ENDBRANCH  27  28
ENDBRANCH  26  27
ENDBRANCH   1  26
TORSDOF 21
