REMARK SMILES O=C(OCCOCCOCCOC(=O)c1csc(-c2cnc3ccccc3c2)c1)c1ccc(-c2c3nc(c(-c4cc(S(=O)(=O)[O-])ccc4F)c4ccc([nH]4)c(-c4cc(S(=O)(=O)[O-])ccc4F)c4nc(c(-c5cc(S(=O)(=O)[O-])ccc5F)c5ccc2[nH]5)C=C4)C=C3)cc1
REMARK SMILES IDX 7 1 6 2 5 3 4 4 3 5 2 6 1 7 30 8 31 9 92 10 32 11 91 12
REMARK SMILES IDX 33 13 34 14 35 15 85 16 36 17 90 18 84 19 86 20 37 21 89 22
REMARK SMILES IDX 83 23 82 24 38 26 70 27 50 28 69 29 51 30 54 31 68 32 87 33
REMARK SMILES IDX 52 34 53 35 67 37 88 38 55 39 39 40 40 41 48 42 41 43 47 44
REMARK SMILES IDX 49 45 46 46 42 47 43 48 44 49 45 50 71 51 72 52 80 53 73 54
REMARK SMILES IDX 79 55 81 56 78 57 74 58 75 59 76 60 77 61 56 62 57 63 65 64
REMARK SMILES IDX 58 65 64 66 66 67 63 68 59 69 60 70 61 71 62 72 8 73 9 74
REMARK SMILES IDX 10 75 11 76 12 77 13 78 14 79 15 80 16 81 29 82 17 83 18 84
REMARK SMILES IDX 19 85 20 86 28 87 21 88 27 89 22 90 26 91 23 92 25 93 24 94
REMARK H PARENT 86 25 54 36
REMARK Flexibility Score: inf
ROOT
ATOM      1  C   UNL     1       2.736   0.460   1.928  1.00  0.00     0.188 C 
ENDROOT
BRANCH   1   2
ATOM      2  O   UNL     1       3.853   1.325   2.107  1.00  0.00    -0.376 OA
BRANCH   2   3
ATOM      3  C   UNL     1       4.854   1.202   1.083  1.00  0.00     0.202 C 
BRANCH   3   4
ATOM      4  C   UNL     1       4.429   1.476  -0.385  1.00  0.00     0.261 C 
BRANCH   4   5
ATOM      5  O   UNL     1       3.072   1.097  -0.715  1.00  0.00    -0.460 OA
BRANCH   5   6
ATOM      6  C   UNL     1       2.564   0.092  -1.462  1.00  0.00     0.338 C 
ATOM      7  O   UNL     1       1.430   0.210  -1.920  1.00  0.00    -0.246 OA
BRANCH   6   8
ATOM      8  C   UNL     1       3.276  -1.201  -1.663  1.00  0.00     0.060 A 
ATOM      9  C   UNL     1       4.364  -1.611  -0.900  1.00  0.00     0.016 A 
ATOM     10  C   UNL     1       2.759  -2.105  -2.607  1.00  0.00     0.016 A 
ATOM     11  C   UNL     1       4.995  -2.827  -1.123  1.00  0.00     0.010 A 
ATOM     12  C   UNL     1       3.351  -3.360  -2.800  1.00  0.00     0.010 A 
ATOM     13  C   UNL     1       4.495  -3.712  -2.076  1.00  0.00    -0.014 A 
BRANCH  13  14
ATOM     14  C   UNL     1       5.252  -4.952  -2.348  1.00  0.00     0.031 A 
ATOM     15  C   UNL     1       6.042  -5.049  -3.619  1.00  0.00     0.074 A 
ATOM     16  C   UNL     1       5.324  -5.915  -1.410  1.00  0.00     0.049 A 
ATOM     17  N   UNL     1       6.765  -6.038  -4.070  1.00  0.00    -0.248 NA
ATOM     18  C   UNL     1       6.036  -3.860  -4.488  1.00  0.00     0.031 C 
ATOM     19  C   UNL     1       4.688  -5.855  -0.092  1.00  0.00     0.029 A 
ATOM     20  N   UNL     1       5.977  -7.120  -1.407  1.00  0.00    -0.354 N 
ATOM     21  C   UNL     1       7.294  -5.597  -5.277  1.00  0.00     0.074 A 
ATOM     22  C   UNL     1       6.792  -4.258  -5.498  1.00  0.00     0.031 C 
ATOM     23  C   UNL     1       4.986  -6.972   0.590  1.00  0.00     0.029 A 
ATOM     24  C   UNL     1       5.763  -7.859  -0.265  1.00  0.00     0.049 A 
ATOM     25  H   UNL     1       6.545  -7.428  -2.150  1.00  0.00     0.167 HD
ATOM     26  C   UNL     1       8.123  -6.256  -6.120  1.00  0.00     0.034 A 
ATOM     27  C   UNL     1       6.112  -9.126   0.033  1.00  0.00     0.034 A 
ATOM     28  C   UNL     1       8.587  -7.599  -5.883  1.00  0.00     0.049 A 
ATOM     29  C   UNL     1       6.914  -9.891  -0.988  1.00  0.00     0.074 A 
ATOM     30  C   UNL     1       9.389  -8.392  -6.683  1.00  0.00     0.029 A 
ATOM     31  N   UNL     1       8.274  -8.354  -4.758  1.00  0.00    -0.354 N 
ATOM     32  N   UNL     1       7.379  -9.477  -2.146  1.00  0.00    -0.248 NA
ATOM     33  C   UNL     1       7.241 -11.284  -0.667  1.00  0.00     0.031 C 
ATOM     34  C   UNL     1       9.507  -9.646  -6.072  1.00  0.00     0.029 A 
ATOM     35  C   UNL     1       8.836  -9.615  -4.859  1.00  0.00     0.049 A 
ATOM     36  H   UNL     1       7.731  -8.038  -4.000  1.00  0.00     0.167 HD
ATOM     37  C   UNL     1       8.071 -10.557  -2.683  1.00  0.00     0.074 A 
ATOM     38  C   UNL     1       7.982 -11.628  -1.710  1.00  0.00     0.031 C 
ATOM     39  C   UNL     1       8.720 -10.662  -3.871  1.00  0.00     0.034 A 
BRANCH  26  40
ATOM     40  C   UNL     1       8.493  -5.555  -7.401  1.00  0.00     0.023 A 
ATOM     41  C   UNL     1       9.303  -4.405  -7.413  1.00  0.00     0.031 A 
ATOM     42  C   UNL     1       7.970  -6.008  -8.624  1.00  0.00     0.131 A 
ATOM     43  C   UNL     1       9.514  -3.713  -8.616  1.00  0.00     0.055 A 
ATOM     44  C   UNL     1       8.238  -5.353  -9.827  1.00  0.00     0.041 A 
ATOM     45  F   UNL     1       7.166  -7.082  -8.666  1.00  0.00    -0.206 F 
ATOM     46  C   UNL     1       9.005  -4.192  -9.826  1.00  0.00     0.022 A 
BRANCH  43  47
ATOM     47  S   UNL     1      10.362  -2.110  -8.562  1.00  0.00     0.124 S 
ATOM     48  O   UNL     1       9.445  -1.318  -7.746  1.00  0.00    -0.237 OA
ATOM     49  O   UNL     1      11.639  -2.446  -7.942  1.00  0.00    -0.237 OA
ATOM     50  O   UNL     1      10.437  -1.714  -9.967  1.00  0.00    -0.744 OA
ENDBRANCH  43  47
ENDBRANCH  26  40
BRANCH  27  51
ATOM     51  C   UNL     1       5.634  -9.778   1.289  1.00  0.00     0.023 A 
ATOM     52  C   UNL     1       6.528 -10.292   2.241  1.00  0.00     0.031 A 
ATOM     53  C   UNL     1       4.256  -9.962   1.520  1.00  0.00     0.131 A 
ATOM     54  C   UNL     1       6.040 -11.005   3.349  1.00  0.00     0.055 A 
ATOM     55  C   UNL     1       3.774 -10.618   2.653  1.00  0.00     0.041 A 
ATOM     56  F   UNL     1       3.352  -9.505   0.639  1.00  0.00    -0.206 F 
ATOM     57  C   UNL     1       4.669 -11.160   3.568  1.00  0.00     0.022 A 
BRANCH  54  58
ATOM     58  S   UNL     1       7.227 -11.830   4.447  1.00  0.00     0.124 S 
ATOM     59  O   UNL     1       8.017 -12.610   3.501  1.00  0.00    -0.237 OA
ATOM     60  O   UNL     1       7.903 -10.694   5.064  1.00  0.00    -0.237 OA
ATOM     61  O   UNL     1       6.376 -12.610   5.343  1.00  0.00    -0.744 OA
ENDBRANCH  54  58
ENDBRANCH  27  51
BRANCH  39  62
ATOM     62  C   UNL     1       9.406 -11.973  -4.146  1.00  0.00     0.023 A 
ATOM     63  C   UNL     1       8.672 -13.149  -4.372  1.00  0.00     0.031 A 
ATOM     64  C   UNL     1      10.809 -12.047  -4.158  1.00  0.00     0.131 A 
ATOM     65  C   UNL     1       9.346 -14.365  -4.545  1.00  0.00     0.055 A 
ATOM     66  C   UNL     1      11.475 -13.250  -4.390  1.00  0.00     0.041 A 
ATOM     67  F   UNL     1      11.553 -10.950  -3.944  1.00  0.00    -0.206 F 
ATOM     68  C   UNL     1      10.743 -14.420  -4.572  1.00  0.00     0.022 A 
BRANCH  65  69
ATOM     69  S   UNL     1       8.372 -15.890  -4.646  1.00  0.00     0.124 S 
ATOM     70  O   UNL     1       7.689 -15.898  -3.356  1.00  0.00    -0.237 OA
ATOM     71  O   UNL     1       7.528 -15.646  -5.811  1.00  0.00    -0.237 OA
ATOM     72  O   UNL     1       9.382 -16.931  -4.820  1.00  0.00    -0.744 OA
ENDBRANCH  65  69
ENDBRANCH  39  62
ENDBRANCH  13  14
ENDBRANCH   6   8
ENDBRANCH   5   6
ENDBRANCH   4   5
ENDBRANCH   3   4
ENDBRANCH   2   3
ENDBRANCH   1   2
BRANCH   1  73
ATOM     73  C   UNL     1       1.942   0.033   3.172  1.00  0.00     0.188 C 
BRANCH  73  74
ATOM     74  O   UNL     1       2.481   0.120   4.476  1.00  0.00    -0.376 OA
BRANCH  74  75
ATOM     75  C   UNL     1       3.850  -0.160   4.691  1.00  0.00     0.202 C 
BRANCH  75  76
ATOM     76  C   UNL     1       4.418  -1.521   4.273  1.00  0.00     0.261 C 
BRANCH  76  77
ATOM     77  O   UNL     1       3.569  -2.322   3.442  1.00  0.00    -0.460 OA
BRANCH  77  78
ATOM     78  C   UNL     1       2.955  -3.350   4.089  1.00  0.00     0.339 C 
ATOM     79  O   UNL     1       2.976  -3.517   5.311  1.00  0.00    -0.246 OA
BRANCH  78  80
ATOM     80  C   UNL     1       2.329  -4.307   3.189  1.00  0.00     0.071 A 
ATOM     81  C   UNL     1       2.515  -5.665   3.364  1.00  0.00     0.081 A 
ATOM     82  C   UNL     1       1.447  -4.053   2.078  1.00  0.00     0.036 A 
ATOM     83  S   UNL     1       1.611  -6.606   2.275  1.00  0.00    -0.143 S 
ATOM     84  C   UNL     1       0.903  -5.217   1.557  1.00  0.00     0.037 A 
BRANCH  84  85
ATOM     85  C   UNL     1      -0.164  -5.407   0.571  1.00  0.00     0.011 A 
ATOM     86  C   UNL     1      -0.134  -4.846  -0.697  1.00  0.00     0.121 A 
ATOM     87  C   UNL     1      -1.286  -6.178   0.888  1.00  0.00     0.021 A 
ATOM     88  N   UNL     1      -1.112  -5.005  -1.629  1.00  0.00    -0.256 NA
ATOM     89  C   UNL     1      -2.305  -6.381  -0.049  1.00  0.00     0.001 A 
ATOM     90  C   UNL     1      -2.174  -5.772  -1.312  1.00  0.00     0.070 A 
ATOM     91  C   UNL     1      -3.426  -7.173   0.255  1.00  0.00     0.010 A 
ATOM     92  C   UNL     1      -3.187  -5.989  -2.240  1.00  0.00     0.029 A 
ATOM     93  C   UNL     1      -4.425  -7.371  -0.693  1.00  0.00     0.001 A 
ATOM     94  C   UNL     1      -4.305  -6.779  -1.945  1.00  0.00     0.002 A 
ENDBRANCH  84  85
ENDBRANCH  78  80
ENDBRANCH  77  78
ENDBRANCH  76  77
ENDBRANCH  75  76
ENDBRANCH  74  75
ENDBRANCH  73  74
ENDBRANCH   1  73
TORSDOF 21
