REMARK SMILES C[C@H](CNC(=O)N1C[C@H]2CCCC[N@@H+]2C[C@@H]1C)C(=O)OCCOCCOCCOC(=O)c1ccc(-c2c3nc(c(-c4cc(S(=O)(=O)[O-])ccc4F)c4ccc([nH]4)c(-c4cc(S(=O)(=O)[O-])ccc4F)c4nc(c(-c5cc(S(=O)(=O)[O-])ccc5F)c5ccc2[nH]5)C=C4)C=C3)cc1
REMARK SMILES IDX 24 1 23 2 22 3 21 4 20 5 18 6 19 7 2 8 1 9 3 10 4 11 5 12
REMARK SMILES IDX 6 14 7 15 8 16 16 17 9 18 15 19 17 20 10 21 14 22 11 23
REMARK SMILES IDX 13 24 12 26 25 27 26 28 27 29 28 30 29 31 30 32 31 33 32 34
REMARK SMILES IDX 33 35 94 36 34 37 93 38 35 39 36 40 37 41 87 42 38 43 92 44
REMARK SMILES IDX 86 45 88 46 39 47 91 48 85 49 84 50 40 52 72 53 52 54 71 55
REMARK SMILES IDX 53 56 56 57 70 58 89 59 54 60 55 61 69 63 90 64 57 65 41 66
REMARK SMILES IDX 42 67 50 68 43 69 49 70 51 71 48 72 44 73 45 74 46 75 47 76
REMARK SMILES IDX 73 77 74 78 82 79 75 80 81 81 83 82 80 83 76 84 77 85 78 86
REMARK SMILES IDX 79 87 58 88 59 89 67 90 60 91 66 92 68 93 65 94 61 95 62 96
REMARK SMILES IDX 63 97 64 98
REMARK H PARENT 4 13 14 25 88 51 56 62
REMARK Flexibility Score: inf
ROOT
ATOM      1  C   UNL     1      -2.390   0.207   1.935  1.00  0.00     0.188 C 
ENDROOT
BRANCH   1   2
ATOM      2  O   UNL     1      -3.730   0.573   1.639  1.00  0.00    -0.376 OA
BRANCH   2   3
ATOM      3  C   UNL     1      -4.061   0.878   0.286  1.00  0.00     0.202 C 
BRANCH   3   4
ATOM      4  C   UNL     1      -3.160   1.851  -0.500  1.00  0.00     0.261 C 
BRANCH   4   5
ATOM      5  O   UNL     1      -1.765   1.468  -0.583  1.00  0.00    -0.463 OA
BRANCH   5   6
ATOM      6  C   UNL     1      -0.857   2.406  -0.211  1.00  0.00     0.310 C 
ATOM      7  O   UNL     1      -1.167   3.545   0.127  1.00  0.00    -0.252 OA
BRANCH   6   8
ATOM      8  C   UNL     1       0.598   1.917  -0.148  1.00  0.00     0.115 C 
ATOM      9  C   UNL     1       1.501   2.982  -0.758  1.00  0.00     0.022 C 
BRANCH   8  10
ATOM     10  C   UNL     1       0.899   0.480  -0.626  1.00  0.00     0.132 C 
BRANCH  10  11
ATOM     11  N   UNL     1       1.880   0.287  -1.679  1.00  0.00    -0.337 N 
ATOM     12  C   UNL     1       3.205  -0.008  -1.654  1.00  0.00     0.318 C 
ATOM     13  H   UNL     1       1.514   0.389  -2.587  1.00  0.00     0.165 HD
ATOM     14  O   UNL     1       3.799  -0.055  -2.731  1.00  0.00    -0.249 OA
BRANCH  12  15
ATOM     15  N   UNL     1       3.834  -0.128  -0.439  1.00  0.00    -0.311 N 
ATOM     16  C   UNL     1       3.570  -1.312   0.393  1.00  0.00     0.186 C 
ATOM     17  C   UNL     1       5.233   0.333  -0.333  1.00  0.00     0.139 C 
ATOM     18  C   UNL     1       3.879  -1.010   1.872  1.00  0.00     0.203 C 
ATOM     19  C   UNL     1       5.734   0.403   1.142  1.00  0.00     0.287 C 
ATOM     20  C   UNL     1       5.438   1.734  -0.930  1.00  0.00     0.037 C 
ATOM     21  C   UNL     1       3.547  -2.204   2.777  1.00  0.00     0.067 C 
ATOM     22  N   UNL     1       5.304  -0.662   2.064  1.00  0.00    -0.329 N 
ATOM     23  C   UNL     1       3.776  -1.837   4.243  1.00  0.00     0.012 C 
ATOM     24  C   UNL     1       5.542  -0.228   3.457  1.00  0.00     0.262 C 
ATOM     25  H   UNL     1       5.851  -1.499   1.864  1.00  0.00     0.348 HD
ATOM     26  C   UNL     1       5.192  -1.321   4.462  1.00  0.00     0.062 C 
ENDBRANCH  12  15
ENDBRANCH  10  11
ENDBRANCH   8  10
ENDBRANCH   6   8
ENDBRANCH   5   6
ENDBRANCH   4   5
ENDBRANCH   3   4
ENDBRANCH   2   3
ENDBRANCH   1   2
BRANCH   1  27
ATOM     27  C   UNL     1      -1.740  -0.897   1.094  1.00  0.00     0.188 C 
BRANCH  27  28
ATOM     28  O   UNL     1      -2.428  -1.230  -0.091  1.00  0.00    -0.376 OA
BRANCH  28  29
ATOM     29  C   UNL     1      -2.765  -2.592  -0.310  1.00  0.00     0.202 C 
BRANCH  29  30
ATOM     30  C   UNL     1      -3.566  -3.359   0.766  1.00  0.00     0.261 C 
BRANCH  30  31
ATOM     31  O   UNL     1      -3.119  -3.258   2.130  1.00  0.00    -0.460 OA
BRANCH  31  32
ATOM     32  C   UNL     1      -1.950  -3.868   2.445  1.00  0.00     0.338 C 
ATOM     33  O   UNL     1      -1.256  -4.534   1.688  1.00  0.00    -0.246 OA
BRANCH  32  34
ATOM     34  C   UNL     1      -1.501  -3.332   3.755  1.00  0.00     0.060 A 
ATOM     35  C   UNL     1      -0.307  -2.599   3.803  1.00  0.00     0.016 A 
ATOM     36  C   UNL     1      -2.258  -3.500   4.913  1.00  0.00     0.016 A 
ATOM     37  C   UNL     1       0.141  -2.056   5.007  1.00  0.00     0.010 A 
ATOM     38  C   UNL     1      -1.784  -2.987   6.130  1.00  0.00     0.010 A 
ATOM     39  C   UNL     1      -0.563  -2.289   6.190  1.00  0.00    -0.014 A 
BRANCH  39  40
ATOM     40  C   UNL     1       0.085  -1.996   7.498  1.00  0.00     0.031 A 
ATOM     41  C   UNL     1       0.679  -3.148   8.267  1.00  0.00     0.074 A 
ATOM     42  C   UNL     1       0.197  -0.744   7.980  1.00  0.00     0.049 A 
ATOM     43  N   UNL     1       1.191  -3.174   9.470  1.00  0.00    -0.248 NA
ATOM     44  C   UNL     1       0.691  -4.448   7.579  1.00  0.00     0.031 C 
ATOM     45  C   UNL     1      -0.246   0.470   7.297  1.00  0.00     0.029 A 
ATOM     46  N   UNL     1       0.715  -0.288   9.170  1.00  0.00    -0.354 N 
ATOM     47  C   UNL     1       1.560  -4.496   9.695  1.00  0.00     0.074 A 
ATOM     48  C   UNL     1       1.190  -5.243   8.512  1.00  0.00     0.031 C 
ATOM     49  C   UNL     1       0.000   1.529   8.088  1.00  0.00     0.029 A 
ATOM     50  C   UNL     1       0.567   1.067   9.355  1.00  0.00     0.049 A 
ATOM     51  H   UNL     1       1.151  -0.877   9.828  1.00  0.00     0.167 HD
ATOM     52  C   UNL     1       2.153  -5.038  10.788  1.00  0.00     0.034 A 
ATOM     53  C   UNL     1       0.817   1.838  10.435  1.00  0.00     0.034 A 
ATOM     54  C   UNL     1       2.519  -4.281  11.960  1.00  0.00     0.049 A 
ATOM     55  C   UNL     1       1.379   1.197  11.685  1.00  0.00     0.074 A 
ATOM     56  C   UNL     1       3.130  -4.731  13.117  1.00  0.00     0.029 A 
ATOM     57  N   UNL     1       2.299  -2.921  12.132  1.00  0.00    -0.354 N 
ATOM     58  N   UNL     1       1.699  -0.060  11.899  1.00  0.00    -0.248 NA
ATOM     59  C   UNL     1       1.617   2.078  12.836  1.00  0.00     0.031 C 
ATOM     60  C   UNL     1       3.200  -3.665  14.020  1.00  0.00     0.029 A 
ATOM     61  C   UNL     1       2.726  -2.525  13.391  1.00  0.00     0.049 A 
ATOM     62  H   UNL     1       1.898  -2.324  11.459  1.00  0.00     0.167 HD
ATOM     63  C   UNL     1       2.208  -0.108  13.197  1.00  0.00     0.074 A 
ATOM     64  C   UNL     1       2.165   1.245  13.709  1.00  0.00     0.031 C 
ATOM     65  C   UNL     1       2.674  -1.173  13.899  1.00  0.00     0.034 A 
BRANCH  52  66
ATOM     66  C   UNL     1       2.375  -6.531  10.791  1.00  0.00     0.023 A 
ATOM     67  C   UNL     1       3.234  -7.162   9.874  1.00  0.00     0.031 A 
ATOM     68  C   UNL     1       1.694  -7.341  11.718  1.00  0.00     0.131 A 
ATOM     69  C   UNL     1       3.335  -8.561   9.860  1.00  0.00     0.055 A 
ATOM     70  C   UNL     1       1.866  -8.726  11.754  1.00  0.00     0.041 A 
ATOM     71  F   UNL     1       0.838  -6.800  12.599  1.00  0.00    -0.206 F 
ATOM     72  C   UNL     1       2.680  -9.345  10.812  1.00  0.00     0.022 A 
BRANCH  69  73
ATOM     73  S   UNL     1       4.217  -9.352   8.486  1.00  0.00     0.124 S 
ATOM     74  O   UNL     1       3.475  -8.851   7.332  1.00  0.00    -0.237 OA
ATOM     75  O   UNL     1       5.573  -8.841   8.646  1.00  0.00    -0.237 OA
ATOM     76  O   UNL     1       4.052 -10.780   8.750  1.00  0.00    -0.744 OA
ENDBRANCH  69  73
ENDBRANCH  52  66
BRANCH  53  77
ATOM     77  C   UNL     1       0.480   3.294  10.424  1.00  0.00     0.023 A 
ATOM     78  C   UNL     1       1.469   4.276  10.602  1.00  0.00     0.031 A 
ATOM     79  C   UNL     1      -0.855   3.723  10.305  1.00  0.00     0.131 A 
ATOM     80  C   UNL     1       1.104   5.629  10.702  1.00  0.00     0.055 A 
ATOM     81  C   UNL     1      -1.206   5.074  10.343  1.00  0.00     0.041 A 
ATOM     82  F   UNL     1      -1.844   2.829  10.147  1.00  0.00    -0.206 F 
ATOM     83  C   UNL     1      -0.224   6.035  10.556  1.00  0.00     0.022 A 
BRANCH  80  84
ATOM     84  S   UNL     1       2.381   6.845  11.127  1.00  0.00     0.124 S 
ATOM     85  O   UNL     1       2.858   6.338  12.408  1.00  0.00    -0.237 OA
ATOM     86  O   UNL     1       3.304   6.720  10.003  1.00  0.00    -0.237 OA
ATOM     87  O   UNL     1       1.644   8.106  11.187  1.00  0.00    -0.744 OA
ENDBRANCH  80  84
ENDBRANCH  53  77
BRANCH  65  88
ATOM     88  C   UNL     1       3.235  -0.908  15.278  1.00  0.00     0.023 A 
ATOM     89  C   UNL     1       2.432  -0.444  16.335  1.00  0.00     0.031 A 
ATOM     90  C   UNL     1       4.601  -1.123  15.537  1.00  0.00     0.131 A 
ATOM     91  C   UNL     1       3.012  -0.153  17.580  1.00  0.00     0.055 A 
ATOM     92  C   UNL     1       5.159  -0.900  16.797  1.00  0.00     0.041 A 
ATOM     93  F   UNL     1       5.420  -1.562  14.567  1.00  0.00    -0.206 F 
ATOM     94  C   UNL     1       4.366  -0.397  17.823  1.00  0.00     0.022 A 
BRANCH  91  95
ATOM     95  S   UNL     1       1.996   0.654  18.849  1.00  0.00     0.124 S 
ATOM     96  O   UNL     1       1.554   1.862  18.159  1.00  0.00    -0.237 OA
ATOM     97  O   UNL     1       0.966  -0.347  19.106  1.00  0.00    -0.237 OA
ATOM     98  O   UNL     1       2.933   0.875  19.949  1.00  0.00    -0.744 OA
ENDBRANCH  91  95
ENDBRANCH  65  88
ENDBRANCH  39  40
ENDBRANCH  32  34
ENDBRANCH  31  32
ENDBRANCH  30  31
ENDBRANCH  29  30
ENDBRANCH  28  29
ENDBRANCH  27  28
ENDBRANCH   1  27
TORSDOF 23
