REMARK SMILES Cc1ccc(C(=O)NC2CC2)cc1NC(=O)[C@@H]1[C@@H](C(=O)OCCOCCOCCOC(=O)c2ccc(-c3c4nc(c(-c5cc(S(=O)(=O)[O-])ccc5F)c5ccc([nH]5)c(-c5cc(S(=O)(=O)[O-])ccc5F)c5nc(c(-c6cc(S(=O)(=O)[O-])ccc6F)c6ccc3[nH]6)C=C5)C=C4)cc2)[C@H]2C=C[C@@H]1C2
REMARK SMILES IDX 25 1 24 2 23 3 22 4 21 5 19 6 20 7 18 8 17 9 99 10 96 11
REMARK SMILES IDX 98 12 100 13 97 14 15 15 14 16 16 18 13 19 1 20 2 21 3 22
REMARK SMILES IDX 4 23 12 24 5 25 6 26 7 27 8 28 9 30 10 31 11 32 26 33 27 34
REMARK SMILES IDX 28 35 29 36 30 37 31 38 32 39 33 40 34 41 95 42 35 43 94 44
REMARK SMILES IDX 36 45 37 46 38 47 88 48 39 49 93 50 87 51 89 52 40 53 92 54
REMARK SMILES IDX 86 55 85 56 41 58 73 59 53 60 72 61 54 62 57 63 71 64 90 65
REMARK SMILES IDX 55 66 56 67 70 69 91 70 58 71 42 72 43 73 51 74 44 75 50 76
REMARK SMILES IDX 52 77 49 78 45 79 46 80 47 81 48 82 74 83 75 84 83 85 76 86
REMARK SMILES IDX 82 87 84 88 81 89 77 90 78 91 79 92 80 93 59 94 60 95 68 96
REMARK SMILES IDX 61 97 67 98 69 99 66 100 62 101 63 102 64 103 65 104
REMARK H PARENT 14 17 8 29 89 57 57 68
REMARK Flexibility Score: inf
ROOT
ATOM      1  C   UNL     1      -1.133   6.877  -5.426  1.00  0.00     0.188 C 
ENDROOT
BRANCH   1   2
ATOM      2  O   UNL     1      -2.471   7.353  -5.375  1.00  0.00    -0.376 OA
BRANCH   2   3
ATOM      3  C   UNL     1      -3.224   6.600  -4.430  1.00  0.00     0.202 C 
BRANCH   3   4
ATOM      4  C   UNL     1      -2.691   6.725  -2.984  1.00  0.00     0.261 C 
BRANCH   4   5
ATOM      5  O   UNL     1      -1.747   5.596  -2.419  1.00  0.00    -0.463 OA
BRANCH   5   6
ATOM      6  C   UNL     1      -1.134   4.726  -1.573  1.00  0.00     0.310 C 
ATOM      7  O   UNL     1      -0.438   3.902  -2.188  1.00  0.00    -0.252 OA
BRANCH   6   8
ATOM      8  C   UNL     1      -1.019   4.567   0.028  1.00  0.00     0.119 C 
ATOM      9  C   UNL     1      -0.515   3.121   0.441  1.00  0.00     0.100 C 
ATOM     10  C   UNL     1      -0.552   3.099   2.008  1.00  0.00     0.025 C 
ATOM     11  C   UNL     1      -1.781   4.870   1.408  1.00  0.00     0.027 C 
ATOM     12  C   UNL     1      -1.949   2.823   2.466  1.00  0.00    -0.027 C 
ATOM     13  C   UNL     1      -0.585   4.582   2.365  1.00  0.00     0.017 C 
ATOM     14  C   UNL     1      -2.692   3.849   2.039  1.00  0.00    -0.027 C 
BRANCH   9  15
ATOM     15  C   UNL     1       0.875   2.787  -0.014  1.00  0.00     0.228 C 
ATOM     16  N   UNL     1       1.276   1.499  -0.224  1.00  0.00    -0.326 N 
ATOM     17  H   UNL     1       2.212   1.443  -0.523  1.00  0.00     0.169 HD
ATOM     18  O   UNL     1       1.747   3.664  -0.053  1.00  0.00    -0.274 OA
BRANCH  16  19
ATOM     19  C   UNL     1       0.669   0.225  -0.115  1.00  0.00     0.044 A 
ATOM     20  C   UNL     1       3.011  -0.805   0.160  1.00  0.00     0.046 C 
ATOM     21  C   UNL     1       1.508  -0.884   0.120  1.00  0.00    -0.027 A 
ATOM     22  C   UNL     1       0.942  -2.162   0.285  1.00  0.00     0.006 A 
ATOM     23  C   UNL     1      -0.435  -2.349   0.242  1.00  0.00     0.014 A 
ATOM     24  C   UNL     1      -0.707  -0.014  -0.252  1.00  0.00     0.040 A 
ATOM     25  C   UNL     1      -1.280  -1.275  -0.025  1.00  0.00     0.041 A 
BRANCH  25  26
ATOM     26  C   UNL     1      -2.739  -1.587  -0.111  1.00  0.00     0.251 C 
ATOM     27  O   UNL     1      -3.074  -2.704  -0.504  1.00  0.00    -0.269 OA
ATOM     28  N   UNL     1      -3.702  -0.694   0.298  1.00  0.00    -0.349 N 
ATOM     29  H   UNL     1      -4.619  -1.049   0.350  1.00  0.00     0.164 HD
BRANCH  28  30
ATOM     30  C   UNL     1      -3.552   0.670   0.653  1.00  0.00     0.082 C 
ATOM     31  C   UNL     1      -3.741   1.679  -0.432  1.00  0.00     0.027 C 
ATOM     32  C   UNL     1      -4.710   1.625   0.680  1.00  0.00     0.027 C 
ENDBRANCH  28  30
ENDBRANCH  25  26
ENDBRANCH  16  19
ENDBRANCH   9  15
ENDBRANCH   6   8
ENDBRANCH   5   6
ENDBRANCH   4   5
ENDBRANCH   3   4
ENDBRANCH   2   3
ENDBRANCH   1   2
BRANCH   1  33
ATOM     33  C   UNL     1      -0.160   7.763  -4.646  1.00  0.00     0.188 C 
BRANCH  33  34
ATOM     34  O   UNL     1      -0.749   8.680  -3.733  1.00  0.00    -0.376 OA
BRANCH  34  35
ATOM     35  C   UNL     1      -1.420   9.803  -4.299  1.00  0.00     0.202 C 
BRANCH  35  36
ATOM     36  C   UNL     1      -0.603  11.029  -3.905  1.00  0.00     0.261 C 
BRANCH  36  37
ATOM     37  O   UNL     1      -0.809  11.324  -2.504  1.00  0.00    -0.460 OA
BRANCH  37  38
ATOM     38  C   UNL     1      -0.168  10.476  -1.664  1.00  0.00     0.338 C 
ATOM     39  O   UNL     1       1.048  10.320  -1.613  1.00  0.00    -0.246 OA
BRANCH  38  40
ATOM     40  C   UNL     1      -1.168   9.642  -0.934  1.00  0.00     0.060 A 
ATOM     41  C   UNL     1      -0.705   8.501  -0.334  1.00  0.00     0.016 A 
ATOM     42  C   UNL     1      -2.559   9.815  -0.994  1.00  0.00     0.016 A 
ATOM     43  C   UNL     1      -1.622   7.504   0.024  1.00  0.00     0.010 A 
ATOM     44  C   UNL     1      -3.457   8.751  -0.677  1.00  0.00     0.010 A 
ATOM     45  C   UNL     1      -3.001   7.485  -0.267  1.00  0.00    -0.014 A 
BRANCH  45  46
ATOM     46  C   UNL     1      -4.024   6.280  -0.246  1.00  0.00     0.031 A 
ATOM     47  C   UNL     1      -4.898   6.160   0.962  1.00  0.00     0.074 A 
ATOM     48  C   UNL     1      -4.437   5.302  -1.167  1.00  0.00     0.049 A 
ATOM     49  N   UNL     1      -5.734   5.182   1.157  1.00  0.00    -0.248 NA
ATOM     50  C   UNL     1      -4.795   7.055   2.112  1.00  0.00     0.031 C 
ATOM     51  C   UNL     1      -5.883   5.184  -1.479  1.00  0.00     0.029 A 
ATOM     52  N   UNL     1      -3.936   4.498  -2.216  1.00  0.00    -0.354 N 
ATOM     53  C   UNL     1      -6.559   5.598   2.155  1.00  0.00     0.074 A 
ATOM     54  C   UNL     1      -5.746   6.532   2.894  1.00  0.00     0.031 C 
ATOM     55  C   UNL     1      -6.101   4.292  -2.454  1.00  0.00     0.029 A 
ATOM     56  C   UNL     1      -4.856   3.677  -2.857  1.00  0.00     0.049 A 
ATOM     57  H   UNL     1      -2.988   4.519  -2.479  1.00  0.00     0.167 HD
ATOM     58  C   UNL     1      -7.899   5.359   2.072  1.00  0.00     0.034 A 
ATOM     59  C   UNL     1      -4.684   2.512  -3.566  1.00  0.00     0.034 A 
ATOM     60  C   UNL     1      -8.294   4.426   0.987  1.00  0.00     0.049 A 
ATOM     61  C   UNL     1      -5.749   1.490  -3.090  1.00  0.00     0.074 A 
ATOM     62  C   UNL     1      -9.105   4.562  -0.131  1.00  0.00     0.029 A 
ATOM     63  N   UNL     1      -7.759   3.140   0.889  1.00  0.00    -0.354 N 
ATOM     64  N   UNL     1      -6.835   1.828  -2.440  1.00  0.00    -0.248 NA
ATOM     65  C   UNL     1      -5.573   0.034  -3.076  1.00  0.00     0.031 C 
ATOM     66  C   UNL     1      -9.075   3.346  -0.875  1.00  0.00     0.029 A 
ATOM     67  C   UNL     1      -8.269   2.440  -0.210  1.00  0.00     0.049 A 
ATOM     68  H   UNL     1      -7.100   2.769   1.520  1.00  0.00     0.167 HD
ATOM     69  C   UNL     1      -7.220   0.786  -1.622  1.00  0.00     0.074 A 
ATOM     70  C   UNL     1      -6.505  -0.351  -2.181  1.00  0.00     0.031 C 
ATOM     71  C   UNL     1      -7.920   1.017  -0.452  1.00  0.00     0.034 A 
BRANCH  58  72
ATOM     72  C   UNL     1      -8.930   6.184   2.841  1.00  0.00     0.023 A 
ATOM     73  C   UNL     1     -10.284   5.802   2.764  1.00  0.00     0.031 A 
ATOM     74  C   UNL     1      -8.697   7.385   3.558  1.00  0.00     0.131 A 
ATOM     75  C   UNL     1     -11.301   6.575   3.362  1.00  0.00     0.055 A 
ATOM     76  C   UNL     1      -9.695   8.097   4.230  1.00  0.00     0.041 A 
ATOM     77  F   UNL     1      -7.514   8.005   3.591  1.00  0.00    -0.206 F 
ATOM     78  C   UNL     1     -11.010   7.700   4.127  1.00  0.00     0.022 A 
BRANCH  75  79
ATOM     79  S   UNL     1     -13.033   6.153   3.049  1.00  0.00     0.124 S 
ATOM     80  O   UNL     1     -13.138   6.368   1.609  1.00  0.00    -0.237 OA
ATOM     81  O   UNL     1     -13.105   4.772   3.510  1.00  0.00    -0.237 OA
ATOM     82  O   UNL     1     -13.767   7.117   3.868  1.00  0.00    -0.744 OA
ENDBRANCH  75  79
ENDBRANCH  58  72
BRANCH  59  83
ATOM     83  C   UNL     1      -3.303   2.190  -4.124  1.00  0.00     0.023 A 
ATOM     84  C   UNL     1      -2.818   2.906  -5.248  1.00  0.00     0.031 A 
ATOM     85  C   UNL     1      -2.361   1.337  -3.519  1.00  0.00     0.131 A 
ATOM     86  C   UNL     1      -1.447   2.870  -5.609  1.00  0.00     0.055 A 
ATOM     87  C   UNL     1      -0.990   1.370  -3.820  1.00  0.00     0.041 A 
ATOM     88  F   UNL     1      -2.730   0.414  -2.627  1.00  0.00    -0.206 F 
ATOM     89  C   UNL     1      -0.519   2.174  -4.842  1.00  0.00     0.022 A 
BRANCH  86  90
ATOM     90  S   UNL     1      -0.797   3.702  -7.092  1.00  0.00     0.124 S 
ATOM     91  O   UNL     1      -0.394   2.574  -7.926  1.00  0.00    -0.237 OA
ATOM     92  O   UNL     1      -1.941   4.465  -7.579  1.00  0.00    -0.237 OA
ATOM     93  O   UNL     1       0.307   4.503  -6.566  1.00  0.00    -0.744 OA
ENDBRANCH  86  90
ENDBRANCH  59  83
BRANCH  71  94
ATOM     94  C   UNL     1      -8.246  -0.010   0.654  1.00  0.00     0.023 A 
ATOM     95  C   UNL     1      -7.823  -1.351   0.681  1.00  0.00     0.031 A 
ATOM     96  C   UNL     1      -9.022   0.378   1.783  1.00  0.00     0.131 A 
ATOM     97  C   UNL     1      -8.162  -2.216   1.751  1.00  0.00     0.055 A 
ATOM     98  C   UNL     1      -9.307  -0.461   2.867  1.00  0.00     0.041 A 
ATOM     99  F   UNL     1      -9.559   1.601   1.889  1.00  0.00    -0.206 F 
ATOM    100  C   UNL     1      -8.884  -1.774   2.853  1.00  0.00     0.022 A 
BRANCH  97 101
ATOM    101  S   UNL     1      -7.736  -3.980   1.637  1.00  0.00     0.124 S 
ATOM    102  O   UNL     1      -8.110  -4.301   0.263  1.00  0.00    -0.237 OA
ATOM    103  O   UNL     1      -6.308  -3.960   1.927  1.00  0.00    -0.237 OA
ATOM    104  O   UNL     1      -8.572  -4.602   2.664  1.00  0.00    -0.744 OA
ENDBRANCH  97 101
ENDBRANCH  71  94
ENDBRANCH  45  46
ENDBRANCH  38  40
ENDBRANCH  37  38
ENDBRANCH  36  37
ENDBRANCH  35  36
ENDBRANCH  34  35
ENDBRANCH  33  34
ENDBRANCH   1  33
TORSDOF 24
