REMARK SMILES C[C@H]1[NH2+]CC[C@H]1C(=O)N1CC(C(=O)OCCOCCOCCOC(=O)c2ccc(-c3c4nc(c(-c5cc(S(=O)(=O)[O-])ccc5F)c5ccc([nH]5)c(-c5cc(S(=O)(=O)[O-])ccc5F)c5nc(c(-c6cc(S(=O)(=O)[O-])ccc6F)c6ccc3[nH]6)C=C5)C=C4)cc2)C1
REMARK SMILES IDX 19 1 18 2 17 3 16 4 15 5 14 6 12 7 13 8 11 9 7 10 8 11 9 12
REMARK SMILES IDX 10 13 89 14 6 15 1 16 2 17 3 18 4 19 5 22 20 23 21 24 22 25
REMARK SMILES IDX 23 26 24 27 25 28 26 29 27 30 88 31 28 32 87 33 29 34 30 35
REMARK SMILES IDX 31 36 81 37 32 38 86 39 80 40 82 41 33 42 85 43 79 44 78 45
REMARK SMILES IDX 34 47 66 48 46 49 65 50 47 51 50 52 64 53 83 54 48 55 49 56
REMARK SMILES IDX 63 58 84 59 51 60 35 61 36 62 44 63 37 64 43 65 45 66 42 67
REMARK SMILES IDX 38 68 39 69 40 70 41 71 67 72 68 73 76 74 69 75 75 76 77 77
REMARK SMILES IDX 74 78 70 79 71 80 72 81 73 82 52 83 53 84 61 85 54 86 60 87
REMARK SMILES IDX 62 88 59 89 55 90 56 91 57 92 58 93
REMARK H PARENT 3 20 3 21 82 46 50 57
REMARK Flexibility Score: inf
ROOT
ATOM      1  C   UNL     1       4.803   1.524   3.922  1.00  0.00     0.188 C 
ENDROOT
BRANCH   1   2
ATOM      2  C   UNL     1       5.383   2.868   4.403  1.00  0.00     0.188 C 
BRANCH   2   3
ATOM      3  O   UNL     1       5.513   3.109   5.799  1.00  0.00    -0.376 OA
BRANCH   3   4
ATOM      4  C   UNL     1       4.415   2.830   6.659  1.00  0.00     0.202 C 
BRANCH   4   5
ATOM      5  C   UNL     1       3.011   3.348   6.296  1.00  0.00     0.261 C 
BRANCH   5   6
ATOM      6  O   UNL     1       2.608   3.078   4.940  1.00  0.00    -0.463 OA
BRANCH   6   7
ATOM      7  C   UNL     1       2.126   4.130   4.209  1.00  0.00     0.312 C 
ATOM      8  O   UNL     1       1.889   5.232   4.703  1.00  0.00    -0.252 OA
BRANCH   7   9
ATOM      9  C   UNL     1       1.960   3.810   2.710  1.00  0.00     0.138 C 
ATOM     10  C   UNL     1       0.645   2.476   0.089  1.00  0.00     0.231 C 
ATOM     11  O   UNL     1       1.108   3.281  -0.715  1.00  0.00    -0.274 OA
ATOM     12  N   UNL     1       0.708   2.673   1.456  1.00  0.00    -0.340 N 
ATOM     13  C   UNL     1       0.567   3.982   2.115  1.00  0.00     0.136 C 
ATOM     14  C   UNL     1       1.918   2.369   2.219  1.00  0.00     0.136 C 
BRANCH  10  15
ATOM     15  C   UNL     1      -0.065   1.204  -0.359  1.00  0.00     0.142 C 
ATOM     16  C   UNL     1       1.821  -0.388   0.511  1.00  0.00     0.076 C 
ATOM     17  C   UNL     1       0.749  -0.080  -0.528  1.00  0.00     0.192 C 
ATOM     18  N   UNL     1      -0.268  -1.155  -0.515  1.00  0.00    -0.343 N 
ATOM     19  C   UNL     1      -1.475  -0.661   0.146  1.00  0.00     0.261 C 
ATOM     20  H   UNL     1       0.094  -1.962  -0.006  1.00  0.00     0.346 HD
ATOM     21  H   UNL     1      -0.487  -1.434  -1.471  1.00  0.00     0.346 HD
ATOM     22  C   UNL     1      -1.221   0.782   0.533  1.00  0.00     0.081 C 
ENDBRANCH  10  15
ENDBRANCH   7   9
ENDBRANCH   6   7
ENDBRANCH   5   6
ENDBRANCH   4   5
ENDBRANCH   3   4
ENDBRANCH   2   3
ENDBRANCH   1   2
BRANCH   1  23
ATOM     23  O   UNL     1       4.290   0.699   4.938  1.00  0.00    -0.376 OA
BRANCH  23  24
ATOM     24  C   UNL     1       5.020  -0.455   5.312  1.00  0.00     0.202 C 
BRANCH  24  25
ATOM     25  C   UNL     1       6.562  -0.514   5.340  1.00  0.00     0.261 C 
BRANCH  25  26
ATOM     26  O   UNL     1       7.296   0.406   4.524  1.00  0.00    -0.460 OA
BRANCH  26  27
ATOM     27  C   UNL     1       7.551   0.031   3.248  1.00  0.00     0.338 C 
ATOM     28  O   UNL     1       7.170  -0.994   2.700  1.00  0.00    -0.246 OA
BRANCH  27  29
ATOM     29  C   UNL     1       8.189   1.174   2.561  1.00  0.00     0.060 A 
ATOM     30  C   UNL     1       7.502   1.838   1.532  1.00  0.00     0.016 A 
ATOM     31  C   UNL     1       9.462   1.594   2.944  1.00  0.00     0.016 A 
ATOM     32  C   UNL     1       8.096   2.921   0.876  1.00  0.00     0.010 A 
ATOM     33  C   UNL     1      10.065   2.657   2.267  1.00  0.00     0.010 A 
ATOM     34  C   UNL     1       9.397   3.312   1.215  1.00  0.00    -0.014 A 
BRANCH  34  35
ATOM     35  C   UNL     1      10.165   4.246   0.353  1.00  0.00     0.031 A 
ATOM     36  C   UNL     1      11.133   3.651  -0.633  1.00  0.00     0.074 A 
ATOM     37  C   UNL     1      10.040   5.582   0.456  1.00  0.00     0.049 A 
ATOM     38  N   UNL     1      12.058   4.233  -1.349  1.00  0.00    -0.248 NA
ATOM     39  C   UNL     1      11.047   2.194  -0.822  1.00  0.00     0.031 C 
ATOM     40  C   UNL     1       9.085   6.281   1.312  1.00  0.00     0.029 A 
ATOM     41  N   UNL     1      10.744   6.591  -0.156  1.00  0.00    -0.354 N 
ATOM     42  C   UNL     1      12.670   3.214  -2.071  1.00  0.00     0.074 A 
ATOM     43  C   UNL     1      12.038   1.974  -1.672  1.00  0.00     0.031 C 
ATOM     44  C   UNL     1       9.278   7.607   1.188  1.00  0.00     0.029 A 
ATOM     45  C   UNL     1      10.408   7.850   0.290  1.00  0.00     0.049 A 
ATOM     46  H   UNL     1      11.425   6.430  -0.849  1.00  0.00     0.167 HD
ATOM     47  C   UNL     1      13.663   3.304  -2.989  1.00  0.00     0.034 A 
ATOM     48  C   UNL     1      10.976   9.047   0.034  1.00  0.00     0.034 A 
ATOM     49  C   UNL     1      14.298   4.543  -3.361  1.00  0.00     0.049 A 
ATOM     50  C   UNL     1      12.179   9.109  -0.888  1.00  0.00     0.074 A 
ATOM     51  C   UNL     1      15.335   4.746  -4.254  1.00  0.00     0.029 A 
ATOM     52  N   UNL     1      13.958   5.791  -2.856  1.00  0.00    -0.354 N 
ATOM     53  N   UNL     1      12.777   8.135  -1.538  1.00  0.00    -0.248 NA
ATOM     54  C   UNL     1      12.784  10.431  -1.111  1.00  0.00     0.031 C 
ATOM     55  C   UNL     1      15.667   6.104  -4.238  1.00  0.00     0.029 A 
ATOM     56  C   UNL     1      14.778   6.763  -3.405  1.00  0.00     0.049 A 
ATOM     57  H   UNL     1      13.239   5.960  -2.205  1.00  0.00     0.167 HD
ATOM     58  C   UNL     1      13.785   8.741  -2.288  1.00  0.00     0.074 A 
ATOM     59  C   UNL     1      13.717  10.158  -2.010  1.00  0.00     0.031 C 
ATOM     60  C   UNL     1      14.682   8.178  -3.137  1.00  0.00     0.034 A 
BRANCH  47  61
ATOM     61  C   UNL     1      14.144   2.021  -3.618  1.00  0.00     0.023 A 
ATOM     62  C   UNL     1      13.301   1.237  -4.423  1.00  0.00     0.031 A 
ATOM     63  C   UNL     1      15.455   1.564  -3.395  1.00  0.00     0.131 A 
ATOM     64  C   UNL     1      13.755   0.007  -4.921  1.00  0.00     0.055 A 
ATOM     65  C   UNL     1      15.928   0.381  -3.965  1.00  0.00     0.041 A 
ATOM     66  F   UNL     1      16.297   2.257  -2.612  1.00  0.00    -0.206 F 
ATOM     67  C   UNL     1      15.072  -0.412  -4.723  1.00  0.00     0.022 A 
BRANCH  64  68
ATOM     68  S   UNL     1      12.557  -1.099  -5.714  1.00  0.00     0.124 S 
ATOM     69  O   UNL     1      11.593  -1.309  -4.636  1.00  0.00    -0.237 OA
ATOM     70  O   UNL     1      12.089  -0.303  -6.843  1.00  0.00    -0.237 OA
ATOM     71  O   UNL     1      13.354  -2.272  -6.064  1.00  0.00    -0.744 OA
ENDBRANCH  64  68
ENDBRANCH  47  61
BRANCH  48  72
ATOM     72  C   UNL     1      10.475  10.296   0.685  1.00  0.00     0.023 A 
ATOM     73  C   UNL     1      10.033  11.383  -0.087  1.00  0.00     0.031 A 
ATOM     74  C   UNL     1      10.536  10.468   2.080  1.00  0.00     0.131 A 
ATOM     75  C   UNL     1       9.748  12.612   0.528  1.00  0.00     0.055 A 
ATOM     76  C   UNL     1      10.177  11.670   2.694  1.00  0.00     0.041 A 
ATOM     77  F   UNL     1      10.962   9.470   2.871  1.00  0.00    -0.206 F 
ATOM     78  C   UNL     1       9.801  12.759   1.915  1.00  0.00     0.022 A 
BRANCH  75  79
ATOM     79  S   UNL     1       9.457  14.059  -0.528  1.00  0.00     0.124 S 
ATOM     80  O   UNL     1      10.677  14.089  -1.327  1.00  0.00    -0.237 OA
ATOM     81  O   UNL     1       8.237  13.680  -1.232  1.00  0.00    -0.237 OA
ATOM     82  O   UNL     1       9.310  15.154   0.429  1.00  0.00    -0.744 OA
ENDBRANCH  75  79
ENDBRANCH  48  72
BRANCH  60  83
ATOM     83  C   UNL     1      15.598   9.102  -3.906  1.00  0.00     0.023 A 
ATOM     84  C   UNL     1      16.600   9.862  -3.280  1.00  0.00     0.031 A 
ATOM     85  C   UNL     1      15.473   9.198  -5.305  1.00  0.00     0.131 A 
ATOM     86  C   UNL     1      17.409  10.716  -4.045  1.00  0.00     0.055 A 
ATOM     87  C   UNL     1      16.320  10.002  -6.068  1.00  0.00     0.041 A 
ATOM     88  F   UNL     1      14.531   8.497  -5.957  1.00  0.00    -0.206 F 
ATOM     89  C   UNL     1      17.289  10.775  -5.437  1.00  0.00     0.022 A 
BRANCH  86  90
ATOM     90  S   UNL     1      18.578  11.812  -3.193  1.00  0.00     0.124 S 
ATOM     91  O   UNL     1      17.693  12.590  -2.333  1.00  0.00    -0.237 OA
ATOM     92  O   UNL     1      19.456  10.864  -2.513  1.00  0.00    -0.237 OA
ATOM     93  O   UNL     1      19.203  12.561  -4.281  1.00  0.00    -0.744 OA
ENDBRANCH  86  90
ENDBRANCH  60  83
ENDBRANCH  34  35
ENDBRANCH  27  29
ENDBRANCH  26  27
ENDBRANCH  25  26
ENDBRANCH  24  25
ENDBRANCH  23  24
ENDBRANCH   1  23
TORSDOF 21
