REMARK SMILES CC(C)Cc1ccc([C@H](C)C(=O)OCCOCCOCCOC(=O)c2ccc(-c3c4nc(c(-c5cc(S(=O)(=O)[O-])ccc5F)c5ccc([nH]5)c(-c5cc(S(=O)(=O)[O-])ccc5F)c5nc(c(-c6cc(S(=O)(=O)[O-])ccc6F)c6ccc3[nH]6)C=C5)C=C4)cc2)cc1
REMARK SMILES IDX 17 1 16 2 15 3 14 4 13 5 11 6 12 7 9 8 10 9 8 10 5 11 6 12
REMARK SMILES IDX 89 13 7 14 88 15 4 16 2 17 1 18 3 19 18 20 19 21 20 22 21 23
REMARK SMILES IDX 22 24 23 25 24 26 25 27 26 28 87 29 27 30 86 31 28 32 29 33
REMARK SMILES IDX 30 34 80 35 31 36 85 37 79 38 81 39 32 40 84 41 78 42 77 43
REMARK SMILES IDX 33 45 65 46 45 47 64 48 46 49 49 50 63 51 82 52 47 53 48 54
REMARK SMILES IDX 62 56 83 57 50 58 34 59 35 60 43 61 36 62 42 63 44 64 41 65
REMARK SMILES IDX 37 66 38 67 39 68 40 69 66 70 67 71 75 72 68 73 74 74 76 75
REMARK SMILES IDX 73 76 69 77 70 78 71 79 72 80 51 81 52 82 60 83 53 84 59 85
REMARK SMILES IDX 61 86 58 87 54 88 55 89 56 90 57 91
REMARK H PARENT 81 44 49 55
REMARK Flexibility Score: inf
ROOT
ATOM      1  C   UNL     1      -5.715   4.807   2.456  1.00  0.00     0.188 C 
ENDROOT
BRANCH   1   2
ATOM      2  O   UNL     1      -6.158   6.152   2.312  1.00  0.00    -0.376 OA
BRANCH   2   3
ATOM      3  C   UNL     1      -5.587   6.914   1.251  1.00  0.00     0.202 C 
BRANCH   3   4
ATOM      4  C   UNL     1      -4.076   7.189   1.315  1.00  0.00     0.261 C 
BRANCH   4   5
ATOM      5  O   UNL     1      -3.254   6.013   1.448  1.00  0.00    -0.463 OA
BRANCH   5   6
ATOM      6  C   UNL     1      -2.636   5.864   2.654  1.00  0.00     0.313 C 
ATOM      7  O   UNL     1      -2.719   6.681   3.568  1.00  0.00    -0.252 OA
BRANCH   6   8
ATOM      8  C   UNL     1      -1.849   4.548   2.793  1.00  0.00     0.126 C 
ATOM      9  C   UNL     1      -2.009   3.538   1.654  1.00  0.00     0.025 C 
BRANCH   8  10
ATOM     10  C   UNL     1      -0.403   4.899   3.090  1.00  0.00    -0.034 A 
ATOM     11  C   UNL     1       2.062   6.107   3.634  1.00  0.00    -0.048 A 
ATOM     12  C   UNL     1       1.768   5.654   2.342  1.00  0.00     0.004 A 
ATOM     13  C   UNL     1       1.170   5.842   4.677  1.00  0.00     0.004 A 
ATOM     14  C   UNL     1       0.538   5.066   2.067  1.00  0.00     0.005 A 
ATOM     15  C   UNL     1      -0.053   5.238   4.406  1.00  0.00     0.005 A 
BRANCH  11  16
ATOM     16  C   UNL     1       3.237   7.024   3.857  1.00  0.00     0.038 C 
BRANCH  16  17
ATOM     17  C   UNL     1       2.994   8.405   3.206  1.00  0.00    -0.013 C 
ATOM     18  C   UNL     1       1.801   9.145   3.826  1.00  0.00     0.008 C 
ATOM     19  C   UNL     1       4.251   9.264   3.309  1.00  0.00     0.008 C 
ENDBRANCH  16  17
ENDBRANCH  11  16
ENDBRANCH   8  10
ENDBRANCH   6   8
ENDBRANCH   5   6
ENDBRANCH   4   5
ENDBRANCH   3   4
ENDBRANCH   2   3
ENDBRANCH   1   2
BRANCH   1  20
ATOM     20  C   UNL     1      -5.833   3.907   1.227  1.00  0.00     0.188 C 
BRANCH  20  21
ATOM     21  O   UNL     1      -5.292   4.440   0.023  1.00  0.00    -0.376 OA
BRANCH  21  22
ATOM     22  C   UNL     1      -5.359   3.589  -1.127  1.00  0.00     0.202 C 
BRANCH  22  23
ATOM     23  C   UNL     1      -6.740   2.974  -1.433  1.00  0.00     0.261 C 
BRANCH  23  24
ATOM     24  O   UNL     1      -7.235   2.075  -0.416  1.00  0.00    -0.460 OA
BRANCH  24  25
ATOM     25  C   UNL     1      -6.418   1.058  -0.054  1.00  0.00     0.338 C 
ATOM     26  O   UNL     1      -5.443   0.668  -0.678  1.00  0.00    -0.246 OA
BRANCH  25  27
ATOM     27  C   UNL     1      -6.723   0.662   1.347  1.00  0.00     0.060 A 
ATOM     28  C   UNL     1      -5.650   0.276   2.163  1.00  0.00     0.016 A 
ATOM     29  C   UNL     1      -8.016   0.709   1.881  1.00  0.00     0.016 A 
ATOM     30  C   UNL     1      -5.876  -0.148   3.474  1.00  0.00     0.010 A 
ATOM     31  C   UNL     1      -8.244   0.277   3.196  1.00  0.00     0.010 A 
ATOM     32  C   UNL     1      -7.181  -0.210   3.979  1.00  0.00    -0.014 A 
BRANCH  32  33
ATOM     33  C   UNL     1      -7.439  -1.043   5.187  1.00  0.00     0.031 A 
ATOM     34  C   UNL     1      -7.890  -2.469   4.967  1.00  0.00     0.074 A 
ATOM     35  C   UNL     1      -7.207  -0.599   6.437  1.00  0.00     0.049 A 
ATOM     36  N   UNL     1      -8.121  -3.415   5.840  1.00  0.00    -0.248 NA
ATOM     37  C   UNL     1      -8.106  -2.879   3.569  1.00  0.00     0.031 C 
ATOM     38  C   UNL     1      -6.737   0.740   6.790  1.00  0.00     0.029 A 
ATOM     39  N   UNL     1      -7.332  -1.238   7.648  1.00  0.00    -0.354 N 
ATOM     40  C   UNL     1      -8.513  -4.526   5.099  1.00  0.00     0.074 A 
ATOM     41  C   UNL     1      -8.524  -4.127   3.710  1.00  0.00     0.031 C 
ATOM     42  C   UNL     1      -6.614   0.821   8.128  1.00  0.00     0.029 A 
ATOM     43  C   UNL     1      -7.018  -0.449   8.732  1.00  0.00     0.049 A 
ATOM     44  H   UNL     1      -7.620  -2.176   7.732  1.00  0.00     0.167 HD
ATOM     45  C   UNL     1      -8.825  -5.771   5.532  1.00  0.00     0.034 A 
ATOM     46  C   UNL     1      -7.063  -0.720  10.055  1.00  0.00     0.034 A 
ATOM     47  C   UNL     1      -8.805  -6.173   6.914  1.00  0.00     0.049 A 
ATOM     48  C   UNL     1      -7.476  -2.105  10.513  1.00  0.00     0.074 A 
ATOM     49  C   UNL     1      -9.067  -7.423   7.448  1.00  0.00     0.029 A 
ATOM     50  N   UNL     1      -8.523  -5.335   7.983  1.00  0.00    -0.354 N 
ATOM     51  N   UNL     1      -7.792  -3.159   9.793  1.00  0.00    -0.248 NA
ATOM     52  C   UNL     1      -7.519  -2.340  11.963  1.00  0.00     0.031 C 
ATOM     53  C   UNL     1      -9.020  -7.322   8.842  1.00  0.00     0.029 A 
ATOM     54  C   UNL     1      -8.644  -6.031   9.175  1.00  0.00     0.049 A 
ATOM     55  H   UNL     1      -8.273  -4.386   7.906  1.00  0.00     0.167 HD
ATOM     56  C   UNL     1      -8.028  -4.186  10.708  1.00  0.00     0.074 A 
ATOM     57  C   UNL     1      -7.793  -3.634  12.023  1.00  0.00     0.031 C 
ATOM     58  C   UNL     1      -8.405  -5.472  10.484  1.00  0.00     0.034 A 
BRANCH  45  59
ATOM     59  C   UNL     1      -9.267  -6.777   4.500  1.00  0.00     0.023 A 
ATOM     60  C   UNL     1      -8.392  -7.276   3.519  1.00  0.00     0.031 A 
ATOM     61  C   UNL     1     -10.593  -7.246   4.505  1.00  0.00     0.131 A 
ATOM     62  C   UNL     1      -8.867  -8.178   2.556  1.00  0.00     0.055 A 
ATOM     63  C   UNL     1     -11.040  -8.197   3.587  1.00  0.00     0.041 A 
ATOM     64  F   UNL     1     -11.477  -6.782   5.402  1.00  0.00    -0.206 F 
ATOM     65  C   UNL     1     -10.177  -8.663   2.600  1.00  0.00     0.022 A 
BRANCH  62  66
ATOM     66  S   UNL     1      -7.780  -8.635   1.178  1.00  0.00     0.124 S 
ATOM     67  O   UNL     1      -7.553  -7.340   0.540  1.00  0.00    -0.237 OA
ATOM     68  O   UNL     1      -6.632  -9.221   1.861  1.00  0.00    -0.237 OA
ATOM     69  O   UNL     1      -8.587  -9.572   0.400  1.00  0.00    -0.744 OA
ENDBRANCH  62  66
ENDBRANCH  45  59
BRANCH  46  70
ATOM     70  C   UNL     1      -6.759   0.334  11.074  1.00  0.00     0.023 A 
ATOM     71  C   UNL     1      -5.734   0.163  12.021  1.00  0.00     0.031 A 
ATOM     72  C   UNL     1      -7.582   1.468  11.200  1.00  0.00     0.131 A 
ATOM     73  C   UNL     1      -5.611   1.062  13.094  1.00  0.00     0.055 A 
ATOM     74  C   UNL     1      -7.412   2.396  12.229  1.00  0.00     0.041 A 
ATOM     75  F   UNL     1      -8.584   1.680  10.331  1.00  0.00    -0.206 F 
ATOM     76  C   UNL     1      -6.436   2.184  13.197  1.00  0.00     0.022 A 
BRANCH  73  77
ATOM     77  S   UNL     1      -4.455   0.663  14.436  1.00  0.00     0.124 S 
ATOM     78  O   UNL     1      -4.904  -0.668  14.828  1.00  0.00    -0.237 OA
ATOM     79  O   UNL     1      -3.167   0.731  13.755  1.00  0.00    -0.237 OA
ATOM     80  O   UNL     1      -4.696   1.718  15.418  1.00  0.00    -0.744 OA
ENDBRANCH  73  77
ENDBRANCH  46  70
BRANCH  58  81
ATOM     81  C   UNL     1      -8.528  -6.379  11.688  1.00  0.00     0.023 A 
ATOM     82  C   UNL     1      -9.480  -6.150  12.697  1.00  0.00     0.031 A 
ATOM     83  C   UNL     1      -7.659  -7.475  11.840  1.00  0.00     0.131 A 
ATOM     84  C   UNL     1      -9.491  -6.955  13.846  1.00  0.00     0.055 A 
ATOM     85  C   UNL     1      -7.722  -8.316  12.952  1.00  0.00     0.041 A 
ATOM     86  F   UNL     1      -6.730  -7.746  10.910  1.00  0.00    -0.206 F 
ATOM     87  C   UNL     1      -8.629  -8.047  13.973  1.00  0.00     0.022 A 
BRANCH  84  88
ATOM     88  S   UNL     1     -10.564  -6.482  15.231  1.00  0.00     0.124 S 
ATOM     89  O   UNL     1     -10.140  -5.111  15.490  1.00  0.00    -0.237 OA
ATOM     90  O   UNL     1     -11.897  -6.640  14.659  1.00  0.00    -0.237 OA
ATOM     91  O   UNL     1     -10.221  -7.446  16.276  1.00  0.00    -0.744 OA
ENDBRANCH  84  88
ENDBRANCH  58  81
ENDBRANCH  32  33
ENDBRANCH  25  27
ENDBRANCH  24  25
ENDBRANCH  23  24
ENDBRANCH  22  23
ENDBRANCH  21  22
ENDBRANCH  20  21
ENDBRANCH   1  20
TORSDOF 23
