REMARK SMILES CC(C)(C)OC(=O)N1CC[C@@H]([NH2+]Cc2cccc(Br)c2)[C@@H](C(=O)OCCOCCOCCOC(=O)c2ccc(-c3c4nc(c(-c5cc(S(=O)(=O)[O-])ccc5F)c5ccc([nH]5)c(-c5cc(S(=O)(=O)[O-])ccc5F)c5nc(c(-c6cc(S(=O)(=O)[O-])ccc6F)c6ccc3[nH]6)C=C5)C=C4)cc2)C1
REMARK SMILES IDX 28 1 27 2 26 3 25 4 24 5 22 6 23 7 21 8 8 9 9 10 99 11 10 12
REMARK SMILES IDX 11 13 6 14 7 15 5 16 2 17 1 18 3 19 4 20 12 21 13 24 14 25
REMARK SMILES IDX 15 26 20 27 16 28 18 29 17 30 19 31 29 32 30 33 31 34 32 35
REMARK SMILES IDX 33 36 34 37 35 38 36 39 37 40 98 41 38 42 97 43 39 44 40 45
REMARK SMILES IDX 41 46 91 47 42 48 96 49 90 50 92 51 43 52 95 53 89 54 88 55
REMARK SMILES IDX 44 57 76 58 56 59 75 60 57 61 60 62 74 63 93 64 58 65 59 66
REMARK SMILES IDX 73 68 94 69 61 70 45 71 46 72 54 73 47 74 53 75 55 76 52 77
REMARK SMILES IDX 48 78 49 79 50 80 51 81 77 82 78 83 86 84 79 85 85 86 87 87
REMARK SMILES IDX 84 88 80 89 81 90 82 91 83 92 62 93 63 94 71 95 64 96 70 97
REMARK SMILES IDX 72 98 69 99 65 100 66 101 67 102 68 103
REMARK H PARENT 12 22 12 23 92 56 60 67
REMARK Flexibility Score: inf
ROOT
ATOM      1  C   UNL     1       5.681   3.605  -7.746  1.00  0.00     0.188 C 
ENDROOT
BRANCH   1   2
ATOM      2  O   UNL     1       7.045   3.642  -7.382  1.00  0.00    -0.376 OA
BRANCH   2   3
ATOM      3  C   UNL     1       7.364   3.577  -6.006  1.00  0.00     0.202 C 
BRANCH   3   4
ATOM      4  C   UNL     1       6.796   2.429  -5.155  1.00  0.00     0.261 C 
BRANCH   4   5
ATOM      5  O   UNL     1       5.434   2.047  -5.417  1.00  0.00    -0.463 OA
BRANCH   5   6
ATOM      6  C   UNL     1       4.456   2.645  -4.688  1.00  0.00     0.316 C 
ATOM      7  O   UNL     1       4.676   3.507  -3.848  1.00  0.00    -0.252 OA
BRANCH   6   8
ATOM      8  C   UNL     1       3.071   2.127  -5.090  1.00  0.00     0.177 C 
ATOM      9  N   UNL     1       0.856   1.649  -4.171  1.00  0.00    -0.307 N 
ATOM     10  C   UNL     1       0.127   2.318  -5.236  1.00  0.00     0.129 C 
ATOM     11  C   UNL     1       2.177   2.181  -3.846  1.00  0.00     0.144 C 
ATOM     12  C   UNL     1       0.968   2.384  -6.498  1.00  0.00     0.087 C 
ATOM     13  C   UNL     1       2.387   2.927  -6.229  1.00  0.00     0.200 C 
BRANCH   9  14
ATOM     14  C   UNL     1       0.296   0.593  -3.502  1.00  0.00     0.410 C 
ATOM     15  O   UNL     1      -0.640  -0.073  -3.930  1.00  0.00    -0.224 OA
BRANCH  14  16
ATOM     16  O   UNL     1       0.892   0.418  -2.303  1.00  0.00    -0.444 OA
BRANCH  16  17
ATOM     17  C   UNL     1       0.433  -0.574  -1.364  1.00  0.00     0.106 C 
ATOM     18  C   UNL     1       1.119  -0.186  -0.046  1.00  0.00     0.056 C 
ATOM     19  C   UNL     1       0.925  -1.946  -1.820  1.00  0.00     0.056 C 
ATOM     20  C   UNL     1      -1.083  -0.531  -1.147  1.00  0.00     0.056 C 
ENDBRANCH  16  17
ENDBRANCH  14  16
ENDBRANCH   9  14
BRANCH  13  21
ATOM     21  N   UNL     1       2.466   4.309  -5.803  1.00  0.00    -0.339 N 
ATOM     22  H   UNL     1       3.434   4.598  -5.943  1.00  0.00     0.346 HD
ATOM     23  H   UNL     1       2.099   4.265  -4.853  1.00  0.00     0.346 HD
BRANCH  21  24
ATOM     24  C   UNL     1       1.649   5.330  -6.399  1.00  0.00     0.297 C 
BRANCH  24  25
ATOM     25  C   UNL     1       2.340   6.636  -6.077  1.00  0.00     0.007 A 
ATOM     26  C   UNL     1       1.875   7.476  -5.060  1.00  0.00     0.009 A 
ATOM     27  C   UNL     1       3.491   7.002  -6.803  1.00  0.00     0.025 A 
ATOM     28  C   UNL     1       2.494   8.708  -4.838  1.00  0.00     0.002 A 
ATOM     29  C   UNL     1       4.083   8.243  -6.595  1.00  0.00     0.018 A 
ATOM     30  C   UNL     1       3.581   9.103  -5.624  1.00  0.00     0.016 A 
ATOM     31  Br  UNL     1       5.520   8.774  -7.701  1.00  0.00    -0.051 Br
ENDBRANCH  24  25
ENDBRANCH  21  24
ENDBRANCH  13  21
ENDBRANCH   6   8
ENDBRANCH   5   6
ENDBRANCH   4   5
ENDBRANCH   3   4
ENDBRANCH   2   3
ENDBRANCH   1   2
BRANCH   1  32
ATOM     32  C   UNL     1       5.257   2.245  -8.342  1.00  0.00     0.188 C 
BRANCH  32  33
ATOM     33  O   UNL     1       6.242   1.349  -8.837  1.00  0.00    -0.376 OA
BRANCH  33  34
ATOM     34  C   UNL     1       7.383   1.873  -9.495  1.00  0.00     0.202 C 
BRANCH  34  35
ATOM     35  C   UNL     1       7.180   2.729 -10.754  1.00  0.00     0.261 C 
BRANCH  35  36
ATOM     36  O   UNL     1       6.246   3.825 -10.651  1.00  0.00    -0.460 OA
BRANCH  36  37
ATOM     37  C   UNL     1       5.044   3.630 -11.255  1.00  0.00     0.338 C 
ATOM     38  O   UNL     1       4.686   2.613 -11.827  1.00  0.00    -0.246 OA
BRANCH  37  39
ATOM     39  C   UNL     1       4.116   4.769 -11.020  1.00  0.00     0.060 A 
ATOM     40  C   UNL     1       2.827   4.494 -10.542  1.00  0.00     0.016 A 
ATOM     41  C   UNL     1       4.449   6.078 -11.375  1.00  0.00     0.016 A 
ATOM     42  C   UNL     1       1.860   5.508 -10.464  1.00  0.00     0.010 A 
ATOM     43  C   UNL     1       3.473   7.092 -11.306  1.00  0.00     0.010 A 
ATOM     44  C   UNL     1       2.159   6.814 -10.880  1.00  0.00    -0.014 A 
BRANCH  44  45
ATOM     45  C   UNL     1       1.082   7.852 -10.994  1.00  0.00     0.031 A 
ATOM     46  C   UNL     1       0.424   8.093 -12.311  1.00  0.00     0.074 A 
ATOM     47  C   UNL     1       0.632   8.562  -9.942  1.00  0.00     0.049 A 
ATOM     48  N   UNL     1      -0.488   8.979 -12.613  1.00  0.00    -0.248 NA
ATOM     49  C   UNL     1       0.815   7.209 -13.413  1.00  0.00     0.031 C 
ATOM     50  C   UNL     1       1.069   8.321  -8.591  1.00  0.00     0.029 A 
ATOM     51  N   UNL     1      -0.265   9.598  -9.805  1.00  0.00    -0.354 N 
ATOM     52  C   UNL     1      -0.813   8.741 -13.936  1.00  0.00     0.074 A 
ATOM     53  C   UNL     1       0.045   7.662 -14.392  1.00  0.00     0.031 C 
ATOM     54  C   UNL     1       0.501   9.198  -7.756  1.00  0.00     0.029 A 
ATOM     55  C   UNL     1      -0.328  10.105  -8.522  1.00  0.00     0.049 A 
ATOM     56  H   UNL     1      -0.808   9.943 -10.549  1.00  0.00     0.167 HD
ATOM     57  C   UNL     1      -1.757   9.355 -14.688  1.00  0.00     0.034 A 
ATOM     58  C   UNL     1      -0.948  11.182  -7.996  1.00  0.00     0.034 A 
ATOM     59  C   UNL     1      -2.576  10.454 -14.235  1.00  0.00     0.049 A 
ATOM     60  C   UNL     1      -1.843  11.973  -8.901  1.00  0.00     0.074 A 
ATOM     61  C   UNL     1      -3.525  11.164 -14.950  1.00  0.00     0.029 A 
ATOM     62  N   UNL     1      -2.540  11.018 -12.965  1.00  0.00    -0.354 N 
ATOM     63  N   UNL     1      -2.117  11.751 -10.165  1.00  0.00    -0.248 NA
ATOM     64  C   UNL     1      -2.539  13.127  -8.321  1.00  0.00     0.031 C 
ATOM     65  C   UNL     1      -4.006  12.199 -14.141  1.00  0.00     0.029 A 
ATOM     66  C   UNL     1      -3.422  12.089 -12.891  1.00  0.00     0.049 A 
ATOM     67  H   UNL     1      -1.972  10.703 -12.225  1.00  0.00     0.167 HD
ATOM     68  C   UNL     1      -3.056  12.709 -10.518  1.00  0.00     0.074 A 
ATOM     69  C   UNL     1      -3.308  13.503  -9.332  1.00  0.00     0.031 C 
ATOM     70  C   UNL     1      -3.661  12.896 -11.716  1.00  0.00     0.034 A 
BRANCH  57  71
ATOM     71  C   UNL     1      -1.896   8.871 -16.104  1.00  0.00     0.023 A 
ATOM     72  C   UNL     1      -2.351   7.573 -16.393  1.00  0.00     0.031 A 
ATOM     73  C   UNL     1      -1.518   9.699 -17.173  1.00  0.00     0.131 A 
ATOM     74  C   UNL     1      -2.352   7.117 -17.717  1.00  0.00     0.055 A 
ATOM     75  C   UNL     1      -1.598   9.266 -18.496  1.00  0.00     0.041 A 
ATOM     76  F   UNL     1      -1.045  10.934 -16.947  1.00  0.00    -0.206 F 
ATOM     77  C   UNL     1      -2.005   7.963 -18.774  1.00  0.00     0.022 A 
BRANCH  74  78
ATOM     78  S   UNL     1      -2.675   5.360 -18.026  1.00  0.00     0.124 S 
ATOM     79  O   UNL     1      -1.577   4.728 -17.299  1.00  0.00    -0.237 OA
ATOM     80  O   UNL     1      -4.006   5.178 -17.458  1.00  0.00    -0.237 OA
ATOM     81  O   UNL     1      -2.597   5.249 -19.481  1.00  0.00    -0.744 OA
ENDBRANCH  74  78
ENDBRANCH  57  71
BRANCH  58  82
ATOM     82  C   UNL     1      -0.716  11.607  -6.578  1.00  0.00     0.023 A 
ATOM     83  C   UNL     1      -1.764  11.694  -5.647  1.00  0.00     0.031 A 
ATOM     84  C   UNL     1       0.564  12.018  -6.156  1.00  0.00     0.131 A 
ATOM     85  C   UNL     1      -1.529  12.233  -4.369  1.00  0.00     0.055 A 
ATOM     86  C   UNL     1       0.804  12.499  -4.866  1.00  0.00     0.041 A 
ATOM     87  F   UNL     1       1.609  11.965  -6.998  1.00  0.00    -0.206 F 
ATOM     88  C   UNL     1      -0.250  12.625  -3.969  1.00  0.00     0.022 A 
BRANCH  85  89
ATOM     89  S   UNL     1      -2.945  12.532  -3.272  1.00  0.00     0.124 S 
ATOM     90  O   UNL     1      -3.816  13.335  -4.121  1.00  0.00    -0.237 OA
ATOM     91  O   UNL     1      -3.396  11.174  -2.989  1.00  0.00    -0.237 OA
ATOM     92  O   UNL     1      -2.353  13.240  -2.138  1.00  0.00    -0.744 OA
ENDBRANCH  85  89
ENDBRANCH  58  82
BRANCH  70  93
ATOM     93  C   UNL     1      -4.698  13.987 -11.780  1.00  0.00     0.023 A 
ATOM     94  C   UNL     1      -4.359  15.339 -11.598  1.00  0.00     0.031 A 
ATOM     95  C   UNL     1      -6.052  13.664 -11.977  1.00  0.00     0.131 A 
ATOM     96  C   UNL     1      -5.370  16.309 -11.543  1.00  0.00     0.055 A 
ATOM     97  C   UNL     1      -7.045  14.643 -11.996  1.00  0.00     0.041 A 
ATOM     98  F   UNL     1      -6.433  12.387 -12.144  1.00  0.00    -0.206 F 
ATOM     99  C   UNL     1      -6.708  15.973 -11.762  1.00  0.00     0.022 A 
BRANCH  96 100
ATOM    100  S   UNL     1      -4.922  18.000 -11.063  1.00  0.00     0.124 S 
ATOM    101  O   UNL     1      -4.363  17.797  -9.731  1.00  0.00    -0.237 OA
ATOM    102  O   UNL     1      -3.971  18.378 -12.102  1.00  0.00    -0.237 OA
ATOM    103  O   UNL     1      -6.197  18.715 -11.100  1.00  0.00    -0.744 OA
ENDBRANCH  96 100
ENDBRANCH  70  93
ENDBRANCH  44  45
ENDBRANCH  37  39
ENDBRANCH  36  37
ENDBRANCH  35  36
ENDBRANCH  34  35
ENDBRANCH  33  34
ENDBRANCH  32  33
ENDBRANCH   1  32
TORSDOF 26
