REMARK SMILES C[NH+]1CC[NH+]([C@]2(C(=O)OCCOCCOCCOC(=O)c3ccc(-c4c5nc(c(-c6cc(S(=O)(=O)[O-])ccc6F)c6ccc([nH]6)c(-c6cc(S(=O)(=O)[O-])ccc6F)c6nc(c(-c7cc(S(=O)(=O)[O-])ccc7F)c7ccc4[nH]7)C=C6)C=C5)cc3)CCCC2(C)C)CC1
REMARK SMILES IDX 14 1 13 2 12 3 11 4 10 5 9 6 7 7 8 8 6 9 84 10 87 11 85 12
REMARK SMILES IDX 86 13 88 14 89 15 5 16 1 17 2 18 3 19 91 20 4 22 90 23 15 25
REMARK SMILES IDX 16 26 17 27 18 28 19 29 20 30 21 31 22 32 83 33 23 34 82 35
REMARK SMILES IDX 24 36 25 37 26 38 76 39 27 40 81 41 75 42 77 43 28 44 80 45
REMARK SMILES IDX 74 46 73 47 29 49 61 50 41 51 60 52 42 53 45 54 59 55 78 56
REMARK SMILES IDX 43 57 44 58 58 60 79 61 46 62 30 63 31 64 39 65 32 66 38 67
REMARK SMILES IDX 40 68 37 69 33 70 34 71 35 72 36 73 62 74 63 75 71 76 64 77
REMARK SMILES IDX 70 78 72 79 69 80 65 81 66 82 67 83 68 84 47 85 48 86 56 87
REMARK SMILES IDX 49 88 55 89 57 90 54 91 50 92 51 93 52 94 53 95
REMARK H PARENT 2 21 5 24 77 48 45 59
REMARK Flexibility Score: inf
ROOT
ATOM      1  C   UNL     1      -1.305  -2.355  -0.934  1.00  0.00     0.188 C 
ENDROOT
BRANCH   1   2
ATOM      2  C   UNL     1      -2.476  -1.688  -1.679  1.00  0.00     0.188 C 
BRANCH   2   3
ATOM      3  O   UNL     1      -2.200  -0.897  -2.833  1.00  0.00    -0.376 OA
BRANCH   3   4
ATOM      4  C   UNL     1      -0.989  -0.157  -2.870  1.00  0.00     0.202 C 
BRANCH   4   5
ATOM      5  C   UNL     1      -0.724   0.830  -1.724  1.00  0.00     0.261 C 
BRANCH   5   6
ATOM      6  O   UNL     1      -1.012   0.315  -0.403  1.00  0.00    -0.459 OA
BRANCH   6   7
ATOM      7  C   UNL     1      -1.536   1.197   0.484  1.00  0.00     0.368 C 
ATOM      8  O   UNL     1      -1.665   2.388   0.199  1.00  0.00    -0.245 OA
BRANCH   7   9
ATOM      9  C   UNL     1      -1.874   0.588   1.957  1.00  0.00     0.201 C 
ATOM     10  C   UNL     1      -2.495  -0.850   2.009  1.00  0.00     0.082 C 
ATOM     11  C   UNL     1      -0.447   0.373   2.686  1.00  0.00     0.031 C 
ATOM     12  C   UNL     1      -1.472  -1.820   2.588  1.00  0.00     0.008 C 
ATOM     13  C   UNL     1      -0.137  -1.128   2.444  1.00  0.00     0.014 C 
ATOM     14  C   UNL     1       0.719   1.203   2.111  1.00  0.00     0.018 C 
ATOM     15  C   UNL     1      -0.412   0.578   4.211  1.00  0.00     0.018 C 
BRANCH   9  16
ATOM     16  N   UNL     1      -2.916   1.570   2.449  1.00  0.00    -0.311 N 
ATOM     17  C   UNL     1      -6.632   3.367   3.803  1.00  0.00     0.333 C 
ATOM     18  N   UNL     1      -5.601   2.401   3.441  1.00  0.00    -0.328 N 
ATOM     19  C   UNL     1      -4.386   2.589   4.240  1.00  0.00     0.324 C 
ATOM     20  C   UNL     1      -5.249   2.517   2.020  1.00  0.00     0.324 C 
ATOM     21  H   UNL     1      -5.986   1.475   3.627  1.00  0.00     0.348 HD
ATOM     22  C   UNL     1      -3.273   1.575   3.874  1.00  0.00     0.325 C 
ATOM     23  C   UNL     1      -4.186   1.467   1.647  1.00  0.00     0.325 C 
ATOM     24  H   UNL     1      -2.425   2.453   2.309  1.00  0.00     0.349 HD
ENDBRANCH   9  16
ENDBRANCH   7   9
ENDBRANCH   6   7
ENDBRANCH   5   6
ENDBRANCH   4   5
ENDBRANCH   3   4
ENDBRANCH   2   3
ENDBRANCH   1   2
BRANCH   1  25
ATOM     25  O   UNL     1      -0.157  -2.536  -1.738  1.00  0.00    -0.376 OA
BRANCH  25  26
ATOM     26  C   UNL     1       0.381  -3.842  -1.745  1.00  0.00     0.202 C 
BRANCH  26  27
ATOM     27  C   UNL     1      -0.468  -4.827  -2.557  1.00  0.00     0.261 C 
BRANCH  27  28
ATOM     28  O   UNL     1      -1.867  -4.892  -2.209  1.00  0.00    -0.460 OA
BRANCH  28  29
ATOM     29  C   UNL     1      -2.187  -5.433  -1.010  1.00  0.00     0.338 C 
ATOM     30  O   UNL     1      -1.398  -5.878  -0.188  1.00  0.00    -0.246 OA
BRANCH  29  31
ATOM     31  C   UNL     1      -3.628  -5.187  -0.754  1.00  0.00     0.060 A 
ATOM     32  C   UNL     1      -4.024  -4.543   0.428  1.00  0.00     0.016 A 
ATOM     33  C   UNL     1      -4.591  -5.593  -1.680  1.00  0.00     0.016 A 
ATOM     34  C   UNL     1      -5.382  -4.339   0.703  1.00  0.00     0.010 A 
ATOM     35  C   UNL     1      -5.949  -5.407  -1.394  1.00  0.00     0.010 A 
ATOM     36  C   UNL     1      -6.357  -4.808  -0.188  1.00  0.00    -0.014 A 
BRANCH  36  37
ATOM     37  C   UNL     1      -7.793  -4.854   0.206  1.00  0.00     0.031 A 
ATOM     38  C   UNL     1      -8.361  -6.167   0.680  1.00  0.00     0.074 A 
ATOM     39  C   UNL     1      -8.586  -3.768   0.141  1.00  0.00     0.049 A 
ATOM     40  N   UNL     1      -9.598  -6.490   0.958  1.00  0.00    -0.248 NA
ATOM     41  C   UNL     1      -7.397  -7.263   0.855  1.00  0.00     0.031 C 
ATOM     42  C   UNL     1      -8.153  -2.426  -0.238  1.00  0.00     0.029 A 
ATOM     43  N   UNL     1      -9.934  -3.631   0.381  1.00  0.00    -0.354 N 
ATOM     44  C   UNL     1      -9.564  -7.831   1.329  1.00  0.00     0.074 A 
ATOM     45  C   UNL     1      -8.188  -8.264   1.206  1.00  0.00     0.031 C 
ATOM     46  C   UNL     1      -9.218  -1.603  -0.220  1.00  0.00     0.029 A 
ATOM     47  C   UNL     1     -10.417  -2.369   0.121  1.00  0.00     0.049 A 
ATOM     48  H   UNL     1     -10.499  -4.367   0.709  1.00  0.00     0.167 HD
ATOM     49  C   UNL     1     -10.584  -8.626   1.739  1.00  0.00     0.034 A 
ATOM     50  C   UNL     1     -11.682  -1.896   0.121  1.00  0.00     0.034 A 
ATOM     51  C   UNL     1     -11.955  -8.187   1.843  1.00  0.00     0.049 A 
ATOM     52  C   UNL     1     -12.821  -2.830   0.471  1.00  0.00     0.074 A 
ATOM     53  C   UNL     1     -13.061  -8.911   2.255  1.00  0.00     0.029 A 
ATOM     54  N   UNL     1     -12.412  -6.916   1.520  1.00  0.00    -0.354 N 
ATOM     55  N   UNL     1     -12.779  -4.098   0.814  1.00  0.00    -0.248 NA
ATOM     56  C   UNL     1     -14.179  -2.266   0.436  1.00  0.00     0.031 C 
ATOM     57  C   UNL     1     -14.195  -8.107   2.098  1.00  0.00     0.029 A 
ATOM     58  C   UNL     1     -13.788  -6.849   1.684  1.00  0.00     0.049 A 
ATOM     59  H   UNL     1     -11.843  -6.171   1.219  1.00  0.00     0.167 HD
ATOM     60  C   UNL     1     -14.100  -4.467   1.072  1.00  0.00     0.074 A 
ATOM     61  C   UNL     1     -14.910  -3.288   0.856  1.00  0.00     0.031 C 
ATOM     62  C   UNL     1     -14.595  -5.671   1.461  1.00  0.00     0.034 A 
BRANCH  49  63
ATOM     63  C   UNL     1     -10.259 -10.070   2.043  1.00  0.00     0.023 A 
ATOM     64  C   UNL     1      -9.387 -10.432   3.084  1.00  0.00     0.031 A 
ATOM     65  C   UNL     1     -10.809 -11.100   1.258  1.00  0.00     0.131 A 
ATOM     66  C   UNL     1      -9.034 -11.779   3.264  1.00  0.00     0.055 A 
ATOM     67  C   UNL     1     -10.522 -12.444   1.499  1.00  0.00     0.041 A 
ATOM     68  F   UNL     1     -11.628 -10.815   0.233  1.00  0.00    -0.206 F 
ATOM     69  C   UNL     1      -9.617 -12.790   2.497  1.00  0.00     0.022 A 
BRANCH  66  70
ATOM     70  S   UNL     1      -7.685 -12.174   4.411  1.00  0.00     0.124 S 
ATOM     71  O   UNL     1      -6.585 -11.388   3.855  1.00  0.00    -0.237 OA
ATOM     72  O   UNL     1      -8.214 -11.717   5.690  1.00  0.00    -0.237 OA
ATOM     73  O   UNL     1      -7.535 -13.622   4.278  1.00  0.00    -0.744 OA
ENDBRANCH  66  70
ENDBRANCH  49  63
BRANCH  50  74
ATOM     74  C   UNL     1     -11.967  -0.483  -0.276  1.00  0.00     0.023 A 
ATOM     75  C   UNL     1     -12.573   0.417   0.616  1.00  0.00     0.031 A 
ATOM     76  C   UNL     1     -11.706  -0.035  -1.584  1.00  0.00     0.131 A 
ATOM     77  C   UNL     1     -12.943   1.699   0.175  1.00  0.00     0.055 A 
ATOM     78  C   UNL     1     -12.018   1.261  -1.998  1.00  0.00     0.041 A 
ATOM     79  F   UNL     1     -11.140  -0.856  -2.483  1.00  0.00    -0.206 F 
ATOM     80  C   UNL     1     -12.654   2.132  -1.120  1.00  0.00     0.022 A 
BRANCH  77  81
ATOM     81  S   UNL     1     -13.905   2.759   1.290  1.00  0.00     0.124 S 
ATOM     82  O   UNL     1     -15.080   1.934   1.544  1.00  0.00    -0.237 OA
ATOM     83  O   UNL     1     -12.987   2.932   2.412  1.00  0.00    -0.237 OA
ATOM     84  O   UNL     1     -14.145   3.961   0.494  1.00  0.00    -0.744 OA
ENDBRANCH  77  81
ENDBRANCH  50  74
BRANCH  62  85
ATOM     85  C   UNL     1     -16.079  -5.760   1.738  1.00  0.00     0.023 A 
ATOM     86  C   UNL     1     -17.041  -5.593   0.727  1.00  0.00     0.031 A 
ATOM     87  C   UNL     1     -16.537  -6.017   3.045  1.00  0.00     0.131 A 
ATOM     88  C   UNL     1     -18.408  -5.631   1.046  1.00  0.00     0.055 A 
ATOM     89  C   UNL     1     -17.896  -6.121   3.344  1.00  0.00     0.041 A 
ATOM     90  F   UNL     1     -15.667  -6.180   4.054  1.00  0.00    -0.206 F 
ATOM     91  C   UNL     1     -18.841  -5.914   2.344  1.00  0.00     0.022 A 
BRANCH  88  92
ATOM     92  S   UNL     1     -19.619  -5.207  -0.237  1.00  0.00     0.124 S 
ATOM     93  O   UNL     1     -19.198  -3.862  -0.617  1.00  0.00    -0.237 OA
ATOM     94  O   UNL     1     -19.396  -6.250  -1.233  1.00  0.00    -0.237 OA
ATOM     95  O   UNL     1     -20.901  -5.281   0.461  1.00  0.00    -0.744 OA
ENDBRANCH  88  92
ENDBRANCH  62  85
ENDBRANCH  36  37
ENDBRANCH  29  31
ENDBRANCH  28  29
ENDBRANCH  27  28
ENDBRANCH  26  27
ENDBRANCH  25  26
ENDBRANCH   1  25
TORSDOF 21
