REMARK SMILES CC(C)C[C@@H](C)NS(=O)(=O)c1ccsc1C(=O)OCCOCCOCCOC(=O)c1ccc(-c2c3nc(c(-c4cc(S(=O)(=O)[O-])ccc4F)c4ccc([nH]4)c(-c4cc(S(=O)(=O)[O-])ccc4F)c4nc(c(-c5cc(S(=O)(=O)[O-])ccc5F)c5ccc2[nH]5)C=C4)C=C3)cc1
REMARK SMILES IDX 22 1 21 2 20 3 19 4 18 5 16 6 17 7 15 8 11 9 12 10 13 11
REMARK SMILES IDX 14 12 8 13 9 14 10 15 7 16 5 18 6 19 4 20 2 21 1 22 3 23
REMARK SMILES IDX 23 24 24 25 25 26 26 27 27 28 28 29 29 30 30 31 31 32 92 33
REMARK SMILES IDX 32 34 91 35 33 36 34 37 35 38 85 39 36 40 90 41 84 42 86 43
REMARK SMILES IDX 37 44 89 45 83 46 82 47 38 49 70 50 50 51 69 52 51 53 54 54
REMARK SMILES IDX 68 55 87 56 52 57 53 58 67 60 88 61 55 62 39 63 40 64 48 65
REMARK SMILES IDX 41 66 47 67 49 68 46 69 42 70 43 71 44 72 45 73 71 74 72 75
REMARK SMILES IDX 80 76 73 77 79 78 81 79 78 80 74 81 75 82 76 83 77 84 56 85
REMARK SMILES IDX 57 86 65 87 58 88 64 89 66 90 63 91 59 92 60 93 61 94 62 95
REMARK H PARENT 7 17 86 48 54 59
REMARK Flexibility Score: inf
ROOT
ATOM      1  C   UNL     1      -2.551   3.416   6.490  1.00  0.00     0.188 C 
ENDROOT
BRANCH   1   2
ATOM      2  O   UNL     1      -1.839   4.649   6.597  1.00  0.00    -0.376 OA
BRANCH   2   3
ATOM      3  C   UNL     1      -1.476   5.340   5.402  1.00  0.00     0.202 C 
BRANCH   3   4
ATOM      4  C   UNL     1      -0.749   4.539   4.313  1.00  0.00     0.261 C 
BRANCH   4   5
ATOM      5  O   UNL     1      -1.500   3.386   3.907  1.00  0.00    -0.459 OA
BRANCH   5   6
ATOM      6  C   UNL     1      -0.803   2.264   3.608  1.00  0.00     0.349 C 
ATOM      7  O   UNL     1       0.414   2.222   3.474  1.00  0.00    -0.245 OA
BRANCH   6   8
ATOM      8  C   UNL     1      -1.691   1.119   3.568  1.00  0.00     0.132 A 
ATOM      9  C   UNL     1      -2.844   0.852   2.843  1.00  0.00     0.107 A 
ATOM     10  C   UNL     1      -3.381  -0.444   3.146  1.00  0.00     0.034 A 
ATOM     11  C   UNL     1      -2.631  -1.118   4.080  1.00  0.00     0.067 A 
ATOM     12  S   UNL     1      -1.274  -0.213   4.577  1.00  0.00    -0.136 S 
BRANCH   9  13
ATOM     13  S   UNL     1      -3.538   1.847   1.602  1.00  0.00     0.242 S 
ATOM     14  O   UNL     1      -3.325   3.219   1.976  1.00  0.00    -0.207 OA
ATOM     15  O   UNL     1      -4.874   1.329   1.398  1.00  0.00    -0.207 OA
BRANCH  13  16
ATOM     16  N   UNL     1      -2.702   1.568   0.165  1.00  0.00    -0.208 NA
ATOM     17  H   UNL     1      -2.936   0.622  -0.136  1.00  0.00     0.141 HD
BRANCH  16  18
ATOM     18  C   UNL     1      -1.226   1.671   0.150  1.00  0.00     0.067 C 
ATOM     19  C   UNL     1      -0.767   3.122   0.233  1.00  0.00     0.025 C 
BRANCH  18  20
ATOM     20  C   UNL     1      -0.738   0.989  -1.140  1.00  0.00     0.022 C 
BRANCH  20  21
ATOM     21  C   UNL     1       0.791   0.822  -1.237  1.00  0.00    -0.016 C 
ATOM     22  C   UNL     1       1.343  -0.105  -0.151  1.00  0.00     0.007 C 
ATOM     23  C   UNL     1       1.164   0.285  -2.619  1.00  0.00     0.007 C 
ENDBRANCH  20  21
ENDBRANCH  18  20
ENDBRANCH  16  18
ENDBRANCH  13  16
ENDBRANCH   9  13
ENDBRANCH   6   8
ENDBRANCH   5   6
ENDBRANCH   4   5
ENDBRANCH   3   4
ENDBRANCH   2   3
ENDBRANCH   1   2
BRANCH   1  24
ATOM     24  C   UNL     1      -3.803   3.349   5.589  1.00  0.00     0.188 C 
BRANCH  24  25
ATOM     25  O   UNL     1      -4.072   4.555   4.901  1.00  0.00    -0.376 OA
BRANCH  25  26
ATOM     26  C   UNL     1      -5.270   5.228   5.250  1.00  0.00     0.202 C 
BRANCH  26  27
ATOM     27  C   UNL     1      -5.376   5.752   6.692  1.00  0.00     0.261 C 
BRANCH  27  28
ATOM     28  O   UNL     1      -5.069   4.810   7.735  1.00  0.00    -0.460 OA
BRANCH  28  29
ATOM     29  C   UNL     1      -5.987   3.844   7.973  1.00  0.00     0.338 C 
ATOM     30  O   UNL     1      -7.047   3.695   7.394  1.00  0.00    -0.246 OA
BRANCH  29  31
ATOM     31  C   UNL     1      -5.394   2.867   8.916  1.00  0.00     0.060 A 
ATOM     32  C   UNL     1      -5.268   1.531   8.514  1.00  0.00     0.016 A 
ATOM     33  C   UNL     1      -4.976   3.261  10.190  1.00  0.00     0.016 A 
ATOM     34  C   UNL     1      -4.765   0.577   9.402  1.00  0.00     0.010 A 
ATOM     35  C   UNL     1      -4.489   2.300  11.085  1.00  0.00     0.010 A 
ATOM     36  C   UNL     1      -4.417   0.947  10.709  1.00  0.00    -0.014 A 
BRANCH  36  37
ATOM     37  C   UNL     1      -4.184  -0.111  11.728  1.00  0.00     0.031 A 
ATOM     38  C   UNL     1      -5.331  -0.500  12.625  1.00  0.00     0.074 A 
ATOM     39  C   UNL     1      -3.004  -0.748  11.828  1.00  0.00     0.049 A 
ATOM     40  N   UNL     1      -5.378  -1.391  13.582  1.00  0.00    -0.248 NA
ATOM     41  C   UNL     1      -6.596   0.220  12.410  1.00  0.00     0.031 C 
ATOM     42  C   UNL     1      -1.833  -0.493  10.991  1.00  0.00     0.029 A 
ATOM     43  N   UNL     1      -2.596  -1.745  12.681  1.00  0.00    -0.354 N 
ATOM     44  C   UNL     1      -6.675  -1.342  14.082  1.00  0.00     0.074 A 
ATOM     45  C   UNL     1      -7.367  -0.301  13.351  1.00  0.00     0.031 C 
ATOM     46  C   UNL     1      -0.837  -1.312  11.374  1.00  0.00     0.029 A 
ATOM     47  C   UNL     1      -1.286  -2.126  12.504  1.00  0.00     0.049 A 
ATOM     48  H   UNL     1      -3.187  -2.150  13.356  1.00  0.00     0.167 HD
ATOM     49  C   UNL     1      -7.243  -2.102  15.051  1.00  0.00     0.034 A 
ATOM     50  C   UNL     1      -0.534  -3.014  13.186  1.00  0.00     0.034 A 
ATOM     51  C   UNL     1      -6.537  -3.123  15.785  1.00  0.00     0.049 A 
ATOM     52  C   UNL     1      -1.162  -3.792  14.321  1.00  0.00     0.074 A 
ATOM     53  C   UNL     1      -7.013  -3.951  16.787  1.00  0.00     0.029 A 
ATOM     54  N   UNL     1      -5.197  -3.448  15.609  1.00  0.00    -0.354 N 
ATOM     55  N   UNL     1      -2.393  -3.743  14.777  1.00  0.00    -0.248 NA
ATOM     56  C   UNL     1      -0.301  -4.755  15.022  1.00  0.00     0.031 C 
ATOM     57  C   UNL     1      -5.948  -4.722  17.265  1.00  0.00     0.029 A 
ATOM     58  C   UNL     1      -4.825  -4.442  16.502  1.00  0.00     0.049 A 
ATOM     59  H   UNL     1      -4.599  -3.033  14.946  1.00  0.00     0.167 HD
ATOM     60  C   UNL     1      -2.462  -4.699  15.790  1.00  0.00     0.074 A 
ATOM     61  C   UNL     1      -1.153  -5.313  15.869  1.00  0.00     0.031 C 
ATOM     62  C   UNL     1      -3.515  -5.046  16.576  1.00  0.00     0.034 A 
BRANCH  49  63
ATOM     63  C   UNL     1      -8.683  -1.810  15.403  1.00  0.00     0.023 A 
ATOM     64  C   UNL     1      -9.725  -1.989  14.475  1.00  0.00     0.031 A 
ATOM     65  C   UNL     1      -9.014  -1.312  16.676  1.00  0.00     0.131 A 
ATOM     66  C   UNL     1     -11.032  -1.603  14.808  1.00  0.00     0.055 A 
ATOM     67  C   UNL     1     -10.331  -1.009  17.028  1.00  0.00     0.041 A 
ATOM     68  F   UNL     1      -8.061  -1.097  17.596  1.00  0.00    -0.206 F 
ATOM     69  C   UNL     1     -11.347  -1.139  16.087  1.00  0.00     0.022 A 
BRANCH  66  70
ATOM     70  S   UNL     1     -12.289  -1.578  13.499  1.00  0.00     0.124 S 
ATOM     71  O   UNL     1     -11.691  -0.659  12.534  1.00  0.00    -0.237 OA
ATOM     72  O   UNL     1     -12.353  -2.977  13.096  1.00  0.00    -0.237 OA
ATOM     73  O   UNL     1     -13.479  -1.068  14.177  1.00  0.00    -0.744 OA
ENDBRANCH  66  70
ENDBRANCH  49  63
BRANCH  50  74
ATOM     74  C   UNL     1       0.908  -3.206  12.847  1.00  0.00     0.023 A 
ATOM     75  C   UNL     1       1.394  -4.443  12.392  1.00  0.00     0.031 A 
ATOM     76  C   UNL     1       1.835  -2.166  13.038  1.00  0.00     0.131 A 
ATOM     77  C   UNL     1       2.772  -4.623  12.190  1.00  0.00     0.055 A 
ATOM     78  C   UNL     1       3.197  -2.334  12.782  1.00  0.00     0.041 A 
ATOM     79  F   UNL     1       1.427  -0.965  13.477  1.00  0.00    -0.206 F 
ATOM     80  C   UNL     1       3.675  -3.573  12.368  1.00  0.00     0.022 A 
BRANCH  77  81
ATOM     81  S   UNL     1       3.382  -6.281  11.776  1.00  0.00     0.124 S 
ATOM     82  O   UNL     1       2.913  -7.062  12.915  1.00  0.00    -0.237 OA
ATOM     83  O   UNL     1       2.717  -6.540  10.504  1.00  0.00    -0.237 OA
ATOM     84  O   UNL     1       4.830  -6.101  11.695  1.00  0.00    -0.744 OA
ENDBRANCH  77  81
ENDBRANCH  50  74
BRANCH  62  85
ATOM     85  C   UNL     1      -3.309  -6.188  17.545  1.00  0.00     0.023 A 
ATOM     86  C   UNL     1      -2.417  -6.099  18.628  1.00  0.00     0.031 A 
ATOM     87  C   UNL     1      -4.016  -7.392  17.370  1.00  0.00     0.131 A 
ATOM     88  C   UNL     1      -2.207  -7.214  19.455  1.00  0.00     0.055 A 
ATOM     89  C   UNL     1      -3.853  -8.475  18.236  1.00  0.00     0.041 A 
ATOM     90  F   UNL     1      -4.881  -7.537  16.353  1.00  0.00    -0.206 F 
ATOM     91  C   UNL     1      -2.933  -8.395  19.276  1.00  0.00     0.022 A 
BRANCH  88  92
ATOM     92  S   UNL     1      -0.895  -7.139  20.706  1.00  0.00     0.124 S 
ATOM     93  O   UNL     1       0.277  -6.820  19.897  1.00  0.00    -0.237 OA
ATOM     94  O   UNL     1      -1.367  -6.079  21.590  1.00  0.00    -0.237 OA
ATOM     95  O   UNL     1      -0.900  -8.480  21.289  1.00  0.00    -0.744 OA
ENDBRANCH  88  92
ENDBRANCH  62  85
ENDBRANCH  36  37
ENDBRANCH  29  31
ENDBRANCH  28  29
ENDBRANCH  27  28
ENDBRANCH  26  27
ENDBRANCH  25  26
ENDBRANCH  24  25
ENDBRANCH   1  24
TORSDOF 25
