REMARK SMILES CCc1ccnc(C(=O)c2[nH]c3ccc(OC(F)(F)F)cc3c2CC(=O)OCCOCCOCCOC(=O)c2ccc(-c3c4nc(c(-c5cc(S(=O)(=O)[O-])ccc5F)c5ccc([nH]5)c(-c5cc(S(=O)(=O)[O-])ccc5F)c5nc(c(-c6cc(S(=O)(=O)[O-])ccc6F)c6ccc3[nH]6)C=C5)C=C4)cc2)c1
REMARK SMILES IDX 31 1 30 2 29 3 28 4 27 5 25 6 26 7 24 8 23 9 10 10 11 11
REMARK SMILES IDX 12 12 22 14 13 15 21 16 14 17 15 18 8 19 9 20 7 21 3 22 4 23
REMARK SMILES IDX 102 24 5 25 6 26 2 27 1 28 16 29 17 30 18 31 19 32 20 33
REMARK SMILES IDX 32 34 33 35 34 36 35 37 36 38 37 39 38 40 39 41 40 42 101 43
REMARK SMILES IDX 41 44 100 45 42 46 43 47 44 48 94 49 45 50 99 51 93 52 95 53
REMARK SMILES IDX 46 54 98 55 92 56 91 57 47 59 79 60 59 61 78 62 60 63 63 64
REMARK SMILES IDX 77 65 96 66 61 67 62 68 76 70 97 71 64 72 48 73 49 74 57 75
REMARK SMILES IDX 50 76 56 77 58 78 55 79 51 80 52 81 53 82 54 83 80 84 81 85
REMARK SMILES IDX 89 86 82 87 88 88 90 89 87 90 83 91 84 92 85 93 86 94 65 95
REMARK SMILES IDX 66 96 74 97 67 98 73 99 75 100 72 101 68 102 69 103 70 104
REMARK SMILES IDX 71 105
REMARK H PARENT 11 13 95 58 63 69
REMARK Flexibility Score: inf
ROOT
ATOM      1  C   UNL     1       1.763   5.598   6.226  1.00  0.00     0.188 C 
ENDROOT
BRANCH   1   2
ATOM      2  O   UNL     1       1.980   6.872   6.825  1.00  0.00    -0.376 OA
BRANCH   2   3
ATOM      3  C   UNL     1       1.579   8.021   6.090  1.00  0.00     0.202 C 
BRANCH   3   4
ATOM      4  C   UNL     1       2.313   8.244   4.768  1.00  0.00     0.261 C 
BRANCH   4   5
ATOM      5  O   UNL     1       1.975   7.248   3.775  1.00  0.00    -0.463 OA
BRANCH   5   6
ATOM      6  C   UNL     1       2.996   6.874   2.963  1.00  0.00     0.310 C 
ATOM      7  O   UNL     1       4.109   7.398   3.002  1.00  0.00    -0.252 OA
BRANCH   6   8
ATOM      8  C   UNL     1       2.710   5.751   1.987  1.00  0.00     0.161 C 
BRANCH   8   9
ATOM      9  C   UNL     1       1.302   5.244   1.777  1.00  0.00     0.000 A 
ATOM     10  C   UNL     1       0.759   4.040   2.239  1.00  0.00     0.093 A 
ATOM     11  N   UNL     1      -0.551   3.992   1.819  1.00  0.00    -0.352 N 
ATOM     12  C   UNL     1      -0.755   4.918   0.828  1.00  0.00     0.046 A 
ATOM     13  H   UNL     1      -1.238   3.384   2.176  1.00  0.00     0.167 HD
ATOM     14  C   UNL     1       0.374   5.732   0.796  1.00  0.00     0.008 A 
ATOM     15  C   UNL     1      -1.829   5.067  -0.054  1.00  0.00     0.030 A 
ATOM     16  C   UNL     1       0.439   6.738  -0.188  1.00  0.00     0.057 A 
ATOM     17  C   UNL     1      -1.708   6.032  -1.061  1.00  0.00     0.049 A 
ATOM     18  C   UNL     1      -0.578   6.844  -1.148  1.00  0.00     0.130 A 
BRANCH  10  19
ATOM     19  C   UNL     1       1.408   3.004   3.022  1.00  0.00     0.227 C 
ATOM     20  O   UNL     1       2.377   3.257   3.733  1.00  0.00    -0.285 OA
BRANCH  19  21
ATOM     21  C   UNL     1       0.934   1.586   2.913  1.00  0.00     0.113 A 
ATOM     22  C   UNL     1       0.584  -0.416   1.633  1.00  0.00    -0.044 A 
ATOM     23  C   UNL     1       0.454  -1.102   2.845  1.00  0.00     0.024 A 
ATOM     24  C   UNL     1       0.810   0.967   1.674  1.00  0.00     0.036 A 
ATOM     25  C   UNL     1       0.536  -0.391   4.027  1.00  0.00     0.112 A 
ATOM     26  N   UNL     1       0.758   0.938   4.085  1.00  0.00    -0.253 NA
BRANCH  22  27
ATOM     27  C   UNL     1       0.474  -1.203   0.349  1.00  0.00     0.032 C 
ATOM     28  C   UNL     1       1.152  -0.575  -0.861  1.00  0.00     0.009 C 
ENDBRANCH  22  27
ENDBRANCH  19  21
ENDBRANCH  10  19
BRANCH  18  29
ATOM     29  O   UNL     1      -0.325   7.768  -2.124  1.00  0.00    -0.406 OA
BRANCH  29  30
ATOM     30  C   UNL     1      -1.094   7.684  -3.311  1.00  0.00     0.573 C 
ATOM     31  F   UNL     1      -1.089   6.437  -3.829  1.00  0.00    -0.132 F 
ATOM     32  F   UNL     1      -2.368   8.073  -3.085  1.00  0.00    -0.132 F 
ATOM     33  F   UNL     1      -0.562   8.519  -4.232  1.00  0.00    -0.132 F 
ENDBRANCH  29  30
ENDBRANCH  18  29
ENDBRANCH   8   9
ENDBRANCH   6   8
ENDBRANCH   5   6
ENDBRANCH   4   5
ENDBRANCH   3   4
ENDBRANCH   2   3
ENDBRANCH   1   2
BRANCH   1  34
ATOM     34  C   UNL     1       0.409   5.339   5.535  1.00  0.00     0.188 C 
BRANCH  34  35
ATOM     35  O   UNL     1      -0.747   6.002   6.037  1.00  0.00    -0.376 OA
BRANCH  35  36
ATOM     36  C   UNL     1      -1.005   5.877   7.430  1.00  0.00     0.202 C 
BRANCH  36  37
ATOM     37  C   UNL     1      -1.293   4.450   7.880  1.00  0.00     0.261 C 
BRANCH  37  38
ATOM     38  O   UNL     1      -0.076   3.682   7.934  1.00  0.00    -0.460 OA
BRANCH  38  39
ATOM     39  C   UNL     1      -0.222   2.380   7.594  1.00  0.00     0.338 C 
ATOM     40  O   UNL     1      -1.264   1.816   7.306  1.00  0.00    -0.246 OA
BRANCH  39  41
ATOM     41  C   UNL     1       1.076   1.682   7.612  1.00  0.00     0.060 A 
ATOM     42  C   UNL     1       1.988   1.904   6.590  1.00  0.00     0.016 A 
ATOM     43  C   UNL     1       1.272   0.622   8.492  1.00  0.00     0.016 A 
ATOM     44  C   UNL     1       2.996   0.973   6.331  1.00  0.00     0.010 A 
ATOM     45  C   UNL     1       2.352  -0.250   8.297  1.00  0.00     0.010 A 
ATOM     46  C   UNL     1       3.181  -0.136   7.165  1.00  0.00    -0.014 A 
BRANCH  46  47
ATOM     47  C   UNL     1       4.138  -1.230   6.798  1.00  0.00     0.031 A 
ATOM     48  C   UNL     1       3.640  -2.654   6.661  1.00  0.00     0.074 A 
ATOM     49  C   UNL     1       5.434  -0.968   6.529  1.00  0.00     0.049 A 
ATOM     50  N   UNL     1       4.317  -3.768   6.527  1.00  0.00    -0.248 NA
ATOM     51  C   UNL     1       2.181  -2.849   6.668  1.00  0.00     0.031 C 
ATOM     52  C   UNL     1       6.043   0.362   6.490  1.00  0.00     0.029 A 
ATOM     53  N   UNL     1       6.480  -1.814   6.236  1.00  0.00    -0.354 N 
ATOM     54  C   UNL     1       3.373  -4.790   6.462  1.00  0.00     0.074 A 
ATOM     55  C   UNL     1       2.074  -4.166   6.579  1.00  0.00     0.031 C 
ATOM     56  C   UNL     1       7.340   0.246   6.170  1.00  0.00     0.029 A 
ATOM     57  C   UNL     1       7.690  -1.168   6.107  1.00  0.00     0.049 A 
ATOM     58  H   UNL     1       6.374  -2.787   6.129  1.00  0.00     0.167 HD
ATOM     59  C   UNL     1       3.570  -6.127   6.335  1.00  0.00     0.034 A 
ATOM     60  C   UNL     1       8.948  -1.647   6.030  1.00  0.00     0.034 A 
ATOM     61  C   UNL     1       4.872  -6.742   6.255  1.00  0.00     0.049 A 
ATOM     62  C   UNL     1       9.159  -3.139   6.076  1.00  0.00     0.074 A 
ATOM     63  C   UNL     1       5.191  -8.088   6.193  1.00  0.00     0.029 A 
ATOM     64  N   UNL     1       6.077  -6.051   6.243  1.00  0.00    -0.354 N 
ATOM     65  N   UNL     1       8.265  -4.100   6.112  1.00  0.00    -0.248 NA
ATOM     66  C   UNL     1      10.550  -3.610   6.095  1.00  0.00     0.031 C 
ATOM     67  C   UNL     1       6.584  -8.212   6.230  1.00  0.00     0.029 A 
ATOM     68  C   UNL     1       7.139  -6.942   6.223  1.00  0.00     0.049 A 
ATOM     69  H   UNL     1       6.164  -5.070   6.248  1.00  0.00     0.167 HD
ATOM     70  C   UNL     1       8.988  -5.289   6.141  1.00  0.00     0.074 A 
ATOM     71  C   UNL     1      10.389  -4.925   6.097  1.00  0.00     0.031 C 
ATOM     72  C   UNL     1       8.533  -6.567   6.198  1.00  0.00     0.034 A 
BRANCH  59  73
ATOM     73  C   UNL     1       2.347  -7.014   6.381  1.00  0.00     0.023 A 
ATOM     74  C   UNL     1       1.372  -7.000   5.369  1.00  0.00     0.031 A 
ATOM     75  C   UNL     1       2.139  -7.864   7.483  1.00  0.00     0.131 A 
ATOM     76  C   UNL     1       0.207  -7.772   5.508  1.00  0.00     0.055 A 
ATOM     77  C   UNL     1       1.013  -8.683   7.582  1.00  0.00     0.041 A 
ATOM     78  F   UNL     1       3.022  -7.901   8.493  1.00  0.00    -0.206 F 
ATOM     79  C   UNL     1       0.031  -8.630   6.597  1.00  0.00     0.022 A 
BRANCH  76  80
ATOM     80  S   UNL     1      -1.143  -7.534   4.318  1.00  0.00     0.124 S 
ATOM     81  O   UNL     1      -1.394  -6.099   4.435  1.00  0.00    -0.237 OA
ATOM     82  O   UNL     1      -0.540  -7.974   3.066  1.00  0.00    -0.237 OA
ATOM     83  O   UNL     1      -2.210  -8.390   4.833  1.00  0.00    -0.744 OA
ENDBRANCH  76  80
ENDBRANCH  59  73
BRANCH  60  84
ATOM     84  C   UNL     1      10.113  -0.710   6.026  1.00  0.00     0.023 A 
ATOM     85  C   UNL     1      11.032  -0.683   4.965  1.00  0.00     0.031 A 
ATOM     86  C   UNL     1      10.347   0.149   7.118  1.00  0.00     0.131 A 
ATOM     87  C   UNL     1      12.151   0.165   5.031  1.00  0.00     0.055 A 
ATOM     88  C   UNL     1      11.423   1.037   7.147  1.00  0.00     0.041 A 
ATOM     89  F   UNL     1       9.516   0.151   8.173  1.00  0.00    -0.206 F 
ATOM     90  C   UNL     1      12.340   1.040   6.103  1.00  0.00     0.022 A 
BRANCH  87  91
ATOM     91  S   UNL     1      13.414   0.044   3.734  1.00  0.00     0.124 S 
ATOM     92  O   UNL     1      13.802  -1.359   3.826  1.00  0.00    -0.237 OA
ATOM     93  O   UNL     1      12.665   0.425   2.542  1.00  0.00    -0.237 OA
ATOM     94  O   UNL     1      14.433   1.002   4.160  1.00  0.00    -0.744 OA
ENDBRANCH  87  91
ENDBRANCH  60  84
BRANCH  72  95
ATOM     95  C   UNL     1       9.570  -7.663   6.173  1.00  0.00     0.023 A 
ATOM     96  C   UNL     1      10.472  -7.854   7.235  1.00  0.00     0.031 A 
ATOM     97  C   UNL     1       9.671  -8.514   5.058  1.00  0.00     0.131 A 
ATOM     98  C   UNL     1      11.473  -8.831   7.133  1.00  0.00     0.055 A 
ATOM     99  C   UNL     1      10.628  -9.526   4.990  1.00  0.00     0.041 A 
ATOM    100  F   UNL     1       8.837  -8.375   4.014  1.00  0.00    -0.206 F 
ATOM    101  C   UNL     1      11.546  -9.680   6.026  1.00  0.00     0.022 A 
BRANCH  98 102
ATOM    102  S   UNL     1      12.743  -8.915   8.425  1.00  0.00     0.124 S 
ATOM    103  O   UNL     1      13.318  -7.575   8.372  1.00  0.00    -0.237 OA
ATOM    104  O   UNL     1      11.958  -9.226   9.616  1.00  0.00    -0.237 OA
ATOM    105  O   UNL     1      13.626  -9.987   7.969  1.00  0.00    -0.744 OA
ENDBRANCH  98 102
ENDBRANCH  72  95
ENDBRANCH  46  47
ENDBRANCH  39  41
ENDBRANCH  38  39
ENDBRANCH  37  38
ENDBRANCH  36  37
ENDBRANCH  35  36
ENDBRANCH  34  35
ENDBRANCH   1  34
TORSDOF 26
