REMARK SMILES C[C@H]1C[C@@H]1c1nc(-c2ccccc2)c(CC(=O)OCCOCCOCCOC(=O)c2ccc(-c3c4nc(c(-c5cc(S(=O)(=O)[O-])ccc5F)c5ccc([nH]5)c(-c5cc(S(=O)(=O)[O-])ccc5F)c5nc(c(-c6cc(S(=O)(=O)[O-])ccc6F)c6ccc3[nH]6)C=C5)C=C4)cc2)s1
REMARK SMILES IDX 23 1 22 2 21 3 20 4 19 5 18 6 16 7 17 8 15 9 14 10 5 11 6 12
REMARK SMILES IDX 93 13 7 14 4 15 1 16 2 17 3 18 8 19 9 20 13 21 10 22 12 23
REMARK SMILES IDX 11 24 24 25 25 26 26 27 27 28 28 29 29 30 30 31 31 32 92 33
REMARK SMILES IDX 32 34 91 35 33 36 34 37 35 38 85 39 36 40 90 41 84 42 86 43
REMARK SMILES IDX 37 44 89 45 83 46 82 47 38 49 70 50 50 51 69 52 51 53 54 54
REMARK SMILES IDX 68 55 87 56 52 57 53 58 67 60 88 61 55 62 39 63 40 64 48 65
REMARK SMILES IDX 41 66 47 67 49 68 46 69 42 70 43 71 44 72 45 73 71 74 72 75
REMARK SMILES IDX 80 76 73 77 79 78 81 79 78 80 74 81 75 82 76 83 77 84 56 85
REMARK SMILES IDX 57 86 65 87 58 88 64 89 66 90 63 91 59 92 60 93 61 94 62 95
REMARK H PARENT 86 48 54 59
REMARK Flexibility Score: inf
ROOT
ATOM      1  C   UNL     1       4.606   3.059  -2.575  1.00  0.00     0.188 C 
ENDROOT
BRANCH   1   2
ATOM      2  C   UNL     1       5.513   4.097  -1.896  1.00  0.00     0.188 C 
BRANCH   2   3
ATOM      3  O   UNL     1       6.381   4.884  -2.708  1.00  0.00    -0.376 OA
BRANCH   3   4
ATOM      4  C   UNL     1       6.991   4.282  -3.845  1.00  0.00     0.202 C 
BRANCH   4   5
ATOM      5  C   UNL     1       7.816   3.000  -3.618  1.00  0.00     0.261 C 
BRANCH   5   6
ATOM      6  O   UNL     1       7.108   1.944  -2.925  1.00  0.00    -0.463 OA
BRANCH   6   7
ATOM      7  C   UNL     1       7.761   1.307  -1.917  1.00  0.00     0.311 C 
ATOM      8  O   UNL     1       8.964   1.448  -1.708  1.00  0.00    -0.252 OA
BRANCH   7   9
ATOM      9  C   UNL     1       6.867   0.561  -0.923  1.00  0.00     0.171 C 
BRANCH   9  10
ATOM     10  C   UNL     1       5.664  -0.171  -1.462  1.00  0.00     0.044 A 
ATOM     11  C   UNL     1       3.382  -0.848  -2.005  1.00  0.00     0.097 A 
ATOM     12  N   UNL     1       4.235  -1.465  -2.799  1.00  0.00    -0.241 NA
ATOM     13  S   UNL     1       4.107   0.030  -0.723  1.00  0.00    -0.122 S 
ATOM     14  C   UNL     1       5.530  -1.232  -2.345  1.00  0.00     0.085 A 
BRANCH  11  15
ATOM     15  C   UNL     1       1.859  -0.936  -2.238  1.00  0.00     0.052 C 
ATOM     16  C   UNL     1      -0.460   0.140  -1.535  1.00  0.00     0.008 C 
ATOM     17  C   UNL     1       0.856  -0.471  -1.191  1.00  0.00    -0.004 C 
ATOM     18  C   UNL     1       1.058  -1.939  -1.437  1.00  0.00     0.015 C 
ENDBRANCH  11  15
BRANCH  14  19
ATOM     19  C   UNL     1       6.647  -2.086  -2.706  1.00  0.00     0.001 A 
ATOM     20  C   UNL     1       7.453  -2.614  -1.682  1.00  0.00     0.010 A 
ATOM     21  C   UNL     1       6.925  -2.415  -4.031  1.00  0.00     0.010 A 
ATOM     22  C   UNL     1       8.578  -3.378  -1.978  1.00  0.00     0.001 A 
ATOM     23  C   UNL     1       8.047  -3.196  -4.328  1.00  0.00     0.001 A 
ATOM     24  C   UNL     1       8.882  -3.658  -3.306  1.00  0.00     0.000 A 
ENDBRANCH  14  19
ENDBRANCH   9  10
ENDBRANCH   7   9
ENDBRANCH   6   7
ENDBRANCH   5   6
ENDBRANCH   4   5
ENDBRANCH   3   4
ENDBRANCH   2   3
ENDBRANCH   1   2
BRANCH   1  25
ATOM     25  O   UNL     1       4.476   3.246  -3.968  1.00  0.00    -0.376 OA
BRANCH  25  26
ATOM     26  C   UNL     1       3.161   3.325  -4.472  1.00  0.00     0.202 C 
BRANCH  26  27
ATOM     27  C   UNL     1       2.415   4.604  -4.070  1.00  0.00     0.261 C 
BRANCH  27  28
ATOM     28  O   UNL     1       2.390   4.908  -2.661  1.00  0.00    -0.460 OA
BRANCH  28  29
ATOM     29  C   UNL     1       1.634   4.103  -1.880  1.00  0.00     0.338 C 
ATOM     30  O   UNL     1       0.968   3.153  -2.264  1.00  0.00    -0.246 OA
BRANCH  29  31
ATOM     31  C   UNL     1       1.923   4.416  -0.462  1.00  0.00     0.060 A 
ATOM     32  C   UNL     1       2.462   3.425   0.371  1.00  0.00     0.016 A 
ATOM     33  C   UNL     1       1.662   5.687   0.048  1.00  0.00     0.016 A 
ATOM     34  C   UNL     1       2.732   3.693   1.716  1.00  0.00     0.010 A 
ATOM     35  C   UNL     1       1.905   5.948   1.400  1.00  0.00     0.010 A 
ATOM     36  C   UNL     1       2.418   4.948   2.248  1.00  0.00    -0.014 A 
BRANCH  36  37
ATOM     37  C   UNL     1       2.425   5.169   3.718  1.00  0.00     0.031 A 
ATOM     38  C   UNL     1       1.110   5.126   4.446  1.00  0.00     0.074 A 
ATOM     39  C   UNL     1       3.560   5.418   4.396  1.00  0.00     0.049 A 
ATOM     40  N   UNL     1       0.829   5.436   5.684  1.00  0.00    -0.248 NA
ATOM     41  C   UNL     1      -0.048   4.684   3.655  1.00  0.00     0.031 C 
ATOM     42  C   UNL     1       4.904   5.419   3.822  1.00  0.00     0.029 A 
ATOM     43  N   UNL     1       3.757   5.739   5.717  1.00  0.00    -0.354 N 
ATOM     44  C   UNL     1      -0.544   5.250   5.817  1.00  0.00     0.074 A 
ATOM     45  C   UNL     1      -1.037   4.833   4.521  1.00  0.00     0.031 C 
ATOM     46  C   UNL     1       5.785   5.749   4.782  1.00  0.00     0.029 A 
ATOM     47  C   UNL     1       5.065   6.036   6.023  1.00  0.00     0.049 A 
ATOM     48  H   UNL     1       3.031   5.755   6.382  1.00  0.00     0.167 HD
ATOM     49  C   UNL     1      -1.319   5.412   6.918  1.00  0.00     0.034 A 
ATOM     50  C   UNL     1       5.610   6.525   7.157  1.00  0.00     0.034 A 
ATOM     51  C   UNL     1      -0.810   5.843   8.197  1.00  0.00     0.049 A 
ATOM     52  C   UNL     1       4.716   6.802   8.345  1.00  0.00     0.074 A 
ATOM     53  C   UNL     1      -1.501   6.028   9.381  1.00  0.00     0.029 A 
ATOM     54  N   UNL     1       0.514   6.176   8.456  1.00  0.00    -0.354 N 
ATOM     55  N   UNL     1       3.418   6.636   8.461  1.00  0.00    -0.248 NA
ATOM     56  C   UNL     1       5.362   7.331   9.554  1.00  0.00     0.031 C 
ATOM     57  C   UNL     1      -0.617   6.556  10.327  1.00  0.00     0.029 A 
ATOM     58  C   UNL     1       0.650   6.605   9.768  1.00  0.00     0.049 A 
ATOM     59  H   UNL     1       1.249   6.116   7.804  1.00  0.00     0.167 HD
ATOM     60  C   UNL     1       3.100   7.004   9.768  1.00  0.00     0.074 A 
ATOM     61  C   UNL     1       4.343   7.398  10.399  1.00  0.00     0.031 C 
ATOM     62  C   UNL     1       1.893   7.004  10.391  1.00  0.00     0.034 A 
BRANCH  49  63
ATOM     63  C   UNL     1      -2.805   5.191   6.754  1.00  0.00     0.023 A 
ATOM     64  C   UNL     1      -3.334   3.948   6.364  1.00  0.00     0.031 A 
ATOM     65  C   UNL     1      -3.704   6.258   6.935  1.00  0.00     0.131 A 
ATOM     66  C   UNL     1      -4.702   3.828   6.077  1.00  0.00     0.055 A 
ATOM     67  C   UNL     1      -5.078   6.106   6.742  1.00  0.00     0.041 A 
ATOM     68  F   UNL     1      -3.259   7.476   7.280  1.00  0.00    -0.206 F 
ATOM     69  C   UNL     1      -5.583   4.891   6.291  1.00  0.00     0.022 A 
BRANCH  66  70
ATOM     70  S   UNL     1      -5.281   2.324   5.243  1.00  0.00     0.124 S 
ATOM     71  O   UNL     1      -4.438   2.305   4.050  1.00  0.00    -0.237 OA
ATOM     72  O   UNL     1      -5.008   1.290   6.234  1.00  0.00    -0.237 OA
ATOM     73  O   UNL     1      -6.695   2.593   4.993  1.00  0.00    -0.744 OA
ENDBRANCH  66  70
ENDBRANCH  49  63
BRANCH  50  74
ATOM     74  C   UNL     1       7.068   6.840   7.214  1.00  0.00     0.023 A 
ATOM     75  C   UNL     1       7.928   6.161   8.092  1.00  0.00     0.031 A 
ATOM     76  C   UNL     1       7.617   7.857   6.412  1.00  0.00     0.131 A 
ATOM     77  C   UNL     1       9.281   6.528   8.170  1.00  0.00     0.055 A 
ATOM     78  C   UNL     1       8.974   8.181   6.453  1.00  0.00     0.041 A 
ATOM     79  F   UNL     1       6.838   8.546   5.561  1.00  0.00    -0.206 F 
ATOM     80  C   UNL     1       9.813   7.521   7.344  1.00  0.00     0.022 A 
BRANCH  77  81
ATOM     81  S   UNL     1      10.326   5.739   9.425  1.00  0.00     0.124 S 
ATOM     82  O   UNL     1       9.643   6.114  10.658  1.00  0.00    -0.237 OA
ATOM     83  O   UNL     1      10.244   4.332   9.048  1.00  0.00    -0.237 OA
ATOM     84  O   UNL     1      11.633   6.360   9.220  1.00  0.00    -0.744 OA
ENDBRANCH  77  81
ENDBRANCH  50  74
BRANCH  62  85
ATOM     85  C   UNL     1       1.861   7.383  11.855  1.00  0.00     0.023 A 
ATOM     86  C   UNL     1       2.172   8.678  12.303  1.00  0.00     0.031 A 
ATOM     87  C   UNL     1       1.496   6.423  12.818  1.00  0.00     0.131 A 
ATOM     88  C   UNL     1       2.158   8.965  13.678  1.00  0.00     0.055 A 
ATOM     89  C   UNL     1       1.419   6.732  14.176  1.00  0.00     0.041 A 
ATOM     90  F   UNL     1       1.194   5.167  12.451  1.00  0.00    -0.206 F 
ATOM     91  C   UNL     1       1.762   8.006  14.615  1.00  0.00     0.022 A 
BRANCH  88  92
ATOM     92  S   UNL     1       2.753  10.584  14.240  1.00  0.00     0.124 S 
ATOM     93  O   UNL     1       4.114  10.606  13.712  1.00  0.00    -0.237 OA
ATOM     94  O   UNL     1       1.809  11.501  13.610  1.00  0.00    -0.237 OA
ATOM     95  O   UNL     1       2.656  10.499  15.696  1.00  0.00    -0.744 OA
ENDBRANCH  88  92
ENDBRANCH  62  85
ENDBRANCH  36  37
ENDBRANCH  29  31
ENDBRANCH  28  29
ENDBRANCH  27  28
ENDBRANCH  26  27
ENDBRANCH  25  26
ENDBRANCH   1  25
TORSDOF 23
