REMARK SMILES CCC[C@@H](C(=O)N1CC[C@@](C)(C(=O)OCCOCCOCCOC(=O)c2ccc(-c3c4nc(c(-c5cc(S(=O)(=O)[O-])ccc5F)c5ccc([nH]5)c(-c5cc(S(=O)(=O)[O-])ccc5F)c5nc(c(-c6cc(S(=O)(=O)[O-])ccc6F)c6ccc3[nH]6)C=C5)C=C4)cc2)C1)c1ccccc1
REMARK SMILES IDX 18 1 17 2 16 3 15 4 14 5 12 6 13 7 10 8 7 9 8 10 89 11 9 12
REMARK SMILES IDX 11 13 5 14 6 15 4 16 3 17 2 18 1 19 90 20 91 21 95 22 92 23
REMARK SMILES IDX 94 24 93 25 19 26 20 27 21 28 22 29 23 30 24 31 25 32 26 33
REMARK SMILES IDX 27 34 88 35 28 36 87 37 29 38 30 39 31 40 81 41 32 42 86 43
REMARK SMILES IDX 80 44 82 45 33 46 85 47 79 48 78 49 34 51 66 52 46 53 65 54
REMARK SMILES IDX 47 55 50 56 64 57 83 58 48 59 49 60 63 62 84 63 51 64 35 65
REMARK SMILES IDX 36 66 44 67 37 68 43 69 45 70 42 71 38 72 39 73 40 74 41 75
REMARK SMILES IDX 67 76 68 77 76 78 69 79 75 80 77 81 74 82 70 83 71 84 72 85
REMARK SMILES IDX 73 86 52 87 53 88 61 89 54 90 60 91 62 92 59 93 55 94 56 95
REMARK SMILES IDX 57 96 58 97
REMARK H PARENT 82 50 50 61
REMARK Flexibility Score: inf
ROOT
ATOM      1  C   UNL     1      -1.896  -0.489  -2.840  1.00  0.00     0.188 C 
ENDROOT
BRANCH   1   2
ATOM      2  O   UNL     1      -2.045  -1.581  -3.739  1.00  0.00    -0.376 OA
BRANCH   2   3
ATOM      3  C   UNL     1      -3.157  -2.457  -3.610  1.00  0.00     0.202 C 
BRANCH   3   4
ATOM      4  C   UNL     1      -3.441  -3.123  -2.253  1.00  0.00     0.261 C 
BRANCH   4   5
ATOM      5  O   UNL     1      -3.722  -2.234  -1.145  1.00  0.00    -0.463 OA
BRANCH   5   6
ATOM      6  C   UNL     1      -2.839  -2.273  -0.115  1.00  0.00     0.313 C 
ATOM      7  O   UNL     1      -1.849  -3.001  -0.099  1.00  0.00    -0.252 OA
BRANCH   6   8
ATOM      8  C   UNL     1      -3.172  -1.365   1.076  1.00  0.00     0.084 C 
ATOM      9  N   UNL     1      -2.179   0.750   1.687  1.00  0.00    -0.341 N 
ATOM     10  C   UNL     1      -3.515   1.073   1.225  1.00  0.00     0.120 C 
ATOM     11  C   UNL     1      -1.868  -0.624   1.423  1.00  0.00     0.138 C 
ATOM     12  C   UNL     1      -4.230  -0.252   0.952  1.00  0.00     0.042 C 
ATOM     13  C   UNL     1      -3.587  -2.316   2.210  1.00  0.00     0.026 C 
BRANCH   9  14
ATOM     14  C   UNL     1      -1.392   1.722   2.276  1.00  0.00     0.230 C 
ATOM     15  O   UNL     1      -1.969   2.774   2.593  1.00  0.00    -0.274 OA
BRANCH  14  16
ATOM     16  C   UNL     1       0.188   1.636   2.379  1.00  0.00     0.108 C 
BRANCH  16  17
ATOM     17  C   UNL     1       0.948   0.329   2.743  1.00  0.00     0.018 C 
BRANCH  17  18
ATOM     18  C   UNL     1       1.207  -0.810   1.742  1.00  0.00    -0.002 C 
ATOM     19  C   UNL     1       1.425  -0.437   0.293  1.00  0.00     0.004 C 
ENDBRANCH  17  18
ENDBRANCH  16  17
BRANCH  16  20
ATOM     20  C   UNL     1       0.669   2.769   3.344  1.00  0.00    -0.036 A 
ATOM     21  C   UNL     1       1.031   2.524   4.682  1.00  0.00     0.004 A 
ATOM     22  C   UNL     1       0.701   4.104   2.896  1.00  0.00     0.004 A 
ATOM     23  C   UNL     1       1.424   3.564   5.530  1.00  0.00     0.000 A 
ATOM     24  C   UNL     1       1.071   5.146   3.753  1.00  0.00     0.000 A 
ATOM     25  C   UNL     1       1.435   4.876   5.069  1.00  0.00     0.000 A 
ENDBRANCH  16  20
ENDBRANCH  14  16
ENDBRANCH   9  14
ENDBRANCH   6   8
ENDBRANCH   5   6
ENDBRANCH   4   5
ENDBRANCH   3   4
ENDBRANCH   2   3
ENDBRANCH   1   2
BRANCH   1  26
ATOM     26  C   UNL     1      -3.142   0.297  -2.412  1.00  0.00     0.188 C 
BRANCH  26  27
ATOM     27  O   UNL     1      -4.323  -0.058  -3.089  1.00  0.00    -0.376 OA
BRANCH  27  28
ATOM     28  C   UNL     1      -4.862   0.834  -4.045  1.00  0.00     0.202 C 
BRANCH  28  29
ATOM     29  C   UNL     1      -3.968   1.570  -5.059  1.00  0.00     0.261 C 
BRANCH  29  30
ATOM     30  O   UNL     1      -2.662   1.980  -4.630  1.00  0.00    -0.460 OA
BRANCH  30  31
ATOM     31  C   UNL     1      -2.584   3.097  -3.871  1.00  0.00     0.338 C 
ATOM     32  O   UNL     1      -3.526   3.775  -3.483  1.00  0.00    -0.246 OA
BRANCH  31  33
ATOM     33  C   UNL     1      -1.187   3.231  -3.397  1.00  0.00     0.060 A 
ATOM     34  C   UNL     1      -0.922   3.170  -2.022  1.00  0.00     0.016 A 
ATOM     35  C   UNL     1      -0.141   3.409  -4.306  1.00  0.00     0.016 A 
ATOM     36  C   UNL     1       0.388   3.308  -1.556  1.00  0.00     0.010 A 
ATOM     37  C   UNL     1       1.167   3.572  -3.833  1.00  0.00     0.010 A 
ATOM     38  C   UNL     1       1.438   3.543  -2.455  1.00  0.00    -0.014 A 
BRANCH  38  39
ATOM     39  C   UNL     1       2.776   3.932  -1.935  1.00  0.00     0.031 A 
ATOM     40  C   UNL     1       3.107   5.391  -1.829  1.00  0.00     0.074 A 
ATOM     41  C   UNL     1       3.676   3.014  -1.541  1.00  0.00     0.049 A 
ATOM     42  N   UNL     1       4.226   5.963  -1.471  1.00  0.00    -0.248 NA
ATOM     43  C   UNL     1       2.037   6.325  -2.204  1.00  0.00     0.031 C 
ATOM     44  C   UNL     1       3.461   1.575  -1.589  1.00  0.00     0.029 A 
ATOM     45  N   UNL     1       4.940   3.147  -1.018  1.00  0.00    -0.354 N 
ATOM     46  C   UNL     1       4.011   7.328  -1.614  1.00  0.00     0.074 A 
ATOM     47  C   UNL     1       2.656   7.490  -2.099  1.00  0.00     0.031 C 
ATOM     48  C   UNL     1       4.537   0.956  -1.075  1.00  0.00     0.029 A 
ATOM     49  C   UNL     1       5.550   1.948  -0.728  1.00  0.00     0.049 A 
ATOM     50  H   UNL     1       5.369   4.020  -0.865  1.00  0.00     0.167 HD
ATOM     51  C   UNL     1       4.875   8.347  -1.379  1.00  0.00     0.034 A 
ATOM     52  C   UNL     1       6.792   1.673  -0.271  1.00  0.00     0.034 A 
ATOM     53  C   UNL     1       6.227   8.160  -0.910  1.00  0.00     0.049 A 
ATOM     54  C   UNL     1       7.748   2.821  -0.051  1.00  0.00     0.074 A 
ATOM     55  C   UNL     1       7.182   9.123  -0.636  1.00  0.00     0.029 A 
ATOM     56  N   UNL     1       6.826   6.929  -0.662  1.00  0.00    -0.354 N 
ATOM     57  N   UNL     1       7.542   4.109  -0.209  1.00  0.00    -0.248 NA
ATOM     58  C   UNL     1       9.110   2.480   0.380  1.00  0.00     0.031 C 
ATOM     59  C   UNL     1       8.379   8.475  -0.312  1.00  0.00     0.029 A 
ATOM     60  C   UNL     1       8.148   7.109  -0.281  1.00  0.00     0.049 A 
ATOM     61  H   UNL     1       6.377   6.057  -0.744  1.00  0.00     0.167 HD
ATOM     62  C   UNL     1       8.747   4.731   0.110  1.00  0.00     0.074 A 
ATOM     63  C   UNL     1       9.665   3.678   0.496  1.00  0.00     0.031 C 
ATOM     64  C   UNL     1       9.066   6.051   0.081  1.00  0.00     0.034 A 
BRANCH  51  65
ATOM     65  C   UNL     1       4.402   9.738  -1.726  1.00  0.00     0.023 A 
ATOM     66  C   UNL     1       3.297  10.333  -1.093  1.00  0.00     0.031 A 
ATOM     67  C   UNL     1       5.028  10.453  -2.764  1.00  0.00     0.131 A 
ATOM     68  C   UNL     1       2.796  11.556  -1.565  1.00  0.00     0.055 A 
ATOM     69  C   UNL     1       4.584  11.713  -3.163  1.00  0.00     0.041 A 
ATOM     70  F   UNL     1       6.069   9.924  -3.427  1.00  0.00    -0.206 F 
ATOM     71  C   UNL     1       3.449  12.264  -2.577  1.00  0.00     0.022 A 
BRANCH  68  72
ATOM     72  S   UNL     1       1.177  12.115  -0.969  1.00  0.00     0.124 S 
ATOM     73  O   UNL     1       0.326  10.981  -1.322  1.00  0.00    -0.237 OA
ATOM     74  O   UNL     1       1.417  12.316   0.455  1.00  0.00    -0.237 OA
ATOM     75  O   UNL     1       0.929  13.332  -1.740  1.00  0.00    -0.744 OA
ENDBRANCH  68  72
ENDBRANCH  51  65
BRANCH  52  76
ATOM     76  C   UNL     1       7.237   0.258  -0.070  1.00  0.00     0.023 A 
ATOM     77  C   UNL     1       7.656  -0.215   1.187  1.00  0.00     0.031 A 
ATOM     78  C   UNL     1       7.290  -0.639  -1.154  1.00  0.00     0.131 A 
ATOM     79  C   UNL     1       8.134  -1.531   1.319  1.00  0.00     0.055 A 
ATOM     80  C   UNL     1       7.703  -1.963  -1.004  1.00  0.00     0.041 A 
ATOM     81  F   UNL     1       6.923  -0.241  -2.382  1.00  0.00    -0.206 F 
ATOM     82  C   UNL     1       8.138  -2.414   0.236  1.00  0.00     0.022 A 
BRANCH  79  83
ATOM     83  S   UNL     1       8.836  -2.058   2.908  1.00  0.00     0.124 S 
ATOM     84  O   UNL     1       9.931  -1.110   3.078  1.00  0.00    -0.237 OA
ATOM     85  O   UNL     1       7.702  -1.898   3.811  1.00  0.00    -0.237 OA
ATOM     86  O   UNL     1       9.241  -3.441   2.660  1.00  0.00    -0.744 OA
ENDBRANCH  79  83
ENDBRANCH  52  76
BRANCH  64  87
ATOM     87  C   UNL     1      10.462   6.435   0.516  1.00  0.00     0.023 A 
ATOM     88  C   UNL     1      11.603   6.048  -0.209  1.00  0.00     0.031 A 
ATOM     89  C   UNL     1      10.650   7.203   1.680  1.00  0.00     0.131 A 
ATOM     90  C   UNL     1      12.882   6.384   0.266  1.00  0.00     0.055 A 
ATOM     91  C   UNL     1      11.920   7.591   2.110  1.00  0.00     0.041 A 
ATOM     92  F   UNL     1       9.599   7.596   2.418  1.00  0.00    -0.206 F 
ATOM     93  C   UNL     1      13.046   7.171   1.409  1.00  0.00     0.022 A 
BRANCH  90  94
ATOM     94  S   UNL     1      14.335   5.693  -0.572  1.00  0.00     0.124 S 
ATOM     95  O   UNL     1      14.090   4.258  -0.470  1.00  0.00    -0.237 OA
ATOM     96  O   UNL     1      14.228   6.266  -1.909  1.00  0.00    -0.237 OA
ATOM     97  O   UNL     1      15.457   6.187   0.225  1.00  0.00    -0.744 OA
ENDBRANCH  90  94
ENDBRANCH  64  87
ENDBRANCH  38  39
ENDBRANCH  31  33
ENDBRANCH  30  31
ENDBRANCH  29  30
ENDBRANCH  28  29
ENDBRANCH  27  28
ENDBRANCH  26  27
ENDBRANCH   1  26
TORSDOF 25
