REMARK SMILES O=C(OCCOCCOCCOC(=O)c1cccc2nc(Cl)c(Cl)nc12)c1ccc(-c2c3nc(c(-c4cc(S(=O)(=O)[O-])ccc4F)c4ccc([nH]4)c(-c4cc(S(=O)(=O)[O-])ccc4F)c4nc(c(-c5cc(S(=O)(=O)[O-])ccc5F)c5ccc2[nH]5)C=C4)C=C3)cc1
REMARK SMILES IDX 6 1 5 2 4 3 3 4 2 5 1 6 27 7 28 8 89 9 29 10 88 11 30 12
REMARK SMILES IDX 31 13 32 14 82 15 33 16 87 17 81 18 83 19 34 20 86 21 80 22
REMARK SMILES IDX 79 23 35 25 67 26 47 27 66 28 48 29 51 30 65 31 84 32 49 33
REMARK SMILES IDX 50 34 64 36 85 37 52 38 36 39 37 40 45 41 38 42 44 43 46 44
REMARK SMILES IDX 43 45 39 46 40 47 41 48 42 49 68 50 69 51 77 52 70 53 76 54
REMARK SMILES IDX 78 55 75 56 71 57 72 58 73 59 74 60 53 61 54 62 62 63 55 64
REMARK SMILES IDX 61 65 63 66 60 67 56 68 57 69 58 70 59 71 7 72 8 73 9 74
REMARK SMILES IDX 10 75 11 76 12 77 13 78 14 79 15 80 16 81 26 82 17 83 19 84
REMARK SMILES IDX 25 85 18 86 20 87 23 88 21 89 24 90 22 91
REMARK H PARENT 83 24 51 35
REMARK Flexibility Score: inf
ROOT
ATOM      1  O   UNL     1       3.859   1.205  -0.497  1.00  0.00    -0.376 OA
ENDROOT
BRANCH   1   2
ATOM      2  C   UNL     1       4.817   0.509  -1.295  1.00  0.00     0.202 C 
BRANCH   2   3
ATOM      3  C   UNL     1       4.744  -1.016  -1.183  1.00  0.00     0.261 C 
BRANCH   3   4
ATOM      4  O   UNL     1       3.424  -1.508  -0.917  1.00  0.00    -0.460 OA
BRANCH   4   5
ATOM      5  C   UNL     1       2.793  -1.678   0.271  1.00  0.00     0.338 C 
ATOM      6  O   UNL     1       1.695  -2.239   0.243  1.00  0.00    -0.246 OA
BRANCH   5   7
ATOM      7  C   UNL     1       3.296  -1.212   1.614  1.00  0.00     0.060 A 
ATOM      8  C   UNL     1       2.426  -1.410   2.708  1.00  0.00     0.016 A 
ATOM      9  C   UNL     1       4.536  -0.630   1.889  1.00  0.00     0.016 A 
ATOM     10  C   UNL     1       2.796  -1.077   4.018  1.00  0.00     0.010 A 
ATOM     11  C   UNL     1       4.924  -0.319   3.196  1.00  0.00     0.010 A 
ATOM     12  C   UNL     1       4.068  -0.558   4.271  1.00  0.00    -0.014 A 
BRANCH  12  13
ATOM     13  C   UNL     1       4.608  -0.449   5.643  1.00  0.00     0.031 A 
ATOM     14  C   UNL     1       4.816   0.873   6.311  1.00  0.00     0.074 A 
ATOM     15  C   UNL     1       5.062  -1.577   6.222  1.00  0.00     0.049 A 
ATOM     16  N   UNL     1       5.213   1.114   7.533  1.00  0.00    -0.248 NA
ATOM     17  C   UNL     1       4.568   2.079   5.509  1.00  0.00     0.031 C 
ATOM     18  C   UNL     1       5.028  -2.902   5.600  1.00  0.00     0.029 A 
ATOM     19  N   UNL     1       5.686  -1.785   7.423  1.00  0.00    -0.354 N 
ATOM     20  C   UNL     1       5.191   2.494   7.673  1.00  0.00     0.074 A 
ATOM     21  C   UNL     1       4.841   3.042   6.383  1.00  0.00     0.031 C 
ATOM     22  C   UNL     1       5.640  -3.778   6.408  1.00  0.00     0.029 A 
ATOM     23  C   UNL     1       6.109  -3.080   7.603  1.00  0.00     0.049 A 
ATOM     24  H   UNL     1       5.819  -1.075   8.093  1.00  0.00     0.167 HD
ATOM     25  C   UNL     1       5.411   3.224   8.791  1.00  0.00     0.034 A 
ATOM     26  C   UNL     1       6.799  -3.645   8.613  1.00  0.00     0.034 A 
ATOM     27  C   UNL     1       5.859   2.656  10.034  1.00  0.00     0.049 A 
ATOM     28  C   UNL     1       7.105  -2.812   9.828  1.00  0.00     0.074 A 
ATOM     29  C   UNL     1       6.045   3.292  11.247  1.00  0.00     0.029 A 
ATOM     30  N   UNL     1       6.239   1.334  10.209  1.00  0.00    -0.354 N 
ATOM     31  N   UNL     1       6.848  -1.541  10.036  1.00  0.00    -0.248 NA
ATOM     32  C   UNL     1       7.757  -3.484  10.958  1.00  0.00     0.031 C 
ATOM     33  C   UNL     1       6.608   2.372  12.134  1.00  0.00     0.029 A 
ATOM     34  C   UNL     1       6.712   1.145  11.495  1.00  0.00     0.049 A 
ATOM     35  H   UNL     1       6.180   0.633   9.520  1.00  0.00     0.167 HD
ATOM     36  C   UNL     1       7.275  -1.269  11.332  1.00  0.00     0.074 A 
ATOM     37  C   UNL     1       7.797  -2.513  11.862  1.00  0.00     0.031 C 
ATOM     38  C   UNL     1       7.229  -0.099  12.018  1.00  0.00     0.034 A 
BRANCH  25  39
ATOM     39  C   UNL     1       5.115   4.700   8.761  1.00  0.00     0.023 A 
ATOM     40  C   UNL     1       6.137   5.651   8.924  1.00  0.00     0.031 A 
ATOM     41  C   UNL     1       3.783   5.150   8.730  1.00  0.00     0.131 A 
ATOM     42  C   UNL     1       5.804   7.006   9.062  1.00  0.00     0.055 A 
ATOM     43  C   UNL     1       3.459   6.502   8.844  1.00  0.00     0.041 A 
ATOM     44  F   UNL     1       2.773   4.276   8.587  1.00  0.00    -0.206 F 
ATOM     45  C   UNL     1       4.472   7.436   9.018  1.00  0.00     0.022 A 
BRANCH  42  46
ATOM     46  S   UNL     1       7.076   8.264   9.360  1.00  0.00     0.124 S 
ATOM     47  O   UNL     1       6.888   9.150   8.213  1.00  0.00    -0.237 OA
ATOM     48  O   UNL     1       6.665   8.815  10.648  1.00  0.00    -0.237 OA
ATOM     49  O   UNL     1       8.322   7.507   9.362  1.00  0.00    -0.744 OA
ENDBRANCH  42  46
ENDBRANCH  25  39
BRANCH  26  50
ATOM     50  C   UNL     1       7.134  -5.094   8.515  1.00  0.00     0.023 A 
ATOM     51  C   UNL     1       7.990  -5.567   7.502  1.00  0.00     0.031 A 
ATOM     52  C   UNL     1       6.471  -6.036   9.316  1.00  0.00     0.131 A 
ATOM     53  C   UNL     1       8.101  -6.944   7.271  1.00  0.00     0.055 A 
ATOM     54  C   UNL     1       6.634  -7.409   9.124  1.00  0.00     0.041 A 
ATOM     55  F   UNL     1       5.628  -5.630  10.279  1.00  0.00    -0.206 F 
ATOM     56  C   UNL     1       7.437  -7.868   8.084  1.00  0.00     0.022 A 
BRANCH  53  57
ATOM     57  S   UNL     1       8.983  -7.576   5.816  1.00  0.00     0.124 S 
ATOM     58  O   UNL     1      10.062  -8.348   6.425  1.00  0.00    -0.237 OA
ATOM     59  O   UNL     1       7.944  -8.360   5.151  1.00  0.00    -0.237 OA
ATOM     60  O   UNL     1       9.392  -6.367   5.108  1.00  0.00    -0.744 OA
ENDBRANCH  53  57
ENDBRANCH  26  50
BRANCH  38  61
ATOM     61  C   UNL     1       7.762  -0.068  13.428  1.00  0.00     0.023 A 
ATOM     62  C   UNL     1       6.899   0.242  14.497  1.00  0.00     0.031 A 
ATOM     63  C   UNL     1       9.138  -0.172  13.690  1.00  0.00     0.131 A 
ATOM     64  C   UNL     1       7.429   0.489  15.769  1.00  0.00     0.055 A 
ATOM     65  C   UNL     1       9.655   0.025  14.970  1.00  0.00     0.041 A 
ATOM     66  F   UNL     1      10.001  -0.455  12.700  1.00  0.00    -0.206 F 
ATOM     67  C   UNL     1       8.801   0.375  16.013  1.00  0.00     0.022 A 
BRANCH  64  68
ATOM     68  S   UNL     1       6.372   1.073  17.122  1.00  0.00     0.124 S 
ATOM     69  O   UNL     1       6.497  -0.013  18.091  1.00  0.00    -0.237 OA
ATOM     70  O   UNL     1       7.021   2.326  17.501  1.00  0.00    -0.237 OA
ATOM     71  O   UNL     1       5.056   1.211  16.508  1.00  0.00    -0.744 OA
ENDBRANCH  64  68
ENDBRANCH  38  61
ENDBRANCH  12  13
ENDBRANCH   5   7
ENDBRANCH   4   5
ENDBRANCH   3   4
ENDBRANCH   2   3
ENDBRANCH   1   2
BRANCH   1  72
ATOM     72  C   UNL     1       2.594   1.368  -1.153  1.00  0.00     0.188 C 
BRANCH  72  73
ATOM     73  C   UNL     1       2.051   2.791  -1.009  1.00  0.00     0.188 C 
BRANCH  73  74
ATOM     74  O   UNL     1       2.799   3.808  -1.679  1.00  0.00    -0.376 OA
BRANCH  74  75
ATOM     75  C   UNL     1       4.101   4.083  -1.168  1.00  0.00     0.202 C 
BRANCH  75  76
ATOM     76  C   UNL     1       4.201   4.822   0.173  1.00  0.00     0.261 C 
BRANCH  76  77
ATOM     77  O   UNL     1       3.565   4.181   1.292  1.00  0.00    -0.460 OA
BRANCH  77  78
ATOM     78  C   UNL     1       2.439   4.802   1.731  1.00  0.00     0.340 C 
ATOM     79  O   UNL     1       1.867   5.749   1.219  1.00  0.00    -0.246 OA
BRANCH  78  80
ATOM     80  C   UNL     1       2.067   4.306   3.060  1.00  0.00     0.088 A 
ATOM     81  C   UNL     1       2.463   5.105   4.138  1.00  0.00     0.018 A 
ATOM     82  C   UNL     1       1.230   3.194   3.215  1.00  0.00     0.105 A 
ATOM     83  C   UNL     1       2.025   4.787   5.411  1.00  0.00     0.003 A 
ATOM     84  C   UNL     1       0.812   2.876   4.538  1.00  0.00     0.091 A 
ATOM     85  N   UNL     1       0.789   2.445   2.170  1.00  0.00    -0.230 NA
ATOM     86  C   UNL     1       1.218   3.669   5.602  1.00  0.00     0.031 A 
ATOM     87  N   UNL     1      -0.005   1.840   4.804  1.00  0.00    -0.231 NA
ATOM     88  C   UNL     1      -0.041   1.414   2.457  1.00  0.00     0.167 A 
ATOM     89  C   UNL     1      -0.427   1.114   3.749  1.00  0.00     0.167 A 
ATOM     90  Cl  UNL     1      -0.597   0.569   1.071  1.00  0.00    -0.059 Cl
ATOM     91  Cl  UNL     1      -1.497  -0.161   4.168  1.00  0.00    -0.059 Cl
ENDBRANCH  78  80
ENDBRANCH  77  78
ENDBRANCH  76  77
ENDBRANCH  75  76
ENDBRANCH  74  75
ENDBRANCH  73  74
ENDBRANCH  72  73
ENDBRANCH   1  72
TORSDOF 20
