REMARK SMILES Cc1ccc(S(=O)(=O)Nc2ccc(C(=O)CCC(=O)OCCOCCOCCOC(=O)c3ccc(-c4c5nc(c(-c6cc(S(=O)(=O)[O-])ccc6F)c6ccc([nH]6)c(-c6cc(S(=O)(=O)[O-])ccc6F)c6nc(c(-c7cc(S(=O)(=O)[O-])ccc7F)c7ccc4[nH]7)C=C6)C=C5)cc3)cc2)c(C)c1
REMARK SMILES IDX 23 1 22 2 21 3 20 4 18 5 19 6 17 7 16 8 14 9 15 10 13 11
REMARK SMILES IDX 10 12 11 13 96 14 12 15 95 16 9 17 6 19 7 20 8 21 5 22 1 23
REMARK SMILES IDX 2 24 3 25 99 26 4 27 97 28 98 29 24 30 25 31 26 32 27 33
REMARK SMILES IDX 28 34 29 35 30 36 31 37 32 38 33 39 94 40 34 41 93 42 35 43
REMARK SMILES IDX 36 44 37 45 87 46 38 47 92 48 86 49 88 50 39 51 91 52 85 53
REMARK SMILES IDX 84 54 40 56 72 57 52 58 71 59 53 60 56 61 70 62 89 63 54 64
REMARK SMILES IDX 55 65 69 67 90 68 57 69 41 70 42 71 50 72 43 73 49 74 51 75
REMARK SMILES IDX 48 76 44 77 45 78 46 79 47 80 73 81 74 82 82 83 75 84 81 85
REMARK SMILES IDX 83 86 80 87 76 88 77 89 78 90 79 91 58 92 59 93 67 94 60 95
REMARK SMILES IDX 66 96 68 97 65 98 61 99 62 100 63 101 64 102
REMARK H PARENT 9 18 88 55 56 66
REMARK Flexibility Score: inf
ROOT
ATOM      1  O   UNL     1       1.883  -1.342   2.759  1.00  0.00    -0.376 OA
ENDROOT
BRANCH   1   2
ATOM      2  C   UNL     1       1.056  -1.622   1.640  1.00  0.00     0.202 C 
BRANCH   2   3
ATOM      3  C   UNL     1       1.861  -1.825   0.361  1.00  0.00     0.261 C 
BRANCH   3   4
ATOM      4  O   UNL     1       2.616  -3.039   0.365  1.00  0.00    -0.463 OA
BRANCH   4   5
ATOM      5  C   UNL     1       3.849  -3.007  -0.184  1.00  0.00     0.306 C 
ATOM      6  O   UNL     1       4.394  -2.009  -0.635  1.00  0.00    -0.252 OA
BRANCH   5   7
ATOM      7  C   UNL     1       4.494  -4.374  -0.169  1.00  0.00     0.131 C 
BRANCH   7   8
ATOM      8  C   UNL     1       3.603  -5.534   0.291  1.00  0.00     0.093 C 
BRANCH   8   9
ATOM      9  C   UNL     1       2.658  -6.036  -0.805  1.00  0.00     0.163 C 
ATOM     10  O   UNL     1       3.090  -6.741  -1.720  1.00  0.00    -0.294 OA
BRANCH   9  11
ATOM     11  C   UNL     1       1.219  -5.605  -0.859  1.00  0.00     0.018 A 
ATOM     12  C   UNL     1      -1.246  -4.252  -1.189  1.00  0.00     0.049 A 
ATOM     13  C   UNL     1      -0.743  -5.085  -2.195  1.00  0.00     0.027 A 
ATOM     14  C   UNL     1      -0.633  -4.300   0.048  1.00  0.00     0.027 A 
ATOM     15  C   UNL     1       0.487  -5.749  -2.038  1.00  0.00     0.014 A 
ATOM     16  C   UNL     1       0.586  -4.980   0.205  1.00  0.00     0.014 A 
BRANCH  12  17
ATOM     17  N   UNL     1      -2.387  -3.454  -1.495  1.00  0.00    -0.280 N 
ATOM     18  H   UNL     1      -2.960  -3.770  -2.230  1.00  0.00     0.180 HD
BRANCH  17  19
ATOM     19  S   UNL     1      -2.860  -2.026  -0.731  1.00  0.00     0.262 S 
ATOM     20  O   UNL     1      -2.860  -2.267   0.698  1.00  0.00    -0.201 OA
ATOM     21  O   UNL     1      -4.079  -1.637  -1.411  1.00  0.00    -0.201 OA
BRANCH  19  22
ATOM     22  C   UNL     1      -1.675  -0.716  -1.051  1.00  0.00     0.090 A 
ATOM     23  C   UNL     1       1.812   1.781  -0.662  1.00  0.00     0.044 C 
ATOM     24  C   UNL     1       0.544   1.016  -0.936  1.00  0.00    -0.051 A 
ATOM     25  C   UNL     1       0.506  -0.029  -1.866  1.00  0.00     0.005 A 
ATOM     26  C   UNL     1      -0.618   1.313  -0.224  1.00  0.00     0.008 A 
ATOM     27  C   UNL     1      -0.588  -0.914  -1.906  1.00  0.00     0.023 A 
ATOM     28  C   UNL     1      -1.747   0.474  -0.290  1.00  0.00    -0.030 A 
ATOM     29  C   UNL     1      -3.002   0.974   0.373  1.00  0.00     0.046 C 
ENDBRANCH  19  22
ENDBRANCH  17  19
ENDBRANCH  12  17
ENDBRANCH   9  11
ENDBRANCH   8   9
ENDBRANCH   7   8
ENDBRANCH   5   7
ENDBRANCH   4   5
ENDBRANCH   3   4
ENDBRANCH   2   3
ENDBRANCH   1   2
BRANCH   1  30
ATOM     30  C   UNL     1       2.598  -2.470   3.241  1.00  0.00     0.188 C 
BRANCH  30  31
ATOM     31  C   UNL     1       1.716  -3.479   3.964  1.00  0.00     0.188 C 
BRANCH  31  32
ATOM     32  O   UNL     1       0.847  -4.311   3.208  1.00  0.00    -0.376 OA
BRANCH  32  33
ATOM     33  C   UNL     1      -0.441  -4.540   3.796  1.00  0.00     0.202 C 
BRANCH  33  34
ATOM     34  C   UNL     1      -0.531  -5.240   5.168  1.00  0.00     0.261 C 
BRANCH  34  35
ATOM     35  O   UNL     1       0.355  -4.688   6.149  1.00  0.00    -0.460 OA
BRANCH  35  36
ATOM     36  C   UNL     1       1.532  -5.360   6.304  1.00  0.00     0.338 C 
ATOM     37  O   UNL     1       1.794  -6.461   5.868  1.00  0.00    -0.246 OA
BRANCH  36  38
ATOM     38  C   UNL     1       2.559  -4.388   6.785  1.00  0.00     0.060 A 
ATOM     39  C   UNL     1       3.859  -4.510   6.257  1.00  0.00     0.016 A 
ATOM     40  C   UNL     1       2.222  -3.281   7.570  1.00  0.00     0.016 A 
ATOM     41  C   UNL     1       4.826  -3.549   6.534  1.00  0.00     0.010 A 
ATOM     42  C   UNL     1       3.203  -2.341   7.889  1.00  0.00     0.010 A 
ATOM     43  C   UNL     1       4.517  -2.507   7.415  1.00  0.00    -0.014 A 
BRANCH  43  44
ATOM     44  C   UNL     1       5.632  -1.884   8.162  1.00  0.00     0.031 A 
ATOM     45  C   UNL     1       6.022  -2.567   9.445  1.00  0.00     0.074 A 
ATOM     46  C   UNL     1       6.289  -0.802   7.718  1.00  0.00     0.049 A 
ATOM     47  N   UNL     1       6.910  -2.231  10.339  1.00  0.00    -0.248 NA
ATOM     48  C   UNL     1       5.285  -3.803   9.764  1.00  0.00     0.031 C 
ATOM     49  C   UNL     1       6.025  -0.101   6.464  1.00  0.00     0.029 A 
ATOM     50  N   UNL     1       7.316  -0.099   8.292  1.00  0.00    -0.354 N 
ATOM     51  C   UNL     1       6.837  -3.214  11.322  1.00  0.00     0.074 A 
ATOM     52  C   UNL     1       5.777  -4.119  10.946  1.00  0.00     0.031 C 
ATOM     53  C   UNL     1       6.858   0.953   6.375  1.00  0.00     0.029 A 
ATOM     54  C   UNL     1       7.684   1.018   7.581  1.00  0.00     0.049 A 
ATOM     55  H   UNL     1       7.750  -0.368   9.134  1.00  0.00     0.167 HD
ATOM     56  C   UNL     1       7.597  -3.359  12.432  1.00  0.00     0.034 A 
ATOM     57  C   UNL     1       8.563   1.991   7.895  1.00  0.00     0.034 A 
ATOM     58  C   UNL     1       8.617  -2.416  12.804  1.00  0.00     0.049 A 
ATOM     59  C   UNL     1       9.333   1.877   9.191  1.00  0.00     0.074 A 
ATOM     60  C   UNL     1       9.440  -2.425  13.914  1.00  0.00     0.029 A 
ATOM     61  N   UNL     1       8.938  -1.274  12.076  1.00  0.00    -0.354 N 
ATOM     62  N   UNL     1       9.261   0.948  10.120  1.00  0.00    -0.248 NA
ATOM     63  C   UNL     1      10.312   2.933   9.473  1.00  0.00     0.031 C 
ATOM     64  C   UNL     1      10.199  -1.250  13.899  1.00  0.00     0.029 A 
ATOM     65  C   UNL     1       9.925  -0.555  12.729  1.00  0.00     0.049 A 
ATOM     66  H   UNL     1       8.524  -1.015  11.222  1.00  0.00     0.167 HD
ATOM     67  C   UNL     1      10.209   1.293  11.082  1.00  0.00     0.074 A 
ATOM     68  C   UNL     1      10.845   2.508  10.610  1.00  0.00     0.031 C 
ATOM     69  C   UNL     1      10.533   0.663  12.242  1.00  0.00     0.034 A 
BRANCH  56  70
ATOM     70  C   UNL     1       7.279  -4.535  13.326  1.00  0.00     0.023 A 
ATOM     71  C   UNL     1       7.355  -5.861  12.857  1.00  0.00     0.031 A 
ATOM     72  C   UNL     1       6.790  -4.327  14.626  1.00  0.00     0.131 A 
ATOM     73  C   UNL     1       6.847  -6.910  13.639  1.00  0.00     0.055 A 
ATOM     74  C   UNL     1       6.384  -5.388  15.438  1.00  0.00     0.041 A 
ATOM     75  F   UNL     1       6.658  -3.085  15.118  1.00  0.00    -0.206 F 
ATOM     76  C   UNL     1       6.390  -6.686  14.938  1.00  0.00     0.022 A 
BRANCH  73  77
ATOM     77  S   UNL     1       6.601  -8.530  12.856  1.00  0.00     0.124 S 
ATOM     78  O   UNL     1       5.719  -8.186  11.742  1.00  0.00    -0.237 OA
ATOM     79  O   UNL     1       7.960  -8.918  12.499  1.00  0.00    -0.237 OA
ATOM     80  O   UNL     1       5.977  -9.328  13.909  1.00  0.00    -0.744 OA
ENDBRANCH  73  77
ENDBRANCH  56  70
BRANCH  57  81
ATOM     81  C   UNL     1       8.723   3.173   6.999  1.00  0.00     0.023 A 
ATOM     82  C   UNL     1       9.934   3.445   6.343  1.00  0.00     0.031 A 
ATOM     83  C   UNL     1       7.655   4.069   6.805  1.00  0.00     0.131 A 
ATOM     84  C   UNL     1      10.056   4.596   5.546  1.00  0.00     0.055 A 
ATOM     85  C   UNL     1       7.765   5.184   5.972  1.00  0.00     0.041 A 
ATOM     86  F   UNL     1       6.476   3.862   7.414  1.00  0.00    -0.206 F 
ATOM     87  C   UNL     1       8.975   5.457   5.343  1.00  0.00     0.022 A 
BRANCH  84  88
ATOM     88  S   UNL     1      11.674   4.993   4.826  1.00  0.00     0.124 S 
ATOM     89  O   UNL     1      12.506   5.121   6.017  1.00  0.00    -0.237 OA
ATOM     90  O   UNL     1      11.927   3.827   3.987  1.00  0.00    -0.237 OA
ATOM     91  O   UNL     1      11.427   6.238   4.101  1.00  0.00    -0.744 OA
ENDBRANCH  84  88
ENDBRANCH  57  81
BRANCH  69  92
ATOM     92  C   UNL     1      11.664   1.252  13.053  1.00  0.00     0.023 A 
ATOM     93  C   UNL     1      11.572   2.520  13.650  1.00  0.00     0.031 A 
ATOM     94  C   UNL     1      12.855   0.523  13.230  1.00  0.00     0.131 A 
ATOM     95  C   UNL     1      12.675   3.050  14.336  1.00  0.00     0.055 A 
ATOM     96  C   UNL     1      13.920   1.024  13.979  1.00  0.00     0.041 A 
ATOM     97  F   UNL     1      13.001  -0.694  12.682  1.00  0.00    -0.206 F 
ATOM     98  C   UNL     1      13.840   2.302  14.523  1.00  0.00     0.022 A 
BRANCH  95  99
ATOM     99  S   UNL     1      12.611   4.779  14.880  1.00  0.00     0.124 S 
ATOM    100  O   UNL     1      12.343   5.479  13.628  1.00  0.00    -0.237 OA
ATOM    101  O   UNL     1      11.519   4.762  15.848  1.00  0.00    -0.237 OA
ATOM    102  O   UNL     1      13.939   5.009  15.447  1.00  0.00    -0.744 OA
ENDBRANCH  95  99
ENDBRANCH  69  92
ENDBRANCH  43  44
ENDBRANCH  36  38
ENDBRANCH  35  36
ENDBRANCH  34  35
ENDBRANCH  33  34
ENDBRANCH  32  33
ENDBRANCH  31  32
ENDBRANCH  30  31
ENDBRANCH   1  30
TORSDOF 26
