REMARK SMILES C[C@H]1SC[C@H](C(=O)OCCOCCOCCOC(=O)c2ccc(-c3c4nc(c(-c5cc(S(=O)(=O)[O-])ccc5F)c5ccc([nH]5)c(-c5cc(S(=O)(=O)[O-])ccc5F)c5nc(c(-c6cc(S(=O)(=O)[O-])ccc6F)c6ccc3[nH]6)C=C5)C=C4)cc2)N1C(=O)[C@@H]1CSc2ccccc21
REMARK SMILES IDX 13 1 12 2 11 3 10 4 9 5 8 6 6 7 7 8 5 9 1 10 2 11 3 12 83 13
REMARK SMILES IDX 4 14 84 15 85 16 86 17 87 18 94 19 88 20 89 21 93 22 90 23
REMARK SMILES IDX 92 24 91 25 14 26 15 27 16 28 17 29 18 30 19 31 20 32 21 33
REMARK SMILES IDX 82 34 22 35 81 36 23 37 24 38 25 39 75 40 26 41 80 42 74 43
REMARK SMILES IDX 76 44 27 45 79 46 73 47 72 48 28 50 60 51 40 52 59 53 41 54
REMARK SMILES IDX 44 55 58 56 77 57 42 58 43 59 57 61 78 62 45 63 29 64 30 65
REMARK SMILES IDX 38 66 31 67 37 68 39 69 36 70 32 71 33 72 34 73 35 74 61 75
REMARK SMILES IDX 62 76 70 77 63 78 69 79 71 80 68 81 64 82 65 83 66 84 67 85
REMARK SMILES IDX 46 86 47 87 55 88 48 89 54 90 56 91 53 92 49 93 50 94 51 95
REMARK SMILES IDX 52 96
REMARK H PARENT 76 49 44 60
REMARK Flexibility Score: inf
ROOT
ATOM      1  C   UNL     1      -5.472  -5.184   4.274  1.00  0.00     0.188 C 
ENDROOT
BRANCH   1   2
ATOM      2  C   UNL     1      -6.165  -4.030   5.007  1.00  0.00     0.188 C 
BRANCH   2   3
ATOM      3  O   UNL     1      -7.106  -3.216   4.316  1.00  0.00    -0.376 OA
BRANCH   3   4
ATOM      4  C   UNL     1      -7.104  -3.147   2.899  1.00  0.00     0.202 C 
BRANCH   4   5
ATOM      5  C   UNL     1      -5.896  -2.510   2.188  1.00  0.00     0.261 C 
BRANCH   5   6
ATOM      6  O   UNL     1      -4.583  -2.999   2.531  1.00  0.00    -0.462 OA
BRANCH   6   7
ATOM      7  C   UNL     1      -3.928  -2.285   3.492  1.00  0.00     0.329 C 
ATOM      8  O   UNL     1      -4.408  -1.303   4.047  1.00  0.00    -0.250 OA
BRANCH   7   9
ATOM      9  C   UNL     1      -2.507  -2.819   3.815  1.00  0.00     0.206 C 
ATOM     10  C   UNL     1       0.415  -2.492   4.877  1.00  0.00     0.043 C 
ATOM     11  C   UNL     1      -0.112  -2.874   3.493  1.00  0.00     0.141 C 
ATOM     12  S   UNL     1      -0.518  -4.633   3.482  1.00  0.00    -0.135 SA
ATOM     13  N   UNL     1      -1.359  -2.198   3.147  1.00  0.00    -0.316 N 
ATOM     14  C   UNL     1      -2.297  -4.332   3.628  1.00  0.00     0.109 C 
BRANCH  13  15
ATOM     15  C   UNL     1      -1.515  -1.083   2.352  1.00  0.00     0.232 C 
ATOM     16  O   UNL     1      -2.337  -0.205   2.617  1.00  0.00    -0.274 OA
BRANCH  15  17
ATOM     17  C   UNL     1      -0.777  -0.995   1.014  1.00  0.00     0.120 C 
ATOM     18  C   UNL     1      -1.035  -2.242   0.150  1.00  0.00     0.093 C 
ATOM     19  C   UNL     1       0.697  -0.791   1.180  1.00  0.00    -0.021 A 
ATOM     20  S   UNL     1       0.563  -3.047  -0.202  1.00  0.00    -0.125 SA
ATOM     21  C   UNL     1       1.487  -1.831   0.691  1.00  0.00     0.011 A 
ATOM     22  C   UNL     1       1.248   0.240   1.936  1.00  0.00     0.006 A 
ATOM     23  C   UNL     1       2.813  -1.935   1.075  1.00  0.00     0.015 A 
ATOM     24  C   UNL     1       2.585   0.151   2.306  1.00  0.00     0.000 A 
ATOM     25  C   UNL     1       3.354  -0.949   1.907  1.00  0.00     0.001 A 
ENDBRANCH  15  17
ENDBRANCH  13  15
ENDBRANCH   7   9
ENDBRANCH   6   7
ENDBRANCH   5   6
ENDBRANCH   4   5
ENDBRANCH   3   4
ENDBRANCH   2   3
ENDBRANCH   1   2
BRANCH   1  26
ATOM     26  O   UNL     1      -6.175  -5.686   3.163  1.00  0.00    -0.376 OA
BRANCH  26  27
ATOM     27  C   UNL     1      -6.625  -7.021   3.225  1.00  0.00     0.202 C 
BRANCH  27  28
ATOM     28  C   UNL     1      -7.564  -7.387   4.383  1.00  0.00     0.261 C 
BRANCH  28  29
ATOM     29  O   UNL     1      -7.202  -6.910   5.692  1.00  0.00    -0.460 OA
BRANCH  29  30
ATOM     30  C   UNL     1      -6.177  -7.535   6.329  1.00  0.00     0.338 C 
ATOM     31  O   UNL     1      -5.526  -8.461   5.900  1.00  0.00    -0.246 OA
BRANCH  30  32
ATOM     32  C   UNL     1      -5.835  -6.729   7.535  1.00  0.00     0.060 A 
ATOM     33  C   UNL     1      -4.541  -6.199   7.663  1.00  0.00     0.016 A 
ATOM     34  C   UNL     1      -6.786  -6.485   8.527  1.00  0.00     0.016 A 
ATOM     35  C   UNL     1      -4.192  -5.445   8.791  1.00  0.00     0.010 A 
ATOM     36  C   UNL     1      -6.428  -5.751   9.666  1.00  0.00     0.010 A 
ATOM     37  C   UNL     1      -5.122  -5.247   9.820  1.00  0.00    -0.014 A 
BRANCH  37  38
ATOM     38  C   UNL     1      -4.700  -4.689  11.136  1.00  0.00     0.031 A 
ATOM     39  C   UNL     1      -4.443  -5.652  12.268  1.00  0.00     0.074 A 
ATOM     40  C   UNL     1      -4.562  -3.366  11.343  1.00  0.00     0.049 A 
ATOM     41  N   UNL     1      -4.200  -5.412  13.530  1.00  0.00    -0.248 NA
ATOM     42  C   UNL     1      -4.475  -7.081  11.921  1.00  0.00     0.031 C 
ATOM     43  C   UNL     1      -4.723  -2.329  10.327  1.00  0.00     0.029 A 
ATOM     44  N   UNL     1      -4.274  -2.666  12.493  1.00  0.00    -0.354 N 
ATOM     45  C   UNL     1      -4.070  -6.658  14.134  1.00  0.00     0.074 A 
ATOM     46  C   UNL     1      -4.287  -7.649  13.102  1.00  0.00     0.031 C 
ATOM     47  C   UNL     1      -4.554  -1.125  10.902  1.00  0.00     0.029 A 
ATOM     48  C   UNL     1      -4.324  -1.299  12.337  1.00  0.00     0.049 A 
ATOM     49  H   UNL     1      -4.052  -3.102  13.347  1.00  0.00     0.167 HD
ATOM     50  C   UNL     1      -3.795  -6.950  15.430  1.00  0.00     0.034 A 
ATOM     51  C   UNL     1      -4.238  -0.305  13.249  1.00  0.00     0.034 A 
ATOM     52  C   UNL     1      -3.588  -5.954  16.453  1.00  0.00     0.049 A 
ATOM     53  C   UNL     1      -4.030  -0.655  14.707  1.00  0.00     0.074 A 
ATOM     54  C   UNL     1      -3.280  -6.146  17.789  1.00  0.00     0.029 A 
ATOM     55  N   UNL     1      -3.688  -4.582  16.263  1.00  0.00    -0.354 N 
ATOM     56  N   UNL     1      -3.902  -1.838  15.266  1.00  0.00    -0.248 NA
ATOM     57  C   UNL     1      -3.955   0.464  15.658  1.00  0.00     0.031 C 
ATOM     58  C   UNL     1      -3.282  -4.900  18.423  1.00  0.00     0.029 A 
ATOM     59  C   UNL     1      -3.491  -3.920  17.466  1.00  0.00     0.049 A 
ATOM     60  H   UNL     1      -3.871  -4.143  15.401  1.00  0.00     0.167 HD
ATOM     61  C   UNL     1      -3.694  -1.597  16.625  1.00  0.00     0.074 A 
ATOM     62  C   UNL     1      -3.702  -0.161  16.798  1.00  0.00     0.031 C 
ATOM     63  C   UNL     1      -3.505  -2.485  17.635  1.00  0.00     0.034 A 
BRANCH  50  64
ATOM     64  C   UNL     1      -3.765  -8.407  15.826  1.00  0.00     0.023 A 
ATOM     65  C   UNL     1      -2.817  -9.303  15.302  1.00  0.00     0.031 A 
ATOM     66  C   UNL     1      -4.715  -8.911  16.733  1.00  0.00     0.131 A 
ATOM     67  C   UNL     1      -2.882 -10.665  15.636  1.00  0.00     0.055 A 
ATOM     68  C   UNL     1      -4.721 -10.249  17.128  1.00  0.00     0.041 A 
ATOM     69  F   UNL     1      -5.661  -8.109  17.247  1.00  0.00    -0.206 F 
ATOM     70  C   UNL     1      -3.809 -11.139  16.567  1.00  0.00     0.022 A 
BRANCH  67  71
ATOM     71  S   UNL     1      -1.832 -11.831  14.727  1.00  0.00     0.124 S 
ATOM     72  O   UNL     1      -2.248 -11.589  13.348  1.00  0.00    -0.237 OA
ATOM     73  O   UNL     1      -0.489 -11.385  15.077  1.00  0.00    -0.237 OA
ATOM     74  O   UNL     1      -2.219 -13.133  15.267  1.00  0.00    -0.744 OA
ENDBRANCH  67  71
ENDBRANCH  50  64
BRANCH  51  75
ATOM     75  C   UNL     1      -4.409   1.122  12.839  1.00  0.00     0.023 A 
ATOM     76  C   UNL     1      -3.385   2.066  13.031  1.00  0.00     0.031 A 
ATOM     77  C   UNL     1      -5.633   1.582  12.320  1.00  0.00     0.131 A 
ATOM     78  C   UNL     1      -3.621   3.423  12.756  1.00  0.00     0.055 A 
ATOM     79  C   UNL     1      -5.841   2.922  11.988  1.00  0.00     0.041 A 
ATOM     80  F   UNL     1      -6.653   0.729  12.131  1.00  0.00    -0.206 F 
ATOM     81  C   UNL     1      -4.835   3.854  12.219  1.00  0.00     0.022 A 
BRANCH  78  82
ATOM     82  S   UNL     1      -2.352   4.637  13.215  1.00  0.00     0.124 S 
ATOM     83  O   UNL     1      -2.222   4.401  14.648  1.00  0.00    -0.237 OA
ATOM     84  O   UNL     1      -1.222   4.221  12.391  1.00  0.00    -0.237 OA
ATOM     85  O   UNL     1      -2.954   5.916  12.845  1.00  0.00    -0.744 OA
ENDBRANCH  78  82
ENDBRANCH  51  75
BRANCH  63  86
ATOM     86  C   UNL     1      -3.232  -1.929  19.015  1.00  0.00     0.023 A 
ATOM     87  C   UNL     1      -4.194  -1.196  19.731  1.00  0.00     0.031 A 
ATOM     88  C   UNL     1      -1.982  -2.145  19.626  1.00  0.00     0.131 A 
ATOM     89  C   UNL     1      -3.874  -0.663  20.991  1.00  0.00     0.055 A 
ATOM     90  C   UNL     1      -1.693  -1.671  20.906  1.00  0.00     0.041 A 
ATOM     91  F   UNL     1      -1.020  -2.834  18.990  1.00  0.00    -0.206 F 
ATOM     92  C   UNL     1      -2.638  -0.914  21.591  1.00  0.00     0.022 A 
BRANCH  89  93
ATOM     93  S   UNL     1      -5.063   0.445  21.799  1.00  0.00     0.124 S 
ATOM     94  O   UNL     1      -5.215   1.503  20.805  1.00  0.00    -0.237 OA
ATOM     95  O   UNL     1      -6.220  -0.423  21.989  1.00  0.00    -0.237 OA
ATOM     96  O   UNL     1      -4.380   0.843  23.029  1.00  0.00    -0.744 OA
ENDBRANCH  89  93
ENDBRANCH  63  86
ENDBRANCH  37  38
ENDBRANCH  30  32
ENDBRANCH  29  30
ENDBRANCH  28  29
ENDBRANCH  27  28
ENDBRANCH  26  27
ENDBRANCH   1  26
TORSDOF 22
