REMARK SMILES Cc1c(CC(=O)N[C@H](CO)C(=O)OCCOCCOCCOC(=O)c2ccc(-c3c4nc(c(-c5cc(S(=O)(=O)[O-])ccc5F)c5ccc([nH]5)c(-c5cc(S(=O)(=O)[O-])ccc5F)c5nc(c(-c6cc(S(=O)(=O)[O-])ccc6F)c6ccc3[nH]6)C=C5)C=C4)cc2)cc(-c2ccc(S(C)(=O)=O)cc2)n1-c1cccc(F)c1
REMARK SMILES IDX 17 1 16 2 15 3 14 4 13 5 11 6 12 7 8 8 7 9 5 10 6 11 4 13
REMARK SMILES IDX 3 14 1 15 2 16 100 17 88 18 89 19 101 20 102 21 107 22
REMARK SMILES IDX 103 23 105 24 104 25 106 26 90 27 91 28 99 29 92 30 98 31
REMARK SMILES IDX 93 32 94 33 95 34 96 35 97 36 9 37 10 38 18 40 19 41 20 42
REMARK SMILES IDX 21 43 22 44 23 45 24 46 25 47 26 48 87 49 27 50 86 51 28 52
REMARK SMILES IDX 29 53 30 54 80 55 31 56 85 57 79 58 81 59 32 60 84 61 78 62
REMARK SMILES IDX 77 63 33 65 65 66 45 67 64 68 46 69 49 70 63 71 82 72 47 73
REMARK SMILES IDX 48 74 62 76 83 77 50 78 34 79 35 80 43 81 36 82 42 83 44 84
REMARK SMILES IDX 41 85 37 86 38 87 39 88 40 89 66 90 67 91 75 92 68 93 74 94
REMARK SMILES IDX 76 95 73 96 69 97 70 98 71 99 72 100 51 101 52 102 60 103
REMARK SMILES IDX 53 104 59 105 61 106 58 107 54 108 55 109 56 110 57 111
REMARK H PARENT 7 12 10 39 81 64 49 75
REMARK Flexibility Score: inf
ROOT
ATOM      1  C   UNL     1       0.151  -4.295  -6.325  1.00  0.00     0.188 C 
ENDROOT
BRANCH   1   2
ATOM      2  O   UNL     1       0.900  -4.546  -7.507  1.00  0.00    -0.376 OA
BRANCH   2   3
ATOM      3  C   UNL     1       2.318  -4.511  -7.425  1.00  0.00     0.202 C 
BRANCH   3   4
ATOM      4  C   UNL     1       2.987  -3.191  -7.044  1.00  0.00     0.261 C 
BRANCH   4   5
ATOM      5  O   UNL     1       2.602  -2.674  -5.757  1.00  0.00    -0.462 OA
BRANCH   5   6
ATOM      6  C   UNL     1       2.356  -1.335  -5.728  1.00  0.00     0.331 C 
ATOM      7  O   UNL     1       2.294  -0.627  -6.733  1.00  0.00    -0.250 OA
BRANCH   6   8
ATOM      8  C   UNL     1       2.437  -0.720  -4.327  1.00  0.00     0.218 C 
BRANCH   8   9
ATOM      9  N   UNL     1       3.798  -0.269  -3.986  1.00  0.00    -0.341 N 
ATOM     10  C   UNL     1       4.940  -0.939  -3.668  1.00  0.00     0.225 C 
ATOM     11  O   UNL     1       5.888  -0.251  -3.270  1.00  0.00    -0.275 OA
ATOM     12  H   UNL     1       3.903   0.711  -3.989  1.00  0.00     0.164 HD
BRANCH  10  13
ATOM     13  C   UNL     1       5.116  -2.441  -3.868  1.00  0.00     0.137 C 
BRANCH  13  14
ATOM     14  C   UNL     1       4.488  -3.303  -2.815  1.00  0.00    -0.017 A 
ATOM     15  C   UNL     1       6.054  -2.833  -0.806  1.00  0.00     0.065 C 
ATOM     16  C   UNL     1       4.857  -3.418  -1.481  1.00  0.00     0.024 A 
ATOM     17  N   UNL     1       3.950  -4.261  -0.842  1.00  0.00    -0.313 N 
ATOM     18  C   UNL     1       3.420  -4.224  -3.010  1.00  0.00     0.033 A 
ATOM     19  C   UNL     1       3.026  -4.719  -1.779  1.00  0.00     0.053 A 
BRANCH  17  20
ATOM     20  C   UNL     1       3.896  -4.559   0.545  1.00  0.00     0.049 A 
ATOM     21  C   UNL     1       3.675  -5.881   0.963  1.00  0.00     0.027 A 
ATOM     22  C   UNL     1       3.905  -3.517   1.472  1.00  0.00     0.065 A 
ATOM     23  C   UNL     1       3.421  -6.155   2.305  1.00  0.00     0.005 A 
ATOM     24  C   UNL     1       3.641  -3.808   2.805  1.00  0.00     0.125 A 
ATOM     25  C   UNL     1       3.392  -5.111   3.228  1.00  0.00     0.039 A 
ATOM     26  F   UNL     1       3.586  -2.807   3.694  1.00  0.00    -0.207 F 
ENDBRANCH  17  20
BRANCH  19  27
ATOM     27  C   UNL     1       1.801  -5.466  -1.449  1.00  0.00    -0.001 A 
ATOM     28  C   UNL     1       0.817  -4.900  -0.617  1.00  0.00     0.011 A 
ATOM     29  C   UNL     1       1.605  -6.758  -1.949  1.00  0.00     0.011 A 
ATOM     30  C   UNL     1      -0.336  -5.619  -0.279  1.00  0.00     0.021 A 
ATOM     31  C   UNL     1       0.459  -7.484  -1.610  1.00  0.00     0.021 A 
ATOM     32  C   UNL     1      -0.503  -6.915  -0.773  1.00  0.00     0.067 A 
BRANCH  32  33
ATOM     33  S   UNL     1      -2.048  -7.773  -0.484  1.00  0.00     0.175 S 
ATOM     34  C   UNL     1      -2.042  -8.114   1.261  1.00  0.00     0.163 C 
ATOM     35  O   UNL     1      -3.062  -6.801  -0.809  1.00  0.00    -0.224 OA
ATOM     36  O   UNL     1      -1.935  -9.049  -1.178  1.00  0.00    -0.224 OA
ENDBRANCH  32  33
ENDBRANCH  19  27
ENDBRANCH  13  14
ENDBRANCH  10  13
ENDBRANCH   8   9
BRANCH   8  37
ATOM     37  C   UNL     1       1.671  -1.336  -3.159  1.00  0.00     0.193 C 
BRANCH  37  38
ATOM     38  O   UNL     1       0.482  -1.987  -3.565  1.00  0.00    -0.394 OA
ATOM     39  H   UNL     1      -0.115  -1.342  -3.977  1.00  0.00     0.210 HD
ENDBRANCH  37  38
ENDBRANCH   8  37
ENDBRANCH   6   8
ENDBRANCH   5   6
ENDBRANCH   4   5
ENDBRANCH   3   4
ENDBRANCH   2   3
ENDBRANCH   1   2
BRANCH   1  40
ATOM     40  C   UNL     1       0.294  -5.233  -5.113  1.00  0.00     0.188 C 
BRANCH  40  41
ATOM     41  O   UNL     1       1.317  -6.211  -5.138  1.00  0.00    -0.376 OA
BRANCH  41  42
ATOM     42  C   UNL     1       1.066  -7.399  -5.894  1.00  0.00     0.202 C 
BRANCH  42  43
ATOM     43  C   UNL     1      -0.210  -8.224  -5.581  1.00  0.00     0.261 C 
BRANCH  43  44
ATOM     44  O   UNL     1      -1.378  -8.045  -6.455  1.00  0.00    -0.460 OA
BRANCH  44  45
ATOM     45  C   UNL     1      -2.576  -7.804  -5.822  1.00  0.00     0.338 C 
ATOM     46  O   UNL     1      -2.646  -7.341  -4.693  1.00  0.00    -0.246 OA
BRANCH  45  47
ATOM     47  C   UNL     1      -3.832  -8.141  -6.624  1.00  0.00     0.060 A 
ATOM     48  C   UNL     1      -4.614  -7.121  -7.154  1.00  0.00     0.016 A 
ATOM     49  C   UNL     1      -4.432  -9.418  -6.628  1.00  0.00     0.016 A 
ATOM     50  C   UNL     1      -5.915  -7.389  -7.713  1.00  0.00     0.010 A 
ATOM     51  C   UNL     1      -5.781  -9.675  -7.147  1.00  0.00     0.010 A 
ATOM     52  C   UNL     1      -6.585  -8.668  -7.717  1.00  0.00    -0.014 A 
BRANCH  52  53
ATOM     53  C   UNL     1      -8.207  -8.656  -7.831  1.00  0.00     0.031 A 
ATOM     54  C   UNL     1      -8.588  -7.585  -6.860  1.00  0.00     0.074 A 
ATOM     55  C   UNL     1      -9.294  -9.323  -8.415  1.00  0.00     0.049 A 
ATOM     56  N   UNL     1      -8.170  -7.632  -5.625  1.00  0.00    -0.248 NA
ATOM     57  C   UNL     1      -9.088  -6.276  -7.282  1.00  0.00     0.031 C 
ATOM     58  C   UNL     1      -9.261 -10.536  -9.251  1.00  0.00     0.029 A 
ATOM     59  N   UNL     1     -10.718  -9.087  -8.414  1.00  0.00    -0.354 N 
ATOM     60  C   UNL     1      -8.652  -6.500  -5.016  1.00  0.00     0.074 A 
ATOM     61  C   UNL     1      -8.979  -5.612  -6.126  1.00  0.00     0.031 C 
ATOM     62  C   UNL     1     -10.489 -10.837  -9.773  1.00  0.00     0.029 A 
ATOM     63  C   UNL     1     -11.519  -9.905  -9.310  1.00  0.00     0.049 A 
ATOM     64  H   UNL     1     -11.127  -8.404  -7.834  1.00  0.00     0.167 HD
ATOM     65  C   UNL     1      -9.376  -6.701  -3.875  1.00  0.00     0.034 A 
ATOM     66  C   UNL     1     -12.888  -9.903  -9.619  1.00  0.00     0.034 A 
ATOM     67  C   UNL     1     -10.793  -6.639  -4.125  1.00  0.00     0.049 A 
ATOM     68  C   UNL     1     -13.579  -9.316  -8.472  1.00  0.00     0.074 A 
ATOM     69  C   UNL     1     -11.584  -5.722  -4.786  1.00  0.00     0.029 A 
ATOM     70  N   UNL     1     -11.501  -7.824  -4.085  1.00  0.00    -0.354 N 
ATOM     71  N   UNL     1     -13.790  -9.988  -7.385  1.00  0.00    -0.248 NA
ATOM     72  C   UNL     1     -14.141  -7.972  -8.504  1.00  0.00     0.031 C 
ATOM     73  C   UNL     1     -12.520  -6.494  -5.507  1.00  0.00     0.029 A 
ATOM     74  C   UNL     1     -12.529  -7.792  -5.008  1.00  0.00     0.049 A 
ATOM     75  H   UNL     1     -11.302  -8.580  -3.486  1.00  0.00     0.167 HD
ATOM     76  C   UNL     1     -13.992  -9.010  -6.462  1.00  0.00     0.074 A 
ATOM     77  C   UNL     1     -14.480  -7.871  -7.218  1.00  0.00     0.031 C 
ATOM     78  C   UNL     1     -13.185  -9.036  -5.370  1.00  0.00     0.034 A 
BRANCH  65  79
ATOM     79  C   UNL     1      -8.712  -7.621  -2.889  1.00  0.00     0.023 A 
ATOM     80  C   UNL     1      -8.115  -7.074  -1.744  1.00  0.00     0.031 A 
ATOM     81  C   UNL     1      -8.520  -8.995  -3.140  1.00  0.00     0.131 A 
ATOM     82  C   UNL     1      -7.301  -7.878  -0.926  1.00  0.00     0.055 A 
ATOM     83  C   UNL     1      -7.654  -9.770  -2.371  1.00  0.00     0.041 A 
ATOM     84  F   UNL     1      -9.163  -9.603  -4.151  1.00  0.00    -0.206 F 
ATOM     85  C   UNL     1      -7.023  -9.207  -1.265  1.00  0.00     0.022 A 
BRANCH  82  86
ATOM     86  S   UNL     1      -6.609  -7.173   0.597  1.00  0.00     0.124 S 
ATOM     87  O   UNL     1      -6.186  -5.836   0.192  1.00  0.00    -0.237 OA
ATOM     88  O   UNL     1      -7.763  -7.208   1.492  1.00  0.00    -0.237 OA
ATOM     89  O   UNL     1      -5.527  -8.089   0.962  1.00  0.00    -0.744 OA
ENDBRANCH  82  86
ENDBRANCH  65  79
BRANCH  66  90
ATOM     90  C   UNL     1     -13.957 -10.435 -10.634  1.00  0.00     0.023 A 
ATOM     91  C   UNL     1     -15.378 -10.495 -10.310  1.00  0.00     0.031 A 
ATOM     92  C   UNL     1     -13.684 -10.552 -12.001  1.00  0.00     0.131 A 
ATOM     93  C   UNL     1     -16.402 -10.600 -11.298  1.00  0.00     0.055 A 
ATOM     94  C   UNL     1     -14.705 -10.672 -12.979  1.00  0.00     0.041 A 
ATOM     95  F   UNL     1     -12.424 -10.457 -12.448  1.00  0.00    -0.206 F 
ATOM     96  C   UNL     1     -16.059 -10.675 -12.640  1.00  0.00     0.022 A 
BRANCH  93  97
ATOM     97  S   UNL     1     -18.201 -10.432 -10.895  1.00  0.00     0.124 S 
ATOM     98  O   UNL     1     -18.571 -11.780 -10.482  1.00  0.00    -0.237 OA
ATOM     99  O   UNL     1     -18.213  -9.405  -9.858  1.00  0.00    -0.237 OA
ATOM    100  O   UNL     1     -18.793 -10.002 -12.165  1.00  0.00    -0.744 OA
ENDBRANCH  93  97
ENDBRANCH  66  90
BRANCH  78 101
ATOM    101  C   UNL     1     -12.911 -10.401  -4.735  1.00  0.00     0.023 A 
ATOM    102  C   UNL     1     -12.623 -11.615  -5.418  1.00  0.00     0.031 A 
ATOM    103  C   UNL     1     -13.030 -10.491  -3.339  1.00  0.00     0.131 A 
ATOM    104  C   UNL     1     -12.503 -12.835  -4.719  1.00  0.00     0.055 A 
ATOM    105  C   UNL     1     -12.866 -11.690  -2.642  1.00  0.00     0.041 A 
ATOM    106  F   UNL     1     -13.327  -9.399  -2.614  1.00  0.00    -0.206 F 
ATOM    107  C   UNL     1     -12.617 -12.870  -3.331  1.00  0.00     0.022 A 
BRANCH 104 108
ATOM    108  S   UNL     1     -12.286 -14.410  -5.620  1.00  0.00     0.124 S 
ATOM    109  O   UNL     1     -13.294 -14.343  -6.672  1.00  0.00    -0.237 OA
ATOM    110  O   UNL     1     -10.897 -14.336  -6.062  1.00  0.00    -0.237 OA
ATOM    111  O   UNL     1     -12.548 -15.425  -4.597  1.00  0.00    -0.744 OA
ENDBRANCH 104 108
ENDBRANCH  78 101
ENDBRANCH  52  53
ENDBRANCH  45  47
ENDBRANCH  44  45
ENDBRANCH  43  44
ENDBRANCH  42  43
ENDBRANCH  41  42
ENDBRANCH  40  41
ENDBRANCH   1  40
TORSDOF 28
