REMARK SMILES CC[NH2+][C@@]1(C(=O)OCCOCCOCCOC(=O)c2ccc(-c3c4nc(c(-c5cc(S(=O)(=O)[O-])ccc5F)c5ccc([nH]5)c(-c5cc(S(=O)(=O)[O-])ccc5F)c5nc(c(-c6cc(S(=O)(=O)[O-])ccc6F)c6ccc3[nH]6)C=C5)C=C4)cc2)CC[C@H]([NH+]2CCC(C[NH+](C)C)CC2)C1
REMARK SMILES IDX 11 1 10 2 9 3 8 4 7 5 5 6 6 7 4 8 82 9 95 10 83 11 84 12
REMARK SMILES IDX 3 13 2 16 1 17 85 18 86 19 94 20 87 22 93 23 88 24 89 25
REMARK SMILES IDX 90 26 91 27 92 28 12 30 13 31 14 32 15 33 16 34 17 35 18 36
REMARK SMILES IDX 19 37 20 38 81 39 21 40 80 41 22 42 23 43 24 44 74 45 25 46
REMARK SMILES IDX 79 47 73 48 75 49 26 50 78 51 72 52 71 53 27 55 59 56 39 57
REMARK SMILES IDX 58 58 40 59 43 60 57 61 76 62 41 63 42 64 56 66 77 67 44 68
REMARK SMILES IDX 28 69 29 70 37 71 30 72 36 73 38 74 35 75 31 76 32 77 33 78
REMARK SMILES IDX 34 79 60 80 61 81 69 82 62 83 68 84 70 85 67 86 63 87 64 88
REMARK SMILES IDX 65 89 66 90 45 91 46 92 54 93 47 94 53 95 55 96 52 97 48 98
REMARK SMILES IDX 49 99 50 100 51 101
REMARK H PARENT 3 14 3 15 85 21 90 29 75 54 43 65
REMARK Flexibility Score: inf
ROOT
ATOM      1  C   UNL     1       3.283   0.533   5.167  1.00  0.00     0.188 C 
ENDROOT
BRANCH   1   2
ATOM      2  O   UNL     1       2.972   1.178   6.395  1.00  0.00    -0.376 OA
BRANCH   2   3
ATOM      3  C   UNL     1       2.016   0.508   7.220  1.00  0.00     0.202 C 
BRANCH   3   4
ATOM      4  C   UNL     1       0.656   0.260   6.559  1.00  0.00     0.261 C 
BRANCH   4   5
ATOM      5  O   UNL     1       0.745  -0.675   5.463  1.00  0.00    -0.459 OA
BRANCH   5   6
ATOM      6  C   UNL     1      -0.307  -0.631   4.594  1.00  0.00     0.368 C 
ATOM      7  O   UNL     1      -1.323   0.025   4.812  1.00  0.00    -0.245 OA
BRANCH   6   8
ATOM      8  C   UNL     1      -0.060  -1.456   3.277  1.00  0.00     0.200 C 
ATOM      9  C   UNL     1      -1.408  -2.088   2.882  1.00  0.00     0.087 C 
ATOM     10  C   UNL     1       0.835  -2.699   3.471  1.00  0.00     0.146 C 
ATOM     11  C   UNL     1      -1.525  -3.275   3.833  1.00  0.00     0.072 C 
ATOM     12  C   UNL     1      -0.100  -3.849   3.927  1.00  0.00     0.191 C 
BRANCH   8  13
ATOM     13  N   UNL     1       0.528  -0.506   2.304  1.00  0.00    -0.332 N 
ATOM     14  H   UNL     1       0.114   0.410   2.477  1.00  0.00     0.347 HD
ATOM     15  H   UNL     1       1.535  -0.552   2.457  1.00  0.00     0.347 HD
BRANCH  13  16
ATOM     16  C   UNL     1       0.337  -0.819   0.891  1.00  0.00     0.257 C 
ATOM     17  C   UNL     1       1.113   0.166   0.027  1.00  0.00     0.071 C 
ENDBRANCH  13  16
ENDBRANCH   8  13
BRANCH  12  18
ATOM     18  N   UNL     1       0.315  -4.603   5.117  1.00  0.00    -0.332 N 
ATOM     19  C   UNL     1      -0.563  -5.700   5.513  1.00  0.00     0.262 C 
ATOM     20  C   UNL     1       0.742  -3.876   6.306  1.00  0.00     0.262 C 
ATOM     21  H   UNL     1       1.173  -4.982   4.716  1.00  0.00     0.348 HD
ATOM     22  C   UNL     1      -1.802  -5.275   6.305  1.00  0.00     0.071 C 
ATOM     23  C   UNL     1      -0.407  -3.254   7.075  1.00  0.00     0.071 C 
ATOM     24  C   UNL     1      -1.579  -4.205   7.394  1.00  0.00     0.055 C 
BRANCH  24  25
ATOM     25  C   UNL     1      -2.822  -3.295   7.628  1.00  0.00     0.265 C 
BRANCH  25  26
ATOM     26  N   UNL     1      -4.031  -3.839   8.273  1.00  0.00    -0.340 N 
ATOM     27  C   UNL     1      -4.989  -2.732   8.444  1.00  0.00     0.332 C 
ATOM     28  C   UNL     1      -4.679  -4.896   7.500  1.00  0.00     0.332 C 
ATOM     29  H   UNL     1      -3.746  -4.254   9.160  1.00  0.00     0.347 HD
ENDBRANCH  25  26
ENDBRANCH  24  25
ENDBRANCH  12  18
ENDBRANCH   6   8
ENDBRANCH   5   6
ENDBRANCH   4   5
ENDBRANCH   3   4
ENDBRANCH   2   3
ENDBRANCH   1   2
BRANCH   1  30
ATOM     30  C   UNL     1       4.073  -0.771   5.292  1.00  0.00     0.188 C 
BRANCH  30  31
ATOM     31  O   UNL     1       3.757  -1.615   6.394  1.00  0.00    -0.376 OA
BRANCH  31  32
ATOM     32  C   UNL     1       4.496  -2.842   6.448  1.00  0.00     0.202 C 
BRANCH  32  33
ATOM     33  C   UNL     1       6.022  -2.698   6.621  1.00  0.00     0.261 C 
BRANCH  33  34
ATOM     34  O   UNL     1       6.702  -2.023   5.546  1.00  0.00    -0.460 OA
BRANCH  34  35
ATOM     35  C   UNL     1       6.501  -2.473   4.283  1.00  0.00     0.338 C 
ATOM     36  O   UNL     1       6.045  -3.560   3.970  1.00  0.00    -0.246 OA
BRANCH  35  37
ATOM     37  C   UNL     1       6.631  -1.306   3.364  1.00  0.00     0.060 A 
ATOM     38  C   UNL     1       5.764  -1.220   2.261  1.00  0.00     0.016 A 
ATOM     39  C   UNL     1       7.485  -0.237   3.659  1.00  0.00     0.016 A 
ATOM     40  C   UNL     1       5.769  -0.083   1.443  1.00  0.00     0.010 A 
ATOM     41  C   UNL     1       7.499   0.891   2.836  1.00  0.00     0.010 A 
ATOM     42  C   UNL     1       6.665   0.961   1.706  1.00  0.00    -0.014 A 
BRANCH  42  43
ATOM     43  C   UNL     1       6.984   1.980   0.672  1.00  0.00     0.031 A 
ATOM     44  C   UNL     1       8.143   1.672  -0.237  1.00  0.00     0.074 A 
ATOM     45  C   UNL     1       6.335   3.154   0.572  1.00  0.00     0.049 A 
ATOM     46  N   UNL     1       8.788   2.450  -1.064  1.00  0.00    -0.248 NA
ATOM     47  C   UNL     1       8.653   0.292  -0.182  1.00  0.00     0.031 C 
ATOM     48  C   UNL     1       5.156   3.545   1.339  1.00  0.00     0.029 A 
ATOM     49  N   UNL     1       6.604   4.250  -0.213  1.00  0.00    -0.354 N 
ATOM     50  C   UNL     1       9.790   1.659  -1.614  1.00  0.00     0.074 A 
ATOM     51  C   UNL     1       9.683   0.351  -1.007  1.00  0.00     0.031 C 
ATOM     52  C   UNL     1       4.816   4.804   1.003  1.00  0.00     0.029 A 
ATOM     53  C   UNL     1       5.786   5.329   0.041  1.00  0.00     0.049 A 
ATOM     54  H   UNL     1       7.315   4.263  -0.894  1.00  0.00     0.167 HD
ATOM     55  C   UNL     1      10.720   1.992  -2.541  1.00  0.00     0.034 A 
ATOM     56  C   UNL     1       5.849   6.599  -0.416  1.00  0.00     0.034 A 
ATOM     57  C   UNL     1      10.838   3.307  -3.112  1.00  0.00     0.049 A 
ATOM     58  C   UNL     1       6.971   6.987  -1.361  1.00  0.00     0.074 A 
ATOM     59  C   UNL     1      11.763   3.769  -4.031  1.00  0.00     0.029 A 
ATOM     60  N   UNL     1      10.007   4.376  -2.807  1.00  0.00    -0.354 N 
ATOM     61  N   UNL     1       7.938   6.243  -1.849  1.00  0.00    -0.248 NA
ATOM     62  C   UNL     1       7.015   8.388  -1.809  1.00  0.00     0.031 C 
ATOM     63  C   UNL     1      11.530   5.133  -4.234  1.00  0.00     0.029 A 
ATOM     64  C   UNL     1      10.410   5.501  -3.505  1.00  0.00     0.049 A 
ATOM     65  H   UNL     1       9.244   4.340  -2.187  1.00  0.00     0.167 HD
ATOM     66  C   UNL     1       8.669   7.074  -2.698  1.00  0.00     0.074 A 
ATOM     67  C   UNL     1       8.040   8.376  -2.649  1.00  0.00     0.031 C 
ATOM     68  C   UNL     1       9.754   6.786  -3.460  1.00  0.00     0.034 A 
BRANCH  55  69
ATOM     69  C   UNL     1      11.713   0.925  -2.925  1.00  0.00     0.023 A 
ATOM     70  C   UNL     1      11.308  -0.259  -3.567  1.00  0.00     0.031 A 
ATOM     71  C   UNL     1      13.070   1.063  -2.587  1.00  0.00     0.131 A 
ATOM     72  C   UNL     1      12.234  -1.290  -3.777  1.00  0.00     0.055 A 
ATOM     73  C   UNL     1      14.004   0.068  -2.878  1.00  0.00     0.041 A 
ATOM     74  F   UNL     1      13.507   2.158  -1.945  1.00  0.00    -0.206 F 
ATOM     75  C   UNL     1      13.585  -1.124  -3.462  1.00  0.00     0.022 A 
BRANCH  72  76
ATOM     76  S   UNL     1      11.618  -2.906  -4.320  1.00  0.00     0.124 S 
ATOM     77  O   UNL     1      10.705  -3.253  -3.234  1.00  0.00    -0.237 OA
ATOM     78  O   UNL     1      10.996  -2.594  -5.602  1.00  0.00    -0.237 OA
ATOM     79  O   UNL     1      12.826  -3.726  -4.395  1.00  0.00    -0.744 OA
ENDBRANCH  72  76
ENDBRANCH  55  69
BRANCH  56  80
ATOM     80  C   UNL     1       4.873   7.633   0.044  1.00  0.00     0.023 A 
ATOM     81  C   UNL     1       4.025   8.286  -0.866  1.00  0.00     0.031 A 
ATOM     82  C   UNL     1       4.835   8.048   1.388  1.00  0.00     0.131 A 
ATOM     83  C   UNL     1       3.219   9.353  -0.434  1.00  0.00     0.055 A 
ATOM     84  C   UNL     1       3.987   9.069   1.824  1.00  0.00     0.041 A 
ATOM     85  F   UNL     1       5.631   7.469   2.301  1.00  0.00    -0.206 F 
ATOM     86  C   UNL     1       3.184   9.739   0.907  1.00  0.00     0.022 A 
BRANCH  83  87
ATOM     87  S   UNL     1       2.295  10.303  -1.675  1.00  0.00     0.124 S 
ATOM     88  O   UNL     1       3.367  10.775  -2.543  1.00  0.00    -0.237 OA
ATOM     89  O   UNL     1       1.412   9.287  -2.239  1.00  0.00    -0.237 OA
ATOM     90  O   UNL     1       1.629  11.337  -0.886  1.00  0.00    -0.744 OA
ENDBRANCH  83  87
ENDBRANCH  56  80
BRANCH  68  91
ATOM     91  C   UNL     1      10.277   7.862  -4.380  1.00  0.00     0.023 A 
ATOM     92  C   UNL     1      10.945   9.001  -3.902  1.00  0.00     0.031 A 
ATOM     93  C   UNL     1      10.144   7.703  -5.772  1.00  0.00     0.131 A 
ATOM     94  C   UNL     1      11.434   9.952  -4.812  1.00  0.00     0.055 A 
ATOM     95  C   UNL     1      10.674   8.627  -6.672  1.00  0.00     0.041 A 
ATOM     96  F   UNL     1       9.517   6.630  -6.280  1.00  0.00    -0.206 F 
ATOM     97  C   UNL     1      11.319   9.763  -6.193  1.00  0.00     0.022 A 
BRANCH  94  98
ATOM     98  S   UNL     1      12.195  11.470  -4.171  1.00  0.00     0.124 S 
ATOM     99  O   UNL     1      11.092  12.072  -3.428  1.00  0.00    -0.237 OA
ATOM    100  O   UNL     1      13.298  10.953  -3.367  1.00  0.00    -0.237 OA
ATOM    101  O   UNL     1      12.596  12.190  -5.378  1.00  0.00    -0.744 OA
ENDBRANCH  94  98
ENDBRANCH  68  91
ENDBRANCH  42  43
ENDBRANCH  35  37
ENDBRANCH  34  35
ENDBRANCH  33  34
ENDBRANCH  32  33
ENDBRANCH  31  32
ENDBRANCH  30  31
ENDBRANCH   1  30
TORSDOF 25
