REMARK SMILES CC[C@@](C)(NC(=O)NCCc1ncn[nH]1)C(=O)OCCOCCOCCOC(=O)c1ccc(-c2c3nc(c(-c4cc(S(=O)(=O)[O-])ccc4F)c4ccc([nH]4)c(-c4cc(S(=O)(=O)[O-])ccc4F)c4nc(c(-c5cc(S(=O)(=O)[O-])ccc5F)c5ccc2[nH]5)C=C4)C=C3)cc1
REMARK SMILES IDX 22 1 21 2 20 3 19 4 18 5 16 6 17 7 3 8 4 9 2 10 1 11 5 12
REMARK SMILES IDX 6 13 7 15 8 16 9 18 10 19 11 20 12 21 15 22 13 23 14 24
REMARK SMILES IDX 23 26 24 27 25 28 26 29 27 30 28 31 29 32 30 33 31 34 92 35
REMARK SMILES IDX 32 36 91 37 33 38 34 39 35 40 85 41 36 42 90 43 84 44 86 45
REMARK SMILES IDX 37 46 89 47 83 48 82 49 38 51 70 52 50 53 69 54 51 55 54 56
REMARK SMILES IDX 68 57 87 58 52 59 53 60 67 62 88 63 55 64 39 65 40 66 48 67
REMARK SMILES IDX 41 68 47 69 49 70 46 71 42 72 43 73 44 74 45 75 71 76 72 77
REMARK SMILES IDX 80 78 73 79 79 80 81 81 78 82 74 83 75 84 76 85 77 86 56 87
REMARK SMILES IDX 57 88 65 89 58 90 64 91 66 92 63 93 59 94 60 95 61 96 62 97
REMARK H PARENT 5 14 8 17 15 25 86 50 54 61
REMARK Flexibility Score: inf
ROOT
ATOM      1  C   UNL     1       3.760   1.225  -2.343  1.00  0.00     0.188 C 
ENDROOT
BRANCH   1   2
ATOM      2  O   UNL     1       4.941   1.087  -1.553  1.00  0.00    -0.376 OA
BRANCH   2   3
ATOM      3  C   UNL     1       5.547  -0.203  -1.561  1.00  0.00     0.202 C 
BRANCH   3   4
ATOM      4  C   UNL     1       4.771  -1.218  -0.725  1.00  0.00     0.261 C 
BRANCH   4   5
ATOM      5  O   UNL     1       3.530  -1.476  -1.398  1.00  0.00    -0.462 OA
BRANCH   5   6
ATOM      6  C   UNL     1       2.457  -1.785  -0.639  1.00  0.00     0.331 C 
ATOM      7  O   UNL     1       2.540  -2.067   0.551  1.00  0.00    -0.249 OA
BRANCH   6   8
ATOM      8  C   UNL     1       1.121  -1.683  -1.434  1.00  0.00     0.136 C 
ATOM      9  C   UNL     1       0.296  -2.932  -1.090  1.00  0.00     0.047 C 
BRANCH   8  10
ATOM     10  C   UNL     1       0.365  -0.395  -0.935  1.00  0.00     0.037 C 
ATOM     11  C   UNL     1       0.341  -0.080   0.553  1.00  0.00     0.007 C 
ENDBRANCH   8  10
BRANCH   8  12
ATOM     12  N   UNL     1       1.144  -1.504  -2.934  1.00  0.00    -0.322 N 
ATOM     13  C   UNL     1       1.385  -2.220  -4.031  1.00  0.00     0.315 C 
ATOM     14  H   UNL     1       0.909  -0.578  -3.172  1.00  0.00     0.166 HD
ATOM     15  O   UNL     1       0.725  -1.943  -5.036  1.00  0.00    -0.249 OA
ATOM     16  N   UNL     1       2.295  -3.187  -4.152  1.00  0.00    -0.338 N 
ATOM     17  H   UNL     1       2.143  -3.808  -4.901  1.00  0.00     0.165 HD
BRANCH  16  18
ATOM     18  C   UNL     1       3.465  -3.467  -3.360  1.00  0.00     0.125 C 
BRANCH  18  19
ATOM     19  C   UNL     1       4.361  -4.574  -3.922  1.00  0.00     0.098 C 
BRANCH  19  20
ATOM     20  C   UNL     1       5.585  -4.130  -4.664  1.00  0.00     0.125 A 
ATOM     21  N   UNL     1       6.330  -4.886  -5.449  1.00  0.00    -0.220 NA
ATOM     22  N   UNL     1       6.188  -2.906  -4.551  1.00  0.00    -0.263 N 
ATOM     23  C   UNL     1       7.384  -4.080  -5.768  1.00  0.00     0.246 A 
ATOM     24  N   UNL     1       7.346  -2.860  -5.231  1.00  0.00    -0.162 NA
ATOM     25  H   UNL     1       5.820  -2.154  -4.034  1.00  0.00     0.192 HD
ENDBRANCH  19  20
ENDBRANCH  18  19
ENDBRANCH  16  18
ENDBRANCH   8  12
ENDBRANCH   6   8
ENDBRANCH   5   6
ENDBRANCH   4   5
ENDBRANCH   3   4
ENDBRANCH   2   3
ENDBRANCH   1   2
BRANCH   1  26
ATOM     26  C   UNL     1       4.027   1.291  -3.839  1.00  0.00     0.188 C 
BRANCH  26  27
ATOM     27  O   UNL     1       4.382   0.067  -4.489  1.00  0.00    -0.376 OA
BRANCH  27  28
ATOM     28  C   UNL     1       5.249   0.274  -5.621  1.00  0.00     0.202 C 
BRANCH  28  29
ATOM     29  C   UNL     1       4.812   1.235  -6.751  1.00  0.00     0.261 C 
BRANCH  29  30
ATOM     30  O   UNL     1       4.413   2.526  -6.259  1.00  0.00    -0.460 OA
BRANCH  30  31
ATOM     31  C   UNL     1       3.112   2.858  -6.506  1.00  0.00     0.338 C 
ATOM     32  O   UNL     1       2.377   2.331  -7.305  1.00  0.00    -0.246 OA
BRANCH  31  33
ATOM     33  C   UNL     1       2.640   3.792  -5.442  1.00  0.00     0.060 A 
ATOM     34  C   UNL     1       1.333   3.607  -4.967  1.00  0.00     0.016 A 
ATOM     35  C   UNL     1       3.470   4.749  -4.845  1.00  0.00     0.016 A 
ATOM     36  C   UNL     1       0.837   4.405  -3.937  1.00  0.00     0.010 A 
ATOM     37  C   UNL     1       2.967   5.559  -3.818  1.00  0.00     0.010 A 
ATOM     38  C   UNL     1       1.637   5.416  -3.387  1.00  0.00    -0.014 A 
BRANCH  38  39
ATOM     39  C   UNL     1       0.986   6.474  -2.574  1.00  0.00     0.031 A 
ATOM     40  C   UNL     1       0.467   7.684  -3.307  1.00  0.00     0.074 A 
ATOM     41  C   UNL     1       0.800   6.348  -1.248  1.00  0.00     0.049 A 
ATOM     42  N   UNL     1      -0.176   8.726  -2.850  1.00  0.00    -0.248 NA
ATOM     43  C   UNL     1       0.706   7.714  -4.761  1.00  0.00     0.031 C 
ATOM     44  C   UNL     1       1.227   5.210  -0.435  1.00  0.00     0.029 A 
ATOM     45  N   UNL     1       0.196   7.193  -0.350  1.00  0.00    -0.354 N 
ATOM     46  C   UNL     1      -0.442   9.520  -3.960  1.00  0.00     0.074 A 
ATOM     47  C   UNL     1       0.157   8.867  -5.103  1.00  0.00     0.031 C 
ATOM     48  C   UNL     1       0.881   5.436   0.847  1.00  0.00     0.029 A 
ATOM     49  C   UNL     1       0.225   6.739   0.949  1.00  0.00     0.049 A 
ATOM     50  H   UNL     1      -0.221   8.046  -0.611  1.00  0.00     0.167 HD
ATOM     51  C   UNL     1      -1.137  10.681  -4.028  1.00  0.00     0.034 A 
ATOM     52  C   UNL     1      -0.214   7.321   2.085  1.00  0.00     0.034 A 
ATOM     53  C   UNL     1      -1.690  11.349  -2.879  1.00  0.00     0.049 A 
ATOM     54  C   UNL     1      -0.904   8.665   1.997  1.00  0.00     0.074 A 
ATOM     55  C   UNL     1      -2.379  12.547  -2.825  1.00  0.00     0.029 A 
ATOM     56  N   UNL     1      -1.603  10.880  -1.575  1.00  0.00    -0.354 N 
ATOM     57  N   UNL     1      -1.161   9.398   0.937  1.00  0.00    -0.248 NA
ATOM     58  C   UNL     1      -1.377   9.252   3.259  1.00  0.00     0.031 C 
ATOM     59  C   UNL     1      -2.655  12.832  -1.482  1.00  0.00     0.029 A 
ATOM     60  C   UNL     1      -2.204  11.776  -0.706  1.00  0.00     0.049 A 
ATOM     61  H   UNL     1      -1.177  10.034  -1.307  1.00  0.00     0.167 HD
ATOM     62  C   UNL     1      -1.849  10.517   1.405  1.00  0.00     0.074 A 
ATOM     63  C   UNL     1      -1.989  10.347   2.836  1.00  0.00     0.031 C 
ATOM     64  C   UNL     1      -2.321  11.592   0.721  1.00  0.00     0.034 A 
BRANCH  51  65
ATOM     65  C   UNL     1      -1.285  11.308  -5.391  1.00  0.00     0.023 A 
ATOM     66  C   UNL     1      -2.029  10.684  -6.409  1.00  0.00     0.031 A 
ATOM     67  C   UNL     1      -0.637  12.518  -5.693  1.00  0.00     0.131 A 
ATOM     68  C   UNL     1      -2.054  11.239  -7.697  1.00  0.00     0.055 A 
ATOM     69  C   UNL     1      -0.726  13.102  -6.957  1.00  0.00     0.041 A 
ATOM     70  F   UNL     1       0.110  13.142  -4.769  1.00  0.00    -0.206 F 
ATOM     71  C   UNL     1      -1.428  12.457  -7.971  1.00  0.00     0.022 A 
BRANCH  68  72
ATOM     72  S   UNL     1      -2.812  10.284  -9.040  1.00  0.00     0.124 S 
ATOM     73  O   UNL     1      -1.971   9.089  -9.062  1.00  0.00    -0.237 OA
ATOM     74  O   UNL     1      -4.177  10.096  -8.563  1.00  0.00    -0.237 OA
ATOM     75  O   UNL     1      -2.672  11.158 -10.202  1.00  0.00    -0.744 OA
ENDBRANCH  68  72
ENDBRANCH  51  65
BRANCH  52  76
ATOM     76  C   UNL     1       0.013   6.680   3.416  1.00  0.00     0.023 A 
ATOM     77  C   UNL     1      -1.058   6.306   4.244  1.00  0.00     0.031 A 
ATOM     78  C   UNL     1       1.317   6.523   3.920  1.00  0.00     0.131 A 
ATOM     79  C   UNL     1      -0.811   5.854   5.551  1.00  0.00     0.055 A 
ATOM     80  C   UNL     1       1.560   6.021   5.200  1.00  0.00     0.041 A 
ATOM     81  F   UNL     1       2.379   6.869   3.175  1.00  0.00    -0.206 F 
ATOM     82  C   UNL     1       0.492   5.699   6.031  1.00  0.00     0.022 A 
BRANCH  79  83
ATOM     83  S   UNL     1      -2.221   5.576   6.660  1.00  0.00     0.124 S 
ATOM     84  O   UNL     1      -2.889   6.872   6.622  1.00  0.00    -0.237 OA
ATOM     85  O   UNL     1      -2.914   4.477   5.994  1.00  0.00    -0.237 OA
ATOM     86  O   UNL     1      -1.592   5.233   7.933  1.00  0.00    -0.744 OA
ENDBRANCH  79  83
ENDBRANCH  52  76
BRANCH  64  87
ATOM     87  C   UNL     1      -3.061  12.639   1.518  1.00  0.00     0.023 A 
ATOM     88  C   UNL     1      -2.414  13.419   2.492  1.00  0.00     0.031 A 
ATOM     89  C   UNL     1      -4.438  12.842   1.316  1.00  0.00     0.131 A 
ATOM     90  C   UNL     1      -3.155  14.314   3.277  1.00  0.00     0.055 A 
ATOM     91  C   UNL     1      -5.159  13.780   2.056  1.00  0.00     0.041 A 
ATOM     92  F   UNL     1      -5.108  12.127   0.398  1.00  0.00    -0.206 F 
ATOM     93  C   UNL     1      -4.521  14.511   3.055  1.00  0.00     0.022 A 
BRANCH  90  94
ATOM     94  S   UNL     1      -2.333  15.136   4.669  1.00  0.00     0.124 S 
ATOM     95  O   UNL     1      -1.823  14.003   5.434  1.00  0.00    -0.237 OA
ATOM     96  O   UNL     1      -1.329  15.955   3.997  1.00  0.00    -0.237 OA
ATOM     97  O   UNL     1      -3.412  15.883   5.312  1.00  0.00    -0.744 OA
ENDBRANCH  90  94
ENDBRANCH  64  87
ENDBRANCH  38  39
ENDBRANCH  31  33
ENDBRANCH  30  31
ENDBRANCH  29  30
ENDBRANCH  28  29
ENDBRANCH  27  28
ENDBRANCH  26  27
ENDBRANCH   1  26
TORSDOF 25
