REMARK SMILES C[C@@H](C(=O)OCCOCCOCCOC(=O)c1ccc(-c2c3nc(c(-c4cc(S(=O)(=O)[O-])ccc4F)c4ccc([nH]4)c(-c4cc(S(=O)(=O)[O-])ccc4F)c4nc(c(-c5cc(S(=O)(=O)[O-])ccc5F)c5ccc2[nH]5)C=C4)C=C3)cc1)[C@H](C)[S@@](=O)c1ccc(F)c(F)c1
REMARK SMILES IDX 9 1 8 2 7 3 6 4 5 5 3 6 4 7 2 8 1 9 80 10 81 11 82 12 83 13
REMARK SMILES IDX 84 14 85 15 91 16 86 17 89 18 87 19 90 20 88 21 10 22 11 23
REMARK SMILES IDX 12 24 13 25 14 26 15 27 16 28 17 29 18 30 79 31 19 32 78 33
REMARK SMILES IDX 20 34 21 35 22 36 72 37 23 38 77 39 71 40 73 41 24 42 76 43
REMARK SMILES IDX 70 44 69 45 25 47 57 48 37 49 56 50 38 51 41 52 55 53 74 54
REMARK SMILES IDX 39 55 40 56 54 58 75 59 42 60 26 61 27 62 35 63 28 64 34 65
REMARK SMILES IDX 36 66 33 67 29 68 30 69 31 70 32 71 58 72 59 73 67 74 60 75
REMARK SMILES IDX 66 76 68 77 65 78 61 79 62 80 63 81 64 82 43 83 44 84 52 85
REMARK SMILES IDX 45 86 51 87 53 88 50 89 46 90 47 91 48 92 49 93
REMARK H PARENT 73 46 41 57
REMARK Flexibility Score: inf
ROOT
ATOM      1  C   UNL     1      -2.668  -1.334  -1.695  1.00  0.00     0.188 C 
ENDROOT
BRANCH   1   2
ATOM      2  O   UNL     1      -2.345  -2.602  -2.252  1.00  0.00    -0.376 OA
BRANCH   2   3
ATOM      3  C   UNL     1      -2.156  -3.710  -1.379  1.00  0.00     0.202 C 
BRANCH   3   4
ATOM      4  C   UNL     1      -1.195  -3.561  -0.189  1.00  0.00     0.261 C 
BRANCH   4   5
ATOM      5  O   UNL     1      -1.485  -2.457   0.695  1.00  0.00    -0.463 OA
BRANCH   5   6
ATOM      6  C   UNL     1      -0.483  -1.570   0.917  1.00  0.00     0.309 C 
ATOM      7  O   UNL     1       0.641  -1.695   0.444  1.00  0.00    -0.252 OA
BRANCH   6   8
ATOM      8  C   UNL     1      -0.851  -0.396   1.843  1.00  0.00     0.112 C 
ATOM      9  C   UNL     1      -2.213  -0.551   2.547  1.00  0.00     0.021 C 
BRANCH   8  10
ATOM     10  C   UNL     1      -0.617   0.954   1.101  1.00  0.00     0.095 C 
ATOM     11  C   UNL     1       0.861   1.268   0.819  1.00  0.00     0.023 C 
BRANCH  10  12
ATOM     12  S   UNL     1      -1.371   2.488   1.757  1.00  0.00     0.057 S 
ATOM     13  O   UNL     1      -2.854   2.320   1.863  1.00  0.00    -0.254 OA
BRANCH  12  14
ATOM     14  C   UNL     1      -0.778   2.774   3.434  1.00  0.00     0.042 A 
ATOM     15  C   UNL     1      -0.370   1.782   4.330  1.00  0.00     0.021 A 
ATOM     16  C   UNL     1      -0.831   4.096   3.906  1.00  0.00     0.060 A 
ATOM     17  C   UNL     1      -0.072   2.074   5.665  1.00  0.00     0.043 A 
ATOM     18  C   UNL     1      -0.515   4.390   5.233  1.00  0.00     0.160 A 
ATOM     19  C   UNL     1      -0.152   3.381   6.111  1.00  0.00     0.158 A 
ATOM     20  F   UNL     1      -0.583   5.657   5.663  1.00  0.00    -0.204 F 
ATOM     21  F   UNL     1       0.115   3.651   7.396  1.00  0.00    -0.204 F 
ENDBRANCH  12  14
ENDBRANCH  10  12
ENDBRANCH   8  10
ENDBRANCH   6   8
ENDBRANCH   5   6
ENDBRANCH   4   5
ENDBRANCH   3   4
ENDBRANCH   2   3
ENDBRANCH   1   2
BRANCH   1  22
ATOM     22  C   UNL     1      -3.707  -1.257  -0.568  1.00  0.00     0.188 C 
BRANCH  22  23
ATOM     23  O   UNL     1      -4.230  -2.501  -0.157  1.00  0.00    -0.376 OA
BRANCH  23  24
ATOM     24  C   UNL     1      -5.639  -2.659  -0.181  1.00  0.00     0.202 C 
BRANCH  24  25
ATOM     25  C   UNL     1      -6.334  -2.504  -1.546  1.00  0.00     0.261 C 
BRANCH  25  26
ATOM     26  O   UNL     1      -6.049  -1.294  -2.270  1.00  0.00    -0.460 OA
BRANCH  26  27
ATOM     27  C   UNL     1      -6.534  -0.137  -1.752  1.00  0.00     0.338 C 
ATOM     28  O   UNL     1      -7.244  -0.032  -0.765  1.00  0.00    -0.246 OA
BRANCH  27  29
ATOM     29  C   UNL     1      -5.835   0.984  -2.431  1.00  0.00     0.060 A 
ATOM     30  C   UNL     1      -5.095   1.897  -1.664  1.00  0.00     0.016 A 
ATOM     31  C   UNL     1      -5.867   1.106  -3.822  1.00  0.00     0.016 A 
ATOM     32  C   UNL     1      -4.407   2.946  -2.283  1.00  0.00     0.010 A 
ATOM     33  C   UNL     1      -5.199   2.171  -4.438  1.00  0.00     0.010 A 
ATOM     34  C   UNL     1      -4.488   3.114  -3.672  1.00  0.00    -0.014 A 
BRANCH  34  35
ATOM     35  C   UNL     1      -4.020   4.376  -4.308  1.00  0.00     0.031 A 
ATOM     36  C   UNL     1      -5.046   5.437  -4.611  1.00  0.00     0.074 A 
ATOM     37  C   UNL     1      -2.727   4.587  -4.619  1.00  0.00     0.049 A 
ATOM     38  N   UNL     1      -4.912   6.570  -5.249  1.00  0.00    -0.248 NA
ATOM     39  C   UNL     1      -6.411   5.171  -4.132  1.00  0.00     0.031 C 
ATOM     40  C   UNL     1      -1.625   3.671  -4.332  1.00  0.00     0.029 A 
ATOM     41  N   UNL     1      -2.125   5.644  -5.261  1.00  0.00    -0.354 N 
ATOM     42  C   UNL     1      -6.178   7.148  -5.262  1.00  0.00     0.074 A 
ATOM     43  C   UNL     1      -7.069   6.221  -4.597  1.00  0.00     0.031 C 
ATOM     44  C   UNL     1      -0.483   4.202  -4.806  1.00  0.00     0.029 A 
ATOM     45  C   UNL     1      -0.776   5.471  -5.472  1.00  0.00     0.049 A 
ATOM     46  H   UNL     1      -2.614   6.451  -5.543  1.00  0.00     0.167 HD
ATOM     47  C   UNL     1      -6.562   8.342  -5.776  1.00  0.00     0.034 A 
ATOM     48  C   UNL     1       0.110   6.232  -6.151  1.00  0.00     0.034 A 
ATOM     49  C   UNL     1      -5.668   9.255  -6.445  1.00  0.00     0.049 A 
ATOM     50  C   UNL     1      -0.363   7.511  -6.809  1.00  0.00     0.074 A 
ATOM     51  C   UNL     1      -5.953  10.498  -6.983  1.00  0.00     0.029 A 
ATOM     52  N   UNL     1      -4.321   9.020  -6.685  1.00  0.00    -0.354 N 
ATOM     53  N   UNL     1      -1.561   8.051  -6.809  1.00  0.00    -0.248 NA
ATOM     54  C   UNL     1       0.640   8.285  -7.555  1.00  0.00     0.031 C 
ATOM     55  C   UNL     1      -4.805  10.974  -7.623  1.00  0.00     0.029 A 
ATOM     56  C   UNL     1      -3.774  10.075  -7.400  1.00  0.00     0.049 A 
ATOM     57  H   UNL     1      -3.826   8.221  -6.391  1.00  0.00     0.167 HD
ATOM     58  C   UNL     1      -1.441   9.246  -7.519  1.00  0.00     0.074 A 
ATOM     59  C   UNL     1      -0.056   9.352  -7.922  1.00  0.00     0.031 C 
ATOM     60  C   UNL     1      -2.390  10.175  -7.804  1.00  0.00     0.034 A 
BRANCH  47  61
ATOM     61  C   UNL     1      -8.028   8.697  -5.689  1.00  0.00     0.023 A 
ATOM     62  C   UNL     1      -8.678   8.882  -4.456  1.00  0.00     0.031 A 
ATOM     63  C   UNL     1      -8.791   8.832  -6.862  1.00  0.00     0.131 A 
ATOM     64  C   UNL     1     -10.060   9.123  -4.424  1.00  0.00     0.055 A 
ATOM     65  C   UNL     1     -10.149   9.155  -6.826  1.00  0.00     0.041 A 
ATOM     66  F   UNL     1      -8.232   8.640  -8.068  1.00  0.00    -0.206 F 
ATOM     67  C   UNL     1     -10.794   9.288  -5.601  1.00  0.00     0.022 A 
BRANCH  64  68
ATOM     68  S   UNL     1     -10.913   9.069  -2.824  1.00  0.00     0.124 S 
ATOM     69  O   UNL     1     -10.587   7.722  -2.361  1.00  0.00    -0.237 OA
ATOM     70  O   UNL     1     -10.286  10.165  -2.095  1.00  0.00    -0.237 OA
ATOM     71  O   UNL     1     -12.316   9.275  -3.177  1.00  0.00    -0.744 OA
ENDBRANCH  64  68
ENDBRANCH  47  61
BRANCH  48  72
ATOM     72  C   UNL     1       1.534   5.800  -6.298  1.00  0.00     0.023 A 
ATOM     73  C   UNL     1       2.586   6.586  -5.799  1.00  0.00     0.031 A 
ATOM     74  C   UNL     1       1.867   4.636  -7.013  1.00  0.00     0.131 A 
ATOM     75  C   UNL     1       3.917   6.227  -6.067  1.00  0.00     0.055 A 
ATOM     76  C   UNL     1       3.192   4.250  -7.223  1.00  0.00     0.041 A 
ATOM     77  F   UNL     1       0.903   3.852  -7.523  1.00  0.00    -0.206 F 
ATOM     78  C   UNL     1       4.228   5.056  -6.762  1.00  0.00     0.022 A 
BRANCH  75  79
ATOM     79  S   UNL     1       5.240   7.371  -5.583  1.00  0.00     0.124 S 
ATOM     80  O   UNL     1       4.868   8.579  -6.312  1.00  0.00    -0.237 OA
ATOM     81  O   UNL     1       5.082   7.420  -4.134  1.00  0.00    -0.237 OA
ATOM     82  O   UNL     1       6.454   6.706  -6.053  1.00  0.00    -0.744 OA
ENDBRANCH  75  79
ENDBRANCH  48  72
BRANCH  60  83
ATOM     83  C   UNL     1      -1.949  11.422  -8.537  1.00  0.00     0.023 A 
ATOM     84  C   UNL     1      -1.464  11.384  -9.857  1.00  0.00     0.031 A 
ATOM     85  C   UNL     1      -2.016  12.675  -7.899  1.00  0.00     0.131 A 
ATOM     86  C   UNL     1      -1.013  12.563 -10.472  1.00  0.00     0.055 A 
ATOM     87  C   UNL     1      -1.632  13.853  -8.540  1.00  0.00     0.041 A 
ATOM     88  F   UNL     1      -2.466  12.776  -6.637  1.00  0.00    -0.206 F 
ATOM     89  C   UNL     1      -1.113  13.800  -9.830  1.00  0.00     0.022 A 
BRANCH  86  90
ATOM     90  S   UNL     1      -0.199  12.448 -12.089  1.00  0.00     0.124 S 
ATOM     91  O   UNL     1       0.906  11.537 -11.809  1.00  0.00    -0.237 OA
ATOM     92  O   UNL     1      -1.262  11.920 -12.938  1.00  0.00    -0.237 OA
ATOM     93  O   UNL     1       0.193  13.827 -12.376  1.00  0.00    -0.744 OA
ENDBRANCH  86  90
ENDBRANCH  60  83
ENDBRANCH  34  35
ENDBRANCH  27  29
ENDBRANCH  26  27
ENDBRANCH  25  26
ENDBRANCH  24  25
ENDBRANCH  23  24
ENDBRANCH  22  23
ENDBRANCH   1  22
TORSDOF 23
