REMARK SMILES [NH3+][C@]1(C(=O)OCCOCCOCCOC(=O)c2ccc(-c3c4nc(c(-c5cc(S(=O)(=O)[O-])ccc5F)c5ccc([nH]5)c(-c5cc(S(=O)(=O)[O-])ccc5F)c5nc(c(-c6cc(S(=O)(=O)[O-])ccc6F)c6ccc3[nH]6)C=C5)C=C4)cc2)CCC[C@@H]1CCOc1ccc(CO)cc1
REMARK SMILES IDX 8 1 7 2 6 3 5 4 3 5 4 6 2 7 80 8 83 9 81 10 82 11 1 12 84 16
REMARK SMILES IDX 85 17 86 18 87 19 88 20 94 21 89 22 93 23 90 24 91 25 92 26
REMARK SMILES IDX 9 28 10 29 11 30 12 31 13 32 14 33 15 34 16 35 17 36 18 37
REMARK SMILES IDX 79 38 19 39 78 40 20 41 21 42 22 43 72 44 23 45 77 46 71 47
REMARK SMILES IDX 73 48 24 49 76 50 70 51 69 52 25 54 57 55 37 56 56 57 38 58
REMARK SMILES IDX 41 59 55 60 74 61 39 62 40 63 54 65 75 66 42 67 26 68 27 69
REMARK SMILES IDX 35 70 28 71 34 72 36 73 33 74 29 75 30 76 31 77 32 78 58 79
REMARK SMILES IDX 59 80 67 81 60 82 66 83 68 84 65 85 61 86 62 87 63 88 64 89
REMARK SMILES IDX 43 90 44 91 52 92 45 93 51 94 53 95 50 96 46 97 47 98 48 99
REMARK SMILES IDX 49 100
REMARK H PARENT 1 13 1 14 1 15 92 27 73 53 41 64
REMARK Flexibility Score: inf
ROOT
ATOM      1  O   UNL     1       2.241   0.253  -3.227  1.00  0.00    -0.376 OA
ENDROOT
BRANCH   1   2
ATOM      2  C   UNL     1       1.514   1.432  -2.896  1.00  0.00     0.202 C 
BRANCH   2   3
ATOM      3  C   UNL     1       1.697   1.970  -1.473  1.00  0.00     0.261 C 
BRANCH   3   4
ATOM      4  O   UNL     1       1.227   1.096  -0.425  1.00  0.00    -0.459 OA
BRANCH   4   5
ATOM      5  C   UNL     1      -0.086   1.061  -0.086  1.00  0.00     0.368 C 
ATOM      6  O   UNL     1      -0.965   1.667  -0.685  1.00  0.00    -0.245 OA
BRANCH   5   7
ATOM      7  C   UNL     1      -0.324   0.148   1.180  1.00  0.00     0.195 C 
ATOM      8  C   UNL     1      -0.247  -1.345   0.768  1.00  0.00     0.081 C 
ATOM      9  C   UNL     1       0.808   0.347   2.252  1.00  0.00     0.066 C 
ATOM     10  C   UNL     1       0.581  -2.030   1.837  1.00  0.00     0.008 C 
ATOM     11  C   UNL     1       1.584  -0.967   2.229  1.00  0.00     0.011 C 
BRANCH   7  12
ATOM     12  N   UNL     1      -1.668   0.430   1.735  1.00  0.00    -0.343 N 
ATOM     13  H   UNL     1      -1.828  -0.157   2.553  1.00  0.00     0.345 HD
ATOM     14  H   UNL     1      -2.376   0.229   1.029  1.00  0.00     0.345 HD
ATOM     15  H   UNL     1      -1.726   1.412   2.004  1.00  0.00     0.345 HD
ENDBRANCH   7  12
BRANCH   9  16
ATOM     16  C   UNL     1       0.427   0.831   3.682  1.00  0.00     0.052 C 
BRANCH  16  17
ATOM     17  C   UNL     1      -0.211  -0.156   4.678  1.00  0.00     0.230 C 
BRANCH  17  18
ATOM     18  O   UNL     1       0.731  -0.571   5.702  1.00  0.00    -0.494 OA
BRANCH  18  19
ATOM     19  C   UNL     1       1.275  -1.810   5.496  1.00  0.00     0.119 A 
ATOM     20  C   UNL     1       0.499  -2.952   5.321  1.00  0.00     0.047 A 
ATOM     21  C   UNL     1       2.663  -1.888   5.383  1.00  0.00     0.047 A 
ATOM     22  C   UNL     1       1.088  -4.118   4.822  1.00  0.00     0.010 A 
ATOM     23  C   UNL     1       3.249  -3.042   4.855  1.00  0.00     0.010 A 
ATOM     24  C   UNL     1       2.456  -4.149   4.516  1.00  0.00    -0.022 A 
BRANCH  24  25
ATOM     25  C   UNL     1       3.033  -5.294   3.717  1.00  0.00     0.191 C 
BRANCH  25  26
ATOM     26  O   UNL     1       4.181  -5.861   4.330  1.00  0.00    -0.392 OA
ATOM     27  H   UNL     1       4.878  -5.189   4.397  1.00  0.00     0.211 HD
ENDBRANCH  25  26
ENDBRANCH  24  25
ENDBRANCH  18  19
ENDBRANCH  17  18
ENDBRANCH  16  17
ENDBRANCH   9  16
ENDBRANCH   5   7
ENDBRANCH   4   5
ENDBRANCH   3   4
ENDBRANCH   2   3
ENDBRANCH   1   2
BRANCH   1  28
ATOM     28  C   UNL     1       1.930  -0.896  -2.446  1.00  0.00     0.188 C 
BRANCH  28  29
ATOM     29  C   UNL     1       2.958  -1.095  -1.325  1.00  0.00     0.188 C 
BRANCH  29  30
ATOM     30  O   UNL     1       4.223  -0.529  -1.648  1.00  0.00    -0.376 OA
BRANCH  30  31
ATOM     31  C   UNL     1       5.242  -1.474  -1.942  1.00  0.00     0.202 C 
BRANCH  31  32
ATOM     32  C   UNL     1       5.060  -2.207  -3.277  1.00  0.00     0.261 C 
BRANCH  32  33
ATOM     33  O   UNL     1       3.902  -3.056  -3.396  1.00  0.00    -0.460 OA
BRANCH  33  34
ATOM     34  C   UNL     1       3.718  -4.051  -2.492  1.00  0.00     0.338 C 
ATOM     35  O   UNL     1       4.444  -4.340  -1.570  1.00  0.00    -0.246 OA
BRANCH  34  36
ATOM     36  C   UNL     1       2.356  -4.606  -2.715  1.00  0.00     0.060 A 
ATOM     37  C   UNL     1       1.472  -4.730  -1.634  1.00  0.00     0.016 A 
ATOM     38  C   UNL     1       1.952  -4.991  -3.995  1.00  0.00     0.016 A 
ATOM     39  C   UNL     1       0.190  -5.265  -1.831  1.00  0.00     0.010 A 
ATOM     40  C   UNL     1       0.679  -5.534  -4.187  1.00  0.00     0.010 A 
ATOM     41  C   UNL     1      -0.204  -5.699  -3.105  1.00  0.00    -0.014 A 
BRANCH  41  42
ATOM     42  C   UNL     1      -1.448  -6.490  -3.316  1.00  0.00     0.031 A 
ATOM     43  C   UNL     1      -1.329  -7.988  -3.410  1.00  0.00     0.074 A 
ATOM     44  C   UNL     1      -2.645  -5.906  -3.504  1.00  0.00     0.049 A 
ATOM     45  N   UNL     1      -2.214  -8.874  -3.785  1.00  0.00    -0.248 NA
ATOM     46  C   UNL     1      -0.022  -8.552  -3.045  1.00  0.00     0.031 C 
ATOM     47  C   UNL     1      -2.912  -4.473  -3.402  1.00  0.00     0.029 A 
ATOM     48  N   UNL     1      -3.858  -6.451  -3.858  1.00  0.00    -0.354 N 
ATOM     49  C   UNL     1      -1.564 -10.103  -3.728  1.00  0.00     0.074 A 
ATOM     50  C   UNL     1      -0.206  -9.838  -3.300  1.00  0.00     0.031 C 
ATOM     51  C   UNL     1      -4.199  -4.248  -3.722  1.00  0.00     0.029 A 
ATOM     52  C   UNL     1      -4.834  -5.512  -4.103  1.00  0.00     0.049 A 
ATOM     53  H   UNL     1      -4.013  -7.421  -3.929  1.00  0.00     0.167 HD
ATOM     54  C   UNL     1      -2.051 -11.337  -4.011  1.00  0.00     0.034 A 
ATOM     55  C   UNL     1      -6.073  -5.645  -4.623  1.00  0.00     0.034 A 
ATOM     56  C   UNL     1      -3.402 -11.588  -4.451  1.00  0.00     0.049 A 
ATOM     57  C   UNL     1      -6.575  -7.017  -5.017  1.00  0.00     0.074 A 
ATOM     58  C   UNL     1      -4.004 -12.803  -4.730  1.00  0.00     0.029 A 
ATOM     59  N   UNL     1      -4.354 -10.608  -4.701  1.00  0.00    -0.354 N 
ATOM     60  N   UNL     1      -5.959  -8.175  -4.948  1.00  0.00    -0.248 NA
ATOM     61  C   UNL     1      -7.939  -7.100  -5.562  1.00  0.00     0.031 C 
ATOM     62  C   UNL     1      -5.287 -12.553  -5.226  1.00  0.00     0.029 A 
ATOM     63  C   UNL     1      -5.522 -11.189  -5.172  1.00  0.00     0.049 A 
ATOM     64  H   UNL     1      -4.219  -9.643  -4.564  1.00  0.00     0.167 HD
ATOM     65  C   UNL     1      -6.872  -9.123  -5.409  1.00  0.00     0.074 A 
ATOM     66  C   UNL     1      -8.079  -8.405  -5.755  1.00  0.00     0.031 C 
ATOM     67  C   UNL     1      -6.725 -10.468  -5.521  1.00  0.00     0.034 A 
BRANCH  54  68
ATOM     68  C   UNL     1      -1.087 -12.495  -3.921  1.00  0.00     0.023 A 
ATOM     69  C   UNL     1      -0.478 -12.863  -2.709  1.00  0.00     0.031 A 
ATOM     70  C   UNL     1      -0.734 -13.210  -5.079  1.00  0.00     0.131 A 
ATOM     71  C   UNL     1       0.516 -13.853  -2.699  1.00  0.00     0.055 A 
ATOM     72  C   UNL     1       0.191 -14.255  -5.046  1.00  0.00     0.041 A 
ATOM     73  F   UNL     1      -1.265 -12.890  -6.270  1.00  0.00    -0.206 F 
ATOM     74  C   UNL     1       0.837 -14.569  -3.855  1.00  0.00     0.022 A 
BRANCH  71  75
ATOM     75  S   UNL     1       1.506 -14.066  -1.194  1.00  0.00     0.124 S 
ATOM     76  O   UNL     1       2.024 -12.716  -0.987  1.00  0.00    -0.237 OA
ATOM     77  O   UNL     1       0.514 -14.525  -0.229  1.00  0.00    -0.237 OA
ATOM     78  O   UNL     1       2.508 -15.057  -1.581  1.00  0.00    -0.744 OA
ENDBRANCH  71  75
ENDBRANCH  54  68
BRANCH  55  79
ATOM     79  C   UNL     1      -6.911  -4.436  -4.880  1.00  0.00     0.023 A 
ATOM     80  C   UNL     1      -8.116  -4.219  -4.193  1.00  0.00     0.031 A 
ATOM     81  C   UNL     1      -6.529  -3.496  -5.854  1.00  0.00     0.131 A 
ATOM     82  C   UNL     1      -8.912  -3.106  -4.512  1.00  0.00     0.055 A 
ATOM     83  C   UNL     1      -7.298  -2.365  -6.133  1.00  0.00     0.041 A 
ATOM     84  F   UNL     1      -5.389  -3.659  -6.544  1.00  0.00    -0.206 F 
ATOM     85  C   UNL     1      -8.503  -2.170  -5.466  1.00  0.00     0.022 A 
BRANCH  82  86
ATOM     86  S   UNL     1     -10.527  -2.927  -3.705  1.00  0.00     0.124 S 
ATOM     87  O   UNL     1     -11.214  -4.135  -4.148  1.00  0.00    -0.237 OA
ATOM     88  O   UNL     1     -10.158  -2.878  -2.295  1.00  0.00    -0.237 OA
ATOM     89  O   UNL     1     -11.045  -1.675  -4.254  1.00  0.00    -0.744 OA
ENDBRANCH  82  86
ENDBRANCH  55  79
BRANCH  67  90
ATOM     90  C   UNL     1      -7.920 -11.274  -5.976  1.00  0.00     0.023 A 
ATOM     91  C   UNL     1      -8.407 -11.218  -7.293  1.00  0.00     0.031 A 
ATOM     92  C   UNL     1      -8.552 -12.151  -5.074  1.00  0.00     0.131 A 
ATOM     93  C   UNL     1      -9.511 -12.005  -7.663  1.00  0.00     0.055 A 
ATOM     94  C   UNL     1      -9.616 -12.967  -5.461  1.00  0.00     0.041 A 
ATOM     95  F   UNL     1      -8.130 -12.244  -3.803  1.00  0.00    -0.206 F 
ATOM     96  C   UNL     1     -10.105 -12.893  -6.761  1.00  0.00     0.022 A 
BRANCH  93  97
ATOM     97  S   UNL     1     -10.200 -11.825  -9.333  1.00  0.00     0.124 S 
ATOM     98  O   UNL     1     -10.603 -10.422  -9.344  1.00  0.00    -0.237 OA
ATOM     99  O   UNL     1      -9.064 -12.169 -10.181  1.00  0.00    -0.237 OA
ATOM    100  O   UNL     1     -11.302 -12.786  -9.356  1.00  0.00    -0.744 OA
ENDBRANCH  93  97
ENDBRANCH  67  90
ENDBRANCH  41  42
ENDBRANCH  34  36
ENDBRANCH  33  34
ENDBRANCH  32  33
ENDBRANCH  31  32
ENDBRANCH  30  31
ENDBRANCH  29  30
ENDBRANCH  28  29
ENDBRANCH   1  28
TORSDOF 27
