REMARK SMILES Cc1c(CC(=O)OCCOCCOCCOC(=O)c2ccc(-c3c4nc(c(-c5cc(S(=O)(=O)[O-])ccc5F)c5ccc([nH]5)c(-c5cc(S(=O)(=O)[O-])ccc5F)c5nc(c(-c6cc(S(=O)(=O)[O-])ccc6F)c6ccc3[nH]6)C=C5)C=C4)cc2)cc(-c2ccc(S(C)(=O)=O)cc2)n1-c1cccc(F)c1
REMARK SMILES IDX 11 1 10 2 9 3 8 4 7 5 5 6 6 7 4 8 3 9 1 10 2 11 94 12 82 13
REMARK SMILES IDX 83 14 95 15 96 16 101 17 97 18 99 19 98 20 100 21 84 22
REMARK SMILES IDX 85 23 93 24 86 25 92 26 87 27 88 28 89 29 90 30 91 31 12 32
REMARK SMILES IDX 13 33 14 34 15 35 16 36 17 37 18 38 19 39 20 40 81 41 21 42
REMARK SMILES IDX 80 43 22 44 23 45 24 46 74 47 25 48 79 49 73 50 75 51 26 52
REMARK SMILES IDX 78 53 72 54 71 55 27 57 59 58 39 59 58 60 40 61 43 62 57 63
REMARK SMILES IDX 76 64 41 65 42 66 56 68 77 69 44 70 28 71 29 72 37 73 30 74
REMARK SMILES IDX 36 75 38 76 35 77 31 78 32 79 33 80 34 81 60 82 61 83 69 84
REMARK SMILES IDX 62 85 68 86 70 87 67 88 63 89 64 90 65 91 66 92 45 93 46 94
REMARK SMILES IDX 54 95 47 96 53 97 55 98 52 99 48 100 49 101 50 102 51 103
REMARK H PARENT 75 56 43 67
REMARK Flexibility Score: inf
ROOT
ATOM      1  C   UNL     1       2.292  -2.449   0.466  1.00  0.00     0.188 C 
ENDROOT
BRANCH   1   2
ATOM      2  O   UNL     1       3.240  -3.471   0.207  1.00  0.00    -0.376 OA
BRANCH   2   3
ATOM      3  C   UNL     1       3.878  -3.531  -1.060  1.00  0.00     0.202 C 
BRANCH   3   4
ATOM      4  C   UNL     1       3.047  -3.520  -2.357  1.00  0.00     0.261 C 
BRANCH   4   5
ATOM      5  O   UNL     1       1.986  -2.537  -2.430  1.00  0.00    -0.463 OA
BRANCH   5   6
ATOM      6  C   UNL     1       0.719  -3.023  -2.392  1.00  0.00     0.310 C 
ATOM      7  O   UNL     1       0.465  -4.229  -2.378  1.00  0.00    -0.252 OA
BRANCH   6   8
ATOM      8  C   UNL     1      -0.419  -2.011  -2.315  1.00  0.00     0.160 C 
BRANCH   8   9
ATOM      9  C   UNL     1      -0.180  -0.518  -2.345  1.00  0.00    -0.015 A 
ATOM     10  C   UNL     1      -0.386   0.247   0.181  1.00  0.00     0.065 C 
ATOM     11  C   UNL     1      -0.142   0.404  -1.289  1.00  0.00     0.024 A 
ATOM     12  N   UNL     1       0.178   1.649  -1.817  1.00  0.00    -0.313 N 
ATOM     13  C   UNL     1      -0.186   0.279  -3.530  1.00  0.00     0.033 A 
ATOM     14  C   UNL     1      -0.052   1.612  -3.183  1.00  0.00     0.053 A 
BRANCH  12  15
ATOM     15  C   UNL     1       0.695   2.763  -1.106  1.00  0.00     0.049 A 
ATOM     16  C   UNL     1      -0.037   3.954  -1.031  1.00  0.00     0.027 A 
ATOM     17  C   UNL     1       2.017   2.710  -0.649  1.00  0.00     0.065 A 
ATOM     18  C   UNL     1       0.557   5.096  -0.486  1.00  0.00     0.005 A 
ATOM     19  C   UNL     1       2.597   3.862  -0.131  1.00  0.00     0.125 A 
ATOM     20  C   UNL     1       1.881   5.052  -0.044  1.00  0.00     0.039 A 
ATOM     21  F   UNL     1       3.884   3.839   0.245  1.00  0.00    -0.207 F 
ENDBRANCH  12  15
BRANCH  14  22
ATOM     22  C   UNL     1      -0.084   2.795  -4.038  1.00  0.00    -0.001 A 
ATOM     23  C   UNL     1       1.075   3.542  -4.285  1.00  0.00     0.011 A 
ATOM     24  C   UNL     1      -1.307   3.216  -4.574  1.00  0.00     0.011 A 
ATOM     25  C   UNL     1       1.014   4.702  -5.059  1.00  0.00     0.021 A 
ATOM     26  C   UNL     1      -1.376   4.374  -5.349  1.00  0.00     0.021 A 
ATOM     27  C   UNL     1      -0.212   5.110  -5.588  1.00  0.00     0.067 A 
BRANCH  27  28
ATOM     28  S   UNL     1      -0.281   6.533  -6.647  1.00  0.00     0.175 S 
ATOM     29  C   UNL     1       0.184   7.894  -5.613  1.00  0.00     0.163 C 
ATOM     30  O   UNL     1       0.773   6.352  -7.651  1.00  0.00    -0.224 OA
ATOM     31  O   UNL     1      -1.648   6.731  -7.050  1.00  0.00    -0.224 OA
ENDBRANCH  27  28
ENDBRANCH  14  22
ENDBRANCH   8   9
ENDBRANCH   6   8
ENDBRANCH   5   6
ENDBRANCH   4   5
ENDBRANCH   3   4
ENDBRANCH   2   3
ENDBRANCH   1   2
BRANCH   1  32
ATOM     32  C   UNL     1       2.557  -1.020   0.002  1.00  0.00     0.188 C 
BRANCH  32  33
ATOM     33  O   UNL     1       3.766  -0.744  -0.636  1.00  0.00    -0.376 OA
BRANCH  33  34
ATOM     34  C   UNL     1       4.855  -0.398   0.192  1.00  0.00     0.202 C 
BRANCH  34  35
ATOM     35  C   UNL     1       4.763   0.021   1.725  1.00  0.00     0.261 C 
BRANCH  35  36
ATOM     36  O   UNL     1       4.326  -0.809   2.911  1.00  0.00    -0.460 OA
BRANCH  36  37
ATOM     37  C   UNL     1       3.422  -0.251   3.850  1.00  0.00     0.338 C 
ATOM     38  O   UNL     1       2.580   0.552   3.454  1.00  0.00    -0.246 OA
BRANCH  37  39
ATOM     39  C   UNL     1       3.481  -0.681   5.446  1.00  0.00     0.060 A 
ATOM     40  C   UNL     1       2.460  -1.357   6.123  1.00  0.00     0.016 A 
ATOM     41  C   UNL     1       4.348  -0.141   6.434  1.00  0.00     0.016 A 
ATOM     42  C   UNL     1       2.457  -1.639   7.647  1.00  0.00     0.010 A 
ATOM     43  C   UNL     1       4.300  -0.378   8.008  1.00  0.00     0.010 A 
ATOM     44  C   UNL     1       3.402  -1.224   8.722  1.00  0.00    -0.014 A 
BRANCH  44  45
ATOM     45  C   UNL     1       2.978  -1.393  10.503  1.00  0.00     0.031 A 
ATOM     46  C   UNL     1       1.520  -1.105  10.302  1.00  0.00     0.074 A 
ATOM     47  C   UNL     1       3.355  -1.487  11.983  1.00  0.00     0.049 A 
ATOM     48  N   UNL     1       1.257   0.041   9.734  1.00  0.00    -0.248 NA
ATOM     49  C   UNL     1       0.415  -2.060  10.198  1.00  0.00     0.031 C 
ATOM     50  C   UNL     1       4.699  -1.380  12.660  1.00  0.00     0.029 A 
ATOM     51  N   UNL     1       2.584  -1.659  13.356  1.00  0.00    -0.354 N 
ATOM     52  C   UNL     1      -0.095   0.128   9.549  1.00  0.00     0.074 A 
ATOM     53  C   UNL     1      -0.528  -1.268   9.653  1.00  0.00     0.031 C 
ATOM     54  C   UNL     1       4.740  -1.618  14.032  1.00  0.00     0.029 A 
ATOM     55  C   UNL     1       3.432  -1.885  14.684  1.00  0.00     0.049 A 
ATOM     56  H   UNL     1       1.600  -1.628  13.388  1.00  0.00     0.167 HD
ATOM     57  C   UNL     1      -0.603   1.235  10.171  1.00  0.00     0.034 A 
ATOM     58  C   UNL     1       3.109  -2.079  16.141  1.00  0.00     0.034 A 
ATOM     59  C   UNL     1      -0.883   0.949  11.555  1.00  0.00     0.049 A 
ATOM     60  C   UNL     1       1.924  -1.277  16.407  1.00  0.00     0.074 A 
ATOM     61  C   UNL     1      -1.448  -0.162  12.155  1.00  0.00     0.029 A 
ATOM     62  N   UNL     1      -0.106   1.568  12.512  1.00  0.00    -0.354 N 
ATOM     63  N   UNL     1       1.930   0.012  16.469  1.00  0.00    -0.248 NA
ATOM     64  C   UNL     1       0.639  -1.938  16.421  1.00  0.00     0.031 C 
ATOM     65  C   UNL     1      -0.528  -0.476  13.166  1.00  0.00     0.029 A 
ATOM     66  C   UNL     1       0.069   0.711  13.570  1.00  0.00     0.049 A 
ATOM     67  H   UNL     1       0.264   2.478  12.447  1.00  0.00     0.167 HD
ATOM     68  C   UNL     1       0.790   0.265  15.773  1.00  0.00     0.074 A 
ATOM     69  C   UNL     1      -0.068  -0.909  15.964  1.00  0.00     0.031 C 
ATOM     70  C   UNL     1       0.893   1.077  14.690  1.00  0.00     0.034 A 
BRANCH  57  71
ATOM     71  C   UNL     1       0.074   2.504   9.699  1.00  0.00     0.023 A 
ATOM     72  C   UNL     1      -0.650   3.357   8.867  1.00  0.00     0.031 A 
ATOM     73  C   UNL     1       1.441   2.812   9.928  1.00  0.00     0.131 A 
ATOM     74  C   UNL     1      -0.003   4.436   8.245  1.00  0.00     0.055 A 
ATOM     75  C   UNL     1       2.089   3.857   9.273  1.00  0.00     0.041 A 
ATOM     76  F   UNL     1       2.182   2.102  10.795  1.00  0.00    -0.206 F 
ATOM     77  C   UNL     1       1.364   4.679   8.422  1.00  0.00     0.022 A 
BRANCH  74  78
ATOM     78  S   UNL     1      -0.987   5.509   7.174  1.00  0.00     0.124 S 
ATOM     79  O   UNL     1      -1.326   4.613   6.072  1.00  0.00    -0.237 OA
ATOM     80  O   UNL     1      -2.098   5.884   8.046  1.00  0.00    -0.237 OA
ATOM     81  O   UNL     1      -0.072   6.597   6.835  1.00  0.00    -0.744 OA
ENDBRANCH  74  78
ENDBRANCH  57  71
BRANCH  58  82
ATOM     82  C   UNL     1       3.463  -2.667  17.743  1.00  0.00     0.023 A 
ATOM     83  C   UNL     1       2.932  -2.203  19.101  1.00  0.00     0.031 A 
ATOM     84  C   UNL     1       3.861  -4.011  17.812  1.00  0.00     0.131 A 
ATOM     85  C   UNL     1       2.876  -3.062  20.311  1.00  0.00     0.055 A 
ATOM     86  C   UNL     1       3.765  -4.831  18.987  1.00  0.00     0.041 A 
ATOM     87  F   UNL     1       4.255  -4.634  16.696  1.00  0.00    -0.206 F 
ATOM     88  C   UNL     1       3.278  -4.383  20.214  1.00  0.00     0.022 A 
BRANCH  85  89
ATOM     89  S   UNL     1       2.227  -2.627  22.079  1.00  0.00     0.124 S 
ATOM     90  O   UNL     1       3.136  -1.584  22.535  1.00  0.00    -0.237 OA
ATOM     91  O   UNL     1       0.840  -2.237  21.852  1.00  0.00    -0.237 OA
ATOM     92  O   UNL     1       2.362  -3.887  22.824  1.00  0.00    -0.744 OA
ENDBRANCH  85  89
ENDBRANCH  58  82
BRANCH  70  93
ATOM     93  C   UNL     1       1.913   2.209  14.725  1.00  0.00     0.023 A 
ATOM     94  C   UNL     1       3.300   2.105  15.022  1.00  0.00     0.031 A 
ATOM     95  C   UNL     1       1.414   3.504  14.519  1.00  0.00     0.131 A 
ATOM     96  C   UNL     1       4.109   3.264  15.113  1.00  0.00     0.055 A 
ATOM     97  C   UNL     1       2.216   4.642  14.578  1.00  0.00     0.041 A 
ATOM     98  F   UNL     1       0.109   3.687  14.262  1.00  0.00    -0.206 F 
ATOM     99  C   UNL     1       3.565   4.529  14.885  1.00  0.00     0.022 A 
BRANCH  96 100
ATOM    100  S   UNL     1       5.869   3.161  15.602  1.00  0.00     0.124 S 
ATOM    101  O   UNL     1       5.842   2.304  16.781  1.00  0.00    -0.237 OA
ATOM    102  O   UNL     1       6.494   2.586  14.414  1.00  0.00    -0.237 OA
ATOM    103  O   UNL     1       6.232   4.554  15.870  1.00  0.00    -0.744 OA
ENDBRANCH  96 100
ENDBRANCH  70  93
ENDBRANCH  44  45
ENDBRANCH  37  39
ENDBRANCH  36  37
ENDBRANCH  35  36
ENDBRANCH  34  35
ENDBRANCH  33  34
ENDBRANCH  32  33
ENDBRANCH   1  32
TORSDOF 24
