REMARK SMILES C[C@H]1C[N@H+]2CCC[C@@H]2CN1c1cc(Cl)ccc1C(=O)OCCOCCOCCOC(=O)c1ccc(-c2c3nc(c(-c4cc(S(=O)(=O)[O-])ccc4F)c4ccc([nH]4)c(-c4cc(S(=O)(=O)[O-])ccc4F)c4nc(c(-c5cc(S(=O)(=O)[O-])ccc5F)c5ccc2[nH]5)C=C4)C=C3)cc1
REMARK SMILES IDX 25 1 24 2 23 3 22 4 21 5 20 6 18 7 19 8 17 9 11 10 12 11
REMARK SMILES IDX 13 12 16 13 14 14 15 15 10 16 1 17 2 18 3 19 4 20 9 21 5 22
REMARK SMILES IDX 8 23 6 25 7 26 26 27 27 28 28 29 29 30 30 31 31 32 32 33
REMARK SMILES IDX 33 34 94 35 34 36 93 37 35 38 36 39 37 40 87 41 38 42 92 43
REMARK SMILES IDX 86 44 88 45 39 46 91 47 85 48 84 49 40 51 72 52 52 53 71 54
REMARK SMILES IDX 53 55 56 56 70 57 89 58 54 59 55 60 69 62 90 63 57 64 41 65
REMARK SMILES IDX 42 66 50 67 43 68 49 69 51 70 48 71 44 72 45 73 46 74 47 75
REMARK SMILES IDX 73 76 74 77 82 78 75 79 81 80 83 81 80 82 76 83 77 84 78 85
REMARK SMILES IDX 79 86 58 87 59 88 67 89 60 90 66 91 68 92 65 93 61 94 62 95
REMARK SMILES IDX 63 96 64 97
REMARK H PARENT 4 24 88 50 56 61
REMARK Flexibility Score: inf
ROOT
ATOM      1  C   UNL     1       4.071  -1.804   1.670  1.00  0.00     0.188 C 
ENDROOT
BRANCH   1   2
ATOM      2  C   UNL     1       4.664  -2.671   2.799  1.00  0.00     0.188 C 
BRANCH   2   3
ATOM      3  O   UNL     1       5.399  -3.839   2.442  1.00  0.00    -0.376 OA
BRANCH   3   4
ATOM      4  C   UNL     1       4.785  -4.771   1.556  1.00  0.00     0.202 C 
BRANCH   4   5
ATOM      5  C   UNL     1       3.412  -5.289   1.982  1.00  0.00     0.261 C 
BRANCH   5   6
ATOM      6  O   UNL     1       2.447  -4.225   1.952  1.00  0.00    -0.460 OA
BRANCH   6   7
ATOM      7  C   UNL     1       1.454  -4.313   2.863  1.00  0.00     0.340 C 
ATOM      8  O   UNL     1       1.228  -5.282   3.573  1.00  0.00    -0.246 OA
BRANCH   7   9
ATOM      9  C   UNL     1       0.723  -3.026   3.013  1.00  0.00     0.083 A 
ATOM     10  C   UNL     1       0.145  -2.259   1.965  1.00  0.00     0.053 A 
ATOM     11  C   UNL     1      -0.639  -1.161   2.377  1.00  0.00     0.047 A 
ATOM     12  C   UNL     1      -0.722  -0.749   3.711  1.00  0.00     0.043 A 
ATOM     13  C   UNL     1       0.636  -2.602   4.359  1.00  0.00     0.019 A 
ATOM     14  Cl  UNL     1      -1.643   0.647   4.115  1.00  0.00    -0.084 Cl
ATOM     15  C   UNL     1      -0.058  -1.448   4.704  1.00  0.00     0.021 A 
BRANCH  10  16
ATOM     16  N   UNL     1       0.327  -2.500   0.606  1.00  0.00    -0.356 N 
ATOM     17  C   UNL     1       0.962  -0.104  -0.067  1.00  0.00     0.037 C 
ATOM     18  C   UNL     1       0.311  -1.438  -0.469  1.00  0.00     0.134 C 
ATOM     19  C   UNL     1       1.091  -1.902  -1.764  1.00  0.00     0.287 C 
ATOM     20  N   UNL     1       0.835  -3.290  -2.170  1.00  0.00    -0.329 N 
ATOM     21  C   UNL     1       0.061  -3.865   0.090  1.00  0.00     0.182 C 
ATOM     22  C   UNL     1       1.722  -3.788  -3.220  1.00  0.00     0.262 C 
ATOM     23  C   UNL     1       1.090  -4.157  -1.005  1.00  0.00     0.203 C 
ATOM     24  H   UNL     1      -0.123  -3.307  -2.520  1.00  0.00     0.348 HD
ATOM     25  C   UNL     1       1.841  -5.290  -2.935  1.00  0.00     0.068 C 
ATOM     26  C   UNL     1       1.050  -5.524  -1.648  1.00  0.00     0.073 C 
ENDBRANCH  10  16
ENDBRANCH   7   9
ENDBRANCH   6   7
ENDBRANCH   5   6
ENDBRANCH   4   5
ENDBRANCH   3   4
ENDBRANCH   2   3
ENDBRANCH   1   2
BRANCH   1  27
ATOM     27  O   UNL     1       4.549  -2.123   0.367  1.00  0.00    -0.376 OA
BRANCH  27  28
ATOM     28  C   UNL     1       5.355  -1.121  -0.238  1.00  0.00     0.202 C 
BRANCH  28  29
ATOM     29  C   UNL     1       6.788  -1.092   0.304  1.00  0.00     0.261 C 
BRANCH  29  30
ATOM     30  O   UNL     1       6.897  -0.753   1.696  1.00  0.00    -0.460 OA
BRANCH  30  31
ATOM     31  C   UNL     1       6.472   0.479   2.059  1.00  0.00     0.338 C 
ATOM     32  O   UNL     1       6.042   1.347   1.320  1.00  0.00    -0.246 OA
BRANCH  31  33
ATOM     33  C   UNL     1       6.426   0.532   3.536  1.00  0.00     0.060 A 
ATOM     34  C   UNL     1       5.250   0.972   4.157  1.00  0.00     0.016 A 
ATOM     35  C   UNL     1       7.526   0.137   4.303  1.00  0.00     0.016 A 
ATOM     36  C   UNL     1       5.188   1.055   5.550  1.00  0.00     0.010 A 
ATOM     37  C   UNL     1       7.466   0.234   5.697  1.00  0.00     0.010 A 
ATOM     38  C   UNL     1       6.308   0.724   6.325  1.00  0.00    -0.014 A 
BRANCH  38  39
ATOM     39  C   UNL     1       6.338   1.081   7.766  1.00  0.00     0.031 A 
ATOM     40  C   UNL     1       6.950   2.399   8.159  1.00  0.00     0.074 A 
ATOM     41  C   UNL     1       5.829   0.264   8.706  1.00  0.00     0.049 A 
ATOM     42  N   UNL     1       7.088   2.933   9.344  1.00  0.00    -0.248 NA
ATOM     43  C   UNL     1       7.485   3.221   7.061  1.00  0.00     0.031 C 
ATOM     44  C   UNL     1       5.204  -1.033   8.453  1.00  0.00     0.029 A 
ATOM     45  N   UNL     1       5.768   0.406  10.071  1.00  0.00    -0.354 N 
ATOM     46  C   UNL     1       7.721   4.154   9.137  1.00  0.00     0.074 A 
ATOM     47  C   UNL     1       7.974   4.261   7.716  1.00  0.00     0.031 C 
ATOM     48  C   UNL     1       4.836  -1.575   9.628  1.00  0.00     0.029 A 
ATOM     49  C   UNL     1       5.217  -0.676  10.717  1.00  0.00     0.049 A 
ATOM     50  H   UNL     1       6.089   1.208  10.543  1.00  0.00     0.167 HD
ATOM     51  C   UNL     1       8.052   5.105  10.045  1.00  0.00     0.034 A 
ATOM     52  C   UNL     1       5.057  -0.917  12.035  1.00  0.00     0.034 A 
ATOM     53  C   UNL     1       7.814   4.982  11.461  1.00  0.00     0.049 A 
ATOM     54  C   UNL     1       5.489   0.132  13.035  1.00  0.00     0.074 A 
ATOM     55  C   UNL     1       8.078   5.900  12.462  1.00  0.00     0.029 A 
ATOM     56  N   UNL     1       7.274   3.863  12.082  1.00  0.00    -0.354 N 
ATOM     57  N   UNL     1       6.035   1.307  12.820  1.00  0.00    -0.248 NA
ATOM     58  C   UNL     1       5.268  -0.175  14.456  1.00  0.00     0.031 C 
ATOM     59  C   UNL     1       7.764   5.311  13.692  1.00  0.00     0.029 A 
ATOM     60  C   UNL     1       7.233   4.053  13.454  1.00  0.00     0.049 A 
ATOM     61  H   UNL     1       6.965   3.053  11.615  1.00  0.00     0.167 HD
ATOM     62  C   UNL     1       6.194   1.889  14.077  1.00  0.00     0.074 A 
ATOM     63  C   UNL     1       5.671   0.943  15.041  1.00  0.00     0.031 C 
ATOM     64  C   UNL     1       6.720   3.097  14.407  1.00  0.00     0.034 A 
BRANCH  51  65
ATOM     65  C   UNL     1       8.755   6.334   9.528  1.00  0.00     0.023 A 
ATOM     66  C   UNL     1       8.119   7.242   8.664  1.00  0.00     0.031 A 
ATOM     67  C   UNL     1      10.093   6.584   9.880  1.00  0.00     0.131 A 
ATOM     68  C   UNL     1       8.840   8.320   8.128  1.00  0.00     0.055 A 
ATOM     69  C   UNL     1      10.783   7.699   9.401  1.00  0.00     0.041 A 
ATOM     70  F   UNL     1      10.758   5.737  10.682  1.00  0.00    -0.206 F 
ATOM     71  C   UNL     1      10.161   8.568   8.509  1.00  0.00     0.022 A 
BRANCH  68  72
ATOM     72  S   UNL     1       8.069   9.320   6.826  1.00  0.00     0.124 S 
ATOM     73  O   UNL     1       7.812   8.316   5.796  1.00  0.00    -0.237 OA
ATOM     74  O   UNL     1       6.894   9.861   7.497  1.00  0.00    -0.237 OA
ATOM     75  O   UNL     1       9.101  10.298   6.488  1.00  0.00    -0.744 OA
ENDBRANCH  68  72
ENDBRANCH  51  65
BRANCH  52  76
ATOM     76  C   UNL     1       4.502  -2.219  12.508  1.00  0.00     0.023 A 
ATOM     77  C   UNL     1       3.290  -2.284  13.215  1.00  0.00     0.031 A 
ATOM     78  C   UNL     1       5.224  -3.413  12.328  1.00  0.00     0.131 A 
ATOM     79  C   UNL     1       2.864  -3.505  13.762  1.00  0.00     0.055 A 
ATOM     80  C   UNL     1       4.770  -4.634  12.830  1.00  0.00     0.041 A 
ATOM     81  F   UNL     1       6.390  -3.407  11.663  1.00  0.00    -0.206 F 
ATOM     82  C   UNL     1       3.590  -4.682  13.565  1.00  0.00     0.022 A 
BRANCH  79  83
ATOM     83  S   UNL     1       1.390  -3.516  14.822  1.00  0.00     0.124 S 
ATOM     84  O   UNL     1       1.763  -2.562  15.860  1.00  0.00    -0.237 OA
ATOM     85  O   UNL     1       0.350  -3.083  13.895  1.00  0.00    -0.237 OA
ATOM     86  O   UNL     1       1.294  -4.908  15.257  1.00  0.00    -0.744 OA
ENDBRANCH  79  83
ENDBRANCH  52  76
BRANCH  64  87
ATOM     87  C   UNL     1       6.714   3.475  15.869  1.00  0.00     0.023 A 
ATOM     88  C   UNL     1       7.498   2.792  16.815  1.00  0.00     0.031 A 
ATOM     89  C   UNL     1       5.899   4.528  16.323  1.00  0.00     0.131 A 
ATOM     90  C   UNL     1       7.408   3.132  18.174  1.00  0.00     0.055 A 
ATOM     91  C   UNL     1       5.858   4.900  17.667  1.00  0.00     0.041 A 
ATOM     92  F   UNL     1       5.128   5.215  15.463  1.00  0.00    -0.206 F 
ATOM     93  C   UNL     1       6.604   4.192  18.604  1.00  0.00     0.022 A 
BRANCH  90  94
ATOM     94  S   UNL     1       8.284   2.109  19.390  1.00  0.00     0.124 S 
ATOM     95  O   UNL     1       7.733   0.784  19.126  1.00  0.00    -0.237 OA
ATOM     96  O   UNL     1       9.680   2.305  19.014  1.00  0.00    -0.237 OA
ATOM     97  O   UNL     1       7.900   2.696  20.673  1.00  0.00    -0.744 OA
ENDBRANCH  90  94
ENDBRANCH  64  87
ENDBRANCH  38  39
ENDBRANCH  31  33
ENDBRANCH  30  31
ENDBRANCH  29  30
ENDBRANCH  28  29
ENDBRANCH  27  28
ENDBRANCH   1  27
TORSDOF 21
