REMARK SMILES O=C(OCCOCCOCCOC(=O)c1cccc(/C=N/NC(=S)Nc2ccccc2)c1O)c1ccc(-c2c3nc(c(-c4cc(S(=O)(=O)[O-])ccc4F)c4ccc([nH]4)c(-c4cc(S(=O)(=O)[O-])ccc4F)c4nc(c(-c5cc(S(=O)(=O)[O-])ccc5F)c5ccc2[nH]5)C=C4)C=C3)cc1
REMARK SMILES IDX 8 1 7 2 6 3 5 4 4 5 3 6 2 7 1 8 34 9 35 10 96 11 36 12 95 13
REMARK SMILES IDX 37 14 38 15 39 16 89 17 40 18 94 19 88 20 90 21 41 22 93 23
REMARK SMILES IDX 87 24 86 25 42 27 74 28 54 29 73 30 55 31 58 32 72 33 91 34
REMARK SMILES IDX 56 35 57 36 71 38 92 39 59 40 43 41 44 42 52 43 45 44 51 45
REMARK SMILES IDX 53 46 50 47 46 48 47 49 48 50 49 51 75 52 76 53 84 54 77 55
REMARK SMILES IDX 83 56 85 57 82 58 78 59 79 60 80 61 81 62 60 63 61 64 69 65
REMARK SMILES IDX 62 66 68 67 70 68 67 69 63 70 64 71 65 72 66 73 9 74 10 75
REMARK SMILES IDX 11 76 12 77 13 78 14 79 15 80 16 81 32 82 17 83 19 84 18 85
REMARK SMILES IDX 33 86 20 88 21 89 22 90 23 92 24 93 25 94 26 96 27 97 31 98
REMARK SMILES IDX 28 99 30 100 29 101
REMARK H PARENT 90 26 58 37 33 87 22 91 25 95
REMARK Flexibility Score: inf
ROOT
ATOM      1  C   UNL     1       2.030   2.175   2.123  1.00  0.00     0.188 C 
ENDROOT
BRANCH   1   2
ATOM      2  C   UNL     1       2.552   2.146   0.686  1.00  0.00     0.188 C 
BRANCH   2   3
ATOM      3  O   UNL     1       3.742   1.350   0.622  1.00  0.00    -0.376 OA
BRANCH   3   4
ATOM      4  C   UNL     1       4.542   1.612  -0.531  1.00  0.00     0.202 C 
BRANCH   4   5
ATOM      5  C   UNL     1       4.295   0.626  -1.677  1.00  0.00     0.261 C 
BRANCH   5   6
ATOM      6  O   UNL     1       2.906   0.257  -1.755  1.00  0.00    -0.460 OA
BRANCH   6   7
ATOM      7  C   UNL     1       2.318  -0.834  -1.200  1.00  0.00     0.338 C 
ATOM      8  O   UNL     1       1.093  -0.943  -1.244  1.00  0.00    -0.246 OA
BRANCH   7   9
ATOM      9  C   UNL     1       3.103  -1.966  -0.628  1.00  0.00     0.060 A 
ATOM     10  C   UNL     1       4.231  -1.817   0.181  1.00  0.00     0.016 A 
ATOM     11  C   UNL     1       2.629  -3.264  -0.877  1.00  0.00     0.016 A 
ATOM     12  C   UNL     1       4.958  -2.931   0.603  1.00  0.00     0.010 A 
ATOM     13  C   UNL     1       3.313  -4.385  -0.389  1.00  0.00     0.010 A 
ATOM     14  C   UNL     1       4.513  -4.226   0.316  1.00  0.00    -0.014 A 
BRANCH  14  15
ATOM     15  C   UNL     1       5.351  -5.392   0.695  1.00  0.00     0.031 A 
ATOM     16  C   UNL     1       6.019  -6.213  -0.374  1.00  0.00     0.074 A 
ATOM     17  C   UNL     1       5.585  -5.676   1.989  1.00  0.00     0.049 A 
ATOM     18  N   UNL     1       6.750  -7.292  -0.257  1.00  0.00    -0.248 NA
ATOM     19  C   UNL     1       5.845  -5.747  -1.758  1.00  0.00     0.031 C 
ATOM     20  C   UNL     1       5.051  -4.933   3.131  1.00  0.00     0.029 A 
ATOM     21  N   UNL     1       6.342  -6.664   2.562  1.00  0.00    -0.354 N 
ATOM     22  C   UNL     1       7.138  -7.628  -1.548  1.00  0.00     0.074 A 
ATOM     23  C   UNL     1       6.512  -6.668  -2.436  1.00  0.00     0.031 C 
ATOM     24  C   UNL     1       5.493  -5.497   4.266  1.00  0.00     0.029 A 
ATOM     25  C   UNL     1       6.291  -6.666   3.934  1.00  0.00     0.049 A 
ATOM     26  H   UNL     1       6.872  -7.310   2.040  1.00  0.00     0.167 HD
ATOM     27  C   UNL     1       7.958  -8.627  -1.961  1.00  0.00     0.034 A 
ATOM     28  C   UNL     1       6.792  -7.539   4.822  1.00  0.00     0.034 A 
ATOM     29  C   UNL     1       8.559  -9.601  -1.083  1.00  0.00     0.049 A 
ATOM     30  C   UNL     1       7.587  -8.714   4.337  1.00  0.00     0.074 A 
ATOM     31  C   UNL     1       9.374 -10.674  -1.402  1.00  0.00     0.029 A 
ATOM     32  N   UNL     1       8.401  -9.624   0.296  1.00  0.00    -0.354 N 
ATOM     33  N   UNL     1       7.879  -9.063   3.108  1.00  0.00    -0.248 NA
ATOM     34  C   UNL     1       8.118  -9.610   5.372  1.00  0.00     0.031 C 
ATOM     35  C   UNL     1       9.671 -11.370  -0.222  1.00  0.00     0.029 A 
ATOM     36  C   UNL     1       9.085 -10.702   0.839  1.00  0.00     0.049 A 
ATOM     37  H   UNL     1       7.879  -8.969   0.814  1.00  0.00     0.167 HD
ATOM     38  C   UNL     1       8.618 -10.233   3.224  1.00  0.00     0.074 A 
ATOM     39  C   UNL     1       8.748 -10.513   4.640  1.00  0.00     0.031 C 
ATOM     40  C   UNL     1       9.148 -11.006   2.245  1.00  0.00     0.034 A 
BRANCH  27  41
ATOM     41  C   UNL     1       8.202  -8.721  -3.444  1.00  0.00     0.023 A 
ATOM     42  C   UNL     1       8.908  -7.717  -4.131  1.00  0.00     0.031 A 
ATOM     43  C   UNL     1       7.649  -9.773  -4.192  1.00  0.00     0.131 A 
ATOM     44  C   UNL     1       8.971  -7.742  -5.531  1.00  0.00     0.055 A 
ATOM     45  C   UNL     1       7.779  -9.832  -5.581  1.00  0.00     0.041 A 
ATOM     46  F   UNL     1       6.945 -10.743  -3.588  1.00  0.00    -0.206 F 
ATOM     47  C   UNL     1       8.428  -8.803  -6.260  1.00  0.00     0.022 A 
BRANCH  44  48
ATOM     48  S   UNL     1       9.637  -6.292  -6.394  1.00  0.00     0.124 S 
ATOM     49  O   UNL     1       8.714  -5.244  -5.966  1.00  0.00    -0.237 OA
ATOM     50  O   UNL     1      10.993  -6.204  -5.863  1.00  0.00    -0.237 OA
ATOM     51  O   UNL     1       9.542  -6.659  -7.805  1.00  0.00    -0.744 OA
ENDBRANCH  44  48
ENDBRANCH  27  41
BRANCH  28  52
ATOM     52  C   UNL     1       6.456  -7.453   6.262  1.00  0.00     0.023 A 
ATOM     53  C   UNL     1       7.375  -6.967   7.200  1.00  0.00     0.031 A 
ATOM     54  C   UNL     1       5.263  -8.039   6.715  1.00  0.00     0.131 A 
ATOM     55  C   UNL     1       7.118  -7.149   8.565  1.00  0.00     0.055 A 
ATOM     56  C   UNL     1       5.011  -8.212   8.072  1.00  0.00     0.041 A 
ATOM     57  F   UNL     1       4.355  -8.493   5.837  1.00  0.00    -0.206 F 
ATOM     58  C   UNL     1       5.954  -7.786   9.004  1.00  0.00     0.022 A 
BRANCH  55  59
ATOM     59  S   UNL     1       8.319  -6.543   9.776  1.00  0.00     0.124 S 
ATOM     60  O   UNL     1       9.348  -7.574   9.721  1.00  0.00    -0.237 OA
ATOM     61  O   UNL     1       8.681  -5.240   9.224  1.00  0.00    -0.237 OA
ATOM     62  O   UNL     1       7.544  -6.481  11.012  1.00  0.00    -0.744 OA
ENDBRANCH  55  59
ENDBRANCH  28  52
BRANCH  40  63
ATOM     63  C   UNL     1       9.908 -12.216   2.710  1.00  0.00     0.023 A 
ATOM     64  C   UNL     1       9.243 -13.315   3.281  1.00  0.00     0.031 A 
ATOM     65  C   UNL     1      11.312 -12.223   2.681  1.00  0.00     0.131 A 
ATOM     66  C   UNL     1       9.988 -14.350   3.864  1.00  0.00     0.055 A 
ATOM     67  C   UNL     1      12.046 -13.280   3.218  1.00  0.00     0.041 A 
ATOM     68  F   UNL     1      11.989 -11.187   2.161  1.00  0.00    -0.206 F 
ATOM     69  C   UNL     1      11.385 -14.344   3.826  1.00  0.00     0.022 A 
BRANCH  66  70
ATOM     70  S   UNL     1       9.107 -15.655   4.764  1.00  0.00     0.124 S 
ATOM     71  O   UNL     1       8.461 -14.901   5.833  1.00  0.00    -0.237 OA
ATOM     72  O   UNL     1       8.220 -16.198   3.740  1.00  0.00    -0.237 OA
ATOM     73  O   UNL     1      10.176 -16.553   5.196  1.00  0.00    -0.744 OA
ENDBRANCH  66  70
ENDBRANCH  40  63
ENDBRANCH  14  15
ENDBRANCH   7   9
ENDBRANCH   6   7
ENDBRANCH   5   6
ENDBRANCH   4   5
ENDBRANCH   3   4
ENDBRANCH   2   3
ENDBRANCH   1   2
BRANCH   1  74
ATOM     74  O   UNL     1       2.811   2.991   3.000  1.00  0.00    -0.376 OA
BRANCH  74  75
ATOM     75  C   UNL     1       4.085   2.476   3.391  1.00  0.00     0.202 C 
BRANCH  75  76
ATOM     76  C   UNL     1       4.055   1.498   4.571  1.00  0.00     0.261 C 
BRANCH  76  77
ATOM     77  O   UNL     1       3.680   0.149   4.216  1.00  0.00    -0.460 OA
BRANCH  77  78
ATOM     78  C   UNL     1       2.407  -0.183   4.514  1.00  0.00     0.342 C 
ATOM     79  O   UNL     1       1.527   0.584   4.926  1.00  0.00    -0.246 OA
BRANCH  78  80
ATOM     80  C   UNL     1       2.142  -1.615   4.317  1.00  0.00     0.102 A 
ATOM     81  C   UNL     1       0.951  -1.965   3.663  1.00  0.00     0.019 A 
ATOM     82  C   UNL     1       2.850  -2.570   5.052  1.00  0.00     0.138 A 
ATOM     83  C   UNL     1       0.436  -3.253   3.791  1.00  0.00     0.002 A 
ATOM     84  C   UNL     1       2.238  -3.798   5.315  1.00  0.00     0.037 A 
ATOM     85  C   UNL     1       1.050  -4.152   4.663  1.00  0.00     0.014 A 
BRANCH  82  86
ATOM     86  O   UNL     1       4.090  -2.327   5.565  1.00  0.00    -0.506 OA
ATOM     87  H   UNL     1       4.513  -1.508   5.398  1.00  0.00     0.293 HD
ENDBRANCH  82  86
BRANCH  84  88
ATOM     88  C   UNL     1       2.673  -4.579   6.497  1.00  0.00     0.145 C 
ATOM     89  N   UNL     1       1.759  -5.054   7.281  1.00  0.00    -0.181 NA
BRANCH  89  90
ATOM     90  N   UNL     1       2.070  -5.584   8.494  1.00  0.00    -0.254 N 
ATOM     91  H   UNL     1       1.430  -6.273   8.787  1.00  0.00     0.193 HD
BRANCH  90  92
ATOM     92  C   UNL     1       3.068  -5.374   9.392  1.00  0.00     0.191 C 
ATOM     93  S   UNL     1       3.061  -6.346  10.763  1.00  0.00    -0.039 S 
BRANCH  92  94
ATOM     94  N   UNL     1       4.052  -4.460   9.245  1.00  0.00    -0.331 N 
ATOM     95  H   UNL     1       4.963  -4.792   9.416  1.00  0.00     0.169 HD
BRANCH  94  96
ATOM     96  C   UNL     1       3.967  -3.099   8.883  1.00  0.00     0.040 A 
ATOM     97  C   UNL     1       5.164  -2.409   8.657  1.00  0.00     0.026 A 
ATOM     98  C   UNL     1       2.755  -2.412   8.789  1.00  0.00     0.026 A 
ATOM     99  C   UNL     1       5.142  -1.058   8.292  1.00  0.00     0.002 A 
ATOM    100  C   UNL     1       2.733  -1.062   8.426  1.00  0.00     0.002 A 
ATOM    101  C   UNL     1       3.926  -0.386   8.173  1.00  0.00     0.000 A 
ENDBRANCH  94  96
ENDBRANCH  92  94
ENDBRANCH  90  92
ENDBRANCH  89  90
ENDBRANCH  84  88
ENDBRANCH  78  80
ENDBRANCH  77  78
ENDBRANCH  76  77
ENDBRANCH  75  76
ENDBRANCH  74  75
ENDBRANCH   1  74
TORSDOF 26
