REMARK SMILES O=C(C[C@@H]([NH2+]Cc1ccccc1)C(=O)OCCOCCOCCOC(=O)c1ccc(-c2c3nc(c(-c4cc(S(=O)(=O)[O-])ccc4F)c4ccc([nH]4)c(-c4cc(S(=O)(=O)[O-])ccc4F)c4nc(c(-c5cc(S(=O)(=O)[O-])ccc5F)c5ccc2[nH]5)C=C4)C=C3)cc1)Nc1cccc(Cl)c1Cl
REMARK SMILES IDX 19 1 18 2 17 3 16 4 15 5 13 6 14 7 4 8 3 9 2 10 1 11 90 12
REMARK SMILES IDX 91 14 92 15 97 16 93 17 95 18 98 19 94 20 96 21 5 22 6 25
REMARK SMILES IDX 7 26 8 27 12 28 9 29 11 30 10 31 20 32 21 33 22 34 23 35
REMARK SMILES IDX 24 36 25 37 26 38 27 39 28 40 89 41 29 42 88 43 30 44 31 45
REMARK SMILES IDX 32 46 82 47 33 48 87 49 81 50 83 51 34 52 86 53 80 54 79 55
REMARK SMILES IDX 35 57 67 58 47 59 66 60 48 61 51 62 65 63 84 64 49 65 50 66
REMARK SMILES IDX 64 68 85 69 52 70 36 71 37 72 45 73 38 74 44 75 46 76 43 77
REMARK SMILES IDX 39 78 40 79 41 80 42 81 68 82 69 83 77 84 70 85 76 86 78 87
REMARK SMILES IDX 75 88 71 89 72 90 73 91 74 92 53 93 54 94 62 95 55 96 61 97
REMARK SMILES IDX 63 98 60 99 56 100 57 101 58 102 59 103
REMARK H PARENT 90 13 5 23 5 24 83 56 51 67
REMARK Flexibility Score: inf
ROOT
ATOM      1  C   UNL     1       3.901  -2.616  -4.400  1.00  0.00     0.188 C 
ENDROOT
BRANCH   1   2
ATOM      2  O   UNL     1       5.016  -3.326  -4.918  1.00  0.00    -0.376 OA
BRANCH   2   3
ATOM      3  C   UNL     1       6.056  -3.783  -4.065  1.00  0.00     0.202 C 
BRANCH   3   4
ATOM      4  C   UNL     1       6.747  -2.847  -3.053  1.00  0.00     0.261 C 
BRANCH   4   5
ATOM      5  O   UNL     1       5.902  -2.130  -2.125  1.00  0.00    -0.459 OA
BRANCH   5   6
ATOM      6  C   UNL     1       5.719  -0.820  -2.432  1.00  0.00     0.365 C 
ATOM      7  O   UNL     1       6.222  -0.315  -3.432  1.00  0.00    -0.245 OA
BRANCH   6   8
ATOM      8  C   UNL     1       4.718  -0.059  -1.517  1.00  0.00     0.303 C 
BRANCH   8   9
ATOM      9  C   UNL     1       4.207  -0.823  -0.278  1.00  0.00     0.177 C 
BRANCH   9  10
ATOM     10  C   UNL     1       2.986  -0.110   0.295  1.00  0.00     0.231 C 
ATOM     11  O   UNL     1       1.855  -0.341  -0.115  1.00  0.00    -0.274 OA
ATOM     12  N   UNL     1       3.354   0.901   1.167  1.00  0.00    -0.325 N 
ATOM     13  H   UNL     1       4.323   1.036   1.279  1.00  0.00     0.169 HD
BRANCH  12  14
ATOM     14  C   UNL     1       2.524   1.764   1.919  1.00  0.00     0.061 A 
ATOM     15  C   UNL     1       3.032   3.070   2.063  1.00  0.00     0.028 A 
ATOM     16  C   UNL     1       1.331   1.417   2.587  1.00  0.00     0.083 A 
ATOM     17  C   UNL     1       2.369   4.030   2.826  1.00  0.00     0.004 A 
ATOM     18  C   UNL     1       0.676   2.394   3.368  1.00  0.00     0.061 A 
ATOM     19  Cl  UNL     1       0.769  -0.223   2.650  1.00  0.00    -0.080 Cl
ATOM     20  C   UNL     1       1.193   3.690   3.481  1.00  0.00     0.022 A 
ATOM     21  Cl  UNL     1      -0.752   2.056   4.293  1.00  0.00    -0.083 Cl
ENDBRANCH  12  14
ENDBRANCH   9  10
ENDBRANCH   8   9
BRANCH   8  22
ATOM     22  N   UNL     1       5.226   1.275  -1.057  1.00  0.00    -0.330 N 
ATOM     23  H   UNL     1       5.869   1.109  -0.283  1.00  0.00     0.347 HD
ATOM     24  H   UNL     1       4.391   1.808  -0.816  1.00  0.00     0.347 HD
BRANCH  22  25
ATOM     25  C   UNL     1       5.932   2.101  -2.051  1.00  0.00     0.298 C 
BRANCH  25  26
ATOM     26  C   UNL     1       5.027   2.841  -3.010  1.00  0.00     0.006 A 
ATOM     27  C   UNL     1       5.065   4.242  -3.035  1.00  0.00     0.009 A 
ATOM     28  C   UNL     1       4.166   2.189  -3.907  1.00  0.00     0.009 A 
ATOM     29  C   UNL     1       4.237   4.967  -3.893  1.00  0.00     0.001 A 
ATOM     30  C   UNL     1       3.312   2.913  -4.741  1.00  0.00     0.001 A 
ATOM     31  C   UNL     1       3.346   4.303  -4.732  1.00  0.00     0.000 A 
ENDBRANCH  25  26
ENDBRANCH  22  25
ENDBRANCH   8  22
ENDBRANCH   6   8
ENDBRANCH   5   6
ENDBRANCH   4   5
ENDBRANCH   3   4
ENDBRANCH   2   3
ENDBRANCH   1   2
BRANCH   1  32
ATOM     32  C   UNL     1       3.286  -3.025  -3.055  1.00  0.00     0.188 C 
BRANCH  32  33
ATOM     33  O   UNL     1       3.962  -4.064  -2.389  1.00  0.00    -0.376 OA
BRANCH  33  34
ATOM     34  C   UNL     1       3.352  -5.344  -2.330  1.00  0.00     0.202 C 
BRANCH  34  35
ATOM     35  C   UNL     1       2.607  -5.948  -3.539  1.00  0.00     0.261 C 
BRANCH  35  36
ATOM     36  O   UNL     1       1.808  -5.064  -4.340  1.00  0.00    -0.460 OA
BRANCH  36  37
ATOM     37  C   UNL     1       0.602  -4.689  -3.848  1.00  0.00     0.338 C 
ATOM     38  O   UNL     1       0.105  -5.046  -2.793  1.00  0.00    -0.246 OA
BRANCH  37  39
ATOM     39  C   UNL     1       0.110  -3.583  -4.707  1.00  0.00     0.060 A 
ATOM     40  C   UNL     1      -0.012  -2.292  -4.171  1.00  0.00     0.016 A 
ATOM     41  C   UNL     1      -0.162  -3.809  -6.058  1.00  0.00     0.016 A 
ATOM     42  C   UNL     1      -0.391  -1.222  -4.988  1.00  0.00     0.010 A 
ATOM     43  C   UNL     1      -0.574  -2.744  -6.865  1.00  0.00     0.010 A 
ATOM     44  C   UNL     1      -0.698  -1.446  -6.336  1.00  0.00    -0.014 A 
BRANCH  44  45
ATOM     45  C   UNL     1      -1.288  -0.370  -7.174  1.00  0.00     0.031 A 
ATOM     46  C   UNL     1      -2.780  -0.346  -7.362  1.00  0.00     0.074 A 
ATOM     47  C   UNL     1      -0.516   0.547  -7.785  1.00  0.00     0.049 A 
ATOM     48  N   UNL     1      -3.506   0.386  -8.165  1.00  0.00    -0.248 NA
ATOM     49  C   UNL     1      -3.551  -1.285  -6.534  1.00  0.00     0.031 C 
ATOM     50  C   UNL     1       0.932   0.668  -7.635  1.00  0.00     0.029 A 
ATOM     51  N   UNL     1      -0.846   1.540  -8.677  1.00  0.00    -0.354 N 
ATOM     52  C   UNL     1      -4.821  -0.012  -7.952  1.00  0.00     0.074 A 
ATOM     53  C   UNL     1      -4.785  -1.068  -6.961  1.00  0.00     0.031 C 
ATOM     54  C   UNL     1       1.370   1.663  -8.428  1.00  0.00     0.029 A 
ATOM     55  C   UNL     1       0.244   2.210  -9.184  1.00  0.00     0.049 A 
ATOM     56  H   UNL     1      -1.774   1.751  -8.930  1.00  0.00     0.167 HD
ATOM     57  C   UNL     1      -5.952   0.460  -8.531  1.00  0.00     0.034 A 
ATOM     58  C   UNL     1       0.328   3.121 -10.178  1.00  0.00     0.034 A 
ATOM     59  C   UNL     1      -5.968   1.502  -9.527  1.00  0.00     0.049 A 
ATOM     60  C   UNL     1      -0.934   3.542 -10.900  1.00  0.00     0.074 A 
ATOM     61  C   UNL     1      -7.061   2.074 -10.157  1.00  0.00     0.029 A 
ATOM     62  N   UNL     1      -4.841   2.115 -10.059  1.00  0.00    -0.354 N 
ATOM     63  N   UNL     1      -2.175   3.169 -10.685  1.00  0.00    -0.248 NA
ATOM     64  C   UNL     1      -0.781   4.501 -12.005  1.00  0.00     0.031 C 
ATOM     65  C   UNL     1      -6.591   2.963 -11.128  1.00  0.00     0.029 A 
ATOM     66  C   UNL     1      -5.209   3.017 -11.046  1.00  0.00     0.049 A 
ATOM     67  H   UNL     1      -3.915   1.935  -9.776  1.00  0.00     0.167 HD
ATOM     68  C   UNL     1      -2.949   3.866 -11.612  1.00  0.00     0.074 A 
ATOM     69  C   UNL     1      -2.039   4.694 -12.375  1.00  0.00     0.031 C 
ATOM     70  C   UNL     1      -4.291   3.826 -11.813  1.00  0.00     0.034 A 
BRANCH  57  71
ATOM     71  C   UNL     1      -7.257  -0.194  -8.145  1.00  0.00     0.023 A 
ATOM     72  C   UNL     1      -7.763  -0.130  -6.836  1.00  0.00     0.031 A 
ATOM     73  C   UNL     1      -7.998  -0.909  -9.103  1.00  0.00     0.131 A 
ATOM     74  C   UNL     1      -8.937  -0.824  -6.505  1.00  0.00     0.055 A 
ATOM     75  C   UNL     1      -9.208  -1.529  -8.787  1.00  0.00     0.041 A 
ATOM     76  F   UNL     1      -7.552  -1.026 -10.364  1.00  0.00    -0.206 F 
ATOM     77  C   UNL     1      -9.677  -1.500  -7.478  1.00  0.00     0.022 A 
BRANCH  74  78
ATOM     78  S   UNL     1      -9.406  -0.950  -4.758  1.00  0.00     0.124 S 
ATOM     79  O   UNL     1      -8.219  -1.573  -4.178  1.00  0.00    -0.237 OA
ATOM     80  O   UNL     1      -9.641   0.442  -4.394  1.00  0.00    -0.237 OA
ATOM     81  O   UNL     1     -10.596  -1.799  -4.783  1.00  0.00    -0.744 OA
ENDBRANCH  74  78
ENDBRANCH  57  71
BRANCH  58  82
ATOM     82  C   UNL     1       1.655   3.651 -10.611  1.00  0.00     0.023 A 
ATOM     83  C   UNL     1       1.953   5.020 -10.526  1.00  0.00     0.031 A 
ATOM     84  C   UNL     1       2.621   2.803 -11.182  1.00  0.00     0.131 A 
ATOM     85  C   UNL     1       3.166   5.507 -11.041  1.00  0.00     0.055 A 
ATOM     86  C   UNL     1       3.851   3.282 -11.637  1.00  0.00     0.041 A 
ATOM     87  F   UNL     1       2.384   1.487 -11.304  1.00  0.00    -0.206 F 
ATOM     88  C   UNL     1       4.124   4.645 -11.580  1.00  0.00     0.022 A 
BRANCH  85  89
ATOM     89  S   UNL     1       3.434   7.301 -11.083  1.00  0.00     0.124 S 
ATOM     90  O   UNL     1       2.310   7.748 -11.898  1.00  0.00    -0.237 OA
ATOM     91  O   UNL     1       3.379   7.650  -9.668  1.00  0.00    -0.237 OA
ATOM     92  O   UNL     1       4.749   7.434 -11.706  1.00  0.00    -0.744 OA
ENDBRANCH  85  89
ENDBRANCH  58  82
BRANCH  70  93
ATOM     93  C   UNL     1      -4.863   4.727 -12.883  1.00  0.00     0.023 A 
ATOM     94  C   UNL     1      -4.591   4.522 -14.247  1.00  0.00     0.031 A 
ATOM     95  C   UNL     1      -5.710   5.795 -12.533  1.00  0.00     0.131 A 
ATOM     96  C   UNL     1      -5.127   5.396 -15.207  1.00  0.00     0.055 A 
ATOM     97  C   UNL     1      -6.290   6.622 -13.495  1.00  0.00     0.041 A 
ATOM     98  F   UNL     1      -6.002   6.042 -11.245  1.00  0.00    -0.206 F 
ATOM     99  C   UNL     1      -5.992   6.431 -14.841  1.00  0.00     0.022 A 
BRANCH  96 100
ATOM    100  S   UNL     1      -4.622   5.207 -16.939  1.00  0.00     0.124 S 
ATOM    101  O   UNL     1      -3.179   5.409 -16.857  1.00  0.00    -0.237 OA
ATOM    102  O   UNL     1      -5.060   3.850 -17.248  1.00  0.00    -0.237 OA
ATOM    103  O   UNL     1      -5.358   6.266 -17.628  1.00  0.00    -0.744 OA
ENDBRANCH  96 100
ENDBRANCH  70  93
ENDBRANCH  44  45
ENDBRANCH  37  39
ENDBRANCH  36  37
ENDBRANCH  35  36
ENDBRANCH  34  35
ENDBRANCH  33  34
ENDBRANCH  32  33
ENDBRANCH   1  32
TORSDOF 26
