REMARK SMILES CC(C)[C@H](NC(=O)c1cc2cc(Cl)ccc2n1C)C(=O)N[C@@H](C(=O)OCCOCCOCCOC(=O)c1ccc(-c2c3nc(c(-c4cc(S(=O)(=O)[O-])ccc4F)c4ccc([nH]4)c(-c4cc(S(=O)(=O)[O-])ccc4F)c4nc(c(-c5cc(S(=O)(=O)[O-])ccc5F)c5ccc2[nH]5)C=C4)C=C3)cc1)c1ccccc1
REMARK SMILES IDX 29 1 28 2 27 3 26 4 25 5 23 6 24 7 22 8 21 9 19 10 20 11
REMARK SMILES IDX 4 13 2 14 1 15 3 16 5 17 6 18 7 20 8 21 9 22 17 23 10 24
REMARK SMILES IDX 16 25 18 26 11 27 15 28 12 29 14 30 13 31 100 32 101 33
REMARK SMILES IDX 105 34 102 35 104 36 103 37 30 38 31 39 32 40 33 41 34 42
REMARK SMILES IDX 35 43 36 44 37 45 38 46 99 47 39 48 98 49 40 50 41 51 42 52
REMARK SMILES IDX 92 53 43 54 97 55 91 56 93 57 44 58 96 59 90 60 89 61 45 63
REMARK SMILES IDX 77 64 57 65 76 66 58 67 61 68 75 69 94 70 59 71 60 72 74 74
REMARK SMILES IDX 95 75 62 76 46 77 47 78 55 79 48 80 54 81 56 82 53 83 49 84
REMARK SMILES IDX 50 85 51 86 52 87 78 88 79 89 87 90 80 91 86 92 88 93 85 94
REMARK SMILES IDX 81 95 82 96 83 97 84 98 63 99 64 100 72 101 65 102 71 103
REMARK SMILES IDX 73 104 70 105 66 106 67 107 68 108 69 109
REMARK H PARENT 21 12 5 19 93 62 61 73
REMARK Flexibility Score: inf
ROOT
ATOM      1  C   UNL     1       1.704  -5.005   4.595  1.00  0.00     0.188 C 
ENDROOT
BRANCH   1   2
ATOM      2  O   UNL     1       3.029  -4.625   4.870  1.00  0.00    -0.376 OA
BRANCH   2   3
ATOM      3  C   UNL     1       3.397  -3.308   4.507  1.00  0.00     0.202 C 
BRANCH   3   4
ATOM      4  C   UNL     1       2.900  -2.756   3.153  1.00  0.00     0.261 C 
BRANCH   4   5
ATOM      5  O   UNL     1       1.458  -2.457   3.037  1.00  0.00    -0.461 OA
BRANCH   5   6
ATOM      6  C   UNL     1       0.886  -2.690   1.813  1.00  0.00     0.333 C 
ATOM      7  O   UNL     1       1.573  -3.170   0.911  1.00  0.00    -0.249 OA
BRANCH   6   8
ATOM      8  C   UNL     1      -0.662  -2.284   1.558  1.00  0.00     0.223 C 
BRANCH   8   9
ATOM      9  N   UNL     1      -1.544  -1.323   2.247  1.00  0.00    -0.337 N 
ATOM     10  C   UNL     1      -1.825  -0.015   2.125  1.00  0.00     0.243 C 
ATOM     11  O   UNL     1      -2.859   0.417   2.634  1.00  0.00    -0.273 OA
ATOM     12  H   UNL     1      -2.052  -1.744   2.977  1.00  0.00     0.164 HD
BRANCH  10  13
ATOM     13  C   UNL     1      -0.905   0.840   1.328  1.00  0.00     0.174 C 
BRANCH  13  14
ATOM     14  C   UNL     1      -1.254   0.688  -0.215  1.00  0.00     0.015 C 
ATOM     15  C   UNL     1      -0.328  -0.139  -1.128  1.00  0.00     0.010 C 
ATOM     16  C   UNL     1      -2.728   0.267  -0.482  1.00  0.00     0.010 C 
ENDBRANCH  13  14
BRANCH  13  17
ATOM     17  N   UNL     1       0.422   0.466   1.838  1.00  0.00    -0.339 N 
ATOM     18  C   UNL     1       0.907   0.453   3.152  1.00  0.00     0.268 C 
ATOM     19  H   UNL     1       1.068   0.181   1.151  1.00  0.00     0.164 HD
ATOM     20  O   UNL     1       2.142   0.397   3.214  1.00  0.00    -0.268 OA
BRANCH  18  21
ATOM     21  C   UNL     1       0.115   0.602   4.401  1.00  0.00     0.107 A 
ATOM     22  C   UNL     1       0.516   1.477   5.420  1.00  0.00     0.042 A 
ATOM     23  N   UNL     1      -0.889  -0.146   5.029  1.00  0.00    -0.340 N 
ATOM     24  C   UNL     1      -0.329   1.350   6.557  1.00  0.00     0.002 A 
ATOM     25  C   UNL     1      -1.296   0.425   6.223  1.00  0.00     0.048 A 
ATOM     26  C   UNL     1      -1.329  -1.506   4.847  1.00  0.00     0.150 C 
ATOM     27  C   UNL     1      -0.364   1.894   7.853  1.00  0.00     0.030 A 
ATOM     28  C   UNL     1      -2.348   0.046   7.079  1.00  0.00     0.028 A 
ATOM     29  C   UNL     1      -1.378   1.488   8.737  1.00  0.00     0.041 A 
ATOM     30  C   UNL     1      -2.366   0.588   8.356  1.00  0.00     0.023 A 
ATOM     31  Cl  UNL     1      -1.391   2.101  10.347  1.00  0.00    -0.084 Cl
ENDBRANCH  18  21
ENDBRANCH  13  17
ENDBRANCH  10  13
ENDBRANCH   8   9
BRANCH   8  32
ATOM     32  C   UNL     1      -1.728  -3.387   1.454  1.00  0.00    -0.014 A 
ATOM     33  C   UNL     1      -2.182  -4.099   2.559  1.00  0.00     0.006 A 
ATOM     34  C   UNL     1      -2.624  -3.281   0.378  1.00  0.00     0.006 A 
ATOM     35  C   UNL     1      -3.486  -4.612   2.583  1.00  0.00     0.000 A 
ATOM     36  C   UNL     1      -3.856  -3.936   0.354  1.00  0.00     0.000 A 
ATOM     37  C   UNL     1      -4.291  -4.611   1.462  1.00  0.00     0.000 A 
ENDBRANCH   8  32
ENDBRANCH   6   8
ENDBRANCH   5   6
ENDBRANCH   4   5
ENDBRANCH   3   4
ENDBRANCH   2   3
ENDBRANCH   1   2
BRANCH   1  38
ATOM     38  C   UNL     1       0.572  -4.137   5.133  1.00  0.00     0.188 C 
BRANCH  38  39
ATOM     39  O   UNL     1       0.841  -3.117   6.069  1.00  0.00    -0.376 OA
BRANCH  39  40
ATOM     40  C   UNL     1       1.286  -3.501   7.359  1.00  0.00     0.202 C 
BRANCH  40  41
ATOM     41  C   UNL     1       0.592  -4.688   8.060  1.00  0.00     0.261 C 
BRANCH  41  42
ATOM     42  O   UNL     1       0.501  -5.886   7.241  1.00  0.00    -0.460 OA
BRANCH  42  43
ATOM     43  C   UNL     1      -0.734  -6.457   7.125  1.00  0.00     0.338 C 
ATOM     44  O   UNL     1      -1.682  -6.224   7.877  1.00  0.00    -0.246 OA
BRANCH  43  45
ATOM     45  C   UNL     1      -0.909  -7.096   5.770  1.00  0.00     0.060 A 
ATOM     46  C   UNL     1       0.096  -7.700   4.998  1.00  0.00     0.016 A 
ATOM     47  C   UNL     1      -2.114  -6.867   5.135  1.00  0.00     0.016 A 
ATOM     48  C   UNL     1       0.011  -7.756   3.561  1.00  0.00     0.010 A 
ATOM     49  C   UNL     1      -2.205  -7.042   3.746  1.00  0.00     0.010 A 
ATOM     50  C   UNL     1      -1.113  -7.283   2.883  1.00  0.00    -0.014 A 
BRANCH  50  51
ATOM     51  C   UNL     1      -1.413  -7.250   1.378  1.00  0.00     0.031 A 
ATOM     52  C   UNL     1      -2.277  -8.385   1.042  1.00  0.00     0.074 A 
ATOM     53  C   UNL     1      -1.103  -6.454   0.292  1.00  0.00     0.049 A 
ATOM     54  N   UNL     1      -1.766  -9.530   0.721  1.00  0.00    -0.248 NA
ATOM     55  C   UNL     1      -3.725  -8.405   1.269  1.00  0.00     0.031 C 
ATOM     56  C   UNL     1      -0.072  -5.434   0.213  1.00  0.00     0.029 A 
ATOM     57  N   UNL     1      -1.687  -6.311  -0.996  1.00  0.00    -0.354 N 
ATOM     58  C   UNL     1      -2.857 -10.256   0.320  1.00  0.00     0.074 A 
ATOM     59  C   UNL     1      -3.975  -9.698   1.039  1.00  0.00     0.031 C 
ATOM     60  C   UNL     1      -0.263  -4.633  -0.874  1.00  0.00     0.029 A 
ATOM     61  C   UNL     1      -1.432  -5.066  -1.658  1.00  0.00     0.049 A 
ATOM     62  H   UNL     1      -2.230  -7.022  -1.407  1.00  0.00     0.167 HD
ATOM     63  C   UNL     1      -2.834 -10.880  -0.889  1.00  0.00     0.034 A 
ATOM     64  C   UNL     1      -1.643  -4.585  -2.945  1.00  0.00     0.034 A 
ATOM     65  C   UNL     1      -1.510 -10.862  -1.485  1.00  0.00     0.049 A 
ATOM     66  C   UNL     1      -1.470  -5.741  -3.830  1.00  0.00     0.074 A 
ATOM     67  C   UNL     1      -0.244 -11.185  -1.034  1.00  0.00     0.029 A 
ATOM     68  N   UNL     1      -1.334 -10.075  -2.599  1.00  0.00    -0.354 N 
ATOM     69  N   UNL     1      -0.319  -6.244  -4.151  1.00  0.00    -0.248 NA
ATOM     70  C   UNL     1      -2.630  -6.564  -4.122  1.00  0.00     0.031 C 
ATOM     71  C   UNL     1       0.654 -10.317  -1.710  1.00  0.00     0.029 A 
ATOM     72  C   UNL     1      -0.054  -9.568  -2.646  1.00  0.00     0.049 A 
ATOM     73  H   UNL     1      -2.030  -9.899  -3.273  1.00  0.00     0.167 HD
ATOM     74  C   UNL     1      -0.564  -7.591  -4.048  1.00  0.00     0.074 A 
ATOM     75  C   UNL     1      -2.001  -7.729  -4.269  1.00  0.00     0.031 C 
ATOM     76  C   UNL     1       0.339  -8.388  -3.411  1.00  0.00     0.034 A 
BRANCH  63  77
ATOM     77  C   UNL     1      -4.090 -11.159  -1.664  1.00  0.00     0.023 A 
ATOM     78  C   UNL     1      -5.279 -10.419  -1.503  1.00  0.00     0.031 A 
ATOM     79  C   UNL     1      -4.094 -12.128  -2.675  1.00  0.00     0.131 A 
ATOM     80  C   UNL     1      -6.440 -10.735  -2.208  1.00  0.00     0.055 A 
ATOM     81  C   UNL     1      -5.228 -12.378  -3.456  1.00  0.00     0.041 A 
ATOM     82  F   UNL     1      -2.990 -12.841  -2.943  1.00  0.00    -0.206 F 
ATOM     83  C   UNL     1      -6.417 -11.699  -3.207  1.00  0.00     0.022 A 
BRANCH  80  84
ATOM     84  S   UNL     1      -8.011  -9.932  -1.783  1.00  0.00     0.124 S 
ATOM     85  O   UNL     1      -8.410  -9.357  -3.062  1.00  0.00    -0.237 OA
ATOM     86  O   UNL     1      -8.804 -11.068  -1.320  1.00  0.00    -0.237 OA
ATOM     87  O   UNL     1      -7.636  -8.978  -0.743  1.00  0.00    -0.744 OA
ENDBRANCH  80  84
ENDBRANCH  63  77
BRANCH  64  88
ATOM     88  C   UNL     1      -2.445  -3.425  -3.564  1.00  0.00     0.023 A 
ATOM     89  C   UNL     1      -3.509  -2.771  -2.931  1.00  0.00     0.031 A 
ATOM     90  C   UNL     1      -2.332  -3.104  -4.941  1.00  0.00     0.131 A 
ATOM     91  C   UNL     1      -4.429  -1.931  -3.603  1.00  0.00     0.055 A 
ATOM     92  C   UNL     1      -3.236  -2.256  -5.626  1.00  0.00     0.041 A 
ATOM     93  F   UNL     1      -1.355  -3.644  -5.685  1.00  0.00    -0.206 F 
ATOM     94  C   UNL     1      -4.306  -1.676  -4.960  1.00  0.00     0.022 A 
BRANCH  91  95
ATOM     95  S   UNL     1      -5.848  -1.197  -2.721  1.00  0.00     0.124 S 
ATOM     96  O   UNL     1      -5.724   0.218  -3.063  1.00  0.00    -0.237 OA
ATOM     97  O   UNL     1      -6.975  -1.895  -3.328  1.00  0.00    -0.237 OA
ATOM     98  O   UNL     1      -5.578  -1.520  -1.325  1.00  0.00    -0.744 OA
ENDBRANCH  91  95
ENDBRANCH  64  88
BRANCH  76  99
ATOM     99  C   UNL     1       1.795  -7.925  -3.289  1.00  0.00     0.023 A 
ATOM    100  C   UNL     1       2.779  -8.884  -3.584  1.00  0.00     0.031 A 
ATOM    101  C   UNL     1       2.263  -6.701  -2.764  1.00  0.00     0.131 A 
ATOM    102  C   UNL     1       4.124  -8.665  -3.253  1.00  0.00     0.055 A 
ATOM    103  C   UNL     1       3.611  -6.471  -2.459  1.00  0.00     0.041 A 
ATOM    104  F   UNL     1       1.452  -5.678  -2.502  1.00  0.00    -0.206 F 
ATOM    105  C   UNL     1       4.548  -7.467  -2.677  1.00  0.00     0.022 A 
BRANCH 102 106
ATOM    106  S   UNL     1       5.342  -9.982  -3.468  1.00  0.00     0.124 S 
ATOM    107  O   UNL     1       6.267  -9.389  -4.431  1.00  0.00    -0.237 OA
ATOM    108  O   UNL     1       5.864 -10.142  -2.113  1.00  0.00    -0.237 OA
ATOM    109  O   UNL     1       4.559 -11.108  -3.968  1.00  0.00    -0.744 OA
ENDBRANCH 102 106
ENDBRANCH  76  99
ENDBRANCH  50  51
ENDBRANCH  43  45
ENDBRANCH  42  43
ENDBRANCH  41  42
ENDBRANCH  40  41
ENDBRANCH  39  40
ENDBRANCH  38  39
ENDBRANCH   1  38
TORSDOF 26
