REMARK SMILES O=C(OCCOCCOCCOC(=O)[C@H]1C[C@](O)(c2ccccc2Cl)[C@@H](c2ccccc2Cl)O1)c1ccc(-c2c3nc(c(-c4cc(S(=O)(=O)[O-])ccc4F)c4ccc([nH]4)c(-c4cc(S(=O)(=O)[O-])ccc4F)c4nc(c(-c5cc(S(=O)(=O)[O-])ccc5F)c5ccc2[nH]5)C=C4)C=C3)cc1
REMARK SMILES IDX 7 1 6 2 5 3 4 4 3 5 2 6 1 7 35 8 36 9 97 10 37 11 96 12
REMARK SMILES IDX 38 13 39 14 40 15 90 16 41 17 95 18 89 19 91 20 42 21 94 22
REMARK SMILES IDX 88 23 87 24 43 26 75 27 55 28 74 29 56 30 59 31 73 32 92 33
REMARK SMILES IDX 57 34 58 35 72 37 93 38 60 39 44 40 45 41 53 42 46 43 52 44
REMARK SMILES IDX 54 45 51 46 47 47 48 48 49 49 50 50 76 51 77 52 85 53 78 54
REMARK SMILES IDX 84 55 86 56 83 57 79 58 80 59 81 60 82 61 61 62 62 63 70 64
REMARK SMILES IDX 63 65 69 66 71 67 68 68 64 69 65 70 66 71 67 72 8 73 9 74
REMARK SMILES IDX 10 75 11 76 12 77 13 78 14 79 15 80 16 81 34 82 17 83 26 84
REMARK SMILES IDX 19 85 20 86 24 87 21 88 23 89 25 90 22 91 18 92 27 94 28 95
REMARK SMILES IDX 32 96 29 97 31 98 33 99 30 100
REMARK H PARENT 91 25 59 36 18 93
REMARK Flexibility Score: inf
ROOT
ATOM      1  C   UNL     1      -1.994   0.573   3.034  1.00  0.00     0.188 C 
ENDROOT
BRANCH   1   2
ATOM      2  O   UNL     1      -1.638   1.933   2.768  1.00  0.00    -0.376 OA
BRANCH   2   3
ATOM      3  C   UNL     1      -2.536   2.606   1.882  1.00  0.00     0.202 C 
BRANCH   3   4
ATOM      4  C   UNL     1      -2.323   2.314   0.388  1.00  0.00     0.261 C 
BRANCH   4   5
ATOM      5  O   UNL     1      -1.870   0.971   0.142  1.00  0.00    -0.460 OA
BRANCH   5   6
ATOM      6  C   UNL     1      -0.606   0.565  -0.155  1.00  0.00     0.338 C 
ATOM      7  O   UNL     1      -0.429  -0.596  -0.519  1.00  0.00    -0.246 OA
BRANCH   6   8
ATOM      8  C   UNL     1       0.581   1.472  -0.083  1.00  0.00     0.060 A 
ATOM      9  C   UNL     1       0.658   2.594   0.738  1.00  0.00     0.016 A 
ATOM     10  C   UNL     1       1.709   1.149  -0.859  1.00  0.00     0.016 A 
ATOM     11  C   UNL     1       1.740   3.459   0.681  1.00  0.00     0.010 A 
ATOM     12  C   UNL     1       2.845   1.973  -0.857  1.00  0.00     0.010 A 
ATOM     13  C   UNL     1       2.841   3.161  -0.118  1.00  0.00    -0.014 A 
BRANCH  13  14
ATOM     14  C   UNL     1       3.901   4.189  -0.220  1.00  0.00     0.031 A 
ATOM     15  C   UNL     1       4.002   4.996  -1.481  1.00  0.00     0.074 A 
ATOM     16  C   UNL     1       4.606   4.517   0.881  1.00  0.00     0.049 A 
ATOM     17  N   UNL     1       4.791   5.998  -1.762  1.00  0.00    -0.248 NA
ATOM     18  C   UNL     1       3.073   4.638  -2.566  1.00  0.00     0.031 C 
ATOM     19  C   UNL     1       4.485   3.849   2.181  1.00  0.00     0.029 A 
ATOM     20  N   UNL     1       5.513   5.517   1.108  1.00  0.00    -0.354 N 
ATOM     21  C   UNL     1       4.455   6.391  -3.053  1.00  0.00     0.074 A 
ATOM     22  C   UNL     1       3.415   5.497  -3.512  1.00  0.00     0.031 C 
ATOM     23  C   UNL     1       5.247   4.491   3.079  1.00  0.00     0.029 A 
ATOM     24  C   UNL     1       5.973   5.563   2.405  1.00  0.00     0.049 A 
ATOM     25  H   UNL     1       5.809   6.145   0.410  1.00  0.00     0.167 HD
ATOM     26  C   UNL     1       4.968   7.411  -3.783  1.00  0.00     0.034 A 
ATOM     27  C   UNL     1       6.897   6.364   2.972  1.00  0.00     0.034 A 
ATOM     28  C   UNL     1       6.027   8.263  -3.306  1.00  0.00     0.049 A 
ATOM     29  C   UNL     1       7.531   7.421   2.101  1.00  0.00     0.074 A 
ATOM     30  C   UNL     1       6.725   9.246  -3.981  1.00  0.00     0.029 A 
ATOM     31  N   UNL     1       6.543   8.225  -2.014  1.00  0.00    -0.354 N 
ATOM     32  N   UNL     1       7.268   7.723   0.848  1.00  0.00    -0.248 NA
ATOM     33  C   UNL     1       8.584   8.239   2.711  1.00  0.00     0.031 C 
ATOM     34  C   UNL     1       7.695   9.766  -3.114  1.00  0.00     0.029 A 
ATOM     35  C   UNL     1       7.559   9.155  -1.877  1.00  0.00     0.049 A 
ATOM     36  H   UNL     1       6.230   7.623  -1.300  1.00  0.00     0.167 HD
ATOM     37  C   UNL     1       8.124   8.770   0.522  1.00  0.00     0.074 A 
ATOM     38  C   UNL     1       8.875   9.075   1.726  1.00  0.00     0.031 C 
ATOM     39  C   UNL     1       8.294   9.416  -0.661  1.00  0.00     0.034 A 
BRANCH  26  40
ATOM     40  C   UNL     1       4.436   7.575  -5.185  1.00  0.00     0.023 A 
ATOM     41  C   UNL     1       3.101   7.946  -5.430  1.00  0.00     0.031 A 
ATOM     42  C   UNL     1       5.246   7.260  -6.290  1.00  0.00     0.131 A 
ATOM     43  C   UNL     1       2.596   7.917  -6.740  1.00  0.00     0.055 A 
ATOM     44  C   UNL     1       4.757   7.305  -7.598  1.00  0.00     0.041 A 
ATOM     45  F   UNL     1       6.518   6.868  -6.115  1.00  0.00    -0.206 F 
ATOM     46  C   UNL     1       3.421   7.619  -7.827  1.00  0.00     0.022 A 
BRANCH  43  47
ATOM     47  S   UNL     1       0.810   8.127  -6.990  1.00  0.00     0.124 S 
ATOM     48  O   UNL     1       0.274   6.986  -6.251  1.00  0.00    -0.237 OA
ATOM     49  O   UNL     1       0.560   9.440  -6.407  1.00  0.00    -0.237 OA
ATOM     50  O   UNL     1       0.655   8.049  -8.441  1.00  0.00    -0.744 OA
ENDBRANCH  43  47
ENDBRANCH  26  40
BRANCH  27  51
ATOM     51  C   UNL     1       7.336   6.153   4.386  1.00  0.00     0.023 A 
ATOM     52  C   UNL     1       7.256   7.172   5.349  1.00  0.00     0.031 A 
ATOM     53  C   UNL     1       7.916   4.930   4.780  1.00  0.00     0.131 A 
ATOM     54  C   UNL     1       7.790   6.968   6.634  1.00  0.00     0.055 A 
ATOM     55  C   UNL     1       8.386   4.711   6.075  1.00  0.00     0.041 A 
ATOM     56  F   UNL     1       8.032   3.918   3.904  1.00  0.00    -0.206 F 
ATOM     57  C   UNL     1       8.340   5.740   7.007  1.00  0.00     0.022 A 
BRANCH  54  58
ATOM     58  S   UNL     1       7.868   8.373   7.781  1.00  0.00     0.124 S 
ATOM     59  O   UNL     1       8.558   9.377   6.979  1.00  0.00    -0.237 OA
ATOM     60  O   UNL     1       6.456   8.624   8.047  1.00  0.00    -0.237 OA
ATOM     61  O   UNL     1       8.630   7.847   8.912  1.00  0.00    -0.744 OA
ENDBRANCH  54  58
ENDBRANCH  27  51
BRANCH  39  62
ATOM     62  C   UNL     1       9.322  10.517  -0.678  1.00  0.00     0.023 A 
ATOM     63  C   UNL     1      10.691  10.238  -0.524  1.00  0.00     0.031 A 
ATOM     64  C   UNL     1       8.926  11.857  -0.820  1.00  0.00     0.131 A 
ATOM     65  C   UNL     1      11.611  11.293  -0.444  1.00  0.00     0.055 A 
ATOM     66  C   UNL     1       9.854  12.899  -0.804  1.00  0.00     0.041 A 
ATOM     67  F   UNL     1       7.631  12.175  -0.972  1.00  0.00    -0.206 F 
ATOM     68  C   UNL     1      11.203  12.620  -0.599  1.00  0.00     0.022 A 
BRANCH  65  69
ATOM     69  S   UNL     1      13.333  10.909  -0.028  1.00  0.00     0.124 S 
ATOM     70  O   UNL     1      13.191  10.223   1.252  1.00  0.00    -0.237 OA
ATOM     71  O   UNL     1      13.749  10.079  -1.154  1.00  0.00    -0.237 OA
ATOM     72  O   UNL     1      13.969  12.224   0.041  1.00  0.00    -0.744 OA
ENDBRANCH  65  69
ENDBRANCH  39  62
ENDBRANCH  13  14
ENDBRANCH   6   8
ENDBRANCH   5   6
ENDBRANCH   4   5
ENDBRANCH   3   4
ENDBRANCH   2   3
ENDBRANCH   1   2
BRANCH   1  73
ATOM     73  C   UNL     1      -1.638   0.159   4.464  1.00  0.00     0.188 C 
BRANCH  73  74
ATOM     74  O   UNL     1      -2.388   0.807   5.498  1.00  0.00    -0.376 OA
BRANCH  74  75
ATOM     75  C   UNL     1      -2.192   2.216   5.641  1.00  0.00     0.202 C 
BRANCH  75  76
ATOM     76  C   UNL     1      -0.825   2.660   6.181  1.00  0.00     0.261 C 
BRANCH  76  77
ATOM     77  O   UNL     1       0.256   2.229   5.343  1.00  0.00    -0.461 OA
BRANCH  77  78
ATOM     78  C   UNL     1       1.444   2.025   5.986  1.00  0.00     0.335 C 
ATOM     79  O   UNL     1       1.676   2.379   7.135  1.00  0.00    -0.249 OA
BRANCH  78  80
ATOM     80  C   UNL     1       2.414   1.257   5.074  1.00  0.00     0.232 C 
ATOM     81  C   UNL     1       3.756   0.963   5.706  1.00  0.00     0.087 C 
ATOM     82  O   UNL     1       1.900   0.009   4.621  1.00  0.00    -0.355 OA
ATOM     83  C   UNL     1       3.699  -0.496   6.203  1.00  0.00     0.124 C 
ATOM     84  C   UNL     1       2.507  -1.085   5.363  1.00  0.00     0.187 C 
BRANCH  83  85
ATOM     85  C   UNL     1       5.154  -1.017   6.181  1.00  0.00     0.005 A 
ATOM     86  C   UNL     1       6.038  -0.370   7.097  1.00  0.00     0.008 A 
ATOM     87  C   UNL     1       5.753  -1.957   5.325  1.00  0.00     0.047 A 
ATOM     88  C   UNL     1       7.412  -0.618   7.142  1.00  0.00     0.001 A 
ATOM     89  C   UNL     1       7.140  -2.212   5.383  1.00  0.00     0.021 A 
ATOM     90  Cl  UNL     1       4.944  -2.873   4.116  1.00  0.00    -0.084 Cl
ATOM     91  C   UNL     1       7.967  -1.542   6.277  1.00  0.00     0.002 A 
ENDBRANCH  83  85
BRANCH  83  92
ATOM     92  O   UNL     1       3.332  -0.457   7.597  1.00  0.00    -0.382 OA
ATOM     93  H   UNL     1       2.421  -0.135   7.683  1.00  0.00     0.212 HD
ENDBRANCH  83  92
BRANCH  84  94
ATOM     94  C   UNL     1       1.338  -1.784   6.066  1.00  0.00     0.003 A 
ATOM     95  C   UNL     1       0.581  -1.091   7.036  1.00  0.00     0.008 A 
ATOM     96  C   UNL     1       0.862  -3.055   5.692  1.00  0.00     0.046 A 
ATOM     97  C   UNL     1      -0.616  -1.595   7.553  1.00  0.00     0.000 A 
ATOM     98  C   UNL     1      -0.336  -3.567   6.220  1.00  0.00     0.021 A 
ATOM     99  Cl  UNL     1       1.677  -4.072   4.559  1.00  0.00    -0.084 Cl
ATOM    100  C   UNL     1      -1.085  -2.830   7.133  1.00  0.00     0.002 A 
ENDBRANCH  84  94
ENDBRANCH  78  80
ENDBRANCH  77  78
ENDBRANCH  76  77
ENDBRANCH  75  76
ENDBRANCH  74  75
ENDBRANCH  73  74
ENDBRANCH   1  73
TORSDOF 23
