REMARK SMILES CC[C@H](Oc1c(C)cc(Br)cc1N)C(=O)OCCOCCOCCOC(=O)c1ccc(-c2c3nc(c(-c4cc(S(=O)(=O)[O-])ccc4F)c4ccc([nH]4)c(-c4cc(S(=O)(=O)[O-])ccc4F)c4nc(c(-c5cc(S(=O)(=O)[O-])ccc5F)c5ccc2[nH]5)C=C4)C=C3)cc1
REMARK SMILES IDX 20 1 19 2 18 3 17 4 16 5 14 6 15 7 3 8 2 9 1 10 4 11 5 12
REMARK SMILES IDX 6 13 12 14 7 15 8 16 11 17 9 18 10 19 13 20 21 23 22 24
REMARK SMILES IDX 23 25 24 26 25 27 26 28 27 29 28 30 29 31 90 32 30 33 89 34
REMARK SMILES IDX 31 35 32 36 33 37 83 38 34 39 88 40 82 41 84 42 35 43 87 44
REMARK SMILES IDX 81 45 80 46 36 48 68 49 48 50 67 51 49 52 52 53 66 54 85 55
REMARK SMILES IDX 50 56 51 57 65 59 86 60 53 61 37 62 38 63 46 64 39 65 45 66
REMARK SMILES IDX 47 67 44 68 40 69 41 70 42 71 43 72 69 73 70 74 78 75 71 76
REMARK SMILES IDX 77 77 79 78 76 79 72 80 73 81 74 82 75 83 54 84 55 85 63 86
REMARK SMILES IDX 56 87 62 88 64 89 61 90 57 91 58 92 59 93 60 94
REMARK H PARENT 13 21 13 22 84 47 52 58
REMARK Flexibility Score: inf
ROOT
ATOM      1  C   UNL     1       1.130  -4.976  -1.037  1.00  0.00     0.188 C 
ENDROOT
BRANCH   1   2
ATOM      2  O   UNL     1       0.356  -6.149  -1.137  1.00  0.00    -0.376 OA
BRANCH   2   3
ATOM      3  C   UNL     1      -0.728  -6.349  -0.246  1.00  0.00     0.202 C 
BRANCH   3   4
ATOM      4  C   UNL     1      -1.022  -5.490   0.999  1.00  0.00     0.261 C 
BRANCH   4   5
ATOM      5  O   UNL     1      -0.767  -4.077   0.930  1.00  0.00    -0.461 OA
BRANCH   5   6
ATOM      6  C   UNL     1       0.186  -3.615   1.792  1.00  0.00     0.347 C 
ATOM      7  O   UNL     1       0.856  -4.343   2.521  1.00  0.00    -0.248 OA
BRANCH   6   8
ATOM      8  C   UNL     1       0.288  -2.076   1.870  1.00  0.00     0.282 C 
BRANCH   8   9
ATOM      9  C   UNL     1      -0.756  -1.689   2.936  1.00  0.00     0.054 C 
ATOM     10  C   UNL     1      -1.140  -0.231   3.090  1.00  0.00     0.008 C 
ENDBRANCH   8   9
BRANCH   8  11
ATOM     11  O   UNL     1       0.200  -1.401   0.620  1.00  0.00    -0.476 OA
BRANCH  11  12
ATOM     12  C   UNL     1       0.547  -0.072   0.492  1.00  0.00     0.146 A 
ATOM     13  C   UNL     1       1.432   0.659   1.307  1.00  0.00    -0.006 A 
ATOM     14  C   UNL     1      -0.106   0.602  -0.572  1.00  0.00     0.076 A 
ATOM     15  C   UNL     1       2.490   0.062   2.190  1.00  0.00     0.048 C 
ATOM     16  C   UNL     1       1.353   2.066   1.293  1.00  0.00     0.023 A 
ATOM     17  C   UNL     1      -0.153   2.002  -0.579  1.00  0.00     0.045 A 
ATOM     18  C   UNL     1       0.526   2.724   0.392  1.00  0.00     0.020 A 
ATOM     19  Br  UNL     1       0.339   4.602   0.485  1.00  0.00    -0.051 Br
BRANCH  14  20
ATOM     20  N   UNL     1      -0.843  -0.093  -1.539  1.00  0.00    -0.396 N 
ATOM     21  H   UNL     1      -0.826  -1.077  -1.556  1.00  0.00     0.156 HD
ATOM     22  H   UNL     1      -1.376   0.402  -2.201  1.00  0.00     0.156 HD
ENDBRANCH  14  20
ENDBRANCH  11  12
ENDBRANCH   8  11
ENDBRANCH   6   8
ENDBRANCH   5   6
ENDBRANCH   4   5
ENDBRANCH   3   4
ENDBRANCH   2   3
ENDBRANCH   1   2
BRANCH   1  23
ATOM     23  C   UNL     1       0.521  -3.691  -1.617  1.00  0.00     0.188 C 
BRANCH  23  24
ATOM     24  O   UNL     1      -0.854  -3.622  -1.925  1.00  0.00    -0.376 OA
BRANCH  24  25
ATOM     25  C   UNL     1      -1.382  -4.424  -2.969  1.00  0.00     0.202 C 
BRANCH  25  26
ATOM     26  C   UNL     1      -0.574  -4.988  -4.160  1.00  0.00     0.261 C 
BRANCH  26  27
ATOM     27  O   UNL     1       0.848  -5.077  -4.036  1.00  0.00    -0.460 OA
BRANCH  27  28
ATOM     28  C   UNL     1       1.552  -4.071  -4.621  1.00  0.00     0.338 C 
ATOM     29  O   UNL     1       1.101  -3.125  -5.236  1.00  0.00    -0.246 OA
BRANCH  28  30
ATOM     30  C   UNL     1       2.962  -4.190  -4.186  1.00  0.00     0.060 A 
ATOM     31  C   UNL     1       3.502  -3.194  -3.357  1.00  0.00     0.016 A 
ATOM     32  C   UNL     1       3.739  -5.279  -4.580  1.00  0.00     0.016 A 
ATOM     33  C   UNL     1       4.820  -3.287  -2.917  1.00  0.00     0.010 A 
ATOM     34  C   UNL     1       5.075  -5.347  -4.175  1.00  0.00     0.010 A 
ATOM     35  C   UNL     1       5.627  -4.341  -3.360  1.00  0.00    -0.014 A 
BRANCH  35  36
ATOM     36  C   UNL     1       7.093  -4.271  -3.155  1.00  0.00     0.031 A 
ATOM     37  C   UNL     1       7.933  -3.695  -4.261  1.00  0.00     0.074 A 
ATOM     38  C   UNL     1       7.666  -4.667  -2.004  1.00  0.00     0.049 A 
ATOM     39  N   UNL     1       9.232  -3.581  -4.344  1.00  0.00    -0.248 NA
ATOM     40  C   UNL     1       7.204  -3.175  -5.430  1.00  0.00     0.031 C 
ATOM     41  C   UNL     1       6.952  -5.167  -0.831  1.00  0.00     0.029 A 
ATOM     42  N   UNL     1       8.988  -4.703  -1.636  1.00  0.00    -0.354 N 
ATOM     43  C   UNL     1       9.477  -2.975  -5.571  1.00  0.00     0.074 A 
ATOM     44  C   UNL     1       8.196  -2.782  -6.213  1.00  0.00     0.031 C 
ATOM     45  C   UNL     1       7.847  -5.460   0.129  1.00  0.00     0.029 A 
ATOM     46  C   UNL     1       9.198  -5.208  -0.375  1.00  0.00     0.049 A 
ATOM     47  H   UNL     1       9.718  -4.396  -2.221  1.00  0.00     0.167 HD
ATOM     48  C   UNL     1      10.663  -2.603  -6.107  1.00  0.00     0.034 A 
ATOM     49  C   UNL     1      10.347  -5.456   0.287  1.00  0.00     0.034 A 
ATOM     50  C   UNL     1      11.935  -2.810  -5.465  1.00  0.00     0.049 A 
ATOM     51  C   UNL     1      11.666  -5.152  -0.382  1.00  0.00     0.074 A 
ATOM     52  C   UNL     1      13.195  -2.478  -5.930  1.00  0.00     0.029 A 
ATOM     53  N   UNL     1      12.112  -3.409  -4.226  1.00  0.00    -0.354 N 
ATOM     54  N   UNL     1      11.890  -4.614  -1.559  1.00  0.00    -0.248 NA
ATOM     55  C   UNL     1      12.886  -5.494   0.363  1.00  0.00     0.031 C 
ATOM     56  C   UNL     1      14.136  -2.940  -5.007  1.00  0.00     0.029 A 
ATOM     57  C   UNL     1      13.462  -3.490  -3.928  1.00  0.00     0.049 A 
ATOM     58  H   UNL     1      11.385  -3.730  -3.645  1.00  0.00     0.167 HD
ATOM     59  C   UNL     1      13.274  -4.532  -1.684  1.00  0.00     0.074 A 
ATOM     60  C   UNL     1      13.835  -5.071  -0.462  1.00  0.00     0.031 C 
ATOM     61  C   UNL     1      14.013  -4.045  -2.714  1.00  0.00     0.034 A 
BRANCH  48  62
ATOM     62  C   UNL     1      10.637  -1.970  -7.473  1.00  0.00     0.023 A 
ATOM     63  C   UNL     1      10.068  -0.704  -7.686  1.00  0.00     0.031 A 
ATOM     64  C   UNL     1      11.192  -2.643  -8.576  1.00  0.00     0.131 A 
ATOM     65  C   UNL     1      10.026  -0.167  -8.981  1.00  0.00     0.055 A 
ATOM     66  C   UNL     1      11.207  -2.074  -9.850  1.00  0.00     0.041 A 
ATOM     67  F   UNL     1      11.726  -3.866  -8.432  1.00  0.00    -0.206 F 
ATOM     68  C   UNL     1      10.614  -0.833 -10.060  1.00  0.00     0.022 A 
BRANCH  65  69
ATOM     69  S   UNL     1       9.108   1.372  -9.253  1.00  0.00     0.124 S 
ATOM     70  O   UNL     1       7.751   0.975  -8.883  1.00  0.00    -0.237 OA
ATOM     71  O   UNL     1       9.771   2.301  -8.347  1.00  0.00    -0.237 OA
ATOM     72  O   UNL     1       9.305   1.641 -10.676  1.00  0.00    -0.744 OA
ENDBRANCH  65  69
ENDBRANCH  48  62
BRANCH  49  73
ATOM     73  C   UNL     1      10.306  -6.050   1.652  1.00  0.00     0.023 A 
ATOM     74  C   UNL     1      10.714  -5.312   2.774  1.00  0.00     0.031 A 
ATOM     75  C   UNL     1       9.856  -7.368   1.854  1.00  0.00     0.131 A 
ATOM     76  C   UNL     1      10.676  -5.901   4.048  1.00  0.00     0.055 A 
ATOM     77  C   UNL     1       9.785  -7.935   3.127  1.00  0.00     0.041 A 
ATOM     78  F   UNL     1       9.457  -8.115   0.812  1.00  0.00    -0.206 F 
ATOM     79  C   UNL     1      10.200  -7.201   4.234  1.00  0.00     0.022 A 
BRANCH  76  80
ATOM     80  S   UNL     1      11.277  -4.945   5.468  1.00  0.00     0.124 S 
ATOM     81  O   UNL     1      12.693  -4.800   5.150  1.00  0.00    -0.237 OA
ATOM     82  O   UNL     1      10.471  -3.731   5.383  1.00  0.00    -0.237 OA
ATOM     83  O   UNL     1      10.977  -5.807   6.609  1.00  0.00    -0.744 OA
ENDBRANCH  76  80
ENDBRANCH  49  73
BRANCH  61  84
ATOM     84  C   UNL     1      15.513  -4.047  -2.568  1.00  0.00     0.023 A 
ATOM     85  C   UNL     1      16.254  -5.240  -2.597  1.00  0.00     0.031 A 
ATOM     86  C   UNL     1      16.216  -2.832  -2.464  1.00  0.00     0.131 A 
ATOM     87  C   UNL     1      17.653  -5.196  -2.500  1.00  0.00     0.055 A 
ATOM     88  C   UNL     1      17.610  -2.791  -2.418  1.00  0.00     0.041 A 
ATOM     89  F   UNL     1      15.557  -1.663  -2.437  1.00  0.00    -0.206 F 
ATOM     90  C   UNL     1      18.336  -3.978  -2.431  1.00  0.00     0.022 A 
BRANCH  87  91
ATOM     91  S   UNL     1      18.573  -6.756  -2.430  1.00  0.00     0.124 S 
ATOM     92  O   UNL     1      18.079  -7.343  -1.188  1.00  0.00    -0.237 OA
ATOM     93  O   UNL     1      18.158  -7.423  -3.660  1.00  0.00    -0.237 OA
ATOM     94  O   UNL     1      19.971  -6.330  -2.401  1.00  0.00    -0.744 OA
ENDBRANCH  87  91
ENDBRANCH  61  84
ENDBRANCH  35  36
ENDBRANCH  28  30
ENDBRANCH  27  28
ENDBRANCH  26  27
ENDBRANCH  25  26
ENDBRANCH  24  25
ENDBRANCH  23  24
ENDBRANCH   1  23
TORSDOF 24
