REMARK SMILES CCOc1cc(N2CCOCC2)ccc1[C@H]([NH3+])C(=O)OCCOCCOCCOC(=O)c1ccc(-c2c3nc(c(-c4cc(S(=O)(=O)[O-])ccc4F)c4ccc([nH]4)c(-c4cc(S(=O)(=O)[O-])ccc4F)c4nc(c(-c5cc(S(=O)(=O)[O-])ccc5F)c5ccc2[nH]5)C=C4)C=C3)cc1
REMARK SMILES IDX 24 1 23 2 22 3 21 4 20 5 18 6 19 7 16 8 15 9 4 10 5 11 6 12
REMARK SMILES IDX 14 13 13 14 3 15 2 16 1 17 7 18 8 19 12 20 9 21 11 22 10 23
REMARK SMILES IDX 17 24 25 28 26 29 27 30 28 31 29 32 30 33 31 34 32 35 33 36
REMARK SMILES IDX 94 37 34 38 93 39 35 40 36 41 37 42 87 43 38 44 92 45 86 46
REMARK SMILES IDX 88 47 39 48 91 49 85 50 84 51 40 53 72 54 52 55 71 56 53 57
REMARK SMILES IDX 56 58 70 59 89 60 54 61 55 62 69 64 90 65 57 66 41 67 42 68
REMARK SMILES IDX 50 69 43 70 49 71 51 72 48 73 44 74 45 75 46 76 47 77 73 78
REMARK SMILES IDX 74 79 82 80 75 81 81 82 83 83 80 84 76 85 77 86 78 87 79 88
REMARK SMILES IDX 58 89 59 90 67 91 60 92 66 93 68 94 65 95 61 96 62 97 63 98
REMARK SMILES IDX 64 99
REMARK H PARENT 17 25 17 26 17 27 88 52 56 63
REMARK Flexibility Score: inf
ROOT
ATOM      1  C   UNL     1       2.867  -2.146   1.923  1.00  0.00     0.188 C 
ENDROOT
BRANCH   1   2
ATOM      2  O   UNL     1       3.479  -3.333   1.443  1.00  0.00    -0.376 OA
BRANCH   2   3
ATOM      3  C   UNL     1       4.758  -3.219   0.836  1.00  0.00     0.202 C 
BRANCH   3   4
ATOM      4  C   UNL     1       4.900  -2.348  -0.421  1.00  0.00     0.261 C 
BRANCH   4   5
ATOM      5  O   UNL     1       4.143  -1.129  -0.423  1.00  0.00    -0.459 OA
BRANCH   5   6
ATOM      6  C   UNL     1       2.938  -1.224  -1.059  1.00  0.00     0.369 C 
ATOM      7  O   UNL     1       2.542  -2.242  -1.626  1.00  0.00    -0.245 OA
BRANCH   6   8
ATOM      8  C   UNL     1       2.125   0.088  -1.083  1.00  0.00     0.326 C 
BRANCH   8   9
ATOM      9  C   UNL     1       2.388   0.740  -2.420  1.00  0.00     0.063 A 
ATOM     10  C   UNL     1       3.447   1.620  -2.685  1.00  0.00     0.131 A 
ATOM     11  C   UNL     1       3.730   1.995  -4.007  1.00  0.00     0.072 A 
ATOM     12  C   UNL     1       2.951   1.513  -5.077  1.00  0.00     0.040 A 
ATOM     13  C   UNL     1       1.628   0.251  -3.491  1.00  0.00     0.016 A 
ATOM     14  C   UNL     1       1.908   0.630  -4.794  1.00  0.00     0.027 A 
BRANCH  10  15
ATOM     15  O   UNL     1       4.053   2.264  -1.635  1.00  0.00    -0.493 OA
BRANCH  15  16
ATOM     16  C   UNL     1       5.383   1.829  -1.327  1.00  0.00     0.226 C 
ATOM     17  C   UNL     1       5.566   1.930   0.186  1.00  0.00     0.049 C 
ENDBRANCH  15  16
ENDBRANCH  10  15
BRANCH  12  18
ATOM     18  N   UNL     1       3.174   1.958  -6.372  1.00  0.00    -0.367 N 
ATOM     19  C   UNL     1       2.025   2.483  -7.133  1.00  0.00     0.145 C 
ATOM     20  C   UNL     1       4.201   1.285  -7.177  1.00  0.00     0.145 C 
ATOM     21  C   UNL     1       1.507   1.466  -8.164  1.00  0.00     0.181 C 
ATOM     22  C   UNL     1       3.563   0.320  -8.194  1.00  0.00     0.181 C 
ATOM     23  O   UNL     1       2.568   0.975  -9.000  1.00  0.00    -0.378 OA
ENDBRANCH  12  18
ENDBRANCH   8   9
BRANCH   8  24
ATOM     24  N   UNL     1       2.264   0.970   0.095  1.00  0.00    -0.342 N 
ATOM     25  H   UNL     1       3.227   1.298   0.163  1.00  0.00     0.345 HD
ATOM     26  H   UNL     1       2.021   0.451   0.939  1.00  0.00     0.345 HD
ATOM     27  H   UNL     1       1.639   1.770  -0.004  1.00  0.00     0.345 HD
ENDBRANCH   8  24
ENDBRANCH   6   8
ENDBRANCH   5   6
ENDBRANCH   4   5
ENDBRANCH   3   4
ENDBRANCH   2   3
ENDBRANCH   1   2
BRANCH   1  28
ATOM     28  C   UNL     1       3.670  -1.216   2.830  1.00  0.00     0.188 C 
BRANCH  28  29
ATOM     29  O   UNL     1       5.081  -1.164   2.669  1.00  0.00    -0.376 OA
BRANCH  29  30
ATOM     30  C   UNL     1       5.760  -0.367   3.648  1.00  0.00     0.202 C 
BRANCH  30  31
ATOM     31  C   UNL     1       5.560  -0.787   5.123  1.00  0.00     0.261 C 
BRANCH  31  32
ATOM     32  O   UNL     1       4.211  -0.728   5.643  1.00  0.00    -0.460 OA
BRANCH  32  33
ATOM     33  C   UNL     1       3.483   0.401   5.428  1.00  0.00     0.338 C 
ATOM     34  O   UNL     1       3.926   1.476   5.090  1.00  0.00    -0.246 OA
BRANCH  33  35
ATOM     35  C   UNL     1       2.031   0.026   5.396  1.00  0.00     0.060 A 
ATOM     36  C   UNL     1       1.197   0.671   4.469  1.00  0.00     0.016 A 
ATOM     37  C   UNL     1       1.506  -1.001   6.187  1.00  0.00     0.016 A 
ATOM     38  C   UNL     1      -0.159   0.331   4.370  1.00  0.00     0.010 A 
ATOM     39  C   UNL     1       0.148  -1.337   6.092  1.00  0.00     0.010 A 
ATOM     40  C   UNL     1      -0.706  -0.647   5.211  1.00  0.00    -0.014 A 
BRANCH  40  41
ATOM     41  C   UNL     1      -2.185  -0.784   5.349  1.00  0.00     0.031 A 
ATOM     42  C   UNL     1      -2.845  -0.116   6.529  1.00  0.00     0.074 A 
ATOM     43  C   UNL     1      -2.943  -1.462   4.466  1.00  0.00     0.049 A 
ATOM     44  N   UNL     1      -4.091  -0.151   6.926  1.00  0.00    -0.248 NA
ATOM     45  C   UNL     1      -1.963   0.696   7.380  1.00  0.00     0.031 C 
ATOM     46  C   UNL     1      -2.455  -2.118   3.256  1.00  0.00     0.029 A 
ATOM     47  N   UNL     1      -4.296  -1.721   4.466  1.00  0.00    -0.354 N 
ATOM     48  C   UNL     1      -4.142   0.630   8.077  1.00  0.00     0.074 A 
ATOM     49  C   UNL     1      -2.790   1.076   8.339  1.00  0.00     0.031 C 
ATOM     50  C   UNL     1      -3.489  -2.719   2.640  1.00  0.00     0.029 A 
ATOM     51  C   UNL     1      -4.707  -2.528   3.429  1.00  0.00     0.049 A 
ATOM     52  H   UNL     1      -4.912  -1.361   5.144  1.00  0.00     0.167 HD
ATOM     53  C   UNL     1      -5.215   0.961   8.839  1.00  0.00     0.034 A 
ATOM     54  C   UNL     1      -5.913  -3.078   3.166  1.00  0.00     0.034 A 
ATOM     55  C   UNL     1      -6.555   0.491   8.588  1.00  0.00     0.049 A 
ATOM     56  C   UNL     1      -7.079  -2.792   4.088  1.00  0.00     0.074 A 
ATOM     57  C   UNL     1      -7.711   0.763   9.300  1.00  0.00     0.029 A 
ATOM     58  N   UNL     1      -6.920  -0.364   7.555  1.00  0.00    -0.354 N 
ATOM     59  N   UNL     1      -7.117  -2.053   5.173  1.00  0.00    -0.248 NA
ATOM     60  C   UNL     1      -8.367  -3.413   3.744  1.00  0.00     0.031 C 
ATOM     61  C   UNL     1      -8.754   0.009   8.750  1.00  0.00     0.029 A 
ATOM     62  C   UNL     1      -8.274  -0.659   7.635  1.00  0.00     0.049 A 
ATOM     63  H   UNL     1      -6.307  -0.711   6.867  1.00  0.00     0.167 HD
ATOM     64  C   UNL     1      -8.438  -2.096   5.621  1.00  0.00     0.074 A 
ATOM     65  C   UNL     1      -9.166  -2.924   4.682  1.00  0.00     0.031 C 
ATOM     66  C   UNL     1      -8.997  -1.497   6.705  1.00  0.00     0.034 A 
BRANCH  53  67
ATOM     67  C   UNL     1      -4.953   1.828  10.049  1.00  0.00     0.023 A 
ATOM     68  C   UNL     1      -4.417   3.123   9.927  1.00  0.00     0.031 A 
ATOM     69  C   UNL     1      -5.177   1.332  11.345  1.00  0.00     0.131 A 
ATOM     70  C   UNL     1      -4.030   3.833  11.073  1.00  0.00     0.055 A 
ATOM     71  C   UNL     1      -4.882   2.084  12.484  1.00  0.00     0.041 A 
ATOM     72  F   UNL     1      -5.663   0.094  11.530  1.00  0.00    -0.206 F 
ATOM     73  C   UNL     1      -4.285   3.334  12.352  1.00  0.00     0.022 A 
BRANCH  70  74
ATOM     74  S   UNL     1      -3.016   5.323  10.865  1.00  0.00     0.124 S 
ATOM     75  O   UNL     1      -1.881   4.803  10.104  1.00  0.00    -0.237 OA
ATOM     76  O   UNL     1      -3.914   6.216  10.143  1.00  0.00    -0.237 OA
ATOM     77  O   UNL     1      -2.706   5.721  12.236  1.00  0.00    -0.744 OA
ENDBRANCH  70  74
ENDBRANCH  53  67
BRANCH  54  78
ATOM     78  C   UNL     1      -6.079  -4.010   2.009  1.00  0.00     0.023 A 
ATOM     79  C   UNL     1      -6.933  -3.709   0.934  1.00  0.00     0.031 A 
ATOM     80  C   UNL     1      -5.414  -5.250   1.992  1.00  0.00     0.131 A 
ATOM     81  C   UNL     1      -7.123  -4.648  -0.094  1.00  0.00     0.055 A 
ATOM     82  C   UNL     1      -5.564  -6.157   0.941  1.00  0.00     0.041 A 
ATOM     83  F   UNL     1      -4.598  -5.597   3.000  1.00  0.00    -0.206 F 
ATOM     84  C   UNL     1      -6.431  -5.862  -0.106  1.00  0.00     0.022 A 
BRANCH  81  85
ATOM     85  S   UNL     1      -8.348  -4.296  -1.386  1.00  0.00     0.124 S 
ATOM     86  O   UNL     1      -9.575  -4.176  -0.607  1.00  0.00    -0.237 OA
ATOM     87  O   UNL     1      -7.832  -3.060  -1.966  1.00  0.00    -0.237 OA
ATOM     88  O   UNL     1      -8.273  -5.468  -2.256  1.00  0.00    -0.744 OA
ENDBRANCH  81  85
ENDBRANCH  54  78
BRANCH  66  89
ATOM     89  C   UNL     1     -10.487  -1.670   6.911  1.00  0.00     0.023 A 
ATOM     90  C   UNL     1     -11.063  -2.920   7.197  1.00  0.00     0.031 A 
ATOM     91  C   UNL     1     -11.344  -0.557   6.822  1.00  0.00     0.131 A 
ATOM     92  C   UNL     1     -12.457  -3.036   7.331  1.00  0.00     0.055 A 
ATOM     93  C   UNL     1     -12.722  -0.667   7.023  1.00  0.00     0.041 A 
ATOM     94  F   UNL     1     -10.855   0.663   6.547  1.00  0.00    -0.206 F 
ATOM     95  C   UNL     1     -13.287  -1.914   7.266  1.00  0.00     0.022 A 
BRANCH  92  96
ATOM     96  S   UNL     1     -13.187  -4.690   7.492  1.00  0.00     0.124 S 
ATOM     97  O   UNL     1     -12.707  -5.352   6.284  1.00  0.00    -0.237 OA
ATOM     98  O   UNL     1     -12.615  -5.162   8.749  1.00  0.00    -0.237 OA
ATOM     99  O   UNL     1     -14.625  -4.429   7.527  1.00  0.00    -0.744 OA
ENDBRANCH  92  96
ENDBRANCH  66  89
ENDBRANCH  40  41
ENDBRANCH  33  35
ENDBRANCH  32  33
ENDBRANCH  31  32
ENDBRANCH  30  31
ENDBRANCH  29  30
ENDBRANCH  28  29
ENDBRANCH   1  28
TORSDOF 25
