REMARK SMILES Cc1ccnc(C(=O)c2[nH]c3ccc(C(C)(C)C)cc3c2CC(=O)OCCOCCOCCOC(=O)c2ccc(-c3c4nc(c(-c5cc(S(=O)(=O)[O-])ccc5F)c5ccc([nH]5)c(-c5cc(S(=O)(=O)[O-])ccc5F)c5nc(c(-c6cc(S(=O)(=O)[O-])ccc6F)c6ccc3[nH]6)C=C5)C=C4)cc2)c1
REMARK SMILES IDX 29 1 28 2 27 3 26 4 25 5 23 6 24 7 22 8 21 9 9 10 10 11
REMARK SMILES IDX 11 12 20 14 12 15 19 16 13 17 14 18 7 19 8 20 6 21 1 22 2 23
REMARK SMILES IDX 3 24 100 25 4 26 5 27 15 28 16 29 17 30 18 31 30 32 31 33
REMARK SMILES IDX 32 34 33 35 34 36 35 37 36 38 37 39 38 40 99 41 39 42 98 43
REMARK SMILES IDX 40 44 41 45 42 46 92 47 43 48 97 49 91 50 93 51 44 52 96 53
REMARK SMILES IDX 90 54 89 55 45 57 77 58 57 59 76 60 58 61 61 62 75 63 94 64
REMARK SMILES IDX 59 65 60 66 74 68 95 69 62 70 46 71 47 72 55 73 48 74 54 75
REMARK SMILES IDX 56 76 53 77 49 78 50 79 51 80 52 81 78 82 79 83 87 84 80 85
REMARK SMILES IDX 86 86 88 87 85 88 81 89 82 90 83 91 84 92 63 93 64 94 72 95
REMARK SMILES IDX 65 96 71 97 73 98 70 99 66 100 67 101 68 102 69 103
REMARK H PARENT 10 13 93 56 61 67
REMARK Flexibility Score: inf
ROOT
ATOM      1  C   UNL     1       4.846  -3.237   0.391  1.00  0.00     0.188 C 
ENDROOT
BRANCH   1   2
ATOM      2  O   UNL     1       6.070  -3.957   0.501  1.00  0.00    -0.376 OA
BRANCH   2   3
ATOM      3  C   UNL     1       6.018  -5.373   0.408  1.00  0.00     0.202 C 
BRANCH   3   4
ATOM      4  C   UNL     1       5.180  -6.086   1.470  1.00  0.00     0.261 C 
BRANCH   4   5
ATOM      5  O   UNL     1       3.780  -5.744   1.381  1.00  0.00    -0.463 OA
BRANCH   5   6
ATOM      6  C   UNL     1       3.122  -5.651   2.564  1.00  0.00     0.310 C 
ATOM      7  O   UNL     1       3.627  -5.982   3.636  1.00  0.00    -0.252 OA
BRANCH   6   8
ATOM      8  C   UNL     1       1.745  -5.013   2.511  1.00  0.00     0.161 C 
BRANCH   8   9
ATOM      9  C   UNL     1       0.949  -5.020   1.223  1.00  0.00     0.000 A 
ATOM     10  C   UNL     1       0.525  -3.922   0.463  1.00  0.00     0.093 A 
ATOM     11  N   UNL     1      -0.145  -4.421  -0.633  1.00  0.00    -0.352 N 
ATOM     12  C   UNL     1      -0.512  -5.721  -0.394  1.00  0.00     0.046 A 
ATOM     13  H   UNL     1      -0.331  -3.921  -1.461  1.00  0.00     0.167 HD
ATOM     14  C   UNL     1       0.180  -6.127   0.741  1.00  0.00     0.004 A 
ATOM     15  C   UNL     1      -1.427  -6.538  -1.058  1.00  0.00     0.027 A 
ATOM     16  C   UNL     1      -0.083  -7.406   1.260  1.00  0.00     0.015 A 
ATOM     17  C   UNL     1      -1.737  -7.768  -0.461  1.00  0.00     0.006 A 
ATOM     18  C   UNL     1      -1.110  -8.206   0.716  1.00  0.00    -0.042 A 
BRANCH  10  19
ATOM     19  C   UNL     1       0.707  -2.510   0.739  1.00  0.00     0.227 C 
ATOM     20  O   UNL     1       1.489  -2.104   1.596  1.00  0.00    -0.285 OA
BRANCH  19  21
ATOM     21  C   UNL     1      -0.112  -1.500   0.008  1.00  0.00     0.113 A 
ATOM     22  C   UNL     1      -3.502   0.158   0.218  1.00  0.00     0.044 C 
ATOM     23  C   UNL     1      -2.090  -0.169  -0.167  1.00  0.00    -0.047 A 
ATOM     24  C   UNL     1      -1.367   0.706  -0.982  1.00  0.00     0.023 A 
ATOM     25  C   UNL     1      -1.439  -1.290   0.360  1.00  0.00     0.036 A 
ATOM     26  C   UNL     1      -0.064   0.380  -1.316  1.00  0.00     0.112 A 
ATOM     27  N   UNL     1       0.569  -0.727  -0.870  1.00  0.00    -0.253 NA
ENDBRANCH  19  21
ENDBRANCH  10  19
BRANCH  18  28
ATOM     28  C   UNL     1      -1.560  -9.451   1.496  1.00  0.00    -0.013 C 
ATOM     29  C   UNL     1      -0.378 -10.427   1.648  1.00  0.00     0.016 C 
ATOM     30  C   UNL     1      -2.048  -9.010   2.898  1.00  0.00     0.016 C 
ATOM     31  C   UNL     1      -2.725 -10.216   0.834  1.00  0.00     0.016 C 
ENDBRANCH  18  28
ENDBRANCH   8   9
ENDBRANCH   6   8
ENDBRANCH   5   6
ENDBRANCH   4   5
ENDBRANCH   3   4
ENDBRANCH   2   3
ENDBRANCH   1   2
BRANCH   1  32
ATOM     32  C   UNL     1       3.832  -3.643  -0.702  1.00  0.00     0.188 C 
BRANCH  32  33
ATOM     33  O   UNL     1       4.297  -4.279  -1.885  1.00  0.00    -0.376 OA
BRANCH  33  34
ATOM     34  C   UNL     1       5.314  -3.612  -2.618  1.00  0.00     0.202 C 
BRANCH  34  35
ATOM     35  C   UNL     1       4.947  -2.207  -3.088  1.00  0.00     0.261 C 
BRANCH  35  36
ATOM     36  O   UNL     1       4.851  -1.293  -1.979  1.00  0.00    -0.460 OA
BRANCH  36  37
ATOM     37  C   UNL     1       4.056  -0.223  -2.223  1.00  0.00     0.338 C 
ATOM     38  O   UNL     1       3.544   0.058  -3.293  1.00  0.00    -0.246 OA
BRANCH  37  39
ATOM     39  C   UNL     1       3.860   0.613  -1.017  1.00  0.00     0.060 A 
ATOM     40  C   UNL     1       3.240   0.094   0.112  1.00  0.00     0.016 A 
ATOM     41  C   UNL     1       4.037   1.991  -1.122  1.00  0.00     0.016 A 
ATOM     42  C   UNL     1       2.632   0.950   1.038  1.00  0.00     0.010 A 
ATOM     43  C   UNL     1       3.523   2.844  -0.133  1.00  0.00     0.010 A 
ATOM     44  C   UNL     1       2.736   2.341   0.919  1.00  0.00    -0.014 A 
BRANCH  44  45
ATOM     45  C   UNL     1       1.938   3.254   1.804  1.00  0.00     0.031 A 
ATOM     46  C   UNL     1       0.991   4.271   1.195  1.00  0.00     0.074 A 
ATOM     47  C   UNL     1       1.988   3.146   3.149  1.00  0.00     0.049 A 
ATOM     48  N   UNL     1       0.336   5.251   1.770  1.00  0.00    -0.248 NA
ATOM     49  C   UNL     1       0.746   4.172  -0.254  1.00  0.00     0.031 C 
ATOM     50  C   UNL     1       2.763   2.151   3.893  1.00  0.00     0.029 A 
ATOM     51  N   UNL     1       1.364   3.876   4.136  1.00  0.00    -0.354 N 
ATOM     52  C   UNL     1      -0.368   5.897   0.757  1.00  0.00     0.074 A 
ATOM     53  C   UNL     1      -0.049   5.210  -0.475  1.00  0.00     0.031 C 
ATOM     54  C   UNL     1       2.537   2.305   5.206  1.00  0.00     0.029 A 
ATOM     55  C   UNL     1       1.705   3.484   5.413  1.00  0.00     0.049 A 
ATOM     56  H   UNL     1       0.734   4.609   3.948  1.00  0.00     0.167 HD
ATOM     57  C   UNL     1      -1.200   6.967   0.841  1.00  0.00     0.034 A 
ATOM     58  C   UNL     1       1.442   4.039   6.614  1.00  0.00     0.034 A 
ATOM     59  C   UNL     1      -1.514   7.656   2.071  1.00  0.00     0.049 A 
ATOM     60  C   UNL     1       0.632   5.311   6.665  1.00  0.00     0.074 A 
ATOM     61  C   UNL     1      -2.295   8.785   2.253  1.00  0.00     0.029 A 
ATOM     62  N   UNL     1      -1.065   7.282   3.330  1.00  0.00    -0.354 N 
ATOM     63  N   UNL     1       0.052   5.965   5.685  1.00  0.00    -0.248 NA
ATOM     64  C   UNL     1       0.453   5.924   7.987  1.00  0.00     0.031 C 
ATOM     65  C   UNL     1      -2.259   9.134   3.608  1.00  0.00     0.029 A 
ATOM     66  C   UNL     1      -1.527   8.175   4.287  1.00  0.00     0.049 A 
ATOM     67  H   UNL     1      -0.502   6.496   3.518  1.00  0.00     0.167 HD
ATOM     68  C   UNL     1      -0.573   7.058   6.281  1.00  0.00     0.074 A 
ATOM     69  C   UNL     1      -0.336   6.947   7.704  1.00  0.00     0.031 C 
ATOM     70  C   UNL     1      -1.270   8.071   5.703  1.00  0.00     0.034 A 
BRANCH  57  71
ATOM     71  C   UNL     1      -1.777   7.510  -0.447  1.00  0.00     0.023 A 
ATOM     72  C   UNL     1      -2.721   6.794  -1.202  1.00  0.00     0.031 A 
ATOM     73  C   UNL     1      -1.379   8.774  -0.918  1.00  0.00     0.131 A 
ATOM     74  C   UNL     1      -3.203   7.329  -2.409  1.00  0.00     0.055 A 
ATOM     75  C   UNL     1      -1.912   9.330  -2.083  1.00  0.00     0.041 A 
ATOM     76  F   UNL     1      -0.464   9.494  -0.250  1.00  0.00    -0.206 F 
ATOM     77  C   UNL     1      -2.824   8.602  -2.841  1.00  0.00     0.022 A 
BRANCH  74  78
ATOM     78  S   UNL     1      -4.253   6.291  -3.463  1.00  0.00     0.124 S 
ATOM     79  O   UNL     1      -3.382   5.144  -3.711  1.00  0.00    -0.237 OA
ATOM     80  O   UNL     1      -5.408   6.040  -2.611  1.00  0.00    -0.237 OA
ATOM     81  O   UNL     1      -4.508   7.134  -4.630  1.00  0.00    -0.744 OA
ENDBRANCH  74  78
ENDBRANCH  57  71
BRANCH  58  82
ATOM     82  C   UNL     1       2.034   3.472   7.867  1.00  0.00     0.023 A 
ATOM     83  C   UNL     1       1.225   3.079   8.945  1.00  0.00     0.031 A 
ATOM     84  C   UNL     1       3.430   3.401   8.038  1.00  0.00     0.131 A 
ATOM     85  C   UNL     1       1.816   2.688  10.159  1.00  0.00     0.055 A 
ATOM     86  C   UNL     1       4.011   2.935   9.217  1.00  0.00     0.041 A 
ATOM     87  F   UNL     1       4.258   3.788   7.053  1.00  0.00    -0.206 F 
ATOM     88  C   UNL     1       3.203   2.592  10.294  1.00  0.00     0.022 A 
BRANCH  85  89
ATOM     89  S   UNL     1       0.750   2.441  11.606  1.00  0.00     0.124 S 
ATOM     90  O   UNL     1       0.046   3.716  11.678  1.00  0.00    -0.237 OA
ATOM     91  O   UNL     1      -0.049   1.289  11.201  1.00  0.00    -0.237 OA
ATOM     92  O   UNL     1       1.698   2.190  12.689  1.00  0.00    -0.744 OA
ENDBRANCH  85  89
ENDBRANCH  58  82
BRANCH  70  93
ATOM     93  C   UNL     1      -1.851   9.109   6.634  1.00  0.00     0.023 A 
ATOM     94  C   UNL     1      -1.027   9.929   7.426  1.00  0.00     0.031 A 
ATOM     95  C   UNL     1      -3.243   9.229   6.788  1.00  0.00     0.131 A 
ATOM     96  C   UNL     1      -1.597  10.757   8.404  1.00  0.00     0.055 A 
ATOM     97  C   UNL     1      -3.807  10.114   7.709  1.00  0.00     0.041 A 
ATOM     98  F   UNL     1      -4.081   8.474   6.060  1.00  0.00    -0.206 F 
ATOM     99  C   UNL     1      -2.983  10.867   8.540  1.00  0.00     0.022 A 
BRANCH  96 100
ATOM    100  S   UNL     1      -0.499  11.570   9.598  1.00  0.00     0.124 S 
ATOM    101  O   UNL     1       0.242  10.439  10.148  1.00  0.00    -0.237 OA
ATOM    102  O   UNL     1       0.264  12.480   8.750  1.00  0.00    -0.237 OA
ATOM    103  O   UNL     1      -1.423  12.218  10.528  1.00  0.00    -0.744 OA
ENDBRANCH  96 100
ENDBRANCH  70  93
ENDBRANCH  44  45
ENDBRANCH  37  39
ENDBRANCH  36  37
ENDBRANCH  35  36
ENDBRANCH  34  35
ENDBRANCH  33  34
ENDBRANCH  32  33
ENDBRANCH   1  32
TORSDOF 24
