REMARK SMILES CC(C)CCNC(=O)[C@@H](C)Oc1ccc(N)cc1C(=O)OCCOCCOCCOC(=O)c1ccc(-c2c3nc(c(-c4cc(S(=O)(=O)[O-])ccc4F)c4ccc([nH]4)c(-c4cc(S(=O)(=O)[O-])ccc4F)c4nc(c(-c5cc(S(=O)(=O)[O-])ccc5F)c5ccc2[nH]5)C=C4)C=C3)cc1
REMARK SMILES IDX 24 1 23 2 22 3 21 4 19 5 20 6 18 7 12 8 13 9 14 10 17 11
REMARK SMILES IDX 15 12 11 13 9 14 10 15 7 16 6 17 8 19 5 20 4 21 2 22 1 23
REMARK SMILES IDX 3 24 16 25 25 28 26 29 27 30 28 31 29 32 30 33 31 34 32 35
REMARK SMILES IDX 33 36 34 37 95 38 35 39 94 40 36 41 37 42 38 43 88 44 39 45
REMARK SMILES IDX 93 46 87 47 89 48 40 49 92 50 86 51 85 52 41 54 73 55 53 56
REMARK SMILES IDX 72 57 54 58 57 59 71 60 90 61 55 62 56 63 70 65 91 66 58 67
REMARK SMILES IDX 42 68 43 69 51 70 44 71 50 72 52 73 49 74 45 75 46 76 47 77
REMARK SMILES IDX 48 78 74 79 75 80 83 81 76 82 82 83 84 84 81 85 77 86 78 87
REMARK SMILES IDX 79 88 80 89 59 90 60 91 68 92 61 93 67 94 69 95 66 96 62 97
REMARK SMILES IDX 63 98 64 99 65 100
REMARK H PARENT 6 18 16 26 16 27 89 53 57 64
REMARK Flexibility Score: inf
ROOT
ATOM      1  O   UNL     1      -8.177  -0.097  -1.392  1.00  0.00    -0.376 OA
ENDROOT
BRANCH   1   2
ATOM      2  C   UNL     1      -8.511  -1.479  -1.407  1.00  0.00     0.202 C 
BRANCH   2   3
ATOM      3  C   UNL     1      -7.560  -2.529  -2.011  1.00  0.00     0.261 C 
BRANCH   3   4
ATOM      4  O   UNL     1      -6.180  -2.431  -1.621  1.00  0.00    -0.460 OA
BRANCH   4   5
ATOM      5  C   UNL     1      -5.341  -2.045  -2.607  1.00  0.00     0.342 C 
ATOM      6  O   UNL     1      -5.658  -1.834  -3.771  1.00  0.00    -0.246 OA
BRANCH   5   7
ATOM      7  C   UNL     1      -3.977  -1.720  -2.134  1.00  0.00     0.104 A 
ATOM      8  C   UNL     1      -3.169  -2.573  -1.382  1.00  0.00     0.135 A 
ATOM      9  C   UNL     1      -1.798  -2.435  -1.553  1.00  0.00     0.049 A 
ATOM     10  C   UNL     1      -1.265  -1.264  -2.113  1.00  0.00     0.029 A 
ATOM     11  C   UNL     1      -3.444  -0.515  -2.635  1.00  0.00     0.045 A 
ATOM     12  C   UNL     1      -2.096  -0.221  -2.494  1.00  0.00     0.032 A 
BRANCH   8  13
ATOM     13  O   UNL     1      -3.688  -3.552  -0.593  1.00  0.00    -0.480 OA
BRANCH  13  14
ATOM     14  C   UNL     1      -3.252  -3.632   0.776  1.00  0.00     0.258 C 
ATOM     15  C   UNL     1      -4.095  -2.779   1.735  1.00  0.00     0.064 C 
BRANCH  14  16
ATOM     16  C   UNL     1      -1.767  -3.720   1.282  1.00  0.00     0.260 C 
ATOM     17  N   UNL     1      -1.029  -2.623   1.642  1.00  0.00    -0.353 N 
ATOM     18  H   UNL     1      -0.280  -2.797   2.256  1.00  0.00     0.163 HD
ATOM     19  O   UNL     1      -1.219  -4.823   1.406  1.00  0.00    -0.271 OA
BRANCH  17  20
ATOM     20  C   UNL     1      -1.204  -1.243   1.240  1.00  0.00     0.116 C 
BRANCH  20  21
ATOM     21  C   UNL     1      -0.556  -0.203   2.140  1.00  0.00     0.024 C 
BRANCH  21  22
ATOM     22  C   UNL     1       0.977  -0.082   1.995  1.00  0.00    -0.016 C 
ATOM     23  C   UNL     1       1.443   0.156   0.552  1.00  0.00     0.007 C 
ATOM     24  C   UNL     1       1.468   1.071   2.872  1.00  0.00     0.007 C 
ENDBRANCH  21  22
ENDBRANCH  20  21
ENDBRANCH  17  20
ENDBRANCH  14  16
ENDBRANCH  13  14
ENDBRANCH   8  13
BRANCH  12  25
ATOM     25  N   UNL     1      -1.582   1.002  -2.877  1.00  0.00    -0.399 N 
ATOM     26  H   UNL     1      -0.621   1.188  -2.767  1.00  0.00     0.156 HD
ATOM     27  H   UNL     1      -2.175   1.687  -3.261  1.00  0.00     0.156 HD
ENDBRANCH  12  25
ENDBRANCH   5   7
ENDBRANCH   4   5
ENDBRANCH   3   4
ENDBRANCH   2   3
ENDBRANCH   1   2
BRANCH   1  28
ATOM     28  C   UNL     1      -6.880   0.320  -0.991  1.00  0.00     0.188 C 
BRANCH  28  29
ATOM     29  C   UNL     1      -6.237  -0.293   0.268  1.00  0.00     0.188 C 
BRANCH  29  30
ATOM     30  O   UNL     1      -7.005  -1.319   0.856  1.00  0.00    -0.376 OA
BRANCH  30  31
ATOM     31  C   UNL     1      -7.718  -1.041   2.045  1.00  0.00     0.202 C 
BRANCH  31  32
ATOM     32  C   UNL     1      -8.508   0.266   2.246  1.00  0.00     0.261 C 
BRANCH  32  33
ATOM     33  O   UNL     1      -8.042   1.448   1.587  1.00  0.00    -0.460 OA
BRANCH  33  34
ATOM     34  C   UNL     1      -7.042   2.142   2.184  1.00  0.00     0.338 C 
ATOM     35  O   UNL     1      -6.439   1.831   3.188  1.00  0.00    -0.246 OA
BRANCH  34  36
ATOM     36  C   UNL     1      -6.683   3.254   1.274  1.00  0.00     0.060 A 
ATOM     37  C   UNL     1      -5.409   3.289   0.688  1.00  0.00     0.016 A 
ATOM     38  C   UNL     1      -7.621   4.247   0.989  1.00  0.00     0.016 A 
ATOM     39  C   UNL     1      -5.063   4.336  -0.171  1.00  0.00     0.010 A 
ATOM     40  C   UNL     1      -7.266   5.302   0.147  1.00  0.00     0.010 A 
ATOM     41  C   UNL     1      -5.978   5.368  -0.416  1.00  0.00    -0.014 A 
BRANCH  41  42
ATOM     42  C   UNL     1      -5.557   6.626  -1.080  1.00  0.00     0.031 A 
ATOM     43  C   UNL     1      -5.255   7.812  -0.208  1.00  0.00     0.074 A 
ATOM     44  C   UNL     1      -5.499   6.738  -2.418  1.00  0.00     0.049 A 
ATOM     45  N   UNL     1      -5.064   9.063  -0.533  1.00  0.00    -0.248 NA
ATOM     46  C   UNL     1      -5.179   7.541   1.236  1.00  0.00     0.031 C 
ATOM     47  C   UNL     1      -5.717   5.650  -3.368  1.00  0.00     0.029 A 
ATOM     48  N   UNL     1      -5.268   7.838  -3.209  1.00  0.00    -0.354 N 
ATOM     49  C   UNL     1      -4.868   9.737   0.668  1.00  0.00     0.074 A 
ATOM     50  C   UNL     1      -5.000   8.757   1.726  1.00  0.00     0.031 C 
ATOM     51  C   UNL     1      -5.642   6.143  -4.616  1.00  0.00     0.029 A 
ATOM     52  C   UNL     1      -5.428   7.589  -4.552  1.00  0.00     0.049 A 
ATOM     53  H   UNL     1      -5.014   8.718  -2.849  1.00  0.00     0.167 HD
ATOM     54  C   UNL     1      -4.601  11.051   0.868  1.00  0.00     0.034 A 
ATOM     55  C   UNL     1      -5.450   8.438  -5.601  1.00  0.00     0.034 A 
ATOM     56  C   UNL     1      -4.503  12.015  -0.201  1.00  0.00     0.049 A 
ATOM     57  C   UNL     1      -5.257   9.918  -5.357  1.00  0.00     0.074 A 
ATOM     58  C   UNL     1      -4.235  13.370  -0.119  1.00  0.00     0.029 A 
ATOM     59  N   UNL     1      -4.692  11.729  -1.549  1.00  0.00    -0.354 N 
ATOM     60  N   UNL     1      -5.081  10.553  -4.221  1.00  0.00    -0.248 NA
ATOM     61  C   UNL     1      -5.264  10.794  -6.537  1.00  0.00     0.031 C 
ATOM     62  C   UNL     1      -4.347  13.916  -1.402  1.00  0.00     0.029 A 
ATOM     63  C   UNL     1      -4.581  12.888  -2.302  1.00  0.00     0.049 A 
ATOM     64  H   UNL     1      -4.878  10.835  -1.915  1.00  0.00     0.167 HD
ATOM     65  C   UNL     1      -4.914  11.896  -4.555  1.00  0.00     0.074 A 
ATOM     66  C   UNL     1      -5.014  11.979  -5.997  1.00  0.00     0.031 C 
ATOM     67  C   UNL     1      -4.683  12.961  -3.743  1.00  0.00     0.034 A 
BRANCH  54  68
ATOM     68  C   UNL     1      -4.469  11.516   2.300  1.00  0.00     0.023 A 
ATOM     69  C   UNL     1      -3.484  10.996   3.158  1.00  0.00     0.031 A 
ATOM     70  C   UNL     1      -5.383  12.439   2.836  1.00  0.00     0.131 A 
ATOM     71  C   UNL     1      -3.502  11.320   4.522  1.00  0.00     0.055 A 
ATOM     72  C   UNL     1      -5.332  12.836   4.174  1.00  0.00     0.041 A 
ATOM     73  F   UNL     1      -6.364  12.953   2.076  1.00  0.00    -0.206 F 
ATOM     74  C   UNL     1      -4.401  12.259   5.032  1.00  0.00     0.022 A 
BRANCH  71  75
ATOM     75  S   UNL     1      -2.465  10.348   5.651  1.00  0.00     0.124 S 
ATOM     76  O   UNL     1      -2.920   8.988   5.372  1.00  0.00    -0.237 OA
ATOM     77  O   UNL     1      -1.117  10.674   5.201  1.00  0.00    -0.237 OA
ATOM     78  O   UNL     1      -2.825  10.858   6.972  1.00  0.00    -0.744 OA
ENDBRANCH  71  75
ENDBRANCH  54  68
BRANCH  55  79
ATOM     79  C   UNL     1      -5.717   7.921  -6.975  1.00  0.00     0.023 A 
ATOM     80  C   UNL     1      -4.746   8.004  -7.986  1.00  0.00     0.031 A 
ATOM     81  C   UNL     1      -6.964   7.358  -7.304  1.00  0.00     0.131 A 
ATOM     82  C   UNL     1      -5.048   7.560  -9.283  1.00  0.00     0.055 A 
ATOM     83  C   UNL     1      -7.240   6.868  -8.582  1.00  0.00     0.041 A 
ATOM     84  F   UNL     1      -7.930   7.261  -6.377  1.00  0.00    -0.206 F 
ATOM     85  C   UNL     1      -6.281   6.976  -9.583  1.00  0.00     0.022 A 
BRANCH  82  86
ATOM     86  S   UNL     1      -3.825   7.821 -10.598  1.00  0.00     0.124 S 
ATOM     87  O   UNL     1      -3.695   9.274 -10.595  1.00  0.00    -0.237 OA
ATOM     88  O   UNL     1      -2.677   7.074 -10.097  1.00  0.00    -0.237 OA
ATOM     89  O   UNL     1      -4.469   7.253 -11.780  1.00  0.00    -0.744 OA
ENDBRANCH  82  86
ENDBRANCH  55  79
BRANCH  67  90
ATOM     90  C   UNL     1      -4.440  14.303  -4.396  1.00  0.00     0.023 A 
ATOM     91  C   UNL     1      -5.443  14.994  -5.098  1.00  0.00     0.031 A 
ATOM     92  C   UNL     1      -3.175  14.911  -4.285  1.00  0.00     0.131 A 
ATOM     93  C   UNL     1      -5.151  16.231  -5.695  1.00  0.00     0.055 A 
ATOM     94  C   UNL     1      -2.910  16.169  -4.825  1.00  0.00     0.041 A 
ATOM     95  F   UNL     1      -2.176  14.295  -3.631  1.00  0.00    -0.206 F 
ATOM     96  C   UNL     1      -3.899  16.833  -5.544  1.00  0.00     0.022 A 
BRANCH  93  97
ATOM     97  S   UNL     1      -6.406  17.015  -6.746  1.00  0.00     0.124 S 
ATOM     98  O   UNL     1      -6.634  15.991  -7.760  1.00  0.00    -0.237 OA
ATOM     99  O   UNL     1      -7.502  17.241  -5.809  1.00  0.00    -0.237 OA
ATOM    100  O   UNL     1      -5.743  18.226  -7.227  1.00  0.00    -0.744 OA
ENDBRANCH  93  97
ENDBRANCH  67  90
ENDBRANCH  41  42
ENDBRANCH  34  36
ENDBRANCH  33  34
ENDBRANCH  32  33
ENDBRANCH  31  32
ENDBRANCH  30  31
ENDBRANCH  29  30
ENDBRANCH  28  29
ENDBRANCH   1  28
TORSDOF 27
