REMARK SMILES CC1(CNS(=O)(=O)Cc2ccc(C(=O)OCCOCCOCCOC(=O)c3ccc(-c4c5nc(c(-c6cc(S(=O)(=O)[O-])ccc6F)c6ccc([nH]6)c(-c6cc(S(=O)(=O)[O-])ccc6F)c6nc(c(-c7cc(S(=O)(=O)[O-])ccc7F)c7ccc4[nH]7)C=C6)C=C5)cc3)cc2)COC1
REMARK SMILES IDX 19 1 18 2 17 3 16 4 15 5 13 6 14 7 12 8 9 9 10 10 91 11
REMARK SMILES IDX 11 12 90 13 8 14 5 15 6 16 7 17 4 18 3 20 2 21 1 22 92 23
REMARK SMILES IDX 94 24 93 25 20 26 21 27 22 28 23 29 24 30 25 31 26 32 27 33
REMARK SMILES IDX 28 34 89 35 29 36 88 37 30 38 31 39 32 40 82 41 33 42 87 43
REMARK SMILES IDX 81 44 83 45 34 46 86 47 80 48 79 49 35 51 67 52 47 53 66 54
REMARK SMILES IDX 48 55 51 56 65 57 84 58 49 59 50 60 64 62 85 63 52 64 36 65
REMARK SMILES IDX 37 66 45 67 38 68 44 69 46 70 43 71 39 72 40 73 41 74 42 75
REMARK SMILES IDX 68 76 69 77 77 78 70 79 76 80 78 81 75 82 71 83 72 84 73 85
REMARK SMILES IDX 74 86 53 87 54 88 62 89 55 90 61 91 63 92 60 93 56 94 57 95
REMARK SMILES IDX 58 96 59 97
REMARK H PARENT 4 19 83 50 51 61
REMARK Flexibility Score: inf
ROOT
ATOM      1  C   UNL     1       1.337  -1.892  -5.790  1.00  0.00     0.188 C 
ENDROOT
BRANCH   1   2
ATOM      2  O   UNL     1       1.751  -1.835  -7.146  1.00  0.00    -0.376 OA
BRANCH   2   3
ATOM      3  C   UNL     1       1.405  -0.724  -7.959  1.00  0.00     0.202 C 
BRANCH   3   4
ATOM      4  C   UNL     1       0.014  -0.065  -7.916  1.00  0.00     0.261 C 
BRANCH   4   5
ATOM      5  O   UNL     1      -0.559   0.121  -6.616  1.00  0.00    -0.460 OA
BRANCH   5   6
ATOM      6  C   UNL     1      -1.630  -0.661  -6.339  1.00  0.00     0.338 C 
ATOM      7  O   UNL     1      -2.172  -1.451  -7.099  1.00  0.00    -0.246 OA
BRANCH   6   8
ATOM      8  C   UNL     1      -1.980  -0.567  -4.905  1.00  0.00     0.060 A 
ATOM      9  C   UNL     1      -2.828  -0.477  -2.211  1.00  0.00    -0.032 A 
ATOM     10  C   UNL     1      -2.700  -1.702  -2.896  1.00  0.00     0.006 A 
ATOM     11  C   UNL     1      -2.455   0.693  -2.891  1.00  0.00     0.006 A 
ATOM     12  C   UNL     1      -2.291  -1.748  -4.229  1.00  0.00     0.016 A 
ATOM     13  C   UNL     1      -2.020   0.651  -4.224  1.00  0.00     0.016 A 
BRANCH   9  14
ATOM     14  C   UNL     1      -3.535  -0.535  -0.873  1.00  0.00     0.189 C 
BRANCH  14  15
ATOM     15  S   UNL     1      -3.311   0.845   0.246  1.00  0.00     0.215 S 
ATOM     16  O   UNL     1      -3.881   0.495   1.530  1.00  0.00    -0.212 OA
ATOM     17  O   UNL     1      -3.699   2.084  -0.396  1.00  0.00    -0.212 OA
BRANCH  15  18
ATOM     18  N   UNL     1      -1.644   0.943   0.465  1.00  0.00    -0.214 NA
ATOM     19  H   UNL     1      -1.207   0.864  -0.454  1.00  0.00     0.141 HD
BRANCH  18  20
ATOM     20  C   UNL     1      -1.022  -0.073   1.344  1.00  0.00     0.110 C 
BRANCH  20  21
ATOM     21  C   UNL     1       0.504   0.049   1.357  1.00  0.00     0.028 C 
ATOM     22  C   UNL     1       1.140  -0.072  -0.020  1.00  0.00     0.018 C 
ATOM     23  C   UNL     1       1.144  -0.844   2.443  1.00  0.00     0.170 C 
ATOM     24  C   UNL     1       1.030   1.197   2.240  1.00  0.00     0.170 C 
ATOM     25  O   UNL     1       1.209   0.287   3.356  1.00  0.00    -0.380 OA
ENDBRANCH  20  21
ENDBRANCH  18  20
ENDBRANCH  15  18
ENDBRANCH  14  15
ENDBRANCH   9  14
ENDBRANCH   6   8
ENDBRANCH   5   6
ENDBRANCH   4   5
ENDBRANCH   3   4
ENDBRANCH   2   3
ENDBRANCH   1   2
BRANCH   1  26
ATOM     26  C   UNL     1       1.636  -0.711  -4.845  1.00  0.00     0.188 C 
BRANCH  26  27
ATOM     27  O   UNL     1       2.158   0.434  -5.476  1.00  0.00    -0.376 OA
BRANCH  27  28
ATOM     28  C   UNL     1       3.561   0.601  -5.583  1.00  0.00     0.202 C 
BRANCH  28  29
ATOM     29  C   UNL     1       4.623  -0.515  -5.464  1.00  0.00     0.261 C 
BRANCH  29  30
ATOM     30  O   UNL     1       4.216  -1.824  -5.060  1.00  0.00    -0.460 OA
BRANCH  30  31
ATOM     31  C   UNL     1       4.349  -2.106  -3.741  1.00  0.00     0.338 C 
ATOM     32  O   UNL     1       4.714  -1.342  -2.865  1.00  0.00    -0.246 OA
BRANCH  31  33
ATOM     33  C   UNL     1       3.780  -3.445  -3.483  1.00  0.00     0.060 A 
ATOM     34  C   UNL     1       2.639  -3.540  -2.676  1.00  0.00     0.016 A 
ATOM     35  C   UNL     1       4.383  -4.595  -3.996  1.00  0.00     0.016 A 
ATOM     36  C   UNL     1       2.123  -4.791  -2.342  1.00  0.00     0.010 A 
ATOM     37  C   UNL     1       3.873  -5.851  -3.646  1.00  0.00     0.010 A 
ATOM     38  C   UNL     1       2.765  -5.955  -2.784  1.00  0.00    -0.014 A 
BRANCH  38  39
ATOM     39  C   UNL     1       2.400  -7.259  -2.171  1.00  0.00     0.031 A 
ATOM     40  C   UNL     1       3.268  -7.796  -1.063  1.00  0.00     0.074 A 
ATOM     41  C   UNL     1       1.292  -7.925  -2.544  1.00  0.00     0.049 A 
ATOM     42  N   UNL     1       3.155  -8.904  -0.377  1.00  0.00    -0.248 NA
ATOM     43  C   UNL     1       4.422  -6.967  -0.682  1.00  0.00     0.031 C 
ATOM     44  C   UNL     1       0.348  -7.486  -3.570  1.00  0.00     0.029 A 
ATOM     45  N   UNL     1       0.774  -9.115  -2.096  1.00  0.00    -0.354 N 
ATOM     46  C   UNL     1       4.224  -8.908   0.514  1.00  0.00     0.074 A 
ATOM     47  C   UNL     1       4.997  -7.713   0.247  1.00  0.00     0.031 C 
ATOM     48  C   UNL     1      -0.635  -8.398  -3.675  1.00  0.00     0.029 A 
ATOM     49  C   UNL     1      -0.371  -9.502  -2.753  1.00  0.00     0.049 A 
ATOM     50  H   UNL     1       1.184  -9.643  -1.373  1.00  0.00     0.167 HD
ATOM     51  C   UNL     1       4.527  -9.816   1.475  1.00  0.00     0.034 A 
ATOM     52  C   UNL     1      -1.107 -10.627  -2.637  1.00  0.00     0.034 A 
ATOM     53  C   UNL     1       3.758 -11.012   1.719  1.00  0.00     0.049 A 
ATOM     54  C   UNL     1      -0.699 -11.669  -1.620  1.00  0.00     0.074 A 
ATOM     55  C   UNL     1       3.973 -11.996   2.668  1.00  0.00     0.029 A 
ATOM     56  N   UNL     1       2.633 -11.398   0.999  1.00  0.00    -0.354 N 
ATOM     57  N   UNL     1       0.306 -11.655  -0.774  1.00  0.00    -0.248 NA
ATOM     58  C   UNL     1      -1.539 -12.870  -1.533  1.00  0.00     0.031 C 
ATOM     59  C   UNL     1       3.031 -13.012   2.469  1.00  0.00     0.029 A 
ATOM     60  C   UNL     1       2.166 -12.619   1.461  1.00  0.00     0.049 A 
ATOM     61  H   UNL     1       2.227 -10.879   0.268  1.00  0.00     0.167 HD
ATOM     62  C   UNL     1       0.195 -12.830  -0.031  1.00  0.00     0.074 A 
ATOM     63  C   UNL     1      -0.988 -13.512  -0.515  1.00  0.00     0.031 C 
ATOM     64  C   UNL     1       0.992 -13.301   0.964  1.00  0.00     0.034 A 
BRANCH  51  65
ATOM     65  C   UNL     1       5.776  -9.571   2.289  1.00  0.00     0.023 A 
ATOM     66  C   UNL     1       5.915  -8.441   3.114  1.00  0.00     0.031 A 
ATOM     67  C   UNL     1       6.861 -10.462   2.211  1.00  0.00     0.131 A 
ATOM     68  C   UNL     1       7.134  -8.191   3.762  1.00  0.00     0.055 A 
ATOM     69  C   UNL     1       8.040 -10.254   2.929  1.00  0.00     0.041 A 
ATOM     70  F   UNL     1       6.801 -11.545   1.419  1.00  0.00    -0.206 F 
ATOM     71  C   UNL     1       8.188  -9.104   3.698  1.00  0.00     0.022 A 
BRANCH  68  72
ATOM     72  S   UNL     1       7.377  -6.578   4.557  1.00  0.00     0.124 S 
ATOM     73  O   UNL     1       7.151  -5.663   3.440  1.00  0.00    -0.237 OA
ATOM     74  O   UNL     1       6.354  -6.582   5.596  1.00  0.00    -0.237 OA
ATOM     75  O   UNL     1       8.756  -6.637   5.036  1.00  0.00    -0.744 OA
ENDBRANCH  68  72
ENDBRANCH  51  65
BRANCH  52  76
ATOM     76  C   UNL     1      -2.287 -10.859  -3.522  1.00  0.00     0.023 A 
ATOM     77  C   UNL     1      -3.579 -11.004  -2.993  1.00  0.00     0.031 A 
ATOM     78  C   UNL     1      -2.125 -11.011  -4.911  1.00  0.00     0.131 A 
ATOM     79  C   UNL     1      -4.648 -11.345  -3.837  1.00  0.00     0.055 A 
ATOM     80  C   UNL     1      -3.202 -11.290  -5.755  1.00  0.00     0.041 A 
ATOM     81  F   UNL     1      -0.911 -10.890  -5.471  1.00  0.00    -0.206 F 
ATOM     82  C   UNL     1      -4.471 -11.473  -5.216  1.00  0.00     0.022 A 
BRANCH  79  83
ATOM     83  S   UNL     1      -6.261 -11.714  -3.091  1.00  0.00     0.124 S 
ATOM     84  O   UNL     1      -5.928 -12.818  -2.198  1.00  0.00    -0.237 OA
ATOM     85  O   UNL     1      -6.593 -10.447  -2.448  1.00  0.00    -0.237 OA
ATOM     86  O   UNL     1      -7.094 -12.066  -4.239  1.00  0.00    -0.744 OA
ENDBRANCH  79  83
ENDBRANCH  52  76
BRANCH  64  87
ATOM     87  C   UNL     1       0.573 -14.593   1.631  1.00  0.00     0.023 A 
ATOM     88  C   UNL     1       0.501 -15.807   0.923  1.00  0.00     0.031 A 
ATOM     89  C   UNL     1       0.204 -14.602   2.988  1.00  0.00     0.131 A 
ATOM     90  C   UNL     1      -0.011 -16.954   1.550  1.00  0.00     0.055 A 
ATOM     91  C   UNL     1      -0.227 -15.766   3.628  1.00  0.00     0.041 A 
ATOM     92  F   UNL     1       0.248 -13.476   3.718  1.00  0.00    -0.206 F 
ATOM     93  C   UNL     1      -0.357 -16.946   2.904  1.00  0.00     0.022 A 
BRANCH  90  94
ATOM     94  S   UNL     1      -0.355 -18.418   0.535  1.00  0.00     0.124 S 
ATOM     95  O   UNL     1      -1.234 -17.873  -0.494  1.00  0.00    -0.237 OA
ATOM     96  O   UNL     1       0.979 -18.810   0.092  1.00  0.00    -0.237 OA
ATOM     97  O   UNL     1      -0.994 -19.341   1.472  1.00  0.00    -0.744 OA
ENDBRANCH  90  94
ENDBRANCH  64  87
ENDBRANCH  38  39
ENDBRANCH  31  33
ENDBRANCH  30  31
ENDBRANCH  29  30
ENDBRANCH  28  29
ENDBRANCH  27  28
ENDBRANCH  26  27
ENDBRANCH   1  26
TORSDOF 25
