REMARK SMILES CC1(C)CC[C@@]2(C(=O)OCCOCCOCCOC(=O)c3ccc(-c4c5nc(c(-c6cc(S(=O)(=O)[O-])ccc6F)c6ccc([nH]6)c(-c6cc(S(=O)(=O)[O-])ccc6F)c6nc(c(-c7cc(S(=O)(=O)[O-])ccc7F)c7ccc4[nH]7)C=C6)C=C5)cc3)CC[C@@]3(C)C(=CC[C@H]4[C@@]5(C)CC[C@H](O)C(C)(C)[C@@H]5CC[C@]43C)[C@@H]2C1
REMARK SMILES IDX 14 1 13 2 12 3 11 4 10 5 9 6 7 7 8 8 6 9 1 10 2 11 3 12 4 13
REMARK SMILES IDX 107 14 5 15 106 16 88 17 84 18 86 19 89 20 85 21 87 22
REMARK SMILES IDX 104 23 90 24 91 25 103 26 105 27 92 28 102 29 93 30 94 31
REMARK SMILES IDX 101 32 95 33 98 34 96 35 99 36 100 37 97 38 15 40 16 41
REMARK SMILES IDX 17 42 18 43 19 44 20 45 21 46 22 47 83 48 23 49 82 50 24 51
REMARK SMILES IDX 25 52 26 53 76 54 27 55 81 56 75 57 77 58 28 59 80 60 74 61
REMARK SMILES IDX 73 62 29 64 61 65 41 66 60 67 42 68 45 69 59 70 78 71 43 72
REMARK SMILES IDX 44 73 58 75 79 76 46 77 30 78 31 79 39 80 32 81 38 82 40 83
REMARK SMILES IDX 37 84 33 85 34 86 35 87 36 88 62 89 63 90 71 91 64 92 70 93
REMARK SMILES IDX 72 94 69 95 65 96 66 97 67 98 68 99 47 100 48 101 56 102
REMARK SMILES IDX 49 103 55 104 57 105 54 106 50 107 51 108 52 109 53 110
REMARK H PARENT 97 39 77 63 45 74
REMARK Flexibility Score: inf
ROOT
ATOM      1  C   UNL     1      -1.933  -5.529  -0.455  1.00  0.00     0.188 C 
ENDROOT
BRANCH   1   2
ATOM      2  C   UNL     1      -0.455  -5.135  -0.433  1.00  0.00     0.188 C 
BRANCH   2   3
ATOM      3  O   UNL     1       0.155  -5.456   0.799  1.00  0.00    -0.376 OA
BRANCH   3   4
ATOM      4  C   UNL     1      -0.473  -4.853   1.914  1.00  0.00     0.202 C 
BRANCH   4   5
ATOM      5  C   UNL     1      -0.719  -3.344   1.847  1.00  0.00     0.261 C 
BRANCH   5   6
ATOM      6  O   UNL     1       0.307  -2.708   1.091  1.00  0.00    -0.463 OA
BRANCH   6   7
ATOM      7  C   UNL     1       1.525  -3.133   1.424  1.00  0.00     0.312 C 
ATOM      8  O   UNL     1       1.688  -3.856   2.395  1.00  0.00    -0.252 OA
BRANCH   7   9
ATOM      9  C   UNL     1       2.691  -2.557   0.709  1.00  0.00     0.075 C 
ATOM     10  C   UNL     1       1.337   1.314  -0.568  1.00  0.00     0.011 C 
ATOM     11  C   UNL     1       1.089  -0.016   0.178  1.00  0.00    -0.035 C 
ATOM     12  C   UNL     1      -0.370   0.176   0.742  1.00  0.00     0.011 C 
ATOM     13  C   UNL     1       1.121  -1.151  -0.869  1.00  0.00     0.007 C 
ATOM     14  C   UNL     1       2.087  -0.174   1.402  1.00  0.00     0.015 C 
ATOM     15  C   UNL     1       2.306  -2.130  -0.737  1.00  0.00     0.020 C 
ATOM     16  C   UNL     1       3.129  -1.392   1.610  1.00  0.00     0.033 C 
ATOM     17  C   UNL     1       3.289  -1.999   3.132  1.00  0.00    -0.063 C 
ATOM     18  C   UNL     1       3.800  -3.662   0.754  1.00  0.00     0.020 C 
ATOM     19  C   UNL     1       4.090  -3.404   3.501  1.00  0.00    -0.006 C 
ATOM     20  C   UNL     1       2.287  -1.631   3.959  1.00  0.00    -0.027 C 
ATOM     21  C   UNL     1       4.103  -4.335   2.177  1.00  0.00     0.013 C 
ATOM     22  C   UNL     1       5.611  -3.092   3.598  1.00  0.00     0.017 C 
ATOM     23  C   UNL     1       3.524  -3.924   5.176  1.00  0.00    -0.020 C 
ATOM     24  C   UNL     1       1.458  -2.567   4.805  1.00  0.00     0.032 C 
ATOM     25  C   UNL     1       1.990  -3.983   5.162  1.00  0.00     0.006 C 
ATOM     26  C   UNL     1       3.803  -5.141   6.272  1.00  0.00     0.008 C 
ATOM     27  C   UNL     1       4.080  -2.722   6.073  1.00  0.00     0.012 C 
ATOM     28  C   UNL     1       1.323  -5.549   4.860  1.00  0.00    -0.025 C 
ATOM     29  C   UNL     1       2.481  -5.856   7.053  1.00  0.00     0.005 C 
ATOM     30  C   UNL     1      -0.205  -5.363   4.959  1.00  0.00     0.012 C 
ATOM     31  C   UNL     1       1.908  -6.408   3.662  1.00  0.00     0.010 C 
ATOM     32  C   UNL     1       1.722  -6.598   5.974  1.00  0.00     0.003 C 
ATOM     33  C   UNL     1       1.467  -7.891   3.522  1.00  0.00     0.033 C 
ATOM     34  C   UNL     1       0.893  -8.004   6.014  1.00  0.00    -0.006 C 
ATOM     35  C   UNL     1       1.515  -8.768   4.791  1.00  0.00     0.120 C 
ATOM     36  C   UNL     1      -0.658  -8.090   5.823  1.00  0.00     0.014 C 
ATOM     37  C   UNL     1       1.133  -8.801   7.308  1.00  0.00     0.014 C 
BRANCH  35  38
ATOM     38  O   UNL     1       0.897 -10.032   4.557  1.00  0.00    -0.393 OA
ATOM     39  H   UNL     1      -0.036  -9.899   4.329  1.00  0.00     0.210 HD
ENDBRANCH  35  38
ENDBRANCH   7   9
ENDBRANCH   6   7
ENDBRANCH   5   6
ENDBRANCH   4   5
ENDBRANCH   3   4
ENDBRANCH   2   3
ENDBRANCH   1   2
BRANCH   1  40
ATOM     40  O   UNL     1      -2.842  -4.791   0.356  1.00  0.00    -0.376 OA
BRANCH  40  41
ATOM     41  C   UNL     1      -3.353  -5.305   1.599  1.00  0.00     0.202 C 
BRANCH  41  42
ATOM     42  C   UNL     1      -3.346  -6.809   2.018  1.00  0.00     0.261 C 
BRANCH  42  43
ATOM     43  O   UNL     1      -2.123  -7.573   1.844  1.00  0.00    -0.460 OA
BRANCH  43  44
ATOM     44  C   UNL     1      -2.125  -8.486   0.825  1.00  0.00     0.338 C 
ATOM     45  O   UNL     1      -3.074  -8.721   0.095  1.00  0.00    -0.246 OA
BRANCH  44  46
ATOM     46  C   UNL     1      -0.746  -8.964   0.530  1.00  0.00     0.060 A 
ATOM     47  C   UNL     1      -0.091  -8.526  -0.630  1.00  0.00     0.016 A 
ATOM     48  C   UNL     1      -0.129  -9.923   1.325  1.00  0.00     0.016 A 
ATOM     49  C   UNL     1       1.194  -8.981  -0.961  1.00  0.00     0.010 A 
ATOM     50  C   UNL     1       1.154 -10.400   0.989  1.00  0.00     0.010 A 
ATOM     51  C   UNL     1       1.821  -9.953  -0.173  1.00  0.00    -0.014 A 
BRANCH  51  52
ATOM     52  C   UNL     1       2.938 -10.758  -0.766  1.00  0.00     0.031 A 
ATOM     53  C   UNL     1       2.545 -12.047  -1.451  1.00  0.00     0.074 A 
ATOM     54  C   UNL     1       4.235 -10.385  -0.776  1.00  0.00     0.049 A 
ATOM     55  N   UNL     1       3.288 -12.954  -2.032  1.00  0.00    -0.248 NA
ATOM     56  C   UNL     1       1.104 -12.351  -1.472  1.00  0.00     0.031 C 
ATOM     57  C   UNL     1       4.777  -9.149  -0.216  1.00  0.00     0.029 A 
ATOM     58  N   UNL     1       5.346 -11.029  -1.288  1.00  0.00    -0.354 N 
ATOM     59  C   UNL     1       2.407 -13.935  -2.474  1.00  0.00     0.074 A 
ATOM     60  C   UNL     1       1.084 -13.540  -2.047  1.00  0.00     0.031 C 
ATOM     61  C   UNL     1       6.112  -9.130  -0.407  1.00  0.00     0.029 A 
ATOM     62  C   UNL     1       6.535 -10.363  -1.077  1.00  0.00     0.049 A 
ATOM     63  H   UNL     1       5.292 -11.890  -1.762  1.00  0.00     0.167 HD
ATOM     64  C   UNL     1       2.660 -15.059  -3.186  1.00  0.00     0.034 A 
ATOM     65  C   UNL     1       7.811 -10.713  -1.371  1.00  0.00     0.034 A 
ATOM     66  C   UNL     1       3.972 -15.469  -3.611  1.00  0.00     0.049 A 
ATOM     67  C   UNL     1       8.086 -12.036  -2.069  1.00  0.00     0.074 A 
ATOM     68  C   UNL     1       4.323 -16.582  -4.353  1.00  0.00     0.029 A 
ATOM     69  N   UNL     1       5.150 -14.800  -3.314  1.00  0.00    -0.354 N 
ATOM     70  N   UNL     1       7.236 -12.938  -2.507  1.00  0.00    -0.248 NA
ATOM     71  C   UNL     1       9.495 -12.386  -2.315  1.00  0.00     0.031 C 
ATOM     72  C   UNL     1       5.717 -16.636  -4.428  1.00  0.00     0.029 A 
ATOM     73  C   UNL     1       6.233 -15.504  -3.818  1.00  0.00     0.049 A 
ATOM     74  H   UNL     1       5.209 -13.950  -2.820  1.00  0.00     0.167 HD
ATOM     75  C   UNL     1       8.009 -13.936  -3.106  1.00  0.00     0.074 A 
ATOM     76  C   UNL     1       9.388 -13.520  -2.991  1.00  0.00     0.031 C 
ATOM     77  C   UNL     1       7.611 -15.092  -3.699  1.00  0.00     0.034 A 
BRANCH  64  78
ATOM     78  C   UNL     1       1.485 -15.952  -3.499  1.00  0.00     0.023 A 
ATOM     79  C   UNL     1       0.419 -15.517  -4.305  1.00  0.00     0.031 A 
ATOM     80  C   UNL     1       1.410 -17.240  -2.941  1.00  0.00     0.131 A 
ATOM     81  C   UNL     1      -0.712 -16.330  -4.463  1.00  0.00     0.055 A 
ATOM     82  C   UNL     1       0.323 -18.080  -3.179  1.00  0.00     0.041 A 
ATOM     83  F   UNL     1       2.386 -17.696  -2.140  1.00  0.00    -0.206 F 
ATOM     84  C   UNL     1      -0.755 -17.620  -3.931  1.00  0.00     0.022 A 
BRANCH  81  85
ATOM     85  S   UNL     1      -2.189 -15.614  -5.233  1.00  0.00     0.124 S 
ATOM     86  O   UNL     1      -2.464 -14.483  -4.350  1.00  0.00    -0.237 OA
ATOM     87  O   UNL     1      -1.717 -15.278  -6.571  1.00  0.00    -0.237 OA
ATOM     88  O   UNL     1      -3.168 -16.698  -5.169  1.00  0.00    -0.744 OA
ENDBRANCH  81  85
ENDBRANCH  64  78
BRANCH  65  89
ATOM     89  C   UNL     1       8.970  -9.849  -0.965  1.00  0.00     0.023 A 
ATOM     90  C   UNL     1       9.876  -9.333  -1.911  1.00  0.00     0.031 A 
ATOM     91  C   UNL     1       9.257  -9.628   0.395  1.00  0.00     0.131 A 
ATOM     92  C   UNL     1      11.044  -8.674  -1.484  1.00  0.00     0.055 A 
ATOM     93  C   UNL     1      10.386  -8.918   0.811  1.00  0.00     0.041 A 
ATOM     94  F   UNL     1       8.447 -10.116   1.348  1.00  0.00    -0.206 F 
ATOM     95  C   UNL     1      11.296  -8.448  -0.130  1.00  0.00     0.022 A 
BRANCH  92  96
ATOM     96  S   UNL     1      12.296  -8.212  -2.719  1.00  0.00     0.124 S 
ATOM     97  O   UNL     1      12.628  -9.506  -3.303  1.00  0.00    -0.237 OA
ATOM     98  O   UNL     1      11.555  -7.292  -3.574  1.00  0.00    -0.237 OA
ATOM     99  O   UNL     1      13.355  -7.598  -1.919  1.00  0.00    -0.744 OA
ENDBRANCH  92  96
ENDBRANCH  65  89
BRANCH  77 100
ATOM    100  C   UNL     1       8.672 -15.977  -4.316  1.00  0.00     0.023 A 
ATOM    101  C   UNL     1       9.652 -16.621  -3.539  1.00  0.00     0.031 A 
ATOM    102  C   UNL     1       8.685 -16.205  -5.706  1.00  0.00     0.131 A 
ATOM    103  C   UNL     1      10.627 -17.419  -4.159  1.00  0.00     0.055 A 
ATOM    104  C   UNL     1       9.615 -17.053  -6.308  1.00  0.00     0.041 A 
ATOM    105  F   UNL     1       7.777 -15.617  -6.503  1.00  0.00    -0.206 F 
ATOM    106  C   UNL     1      10.601 -17.657  -5.535  1.00  0.00     0.022 A 
BRANCH 103 107
ATOM    107  S   UNL     1      11.989 -18.075  -3.155  1.00  0.00     0.124 S 
ATOM    108  O   UNL     1      12.579 -16.856  -2.611  1.00  0.00    -0.237 OA
ATOM    109  O   UNL     1      11.290 -18.927  -2.198  1.00  0.00    -0.237 OA
ATOM    110  O   UNL     1      12.819 -18.786  -4.125  1.00  0.00    -0.744 OA
ENDBRANCH 103 107
ENDBRANCH  77 100
ENDBRANCH  51  52
ENDBRANCH  44  46
ENDBRANCH  43  44
ENDBRANCH  42  43
ENDBRANCH  41  42
ENDBRANCH  40  41
ENDBRANCH   1  40
TORSDOF 21
