REMARK SMILES O=C(C[C@H](C(=O)OCCOCCOCCOC(=O)c1ccc(-c2c3nc(c(-c4cc(S(=O)(=O)[O-])ccc4F)c4ccc([nH]4)c(-c4cc(S(=O)(=O)[O-])ccc4F)c4nc(c(-c5cc(S(=O)(=O)[O-])ccc5F)c5ccc2[nH]5)C=C4)C=C3)cc1)c1ccccc1)Nc1ccc(Cl)cc1Cl
REMARK SMILES IDX 11 1 10 2 9 3 8 4 7 5 5 6 6 7 4 8 3 9 2 10 1 11 88 12 89 14
REMARK SMILES IDX 90 15 95 16 91 17 94 18 96 19 92 20 93 21 82 22 83 23 87 24
REMARK SMILES IDX 84 25 86 26 85 27 12 28 13 29 14 30 15 31 16 32 17 33 18 34
REMARK SMILES IDX 19 35 20 36 81 37 21 38 80 39 22 40 23 41 24 42 74 43 25 44
REMARK SMILES IDX 79 45 73 46 75 47 26 48 78 49 72 50 71 51 27 53 59 54 39 55
REMARK SMILES IDX 58 56 40 57 43 58 57 59 76 60 41 61 42 62 56 64 77 65 44 66
REMARK SMILES IDX 28 67 29 68 37 69 30 70 36 71 38 72 35 73 31 74 32 75 33 76
REMARK SMILES IDX 34 77 60 78 61 79 69 80 62 81 68 82 70 83 67 84 63 85 64 86
REMARK SMILES IDX 65 87 66 88 45 89 46 90 54 91 47 92 53 93 55 94 52 95 48 96
REMARK SMILES IDX 49 97 50 98 51 99
REMARK H PARENT 88 13 75 52 43 63
REMARK Flexibility Score: inf
ROOT
ATOM      1  C   UNL     1       3.553   0.151   2.223  1.00  0.00     0.188 C 
ENDROOT
BRANCH   1   2
ATOM      2  O   UNL     1       2.252   0.390   2.754  1.00  0.00    -0.376 OA
BRANCH   2   3
ATOM      3  C   UNL     1       1.278  -0.645   2.675  1.00  0.00     0.202 C 
BRANCH   3   4
ATOM      4  C   UNL     1       0.969  -1.236   1.289  1.00  0.00     0.261 C 
BRANCH   4   5
ATOM      5  O   UNL     1       2.099  -1.864   0.641  1.00  0.00    -0.463 OA
BRANCH   5   6
ATOM      6  C   UNL     1       2.313  -1.570  -0.667  1.00  0.00     0.314 C 
ATOM      7  O   UNL     1       1.531  -0.915  -1.349  1.00  0.00    -0.252 OA
BRANCH   6   8
ATOM      8  C   UNL     1       3.632  -2.096  -1.259  1.00  0.00     0.138 C 
BRANCH   8   9
ATOM      9  C   UNL     1       4.618  -0.931  -1.467  1.00  0.00     0.120 C 
BRANCH   9  10
ATOM     10  C   UNL     1       4.208   0.081  -2.513  1.00  0.00     0.225 C 
ATOM     11  O   UNL     1       4.002   1.249  -2.207  1.00  0.00    -0.275 OA
ATOM     12  N   UNL     1       4.128  -0.457  -3.783  1.00  0.00    -0.325 N 
ATOM     13  H   UNL     1       4.162  -1.437  -3.866  1.00  0.00     0.169 HD
BRANCH  12  14
ATOM     14  C   UNL     1       4.001   0.294  -4.968  1.00  0.00     0.060 A 
ATOM     15  C   UNL     1       3.076  -0.201  -5.897  1.00  0.00     0.029 A 
ATOM     16  C   UNL     1       4.771   1.427  -5.293  1.00  0.00     0.066 A 
ATOM     17  C   UNL     1       2.873   0.459  -7.107  1.00  0.00     0.023 A 
ATOM     18  C   UNL     1       4.574   2.079  -6.516  1.00  0.00     0.043 A 
ATOM     19  Cl  UNL     1       6.120   1.939  -4.337  1.00  0.00    -0.082 Cl
ATOM     20  C   UNL     1       3.620   1.595  -7.410  1.00  0.00     0.042 A 
ATOM     21  Cl  UNL     1       3.379   2.366  -8.929  1.00  0.00    -0.084 Cl
ENDBRANCH  12  14
ENDBRANCH   9  10
ENDBRANCH   8   9
BRANCH   8  22
ATOM     22  C   UNL     1       4.286  -3.313  -0.588  1.00  0.00    -0.033 A 
ATOM     23  C   UNL     1       3.646  -4.560  -0.636  1.00  0.00     0.004 A 
ATOM     24  C   UNL     1       5.559  -3.260   0.018  1.00  0.00     0.004 A 
ATOM     25  C   UNL     1       4.249  -5.699  -0.089  1.00  0.00     0.000 A 
ATOM     26  C   UNL     1       6.152  -4.391   0.583  1.00  0.00     0.000 A 
ATOM     27  C   UNL     1       5.496  -5.613   0.526  1.00  0.00     0.000 A 
ENDBRANCH   8  22
ENDBRANCH   6   8
ENDBRANCH   5   6
ENDBRANCH   4   5
ENDBRANCH   3   4
ENDBRANCH   2   3
ENDBRANCH   1   2
BRANCH   1  28
ATOM     28  C   UNL     1       4.174  -1.236   2.425  1.00  0.00     0.188 C 
BRANCH  28  29
ATOM     29  O   UNL     1       3.568  -1.978   3.464  1.00  0.00    -0.376 OA
BRANCH  29  30
ATOM     30  C   UNL     1       4.435  -2.503   4.448  1.00  0.00     0.202 C 
BRANCH  30  31
ATOM     31  C   UNL     1       5.034  -1.429   5.364  1.00  0.00     0.261 C 
BRANCH  31  32
ATOM     32  O   UNL     1       5.789  -0.393   4.703  1.00  0.00    -0.460 OA
BRANCH  32  33
ATOM     33  C   UNL     1       6.941  -0.764   4.094  1.00  0.00     0.338 C 
ATOM     34  O   UNL     1       7.420  -1.889   4.080  1.00  0.00    -0.246 OA
BRANCH  33  35
ATOM     35  C   UNL     1       7.396   0.355   3.235  1.00  0.00     0.060 A 
ATOM     36  C   UNL     1       7.598   0.120   1.868  1.00  0.00     0.016 A 
ATOM     37  C   UNL     1       7.609   1.630   3.763  1.00  0.00     0.016 A 
ATOM     38  C   UNL     1       8.034   1.151   1.031  1.00  0.00     0.010 A 
ATOM     39  C   UNL     1       8.068   2.656   2.927  1.00  0.00     0.010 A 
ATOM     40  C   UNL     1       8.308   2.418   1.561  1.00  0.00    -0.014 A 
BRANCH  40  41
ATOM     41  C   UNL     1       8.990   3.443   0.725  1.00  0.00     0.031 A 
ATOM     42  C   UNL     1      10.469   3.663   0.908  1.00  0.00     0.074 A 
ATOM     43  C   UNL     1       8.321   4.149  -0.204  1.00  0.00     0.049 A 
ATOM     44  N   UNL     1      11.265   4.523   0.325  1.00  0.00    -0.248 NA
ATOM     45  C   UNL     1      11.136   2.791   1.885  1.00  0.00     0.031 C 
ATOM     46  C   UNL     1       6.905   3.991  -0.529  1.00  0.00     0.029 A 
ATOM     47  N   UNL     1       8.751   5.145  -1.048  1.00  0.00    -0.354 N 
ATOM     48  C   UNL     1      12.528   4.300   0.866  1.00  0.00     0.074 A 
ATOM     49  C   UNL     1      12.377   3.253   1.856  1.00  0.00     0.031 C 
ATOM     50  C   UNL     1       6.582   4.861  -1.502  1.00  0.00     0.029 A 
ATOM     51  C   UNL     1       7.753   5.669  -1.837  1.00  0.00     0.049 A 
ATOM     52  H   UNL     1       9.685   5.454  -1.085  1.00  0.00     0.167 HD
ATOM     53  C   UNL     1      13.704   4.904   0.560  1.00  0.00     0.034 A 
ATOM     54  C   UNL     1       7.776   6.698  -2.710  1.00  0.00     0.034 A 
ATOM     55  C   UNL     1      13.838   5.959  -0.416  1.00  0.00     0.049 A 
ATOM     56  C   UNL     1       9.072   7.435  -2.951  1.00  0.00     0.074 A 
ATOM     57  C   UNL     1      14.985   6.627  -0.811  1.00  0.00     0.029 A 
ATOM     58  N   UNL     1      12.790   6.519  -1.137  1.00  0.00    -0.354 N 
ATOM     59  N   UNL     1      10.262   7.214  -2.438  1.00  0.00    -0.248 NA
ATOM     60  C   UNL     1       9.027   8.559  -3.896  1.00  0.00     0.031 C 
ATOM     61  C   UNL     1      14.619   7.646  -1.698  1.00  0.00     0.029 A 
ATOM     62  C   UNL     1      13.257   7.554  -1.936  1.00  0.00     0.049 A 
ATOM     63  H   UNL     1      11.852   6.224  -1.089  1.00  0.00     0.167 HD
ATOM     64  C   UNL     1      11.111   8.151  -3.026  1.00  0.00     0.074 A 
ATOM     65  C   UNL     1      10.299   8.926  -3.942  1.00  0.00     0.031 C 
ATOM     66  C   UNL     1      12.441   8.345  -2.832  1.00  0.00     0.034 A 
BRANCH  53  67
ATOM     67  C   UNL     1      14.925   4.475   1.344  1.00  0.00     0.023 A 
ATOM     68  C   UNL     1      15.412   3.156   1.301  1.00  0.00     0.031 A 
ATOM     69  C   UNL     1      15.585   5.389   2.185  1.00  0.00     0.131 A 
ATOM     70  C   UNL     1      16.464   2.769   2.146  1.00  0.00     0.055 A 
ATOM     71  C   UNL     1      16.690   5.020   2.954  1.00  0.00     0.041 A 
ATOM     72  F   UNL     1      15.154   6.656   2.290  1.00  0.00    -0.206 F 
ATOM     73  C   UNL     1      17.124   3.699   2.952  1.00  0.00     0.022 A 
BRANCH  70  74
ATOM     74  S   UNL     1      16.838   1.001   2.309  1.00  0.00     0.124 S 
ATOM     75  O   UNL     1      15.543   0.460   2.716  1.00  0.00    -0.237 OA
ATOM     76  O   UNL     1      17.285   0.648   0.967  1.00  0.00    -0.237 OA
ATOM     77  O   UNL     1      17.871   0.963   3.343  1.00  0.00    -0.744 OA
ENDBRANCH  70  74
ENDBRANCH  53  67
BRANCH  54  78
ATOM     78  C   UNL     1       6.524   7.125  -3.400  1.00  0.00     0.023 A 
ATOM     79  C   UNL     1       6.401   7.049  -4.797  1.00  0.00     0.031 A 
ATOM     80  C   UNL     1       5.449   7.667  -2.673  1.00  0.00     0.131 A 
ATOM     81  C   UNL     1       5.246   7.540  -5.425  1.00  0.00     0.055 A 
ATOM     82  C   UNL     1       4.280   8.103  -3.298  1.00  0.00     0.041 A 
ATOM     83  F   UNL     1       5.520   7.777  -1.337  1.00  0.00    -0.206 F 
ATOM     84  C   UNL     1       4.178   8.052  -4.685  1.00  0.00     0.022 A 
BRANCH  81  85
ATOM     85  S   UNL     1       5.191   7.569  -7.238  1.00  0.00     0.124 S 
ATOM     86  O   UNL     1       6.328   8.426  -7.556  1.00  0.00    -0.237 OA
ATOM     87  O   UNL     1       5.340   6.155  -7.569  1.00  0.00    -0.237 OA
ATOM     88  O   UNL     1       3.878   8.142  -7.530  1.00  0.00    -0.744 OA
ENDBRANCH  81  85
ENDBRANCH  54  78
BRANCH  66  89
ATOM     89  C   UNL     1      13.112   9.421  -3.659  1.00  0.00     0.023 A 
ATOM     90  C   UNL     1      12.769  10.779  -3.533  1.00  0.00     0.031 A 
ATOM     91  C   UNL     1      14.094   9.078  -4.607  1.00  0.00     0.131 A 
ATOM     92  C   UNL     1      13.349  11.732  -4.386  1.00  0.00     0.055 A 
ATOM     93  C   UNL     1      14.722  10.040  -5.402  1.00  0.00     0.041 A 
ATOM     94  F   UNL     1      14.462   7.798  -4.780  1.00  0.00    -0.206 F 
ATOM     95  C   UNL     1      14.338  11.373  -5.306  1.00  0.00     0.022 A 
BRANCH  92  96
ATOM     96  S   UNL     1      12.707  13.429  -4.364  1.00  0.00     0.124 S 
ATOM     97  O   UNL     1      11.292  13.222  -4.654  1.00  0.00    -0.237 OA
ATOM     98  O   UNL     1      13.024  13.865  -3.008  1.00  0.00    -0.237 OA
ATOM     99  O   UNL     1      13.465  14.097  -5.421  1.00  0.00    -0.744 OA
ENDBRANCH  92  96
ENDBRANCH  66  89
ENDBRANCH  40  41
ENDBRANCH  33  35
ENDBRANCH  32  33
ENDBRANCH  31  32
ENDBRANCH  30  31
ENDBRANCH  29  30
ENDBRANCH  28  29
ENDBRANCH   1  28
TORSDOF 24
