REMARK SMILES O=C(OCCOCCOCCOC(=O)c1ccccc1C[N@H+]1CCCC[C@@H]1CCn1cccn1)c1ccc(-c2c3nc(c(-c4cc(S(=O)(=O)[O-])ccc4F)c4ccc([nH]4)c(-c4cc(S(=O)(=O)[O-])ccc4F)c4nc(c(-c5cc(S(=O)(=O)[O-])ccc5F)c5ccc2[nH]5)C=C4)C=C3)cc1
REMARK SMILES IDX 8 1 7 2 6 3 5 4 4 5 3 6 2 7 1 8 35 9 36 10 97 11 37 12 96 13
REMARK SMILES IDX 38 14 39 15 40 16 90 17 41 18 95 19 89 20 91 21 42 22 94 23
REMARK SMILES IDX 88 24 87 25 43 27 75 28 55 29 74 30 56 31 59 32 73 33 92 34
REMARK SMILES IDX 57 35 58 36 72 38 93 39 60 40 44 41 45 42 53 43 46 44 52 45
REMARK SMILES IDX 54 46 51 47 47 48 48 49 49 50 50 51 76 52 77 53 85 54 78 55
REMARK SMILES IDX 84 56 86 57 83 58 79 59 80 60 81 61 82 62 61 63 62 64 70 65
REMARK SMILES IDX 63 66 69 67 71 68 68 69 64 70 65 71 66 72 67 73 9 74 10 75
REMARK SMILES IDX 11 76 12 77 13 78 14 79 15 80 16 81 20 82 17 83 19 84 18 85
REMARK SMILES IDX 21 86 22 87 23 88 27 89 24 91 26 92 25 93 28 94 29 95 30 96
REMARK SMILES IDX 31 97 34 98 32 99 33 100
REMARK H PARENT 91 26 59 37 22 90
REMARK Flexibility Score: inf
ROOT
ATOM      1  C   UNL     1       2.228  -0.442   2.132  1.00  0.00     0.188 C 
ENDROOT
BRANCH   1   2
ATOM      2  C   UNL     1       3.216  -1.013   1.084  1.00  0.00     0.188 C 
BRANCH   2   3
ATOM      3  O   UNL     1       4.554  -0.602   1.283  1.00  0.00    -0.376 OA
BRANCH   3   4
ATOM      4  C   UNL     1       5.190   0.122   0.251  1.00  0.00     0.202 C 
BRANCH   4   5
ATOM      5  C   UNL     1       4.613   1.499  -0.098  1.00  0.00     0.261 C 
BRANCH   5   6
ATOM      6  O   UNL     1       3.192   1.654   0.050  1.00  0.00    -0.460 OA
BRANCH   6   7
ATOM      7  C   UNL     1       2.142   1.377  -0.745  1.00  0.00     0.338 C 
ATOM      8  O   UNL     1       1.027   1.745  -0.376  1.00  0.00    -0.246 OA
BRANCH   7   9
ATOM      9  C   UNL     1       2.215   0.546  -1.977  1.00  0.00     0.060 A 
ATOM     10  C   UNL     1       3.367   0.258  -2.706  1.00  0.00     0.016 A 
ATOM     11  C   UNL     1       0.973   0.076  -2.454  1.00  0.00     0.016 A 
ATOM     12  C   UNL     1       3.259  -0.296  -3.972  1.00  0.00     0.010 A 
ATOM     13  C   UNL     1       0.860  -0.488  -3.711  1.00  0.00     0.010 A 
ATOM     14  C   UNL     1       1.996  -0.572  -4.500  1.00  0.00    -0.014 A 
BRANCH  14  15
ATOM     15  C   UNL     1       1.909  -0.926  -5.908  1.00  0.00     0.031 A 
ATOM     16  C   UNL     1       2.587  -2.195  -6.271  1.00  0.00     0.074 A 
ATOM     17  C   UNL     1       1.242  -0.156  -6.794  1.00  0.00     0.049 A 
ATOM     18  N   UNL     1       3.625  -2.351  -7.023  1.00  0.00    -0.248 NA
ATOM     19  C   UNL     1       2.150  -3.425  -5.595  1.00  0.00     0.031 C 
ATOM     20  C   UNL     1       0.371   0.994  -6.532  1.00  0.00     0.029 A 
ATOM     21  N   UNL     1       1.149  -0.297  -8.144  1.00  0.00    -0.354 N 
ATOM     22  C   UNL     1       3.849  -3.722  -7.093  1.00  0.00     0.074 A 
ATOM     23  C   UNL     1       3.024  -4.313  -6.072  1.00  0.00     0.031 C 
ATOM     24  C   UNL     1      -0.336   1.288  -7.649  1.00  0.00     0.029 A 
ATOM     25  C   UNL     1       0.138   0.452  -8.739  1.00  0.00     0.049 A 
ATOM     26  H   UNL     1       1.749  -0.883  -8.659  1.00  0.00     0.167 HD
ATOM     27  C   UNL     1       4.543  -4.277  -8.124  1.00  0.00     0.034 A 
ATOM     28  C   UNL     1      -0.309   0.356 -10.022  1.00  0.00     0.034 A 
ATOM     29  C   UNL     1       5.370  -3.294  -8.784  1.00  0.00     0.049 A 
ATOM     30  C   UNL     1       0.793  -0.260 -10.806  1.00  0.00     0.074 A 
ATOM     31  C   UNL     1       6.419  -2.494  -8.370  1.00  0.00     0.029 A 
ATOM     32  N   UNL     1       4.907  -2.716  -9.944  1.00  0.00    -0.354 N 
ATOM     33  N   UNL     1       1.941   0.332 -11.000  1.00  0.00    -0.248 NA
ATOM     34  C   UNL     1       0.820  -1.711 -10.921  1.00  0.00     0.031 C 
ATOM     35  C   UNL     1       6.178  -1.230  -8.983  1.00  0.00     0.029 A 
ATOM     36  C   UNL     1       5.058  -1.354  -9.809  1.00  0.00     0.049 A 
ATOM     37  H   UNL     1       4.537  -3.188 -10.725  1.00  0.00     0.167 HD
ATOM     38  C   UNL     1       2.893  -0.660 -10.823  1.00  0.00     0.074 A 
ATOM     39  C   UNL     1       2.140  -1.915 -10.860  1.00  0.00     0.031 C 
ATOM     40  C   UNL     1       4.154  -0.371 -10.381  1.00  0.00     0.034 A 
BRANCH  27  41
ATOM     41  C   UNL     1       4.236  -5.629  -8.725  1.00  0.00     0.023 A 
ATOM     42  C   UNL     1       5.069  -6.107  -9.755  1.00  0.00     0.031 A 
ATOM     43  C   UNL     1       3.026  -6.338  -8.534  1.00  0.00     0.131 A 
ATOM     44  C   UNL     1       4.663  -7.179 -10.572  1.00  0.00     0.055 A 
ATOM     45  C   UNL     1       2.657  -7.441  -9.307  1.00  0.00     0.041 A 
ATOM     46  F   UNL     1       2.090  -5.948  -7.660  1.00  0.00    -0.206 F 
ATOM     47  C   UNL     1       3.463  -7.852 -10.351  1.00  0.00     0.022 A 
BRANCH  44  48
ATOM     48  S   UNL     1       5.649  -7.577 -12.040  1.00  0.00     0.124 S 
ATOM     49  O   UNL     1       5.725  -6.282 -12.708  1.00  0.00    -0.237 OA
ATOM     50  O   UNL     1       6.886  -8.071 -11.446  1.00  0.00    -0.237 OA
ATOM     51  O   UNL     1       4.842  -8.584 -12.727  1.00  0.00    -0.744 OA
ENDBRANCH  44  48
ENDBRANCH  27  41
BRANCH  28  52
ATOM     52  C   UNL     1      -1.735   0.375 -10.466  1.00  0.00     0.023 A 
ATOM     53  C   UNL     1      -2.135   0.619 -11.800  1.00  0.00     0.031 A 
ATOM     54  C   UNL     1      -2.736  -0.097  -9.586  1.00  0.00     0.131 A 
ATOM     55  C   UNL     1      -3.480   0.396 -12.194  1.00  0.00     0.055 A 
ATOM     56  C   UNL     1      -4.058  -0.315  -9.980  1.00  0.00     0.041 A 
ATOM     57  F   UNL     1      -2.443  -0.447  -8.323  1.00  0.00    -0.206 F 
ATOM     58  C   UNL     1      -4.434  -0.077 -11.291  1.00  0.00     0.022 A 
BRANCH  55  59
ATOM     59  S   UNL     1      -4.002   0.646 -13.926  1.00  0.00     0.124 S 
ATOM     60  O   UNL     1      -3.874   2.090 -14.085  1.00  0.00    -0.237 OA
ATOM     61  O   UNL     1      -3.050  -0.175 -14.663  1.00  0.00    -0.237 OA
ATOM     62  O   UNL     1      -5.379   0.148 -13.944  1.00  0.00    -0.744 OA
ENDBRANCH  55  59
ENDBRANCH  28  52
BRANCH  40  63
ATOM     63  C   UNL     1       4.572   1.089 -10.293  1.00  0.00     0.023 A 
ATOM     64  C   UNL     1       3.908   2.081  -9.530  1.00  0.00     0.031 A 
ATOM     65  C   UNL     1       5.775   1.456 -10.921  1.00  0.00     0.131 A 
ATOM     66  C   UNL     1       4.450   3.381  -9.432  1.00  0.00     0.055 A 
ATOM     67  C   UNL     1       6.319   2.736 -10.804  1.00  0.00     0.041 A 
ATOM     68  F   UNL     1       6.470   0.557 -11.638  1.00  0.00    -0.206 F 
ATOM     69  C   UNL     1       5.654   3.706 -10.064  1.00  0.00     0.022 A 
BRANCH  66  70
ATOM     70  S   UNL     1       3.592   4.688  -8.491  1.00  0.00     0.124 S 
ATOM     71  O   UNL     1       2.215   4.598  -8.960  1.00  0.00    -0.237 OA
ATOM     72  O   UNL     1       3.826   4.284  -7.106  1.00  0.00    -0.237 OA
ATOM     73  O   UNL     1       4.293   5.910  -8.891  1.00  0.00    -0.744 OA
ENDBRANCH  66  70
ENDBRANCH  40  63
ENDBRANCH  14  15
ENDBRANCH   7   9
ENDBRANCH   6   7
ENDBRANCH   5   6
ENDBRANCH   4   5
ENDBRANCH   3   4
ENDBRANCH   2   3
ENDBRANCH   1   2
BRANCH   1  74
ATOM     74  O   UNL     1       2.652   0.050   3.403  1.00  0.00    -0.376 OA
BRANCH  74  75
ATOM     75  C   UNL     1       3.943  -0.253   3.896  1.00  0.00     0.202 C 
BRANCH  75  76
ATOM     76  C   UNL     1       4.193  -1.708   4.302  1.00  0.00     0.261 C 
BRANCH  76  77
ATOM     77  O   UNL     1       3.769  -2.683   3.343  1.00  0.00    -0.460 OA
BRANCH  77  78
ATOM     78  C   UNL     1       2.567  -3.285   3.547  1.00  0.00     0.338 C 
ATOM     79  O   UNL     1       1.781  -3.091   4.447  1.00  0.00    -0.246 OA
BRANCH  78  80
ATOM     80  C   UNL     1       2.320  -4.186   2.390  1.00  0.00     0.068 A 
ATOM     81  C   UNL     1       1.165  -3.962   1.623  1.00  0.00     0.016 A 
ATOM     82  C   UNL     1       3.233  -5.196   2.037  1.00  0.00     0.021 A 
ATOM     83  C   UNL     1       0.949  -4.684   0.451  1.00  0.00     0.001 A 
ATOM     84  C   UNL     1       3.011  -5.880   0.831  1.00  0.00     0.010 A 
ATOM     85  C   UNL     1       1.883  -5.631   0.047  1.00  0.00     0.001 A 
BRANCH  82  86
ATOM     86  C   UNL     1       4.370  -5.618   2.947  1.00  0.00     0.300 C 
BRANCH  86  87
ATOM     87  N   UNL     1       4.043  -6.666   3.949  1.00  0.00    -0.329 N 
ATOM     88  C   UNL     1       2.969  -6.200   4.849  1.00  0.00     0.262 C 
ATOM     89  C   UNL     1       3.763  -8.013   3.388  1.00  0.00     0.186 C 
ATOM     90  H   UNL     1       4.896  -6.805   4.491  1.00  0.00     0.348 HD
ATOM     91  C   UNL     1       2.691  -7.149   6.005  1.00  0.00     0.062 C 
ATOM     92  C   UNL     1       3.521  -8.999   4.557  1.00  0.00     0.065 C 
ATOM     93  C   UNL     1       2.402  -8.543   5.485  1.00  0.00     0.012 C 
BRANCH  89  94
ATOM     94  C   UNL     1       4.939  -8.531   2.516  1.00  0.00     0.088 C 
BRANCH  94  95
ATOM     95  C   UNL     1       4.746  -9.905   1.861  1.00  0.00     0.150 C 
BRANCH  95  96
ATOM     96  N   UNL     1       3.583 -10.040   1.006  1.00  0.00    -0.273 N 
ATOM     97  C   UNL     1       2.740 -11.114   0.941  1.00  0.00     0.108 A 
ATOM     98  N   UNL     1       3.288  -9.090   0.102  1.00  0.00    -0.182 NA
ATOM     99  C   UNL     1       1.806 -10.810  -0.022  1.00  0.00     0.042 A 
ATOM    100  C   UNL     1       2.187  -9.544  -0.499  1.00  0.00     0.135 A 
ENDBRANCH  95  96
ENDBRANCH  94  95
ENDBRANCH  89  94
ENDBRANCH  86  87
ENDBRANCH  82  86
ENDBRANCH  78  80
ENDBRANCH  77  78
ENDBRANCH  76  77
ENDBRANCH  75  76
ENDBRANCH  74  75
ENDBRANCH   1  74
TORSDOF 25
