REMARK SMILES CCCc1cc2c(cc1Cl)C=C(C(=O)OCCOCCOCCOC(=O)c1ccc(-c3c4nc(c(-c5cc(S(=O)(=O)[O-])ccc5F)c5ccc([nH]5)c(-c5cc(S(=O)(=O)[O-])ccc5F)c5nc(c(-c6cc(S(=O)(=O)[O-])ccc6F)c6ccc3[nH]6)C=C5)C=C4)cc1)[C@@H](C(F)(F)F)O2
REMARK SMILES IDX 20 1 19 2 18 3 17 4 16 5 15 6 13 7 14 8 12 9 4 10 5 11 9 12
REMARK SMILES IDX 6 13 8 14 10 15 7 16 95 17 11 18 90 19 3 20 2 21 1 22 91 23
REMARK SMILES IDX 92 24 93 25 94 26 21 27 22 28 23 29 24 30 25 31 26 32 27 33
REMARK SMILES IDX 28 34 89 35 29 36 88 37 30 38 31 39 32 40 82 41 33 42 87 43
REMARK SMILES IDX 81 44 83 45 34 46 86 47 80 48 79 49 35 51 67 52 47 53 66 54
REMARK SMILES IDX 48 55 51 56 65 57 84 58 49 59 50 60 64 62 85 63 52 64 36 65
REMARK SMILES IDX 37 66 45 67 38 68 44 69 46 70 43 71 39 72 40 73 41 74 42 75
REMARK SMILES IDX 68 76 69 77 77 78 70 79 76 80 78 81 75 82 71 83 72 84 73 85
REMARK SMILES IDX 74 86 53 87 54 88 62 89 55 90 61 91 63 92 60 93 56 94 57 95
REMARK SMILES IDX 58 96 59 97
REMARK H PARENT 83 50 51 61
REMARK Flexibility Score: inf
ROOT
ATOM      1  C   UNL     1       0.447  -2.327   8.895  1.00  0.00     0.188 C 
ENDROOT
BRANCH   1   2
ATOM      2  C   UNL     1      -0.356  -1.117   9.424  1.00  0.00     0.188 C 
BRANCH   2   3
ATOM      3  O   UNL     1      -0.927  -1.352  10.691  1.00  0.00    -0.376 OA
BRANCH   3   4
ATOM      4  C   UNL     1      -2.317  -1.599  10.783  1.00  0.00     0.202 C 
BRANCH   4   5
ATOM      5  C   UNL     1      -3.056  -2.534   9.804  1.00  0.00     0.261 C 
BRANCH   5   6
ATOM      6  O   UNL     1      -2.445  -2.763   8.527  1.00  0.00    -0.460 OA
BRANCH   6   7
ATOM      7  C   UNL     1      -2.903  -2.030   7.488  1.00  0.00     0.338 C 
ATOM      8  O   UNL     1      -3.773  -1.176   7.526  1.00  0.00    -0.246 OA
BRANCH   7   9
ATOM      9  C   UNL     1      -2.080  -2.328   6.298  1.00  0.00     0.087 C 
ATOM     10  C   UNL     1       0.738  -2.014   2.131  1.00  0.00    -0.026 A 
ATOM     11  C   UNL     1      -0.019  -3.033   2.744  1.00  0.00     0.052 A 
ATOM     12  C   UNL     1       0.900  -0.809   2.831  1.00  0.00     0.045 A 
ATOM     13  C   UNL     1      -0.658  -2.821   3.971  1.00  0.00     0.128 A 
ATOM     14  C   UNL     1       0.198  -0.573   4.019  1.00  0.00     0.032 A 
ATOM     15  Cl  UNL     1       1.997   0.420   2.316  1.00  0.00    -0.084 Cl
ATOM     16  C   UNL     1      -0.613  -1.566   4.571  1.00  0.00     0.019 A 
ATOM     17  O   UNL     1      -1.344  -3.881   4.493  1.00  0.00    -0.475 OA
ATOM     18  C   UNL     1      -1.453  -1.291   5.726  1.00  0.00     0.027 C 
ATOM     19  C   UNL     1      -1.914  -3.751   5.830  1.00  0.00     0.316 C 
BRANCH  10  20
ATOM     20  C   UNL     1       1.315  -2.265   0.753  1.00  0.00     0.037 C 
BRANCH  20  21
ATOM     21  C   UNL     1       0.480  -1.696  -0.407  1.00  0.00     0.001 C 
ATOM     22  C   UNL     1       0.679  -0.209  -0.667  1.00  0.00     0.004 C 
ENDBRANCH  20  21
ENDBRANCH  10  20
BRANCH  19  23
ATOM     23  C   UNL     1      -3.226  -4.550   5.830  1.00  0.00     0.430 C 
ATOM     24  F   UNL     1      -3.016  -5.830   5.431  1.00  0.00    -0.167 F 
ATOM     25  F   UNL     1      -3.785  -4.623   7.060  1.00  0.00    -0.167 F 
ATOM     26  F   UNL     1      -4.146  -4.015   4.998  1.00  0.00    -0.167 F 
ENDBRANCH  19  23
ENDBRANCH   7   9
ENDBRANCH   6   7
ENDBRANCH   5   6
ENDBRANCH   4   5
ENDBRANCH   3   4
ENDBRANCH   2   3
ENDBRANCH   1   2
BRANCH   1  27
ATOM     27  O   UNL     1       0.517  -3.521   9.667  1.00  0.00    -0.376 OA
BRANCH  27  28
ATOM     28  C   UNL     1       0.843  -3.432  11.050  1.00  0.00     0.202 C 
BRANCH  28  29
ATOM     29  C   UNL     1       2.090  -2.653  11.504  1.00  0.00     0.261 C 
BRANCH  29  30
ATOM     30  O   UNL     1       2.216  -1.323  10.980  1.00  0.00    -0.460 OA
BRANCH  30  31
ATOM     31  C   UNL     1       3.216  -1.128  10.080  1.00  0.00     0.338 C 
ATOM     32  O   UNL     1       4.013  -1.956   9.675  1.00  0.00    -0.246 OA
BRANCH  31  33
ATOM     33  C   UNL     1       3.057   0.221   9.496  1.00  0.00     0.060 A 
ATOM     34  C   UNL     1       3.103   1.352  10.311  1.00  0.00     0.016 A 
ATOM     35  C   UNL     1       2.826   0.347   8.118  1.00  0.00     0.016 A 
ATOM     36  C   UNL     1       2.914   2.614   9.742  1.00  0.00     0.010 A 
ATOM     37  C   UNL     1       2.618   1.609   7.555  1.00  0.00     0.010 A 
ATOM     38  C   UNL     1       2.670   2.753   8.363  1.00  0.00    -0.014 A 
BRANCH  38  39
ATOM     39  C   UNL     1       2.645   4.109   7.760  1.00  0.00     0.031 A 
ATOM     40  C   UNL     1       1.365   4.803   7.408  1.00  0.00     0.074 A 
ATOM     41  C   UNL     1       3.825   4.722   7.550  1.00  0.00     0.049 A 
ATOM     42  N   UNL     1       1.188   6.036   7.011  1.00  0.00    -0.248 NA
ATOM     43  C   UNL     1       0.127   4.017   7.505  1.00  0.00     0.031 C 
ATOM     44  C   UNL     1       5.129   4.117   7.819  1.00  0.00     0.029 A 
ATOM     45  N   UNL     1       4.125   5.976   7.083  1.00  0.00    -0.354 N 
ATOM     46  C   UNL     1      -0.181   6.191   6.835  1.00  0.00     0.074 A 
ATOM     47  C   UNL     1      -0.784   4.904   7.116  1.00  0.00     0.031 C 
ATOM     48  C   UNL     1       6.089   5.010   7.543  1.00  0.00     0.029 A 
ATOM     49  C   UNL     1       5.474   6.242   7.051  1.00  0.00     0.049 A 
ATOM     50  H   UNL     1       3.440   6.624   6.798  1.00  0.00     0.167 HD
ATOM     51  C   UNL     1      -0.863   7.312   6.492  1.00  0.00     0.034 A 
ATOM     52  C   UNL     1       6.145   7.351   6.680  1.00  0.00     0.034 A 
ATOM     53  C   UNL     1      -0.234   8.580   6.204  1.00  0.00     0.049 A 
ATOM     54  C   UNL     1       5.364   8.577   6.284  1.00  0.00     0.074 A 
ATOM     55  C   UNL     1      -0.845   9.787   5.908  1.00  0.00     0.029 A 
ATOM     56  N   UNL     1       1.135   8.812   6.160  1.00  0.00    -0.354 N 
ATOM     57  N   UNL     1       4.064   8.749   6.248  1.00  0.00    -0.248 NA
ATOM     58  C   UNL     1       6.134   9.768   5.899  1.00  0.00     0.031 C 
ATOM     59  C   UNL     1       0.146  10.720   5.604  1.00  0.00     0.029 A 
ATOM     60  C   UNL     1       1.383  10.128   5.801  1.00  0.00     0.049 A 
ATOM     61  H   UNL     1       1.827   8.140   6.356  1.00  0.00     0.167 HD
ATOM     62  C   UNL     1       3.860  10.070   5.861  1.00  0.00     0.074 A 
ATOM     63  C   UNL     1       5.172  10.662   5.704  1.00  0.00     0.031 C 
ATOM     64  C   UNL     1       2.691  10.727   5.653  1.00  0.00     0.034 A 
BRANCH  51  65
ATOM     65  C   UNL     1      -2.372   7.264   6.433  1.00  0.00     0.023 A 
ATOM     66  C   UNL     1      -3.045   7.572   5.234  1.00  0.00     0.031 A 
ATOM     67  C   UNL     1      -3.141   7.096   7.598  1.00  0.00     0.131 A 
ATOM     68  C   UNL     1      -4.434   7.750   5.238  1.00  0.00     0.055 A 
ATOM     69  C   UNL     1      -4.531   7.228   7.588  1.00  0.00     0.041 A 
ATOM     70  F   UNL     1      -2.550   6.812   8.770  1.00  0.00    -0.206 F 
ATOM     71  C   UNL     1      -5.182   7.572   6.407  1.00  0.00     0.022 A 
BRANCH  68  72
ATOM     72  S   UNL     1      -5.317   8.305   3.753  1.00  0.00     0.124 S 
ATOM     73  O   UNL     1      -6.263   7.212   3.541  1.00  0.00    -0.237 OA
ATOM     74  O   UNL     1      -5.908   9.563   4.202  1.00  0.00    -0.237 OA
ATOM     75  O   UNL     1      -4.269   8.423   2.745  1.00  0.00    -0.744 OA
ENDBRANCH  68  72
ENDBRANCH  51  65
BRANCH  52  76
ATOM     76  C   UNL     1       7.635   7.347   6.754  1.00  0.00     0.023 A 
ATOM     77  C   UNL     1       8.389   6.434   5.993  1.00  0.00     0.031 A 
ATOM     78  C   UNL     1       8.316   8.160   7.674  1.00  0.00     0.131 A 
ATOM     79  C   UNL     1       9.763   6.303   6.223  1.00  0.00     0.055 A 
ATOM     80  C   UNL     1       9.699   8.082   7.844  1.00  0.00     0.041 A 
ATOM     81  F   UNL     1       7.639   9.033   8.436  1.00  0.00    -0.206 F 
ATOM     82  C   UNL     1      10.427   7.134   7.130  1.00  0.00     0.022 A 
BRANCH  79  83
ATOM     83  S   UNL     1      10.705   4.949   5.466  1.00  0.00     0.124 S 
ATOM     84  O   UNL     1      11.721   5.672   4.708  1.00  0.00    -0.237 OA
ATOM     85  O   UNL     1      11.188   4.229   6.642  1.00  0.00    -0.237 OA
ATOM     86  O   UNL     1       9.709   4.239   4.671  1.00  0.00    -0.744 OA
ENDBRANCH  79  83
ENDBRANCH  52  76
BRANCH  64  87
ATOM     87  C   UNL     1       2.735  12.178   5.227  1.00  0.00     0.023 A 
ATOM     88  C   UNL     1       2.128  13.167   6.028  1.00  0.00     0.031 A 
ATOM     89  C   UNL     1       3.224  12.559   3.965  1.00  0.00     0.131 A 
ATOM     90  C   UNL     1       1.981  14.471   5.538  1.00  0.00     0.055 A 
ATOM     91  C   UNL     1       3.126  13.874   3.505  1.00  0.00     0.041 A 
ATOM     92  F   UNL     1       3.800  11.656   3.156  1.00  0.00    -0.206 F 
ATOM     93  C   UNL     1       2.486  14.832   4.285  1.00  0.00     0.022 A 
BRANCH  90  94
ATOM     94  S   UNL     1       1.041  15.720   6.461  1.00  0.00     0.124 S 
ATOM     95  O   UNL     1       2.043  16.763   6.666  1.00  0.00    -0.237 OA
ATOM     96  O   UNL     1      -0.026  16.057   5.522  1.00  0.00    -0.237 OA
ATOM     97  O   UNL     1       0.617  15.020   7.669  1.00  0.00    -0.744 OA
ENDBRANCH  90  94
ENDBRANCH  64  87
ENDBRANCH  38  39
ENDBRANCH  31  33
ENDBRANCH  30  31
ENDBRANCH  29  30
ENDBRANCH  28  29
ENDBRANCH  27  28
ENDBRANCH   1  27
TORSDOF 23
