REMARK SMILES CN(c1ccc(C(N)=O)nn1)[C@H]1COC[C@@H]1C(=O)OCCOCCOCCOC(=O)c1ccc(-c2c3nc(c(-c4cc(S(=O)(=O)[O-])ccc4F)c4ccc([nH]4)c(-c4cc(S(=O)(=O)[O-])ccc4F)c4nc(c(-c5cc(S(=O)(=O)[O-])ccc5F)c5ccc2[nH]5)C=C4)C=C3)cc1
REMARK SMILES IDX 23 1 22 2 21 3 20 4 19 5 17 6 18 7 16 8 12 9 13 10 14 11
REMARK SMILES IDX 15 12 2 13 1 14 3 15 4 16 11 17 5 18 10 19 6 20 7 21 8 22
REMARK SMILES IDX 9 23 24 26 25 27 26 28 27 29 28 30 29 31 30 32 31 33 32 34
REMARK SMILES IDX 93 35 33 36 92 37 34 38 35 39 36 40 86 41 37 42 91 43 85 44
REMARK SMILES IDX 87 45 38 46 90 47 84 48 83 49 39 51 71 52 51 53 70 54 52 55
REMARK SMILES IDX 55 56 69 57 88 58 53 59 54 60 68 62 89 63 56 64 40 65 41 66
REMARK SMILES IDX 49 67 42 68 48 69 50 70 47 71 43 72 44 73 45 74 46 75 72 76
REMARK SMILES IDX 73 77 81 78 74 79 80 80 82 81 79 82 75 83 76 84 77 85 78 86
REMARK SMILES IDX 57 87 58 88 66 89 59 90 65 91 67 92 64 93 60 94 61 95 62 96
REMARK SMILES IDX 63 97
REMARK H PARENT 8 24 8 25 87 50 55 61
REMARK Flexibility Score: inf
ROOT
ATOM      1  C   UNL     1       0.829   5.183  -2.336  1.00  0.00     0.188 C 
ENDROOT
BRANCH   1   2
ATOM      2  O   UNL     1      -0.204   5.499  -3.244  1.00  0.00    -0.376 OA
BRANCH   2   3
ATOM      3  C   UNL     1      -1.531   5.051  -3.017  1.00  0.00     0.202 C 
BRANCH   3   4
ATOM      4  C   UNL     1      -2.026   4.315  -1.756  1.00  0.00     0.261 C 
BRANCH   4   5
ATOM      5  O   UNL     1      -1.117   4.267  -0.657  1.00  0.00    -0.463 OA
BRANCH   5   6
ATOM      6  C   UNL     1      -0.674   3.041  -0.265  1.00  0.00     0.313 C 
ATOM      7  O   UNL     1      -1.075   1.983  -0.732  1.00  0.00    -0.252 OA
BRANCH   6   8
ATOM      8  C   UNL     1       0.460   3.166   0.738  1.00  0.00     0.150 C 
ATOM      9  C   UNL     1       0.614   1.875   1.512  1.00  0.00     0.125 C 
ATOM     10  C   UNL     1      -0.463   2.065   2.582  1.00  0.00     0.186 C 
ATOM     11  O   UNL     1      -0.488   3.465   2.912  1.00  0.00    -0.378 OA
ATOM     12  C   UNL     1       0.142   4.175   1.831  1.00  0.00     0.177 C 
BRANCH   9  13
ATOM     13  N   UNL     1       1.977   1.725   2.060  1.00  0.00    -0.352 N 
ATOM     14  C   UNL     1       2.346   2.089   3.417  1.00  0.00     0.145 C 
BRANCH  13  15
ATOM     15  C   UNL     1       2.879   0.996   1.296  1.00  0.00     0.151 A 
ATOM     16  C   UNL     1       3.562  -0.080   1.855  1.00  0.00     0.051 A 
ATOM     17  N   UNL     1       3.096   1.324   0.000  1.00  0.00    -0.132 NA
ATOM     18  C   UNL     1       4.482  -0.792   1.098  1.00  0.00     0.040 A 
ATOM     19  N   UNL     1       4.038   0.649  -0.757  1.00  0.00    -0.143 NA
ATOM     20  C   UNL     1       4.710  -0.386  -0.200  1.00  0.00     0.150 A 
BRANCH  20  21
ATOM     21  C   UNL     1       5.739  -1.091  -1.000  1.00  0.00     0.269 C 
ATOM     22  N   UNL     1       6.041  -0.564  -2.218  1.00  0.00    -0.364 N 
ATOM     23  O   UNL     1       6.308  -2.080  -0.559  1.00  0.00    -0.268 OA
ATOM     24  H   UNL     1       5.562   0.233  -2.541  1.00  0.00     0.160 HD
ATOM     25  H   UNL     1       6.737  -0.981  -2.775  1.00  0.00     0.160 HD
ENDBRANCH  20  21
ENDBRANCH  13  15
ENDBRANCH   9  13
ENDBRANCH   6   8
ENDBRANCH   5   6
ENDBRANCH   4   5
ENDBRANCH   3   4
ENDBRANCH   2   3
ENDBRANCH   1   2
BRANCH   1  26
ATOM     26  C   UNL     1       0.971   6.139  -1.132  1.00  0.00     0.188 C 
BRANCH  26  27
ATOM     27  O   UNL     1      -0.070   7.048  -0.839  1.00  0.00    -0.376 OA
BRANCH  27  28
ATOM     28  C   UNL     1      -0.400   8.054  -1.785  1.00  0.00     0.202 C 
BRANCH  28  29
ATOM     29  C   UNL     1       0.598   8.675  -2.789  1.00  0.00     0.261 C 
BRANCH  29  30
ATOM     30  O   UNL     1       1.698   7.872  -3.236  1.00  0.00    -0.460 OA
BRANCH  30  31
ATOM     31  C   UNL     1       2.905   8.173  -2.693  1.00  0.00     0.338 C 
ATOM     32  O   UNL     1       3.139   9.041  -1.866  1.00  0.00    -0.246 OA
BRANCH  31  33
ATOM     33  C   UNL     1       3.889   7.152  -3.108  1.00  0.00     0.060 A 
ATOM     34  C   UNL     1       4.405   6.265  -2.150  1.00  0.00     0.016 A 
ATOM     35  C   UNL     1       4.324   7.092  -4.431  1.00  0.00     0.016 A 
ATOM     36  C   UNL     1       5.364   5.319  -2.513  1.00  0.00     0.010 A 
ATOM     37  C   UNL     1       5.310   6.166  -4.785  1.00  0.00     0.010 A 
ATOM     38  C   UNL     1       5.852   5.291  -3.825  1.00  0.00    -0.014 A 
BRANCH  38  39
ATOM     39  C   UNL     1       7.044   4.472  -4.163  1.00  0.00     0.031 A 
ATOM     40  C   UNL     1       8.389   5.144  -4.185  1.00  0.00     0.074 A 
ATOM     41  C   UNL     1       6.927   3.171  -4.484  1.00  0.00     0.049 A 
ATOM     42  N   UNL     1       9.554   4.661  -4.530  1.00  0.00    -0.248 NA
ATOM     43  C   UNL     1       8.414   6.562  -3.794  1.00  0.00     0.031 C 
ATOM     44  C   UNL     1       5.671   2.428  -4.510  1.00  0.00     0.029 A 
ATOM     45  N   UNL     1       7.872   2.248  -4.862  1.00  0.00    -0.354 N 
ATOM     46  C   UNL     1      10.445   5.725  -4.439  1.00  0.00     0.074 A 
ATOM     47  C   UNL     1       9.680   6.879  -4.017  1.00  0.00     0.031 C 
ATOM     48  C   UNL     1       5.924   1.162  -4.885  1.00  0.00     0.029 A 
ATOM     49  C   UNL     1       7.358   0.998  -5.127  1.00  0.00     0.049 A 
ATOM     50  H   UNL     1       8.831   2.460  -4.936  1.00  0.00     0.167 HD
ATOM     51  C   UNL     1      11.776   5.737  -4.699  1.00  0.00     0.034 A 
ATOM     52  C   UNL     1       7.976  -0.141  -5.513  1.00  0.00     0.034 A 
ATOM     53  C   UNL     1      12.518   4.577  -5.128  1.00  0.00     0.049 A 
ATOM     54  C   UNL     1       9.467  -0.099  -5.782  1.00  0.00     0.074 A 
ATOM     55  C   UNL     1      13.871   4.473  -5.398  1.00  0.00     0.029 A 
ATOM     56  N   UNL     1      11.970   3.322  -5.363  1.00  0.00    -0.354 N 
ATOM     57  N   UNL     1      10.304   0.908  -5.660  1.00  0.00    -0.248 NA
ATOM     58  C   UNL     1      10.094  -1.341  -6.255  1.00  0.00     0.031 C 
ATOM     59  C   UNL     1      14.125   3.184  -5.877  1.00  0.00     0.029 A 
ATOM     60  C   UNL     1      12.951   2.451  -5.812  1.00  0.00     0.049 A 
ATOM     61  H   UNL     1      11.024   3.086  -5.230  1.00  0.00     0.167 HD
ATOM     62  C   UNL     1      11.553   0.412  -6.030  1.00  0.00     0.074 A 
ATOM     63  C   UNL     1      11.368  -0.991  -6.336  1.00  0.00     0.031 C 
ATOM     64  C   UNL     1      12.746   1.056  -6.125  1.00  0.00     0.034 A 
BRANCH  51  65
ATOM     65  C   UNL     1      12.493   7.062  -4.597  1.00  0.00     0.023 A 
ATOM     66  C   UNL     1      12.597   7.763  -3.384  1.00  0.00     0.031 A 
ATOM     67  C   UNL     1      13.062   7.646  -5.744  1.00  0.00     0.131 A 
ATOM     68  C   UNL     1      13.188   9.036  -3.359  1.00  0.00     0.055 A 
ATOM     69  C   UNL     1      13.726   8.872  -5.696  1.00  0.00     0.041 A 
ATOM     70  F   UNL     1      12.971   7.038  -6.937  1.00  0.00    -0.206 F 
ATOM     71  C   UNL     1      13.779   9.583  -4.500  1.00  0.00     0.022 A 
BRANCH  68  72
ATOM     72  S   UNL     1      13.040  10.030  -1.850  1.00  0.00     0.124 S 
ATOM     73  O   UNL     1      11.589  10.106  -1.688  1.00  0.00    -0.237 OA
ATOM     74  O   UNL     1      13.750   9.221  -0.867  1.00  0.00    -0.237 OA
ATOM     75  O   UNL     1      13.686  11.292  -2.205  1.00  0.00    -0.744 OA
ENDBRANCH  68  72
ENDBRANCH  51  65
BRANCH  52  76
ATOM     76  C   UNL     1       7.213  -1.419  -5.681  1.00  0.00     0.023 A 
ATOM     77  C   UNL     1       7.569  -2.576  -4.961  1.00  0.00     0.031 A 
ATOM     78  C   UNL     1       6.158  -1.531  -6.604  1.00  0.00     0.131 A 
ATOM     79  C   UNL     1       6.912  -3.793  -5.208  1.00  0.00     0.055 A 
ATOM     80  C   UNL     1       5.454  -2.724  -6.786  1.00  0.00     0.041 A 
ATOM     81  F   UNL     1       5.785  -0.474  -7.343  1.00  0.00    -0.206 F 
ATOM     82  C   UNL     1       5.839  -3.868  -6.096  1.00  0.00     0.022 A 
BRANCH  79  83
ATOM     83  S   UNL     1       7.578  -5.314  -4.471  1.00  0.00     0.124 S 
ATOM     84  O   UNL     1       8.961  -5.282  -4.934  1.00  0.00    -0.237 OA
ATOM     85  O   UNL     1       7.371  -5.082  -3.048  1.00  0.00    -0.237 OA
ATOM     86  O   UNL     1       6.749  -6.366  -5.057  1.00  0.00    -0.744 OA
ENDBRANCH  79  83
ENDBRANCH  52  76
BRANCH  64  87
ATOM     87  C   UNL     1      13.945   0.239  -6.551  1.00  0.00     0.023 A 
ATOM     88  C   UNL     1      14.034  -0.336  -7.832  1.00  0.00     0.031 A 
ATOM     89  C   UNL     1      15.017   0.036  -5.663  1.00  0.00     0.131 A 
ATOM     90  C   UNL     1      15.141  -1.131  -8.168  1.00  0.00     0.055 A 
ATOM     91  C   UNL     1      16.146  -0.699  -6.027  1.00  0.00     0.041 A 
ATOM     92  F   UNL     1      14.988   0.558  -4.426  1.00  0.00    -0.206 F 
ATOM     93  C   UNL     1      16.207  -1.299  -7.281  1.00  0.00     0.022 A 
BRANCH  90  94
ATOM     94  S   UNL     1      15.127  -2.025  -9.747  1.00  0.00     0.124 S 
ATOM     95  O   UNL     1      13.917  -2.832  -9.628  1.00  0.00    -0.237 OA
ATOM     96  O   UNL     1      15.075  -0.939 -10.721  1.00  0.00    -0.237 OA
ATOM     97  O   UNL     1      16.379  -2.778  -9.726  1.00  0.00    -0.744 OA
ENDBRANCH  90  94
ENDBRANCH  64  87
ENDBRANCH  38  39
ENDBRANCH  31  33
ENDBRANCH  30  31
ENDBRANCH  29  30
ENDBRANCH  28  29
ENDBRANCH  27  28
ENDBRANCH  26  27
ENDBRANCH   1  26
TORSDOF 23
