REMARK SMILES CC(C)c1nc(C(=O)OCCOCCOCCOC(=O)c2ccc(-c3c4nc(c(-c5cc(S(=O)(=O)[O-])ccc5F)c5ccc([nH]5)c(-c5cc(S(=O)(=O)[O-])ccc5F)c5nc(c(-c6cc(S(=O)(=O)[O-])ccc6F)c6ccc3[nH]6)C=C5)C=C4)cc2)nn1-c1ccccc1F
REMARK SMILES IDX 14 1 13 2 12 3 11 4 10 5 9 6 7 7 8 8 6 9 4 10 5 11 85 12
REMARK SMILES IDX 84 13 2 14 1 15 3 16 86 17 87 18 91 19 88 20 90 21 92 22
REMARK SMILES IDX 89 23 15 24 16 25 17 26 18 27 19 28 20 29 21 30 22 31 83 32
REMARK SMILES IDX 23 33 82 34 24 35 25 36 26 37 76 38 27 39 81 40 75 41 77 42
REMARK SMILES IDX 28 43 80 44 74 45 73 46 29 48 61 49 41 50 60 51 42 52 45 53
REMARK SMILES IDX 59 54 78 55 43 56 44 57 58 59 79 60 46 61 30 62 31 63 39 64
REMARK SMILES IDX 32 65 38 66 40 67 37 68 33 69 34 70 35 71 36 72 62 73 63 74
REMARK SMILES IDX 71 75 64 76 70 77 72 78 69 79 65 80 66 81 67 82 68 83 47 84
REMARK SMILES IDX 48 85 56 86 49 87 55 88 57 89 54 90 50 91 51 92 52 93 53 94
REMARK H PARENT 77 47 45 58
REMARK Flexibility Score: inf
ROOT
ATOM      1  C   UNL     1      -5.344  -1.618  -0.795  1.00  0.00     0.188 C 
ENDROOT
BRANCH   1   2
ATOM      2  C   UNL     1      -5.418  -3.064  -0.257  1.00  0.00     0.188 C 
BRANCH   2   3
ATOM      3  O   UNL     1      -6.588  -3.593   0.356  1.00  0.00    -0.376 OA
BRANCH   3   4
ATOM      4  C   UNL     1      -7.468  -2.756   1.086  1.00  0.00     0.202 C 
BRANCH   4   5
ATOM      5  C   UNL     1      -6.933  -2.098   2.364  1.00  0.00     0.261 C 
BRANCH   5   6
ATOM      6  O   UNL     1      -5.766  -1.287   2.166  1.00  0.00    -0.457 OA
BRANCH   6   7
ATOM      7  C   UNL     1      -4.590  -1.799   2.648  1.00  0.00     0.378 C 
ATOM      8  O   UNL     1      -4.510  -2.822   3.322  1.00  0.00    -0.242 OA
BRANCH   7   9
ATOM      9  C   UNL     1      -3.406  -1.046   2.189  1.00  0.00     0.260 A 
ATOM     10  C   UNL     1      -1.411  -0.707   1.487  1.00  0.00     0.136 A 
ATOM     11  N   UNL     1      -2.247  -1.679   1.803  1.00  0.00    -0.205 NA
ATOM     12  N   UNL     1      -2.095   0.502   1.575  1.00  0.00    -0.214 N 
ATOM     13  N   UNL     1      -3.328   0.292   2.116  1.00  0.00    -0.138 NA
BRANCH  10  14
ATOM     14  C   UNL     1       0.077  -0.951   1.419  1.00  0.00     0.051 C 
ATOM     15  C   UNL     1       0.778  -0.587   0.122  1.00  0.00     0.016 C 
ATOM     16  C   UNL     1       0.793  -0.366   2.636  1.00  0.00     0.016 C 
ENDBRANCH  10  14
BRANCH  12  17
ATOM     17  C   UNL     1      -1.656   1.826   1.372  1.00  0.00     0.102 A 
ATOM     18  C   UNL     1      -1.936   2.793   2.347  1.00  0.00     0.031 A 
ATOM     19  C   UNL     1      -0.992   2.199   0.210  1.00  0.00     0.148 A 
ATOM     20  C   UNL     1      -1.458   4.097   2.192  1.00  0.00     0.002 A 
ATOM     21  C   UNL     1      -0.520   3.501   0.049  1.00  0.00     0.041 A 
ATOM     22  F   UNL     1      -0.876   1.352  -0.820  1.00  0.00    -0.205 F 
ATOM     23  C   UNL     1      -0.737   4.447   1.050  1.00  0.00     0.003 A 
ENDBRANCH  12  17
ENDBRANCH   7   9
ENDBRANCH   6   7
ENDBRANCH   5   6
ENDBRANCH   4   5
ENDBRANCH   3   4
ENDBRANCH   2   3
ENDBRANCH   1   2
BRANCH   1  24
ATOM     24  O   UNL     1      -6.559  -0.882  -0.764  1.00  0.00    -0.376 OA
BRANCH  24  25
ATOM     25  C   UNL     1      -6.995  -0.394  -2.028  1.00  0.00     0.202 C 
BRANCH  25  26
ATOM     26  C   UNL     1      -7.791  -1.435  -2.809  1.00  0.00     0.261 C 
BRANCH  26  27
ATOM     27  O   UNL     1      -7.112  -2.674  -3.004  1.00  0.00    -0.460 OA
BRANCH  27  28
ATOM     28  C   UNL     1      -6.034  -2.635  -3.817  1.00  0.00     0.338 C 
ATOM     29  O   UNL     1      -5.442  -1.638  -4.188  1.00  0.00    -0.246 OA
BRANCH  28  30
ATOM     30  C   UNL     1      -5.723  -4.004  -4.259  1.00  0.00     0.060 A 
ATOM     31  C   UNL     1      -4.563  -4.186  -5.014  1.00  0.00     0.016 A 
ATOM     32  C   UNL     1      -6.667  -5.034  -4.111  1.00  0.00     0.016 A 
ATOM     33  C   UNL     1      -4.429  -5.343  -5.756  1.00  0.00     0.010 A 
ATOM     34  C   UNL     1      -6.535  -6.188  -4.858  1.00  0.00     0.010 A 
ATOM     35  C   UNL     1      -5.456  -6.295  -5.733  1.00  0.00    -0.014 A 
BRANCH  35  36
ATOM     36  C   UNL     1      -5.409  -7.341  -6.737  1.00  0.00     0.031 A 
ATOM     37  C   UNL     1      -4.449  -8.441  -6.521  1.00  0.00     0.074 A 
ATOM     38  C   UNL     1      -6.223  -7.339  -7.809  1.00  0.00     0.049 A 
ATOM     39  N   UNL     1      -3.432  -8.755  -7.251  1.00  0.00    -0.248 NA
ATOM     40  C   UNL     1      -4.607  -9.261  -5.315  1.00  0.00     0.031 C 
ATOM     41  C   UNL     1      -7.408  -6.506  -8.032  1.00  0.00     0.029 A 
ATOM     42  N   UNL     1      -6.206  -8.167  -8.891  1.00  0.00    -0.354 N 
ATOM     43  C   UNL     1      -2.922  -9.930  -6.713  1.00  0.00     0.074 A 
ATOM     44  C   UNL     1      -3.604 -10.128  -5.459  1.00  0.00     0.031 C 
ATOM     45  C   UNL     1      -8.111  -7.013  -9.068  1.00  0.00     0.029 A 
ATOM     46  C   UNL     1      -7.359  -8.110  -9.656  1.00  0.00     0.049 A 
ATOM     47  H   UNL     1      -5.444  -8.751  -9.109  1.00  0.00     0.167 HD
ATOM     48  C   UNL     1      -2.099 -10.743  -7.428  1.00  0.00     0.034 A 
ATOM     49  C   UNL     1      -7.714  -8.954 -10.655  1.00  0.00     0.034 A 
ATOM     50  C   UNL     1      -1.504 -10.051  -8.546  1.00  0.00     0.049 A 
ATOM     51  C   UNL     1      -6.475  -9.570 -11.187  1.00  0.00     0.074 A 
ATOM     52  C   UNL     1      -0.709  -8.928  -8.674  1.00  0.00     0.029 A 
ATOM     53  N   UNL     1      -1.962 -10.325  -9.813  1.00  0.00    -0.354 N 
ATOM     54  N   UNL     1      -5.542  -8.906 -11.814  1.00  0.00    -0.248 NA
ATOM     55  C   UNL     1      -6.071 -10.875 -10.687  1.00  0.00     0.031 C 
ATOM     56  C   UNL     1      -1.111  -8.321  -9.898  1.00  0.00     0.029 A 
ATOM     57  C   UNL     1      -2.107  -9.122 -10.460  1.00  0.00     0.049 A 
ATOM     58  H   UNL     1      -2.152 -11.216 -10.186  1.00  0.00     0.167 HD
ATOM     59  C   UNL     1      -4.353  -9.510 -11.436  1.00  0.00     0.074 A 
ATOM     60  C   UNL     1      -4.749 -10.784 -10.848  1.00  0.00     0.031 C 
ATOM     61  C   UNL     1      -3.183  -8.808 -11.381  1.00  0.00     0.034 A 
BRANCH  48  62
ATOM     62  C   UNL     1      -2.029 -12.243  -7.277  1.00  0.00     0.023 A 
ATOM     63  C   UNL     1      -1.044 -12.934  -8.009  1.00  0.00     0.031 A 
ATOM     64  C   UNL     1      -3.026 -13.043  -6.676  1.00  0.00     0.131 A 
ATOM     65  C   UNL     1      -1.109 -14.329  -8.170  1.00  0.00     0.055 A 
ATOM     66  C   UNL     1      -3.041 -14.437  -6.772  1.00  0.00     0.041 A 
ATOM     67  F   UNL     1      -4.087 -12.518  -6.050  1.00  0.00    -0.206 F 
ATOM     68  C   UNL     1      -2.094 -15.088  -7.545  1.00  0.00     0.022 A 
BRANCH  65  69
ATOM     69  S   UNL     1       0.001 -15.112  -9.370  1.00  0.00     0.124 S 
ATOM     70  O   UNL     1      -0.183 -14.267 -10.545  1.00  0.00    -0.237 OA
ATOM     71  O   UNL     1       1.291 -15.008  -8.697  1.00  0.00    -0.237 OA
ATOM     72  O   UNL     1      -0.533 -16.467  -9.490  1.00  0.00    -0.744 OA
ENDBRANCH  65  69
ENDBRANCH  48  62
BRANCH  49  73
ATOM     73  C   UNL     1      -9.086  -9.448 -10.928  1.00  0.00     0.023 A 
ATOM     74  C   UNL     1      -9.453 -10.003 -12.167  1.00  0.00     0.031 A 
ATOM     75  C   UNL     1     -10.019  -9.573  -9.872  1.00  0.00     0.131 A 
ATOM     76  C   UNL     1     -10.709 -10.633 -12.315  1.00  0.00     0.055 A 
ATOM     77  C   UNL     1     -11.267 -10.176 -10.029  1.00  0.00     0.041 A 
ATOM     78  F   UNL     1      -9.716  -9.185  -8.623  1.00  0.00    -0.206 F 
ATOM     79  C   UNL     1     -11.616 -10.715 -11.255  1.00  0.00     0.022 A 
BRANCH  76  80
ATOM     80  S   UNL     1     -11.131 -11.460 -13.879  1.00  0.00     0.124 S 
ATOM     81  O   UNL     1     -11.350 -10.332 -14.775  1.00  0.00    -0.237 OA
ATOM     82  O   UNL     1      -9.945 -12.271 -14.133  1.00  0.00    -0.237 OA
ATOM     83  O   UNL     1     -12.333 -12.225 -13.544  1.00  0.00    -0.744 OA
ENDBRANCH  76  80
ENDBRANCH  49  73
BRANCH  61  84
ATOM     84  C   UNL     1      -3.094  -7.479 -12.099  1.00  0.00     0.023 A 
ATOM     85  C   UNL     1      -3.910  -6.364 -11.816  1.00  0.00     0.031 A 
ATOM     86  C   UNL     1      -2.033  -7.301 -13.007  1.00  0.00     0.131 A 
ATOM     87  C   UNL     1      -3.653  -5.128 -12.441  1.00  0.00     0.055 A 
ATOM     88  C   UNL     1      -1.772  -6.072 -13.611  1.00  0.00     0.041 A 
ATOM     89  F   UNL     1      -1.200  -8.317 -13.288  1.00  0.00    -0.206 F 
ATOM     90  C   UNL     1      -2.585  -4.980 -13.332  1.00  0.00     0.022 A 
BRANCH  87  91
ATOM     91  S   UNL     1      -4.701  -3.683 -12.084  1.00  0.00     0.124 S 
ATOM     92  O   UNL     1      -6.053  -4.179 -12.317  1.00  0.00    -0.237 OA
ATOM     93  O   UNL     1      -4.359  -3.378 -10.697  1.00  0.00    -0.237 OA
ATOM     94  O   UNL     1      -4.246  -2.683 -13.053  1.00  0.00    -0.744 OA
ENDBRANCH  87  91
ENDBRANCH  61  84
ENDBRANCH  35  36
ENDBRANCH  28  30
ENDBRANCH  27  28
ENDBRANCH  26  27
ENDBRANCH  25  26
ENDBRANCH  24  25
ENDBRANCH   1  24
TORSDOF 22
