REMARK SMILES Cc1ccccc1/[NH+]=C1\S[C@@H](CC(=O)Nc2ccc(C(=O)OCCOCCOCCOC(=O)c3ccc(-c4c5nc(c(-c6cc(S(=O)(=O)[O-])ccc6F)c6ccc([nH]6)c(-c6cc(S(=O)(=O)[O-])ccc6F)c6nc(c(-c7cc(S(=O)(=O)[O-])ccc7F)c7ccc4[nH]7)C=C6)C=C5)cc3)cc2)C(=O)N1C
REMARK SMILES IDX 26 1 25 2 24 3 23 4 22 5 20 6 21 7 19 8 16 9 17 10 98 11
REMARK SMILES IDX 18 12 97 13 15 14 13 15 14 16 12 18 11 19 8 20 9 21 10 23
REMARK SMILES IDX 101 24 99 25 102 26 100 27 7 28 1 29 2 30 3 31 4 32 6 33
REMARK SMILES IDX 5 34 27 35 28 36 29 37 30 38 31 39 32 40 33 41 34 42 35 43
REMARK SMILES IDX 96 44 36 45 95 46 37 47 38 48 39 49 89 50 40 51 94 52 88 53
REMARK SMILES IDX 90 54 41 55 93 56 87 57 86 58 42 60 74 61 54 62 73 63 55 64
REMARK SMILES IDX 58 65 72 66 91 67 56 68 57 69 71 71 92 72 59 73 43 74 44 75
REMARK SMILES IDX 52 76 45 77 51 78 53 79 50 80 46 81 47 82 48 83 49 84 75 85
REMARK SMILES IDX 76 86 84 87 77 88 83 89 85 90 82 91 78 92 79 93 80 94 81 95
REMARK SMILES IDX 60 96 61 97 69 98 62 99 68 100 70 101 67 102 63 103 64 104
REMARK SMILES IDX 65 105 66 106
REMARK H PARENT 15 17 8 22 90 59 58 70
REMARK Flexibility Score: inf
ROOT
ATOM      1  C   UNL     1       3.436   9.366  -4.341  1.00  0.00     0.188 C 
ENDROOT
BRANCH   1   2
ATOM      2  O   UNL     1       3.000   8.099  -3.841  1.00  0.00    -0.376 OA
BRANCH   2   3
ATOM      3  C   UNL     1       1.696   7.871  -3.350  1.00  0.00     0.202 C 
BRANCH   3   4
ATOM      4  C   UNL     1       1.604   7.035  -1.962  1.00  0.00     0.261 C 
BRANCH   4   5
ATOM      5  O   UNL     1       2.061   5.550  -1.746  1.00  0.00    -0.460 OA
BRANCH   5   6
ATOM      6  C   UNL     1       2.955   4.586  -1.306  1.00  0.00     0.338 C 
ATOM      7  O   UNL     1       2.567   3.415  -1.324  1.00  0.00    -0.246 OA
BRANCH   6   8
ATOM      8  C   UNL     1       4.365   4.673  -0.721  1.00  0.00     0.060 A 
ATOM      9  C   UNL     1       6.708   4.098   0.745  1.00  0.00     0.041 A 
ATOM     10  C   UNL     1       5.763   4.982   1.259  1.00  0.00     0.027 A 
ATOM     11  C   UNL     1       6.640   3.726  -0.592  1.00  0.00     0.027 A 
ATOM     12  C   UNL     1       4.580   5.239   0.541  1.00  0.00     0.018 A 
ATOM     13  C   UNL     1       5.456   3.982  -1.310  1.00  0.00     0.018 A 
BRANCH   9  14
ATOM     14  N   UNL     1       7.466   3.354   1.673  1.00  0.00    -0.326 N 
ATOM     15  C   UNL     1       7.067   2.107   2.124  1.00  0.00     0.226 C 
ATOM     16  O   UNL     1       7.487   1.684   3.205  1.00  0.00    -0.275 OA
ATOM     17  H   UNL     1       8.308   3.736   2.012  1.00  0.00     0.169 HD
BRANCH  15  18
ATOM     18  C   UNL     1       6.110   1.271   1.296  1.00  0.00     0.128 C 
BRANCH  18  19
ATOM     19  C   UNL     1       4.663   1.267   1.766  1.00  0.00     0.183 C 
ATOM     20  N   UNL     1       0.981   1.441   0.932  1.00  0.00    -0.234 N 
ATOM     21  C   UNL     1       2.250   1.624   0.994  1.00  0.00     0.319 C 
ATOM     22  H   UNL     1       0.476   2.180   1.341  1.00  0.00     0.313 HD
ATOM     23  S   UNL     1       3.594   0.711   0.411  1.00  0.00    -0.022 SA
ATOM     24  N   UNL     1       2.730   2.690   1.717  1.00  0.00    -0.193 N 
ATOM     25  C   UNL     1       3.994   2.542   2.256  1.00  0.00     0.324 C 
ATOM     26  C   UNL     1       1.889   3.837   2.004  1.00  0.00     0.301 C 
ATOM     27  O   UNL     1       4.449   3.247   3.153  1.00  0.00    -0.245 OA
BRANCH  20  28
ATOM     28  C   UNL     1       0.143   0.441   0.424  1.00  0.00     0.128 A 
ATOM     29  C   UNL     1       1.681  -1.638   0.294  1.00  0.00     0.049 C 
ATOM     30  C   UNL     1       0.360  -0.938   0.237  1.00  0.00    -0.004 A 
ATOM     31  C   UNL     1      -0.741  -1.781  -0.050  1.00  0.00     0.008 A 
ATOM     32  C   UNL     1      -2.041  -1.297  -0.128  1.00  0.00     0.001 A 
ATOM     33  C   UNL     1      -1.185   0.904   0.289  1.00  0.00     0.052 A 
ATOM     34  C   UNL     1      -2.265   0.058   0.030  1.00  0.00     0.004 A 
ENDBRANCH  20  28
ENDBRANCH  18  19
ENDBRANCH  15  18
ENDBRANCH   9  14
ENDBRANCH   6   8
ENDBRANCH   5   6
ENDBRANCH   4   5
ENDBRANCH   3   4
ENDBRANCH   2   3
ENDBRANCH   1   2
BRANCH   1  35
ATOM     35  C   UNL     1       3.253  10.569  -3.418  1.00  0.00     0.188 C 
BRANCH  35  36
ATOM     36  O   UNL     1       2.820  10.140  -2.132  1.00  0.00    -0.376 OA
BRANCH  36  37
ATOM     37  C   UNL     1       2.628  11.183  -1.194  1.00  0.00     0.202 C 
BRANCH  37  38
ATOM     38  C   UNL     1       3.948  11.721  -0.631  1.00  0.00     0.261 C 
BRANCH  38  39
ATOM     39  O   UNL     1       4.691  10.641  -0.027  1.00  0.00    -0.460 OA
BRANCH  39  40
ATOM     40  C   UNL     1       5.904  10.380  -0.592  1.00  0.00     0.338 C 
ATOM     41  O   UNL     1       6.876  11.141  -0.491  1.00  0.00    -0.246 OA
BRANCH  40  42
ATOM     42  C   UNL     1       5.879   9.073  -1.304  1.00  0.00     0.060 A 
ATOM     43  C   UNL     1       6.686   8.716  -2.379  1.00  0.00     0.016 A 
ATOM     44  C   UNL     1       4.896   8.180  -0.995  1.00  0.00     0.016 A 
ATOM     45  C   UNL     1       6.375   7.581  -3.223  1.00  0.00     0.010 A 
ATOM     46  C   UNL     1       4.607   7.147  -1.906  1.00  0.00     0.010 A 
ATOM     47  C   UNL     1       5.226   6.790  -3.096  1.00  0.00    -0.014 A 
BRANCH  47  48
ATOM     48  C   UNL     1       4.551   5.898  -4.233  1.00  0.00     0.031 A 
ATOM     49  C   UNL     1       3.601   4.661  -4.229  1.00  0.00     0.074 A 
ATOM     50  C   UNL     1       4.761   6.242  -5.524  1.00  0.00     0.049 A 
ATOM     51  N   UNL     1       3.938   3.409  -4.462  1.00  0.00    -0.248 NA
ATOM     52  C   UNL     1       2.127   4.778  -4.222  1.00  0.00     0.031 C 
ATOM     53  C   UNL     1       4.246   5.598  -6.735  1.00  0.00     0.029 A 
ATOM     54  N   UNL     1       5.702   7.138  -6.002  1.00  0.00    -0.354 N 
ATOM     55  C   UNL     1       2.749   2.654  -4.574  1.00  0.00     0.074 A 
ATOM     56  C   UNL     1       1.669   3.528  -4.217  1.00  0.00     0.031 C 
ATOM     57  C   UNL     1       5.096   5.865  -7.740  1.00  0.00     0.029 A 
ATOM     58  C   UNL     1       6.213   6.611  -7.185  1.00  0.00     0.049 A 
ATOM     59  H   UNL     1       5.962   7.991  -5.583  1.00  0.00     0.167 HD
ATOM     60  C   UNL     1       2.483   1.589  -5.396  1.00  0.00     0.034 A 
ATOM     61  C   UNL     1       7.538   6.303  -7.259  1.00  0.00     0.034 A 
ATOM     62  C   UNL     1       3.315   1.604  -6.565  1.00  0.00     0.049 A 
ATOM     63  C   UNL     1       7.788   4.845  -7.563  1.00  0.00     0.074 A 
ATOM     64  C   UNL     1       3.072   1.999  -7.869  1.00  0.00     0.029 A 
ATOM     65  N   UNL     1       4.674   1.434  -6.435  1.00  0.00    -0.354 N 
ATOM     66  N   UNL     1       6.874   3.913  -7.539  1.00  0.00    -0.248 NA
ATOM     67  C   UNL     1       9.105   4.319  -7.895  1.00  0.00     0.031 C 
ATOM     68  C   UNL     1       4.322   2.109  -8.523  1.00  0.00     0.029 A 
ATOM     69  C   UNL     1       5.300   1.725  -7.625  1.00  0.00     0.049 A 
ATOM     70  H   UNL     1       5.130   1.147  -5.611  1.00  0.00     0.167 HD
ATOM     71  C   UNL     1       7.453   2.691  -7.790  1.00  0.00     0.074 A 
ATOM     72  C   UNL     1       8.844   3.010  -8.044  1.00  0.00     0.031 C 
ATOM     73  C   UNL     1       6.730   1.531  -7.739  1.00  0.00     0.034 A 
BRANCH  60  74
ATOM     74  C   UNL     1       1.168   0.816  -5.290  1.00  0.00     0.023 A 
ATOM     75  C   UNL     1       0.362   0.443  -6.390  1.00  0.00     0.031 A 
ATOM     76  C   UNL     1       0.708   0.399  -4.020  1.00  0.00     0.131 A 
ATOM     77  C   UNL     1      -0.865  -0.241  -6.197  1.00  0.00     0.055 A 
ATOM     78  C   UNL     1      -0.512  -0.266  -3.831  1.00  0.00     0.041 A 
ATOM     79  F   UNL     1       1.442   0.634  -2.922  1.00  0.00    -0.206 F 
ATOM     80  C   UNL     1      -1.312  -0.579  -4.920  1.00  0.00     0.022 A 
BRANCH  77  81
ATOM     81  S   UNL     1      -1.909  -0.667  -7.631  1.00  0.00     0.124 S 
ATOM     82  O   UNL     1      -2.115   0.632  -8.265  1.00  0.00    -0.237 OA
ATOM     83  O   UNL     1      -1.075  -1.614  -8.361  1.00  0.00    -0.237 OA
ATOM     84  O   UNL     1      -3.110  -1.246  -7.026  1.00  0.00    -0.744 OA
ENDBRANCH  77  81
ENDBRANCH  60  74
BRANCH  61  85
ATOM     85  C   UNL     1       8.433   7.212  -6.464  1.00  0.00     0.023 A 
ATOM     86  C   UNL     1       8.229   8.609  -6.607  1.00  0.00     0.031 A 
ATOM     87  C   UNL     1       9.223   6.789  -5.384  1.00  0.00     0.131 A 
ATOM     88  C   UNL     1       8.662   9.508  -5.623  1.00  0.00     0.055 A 
ATOM     89  C   UNL     1       9.737   7.705  -4.447  1.00  0.00     0.041 A 
ATOM     90  F   UNL     1       9.399   5.484  -5.133  1.00  0.00    -0.206 F 
ATOM     91  C   UNL     1       9.437   9.067  -4.551  1.00  0.00     0.022 A 
BRANCH  88  92
ATOM     92  S   UNL     1       7.984  11.201  -5.592  1.00  0.00     0.124 S 
ATOM     93  O   UNL     1       9.177  12.014  -5.795  1.00  0.00    -0.237 OA
ATOM     94  O   UNL     1       7.017  11.206  -6.687  1.00  0.00    -0.237 OA
ATOM     95  O   UNL     1       7.378  11.280  -4.265  1.00  0.00    -0.744 OA
ENDBRANCH  88  92
ENDBRANCH  61  85
BRANCH  73  96
ATOM     96  C   UNL     1       7.238   0.103  -7.825  1.00  0.00     0.023 A 
ATOM     97  C   UNL     1       8.593  -0.236  -7.804  1.00  0.00     0.031 A 
ATOM     98  C   UNL     1       6.341  -1.000  -7.881  1.00  0.00     0.131 A 
ATOM     99  C   UNL     1       9.015  -1.574  -7.908  1.00  0.00     0.055 A 
ATOM    100  C   UNL     1       6.760  -2.334  -7.901  1.00  0.00     0.041 A 
ATOM    101  F   UNL     1       5.010  -0.839  -7.917  1.00  0.00    -0.206 F 
ATOM    102  C   UNL     1       8.110  -2.630  -7.931  1.00  0.00     0.022 A 
BRANCH  99 103
ATOM    103  S   UNL     1      10.788  -1.884  -8.100  1.00  0.00     0.124 S 
ATOM    104  O   UNL     1      11.089  -1.144  -9.323  1.00  0.00    -0.237 OA
ATOM    105  O   UNL     1      11.336  -1.321  -6.871  1.00  0.00    -0.237 OA
ATOM    106  O   UNL     1      10.874  -3.337  -8.216  1.00  0.00    -0.744 OA
ENDBRANCH  99 103
ENDBRANCH  73  96
ENDBRANCH  47  48
ENDBRANCH  40  42
ENDBRANCH  39  40
ENDBRANCH  38  39
ENDBRANCH  37  38
ENDBRANCH  36  37
ENDBRANCH  35  36
ENDBRANCH   1  35
TORSDOF 24
