REMARK SMILES NS(=O)(=O)c1ccc(-n2nc(C(F)(F)F)cc2-c2ccc(CC(=O)OCCOCCOCCOC(=O)c3ccc(-c4c5nc(c(-c6cc(S(=O)(=O)[O-])ccc6F)c6ccc([nH]6)c(-c6cc(S(=O)(=O)[O-])ccc6F)c6nc(c(-c7cc(S(=O)(=O)[O-])ccc7F)c7ccc4[nH]7)C=C6)C=C5)cc3)cc2)cc1
REMARK SMILES IDX 29 1 28 2 27 3 26 4 25 5 23 6 24 7 22 8 21 9 18 10 19 11
REMARK SMILES IDX 101 12 20 13 100 14 17 15 9 16 10 17 11 18 16 19 8 20 5 21
REMARK SMILES IDX 6 22 103 23 7 24 102 25 2 26 3 27 4 28 1 29 12 32 13 33
REMARK SMILES IDX 14 34 15 35 30 36 31 37 32 38 33 39 34 40 35 41 36 42 37 43
REMARK SMILES IDX 38 44 99 45 39 46 98 47 40 48 41 49 42 50 92 51 43 52 97 53
REMARK SMILES IDX 91 54 93 55 44 56 96 57 90 58 89 59 45 61 77 62 57 63 76 64
REMARK SMILES IDX 58 65 61 66 75 67 94 68 59 69 60 70 74 72 95 73 62 74 46 75
REMARK SMILES IDX 47 76 55 77 48 78 54 79 56 80 53 81 49 82 50 83 51 84 52 85
REMARK SMILES IDX 78 86 79 87 87 88 80 89 86 90 88 91 85 92 81 93 82 94 83 95
REMARK SMILES IDX 84 96 63 97 64 98 72 99 65 100 71 101 73 102 70 103 66 104
REMARK SMILES IDX 67 105 68 106 69 107
REMARK H PARENT 1 30 1 31 93 60 61 71
REMARK Flexibility Score: inf
ROOT
ATOM      1  C   UNL     1       6.449  -2.107   0.546  1.00  0.00     0.188 C 
ENDROOT
BRANCH   1   2
ATOM      2  O   UNL     1       6.243  -2.069  -0.849  1.00  0.00    -0.376 OA
BRANCH   2   3
ATOM      3  C   UNL     1       5.185  -2.804  -1.425  1.00  0.00     0.202 C 
BRANCH   3   4
ATOM      4  C   UNL     1       4.947  -4.295  -1.101  1.00  0.00     0.261 C 
BRANCH   4   5
ATOM      5  O   UNL     1       4.946  -4.699   0.289  1.00  0.00    -0.463 OA
BRANCH   5   6
ATOM      6  C   UNL     1       5.902  -5.572   0.686  1.00  0.00     0.310 C 
ATOM      7  O   UNL     1       6.703  -6.082  -0.097  1.00  0.00    -0.252 OA
BRANCH   6   8
ATOM      8  C   UNL     1       5.992  -5.894   2.176  1.00  0.00     0.158 C 
BRANCH   8   9
ATOM      9  C   UNL     1       5.068  -5.307   3.236  1.00  0.00    -0.037 A 
ATOM     10  C   UNL     1       3.394  -4.218   5.269  1.00  0.00     0.000 A 
ATOM     11  C   UNL     1       4.671  -3.699   5.050  1.00  0.00     0.010 A 
ATOM     12  C   UNL     1       2.983  -5.319   4.507  1.00  0.00     0.010 A 
ATOM     13  C   UNL     1       5.510  -4.266   4.078  1.00  0.00     0.005 A 
ATOM     14  C   UNL     1       3.797  -5.838   3.483  1.00  0.00     0.005 A 
BRANCH  10  15
ATOM     15  C   UNL     1       2.559  -3.677   6.345  1.00  0.00     0.075 A 
ATOM     16  N   UNL     1       1.851  -2.475   6.322  1.00  0.00    -0.233 N 
ATOM     17  N   UNL     1       1.387  -2.145   7.559  1.00  0.00    -0.163 NA
ATOM     18  C   UNL     1       1.670  -3.195   8.346  1.00  0.00     0.167 A 
ATOM     19  C   UNL     1       2.443  -4.148   7.641  1.00  0.00     0.064 A 
BRANCH  16  20
ATOM     20  C   UNL     1       1.433  -1.681   5.219  1.00  0.00     0.065 A 
ATOM     21  C   UNL     1       0.414  -0.091   3.153  1.00  0.00     0.082 A 
ATOM     22  C   UNL     1       0.448  -1.484   3.015  1.00  0.00     0.024 A 
ATOM     23  C   UNL     1       0.887   0.510   4.321  1.00  0.00     0.024 A 
ATOM     24  C   UNL     1       0.993  -2.278   4.033  1.00  0.00     0.030 A 
ATOM     25  C   UNL     1       1.357  -0.287   5.370  1.00  0.00     0.030 A 
BRANCH  21  26
ATOM     26  S   UNL     1      -0.203   0.926   1.840  1.00  0.00     0.238 S 
ATOM     27  O   UNL     1       0.477   2.210   1.865  1.00  0.00    -0.207 OA
ATOM     28  O   UNL     1      -1.628   0.791   1.764  1.00  0.00    -0.207 OA
BRANCH  26  29
ATOM     29  N   UNL     1       0.384   0.216   0.422  1.00  0.00    -0.225 NA
ATOM     30  H   UNL     1       0.065   0.753  -0.385  1.00  0.00     0.137 HD
ATOM     31  H   UNL     1       0.037  -0.741   0.351  1.00  0.00     0.137 HD
ENDBRANCH  26  29
ENDBRANCH  21  26
ENDBRANCH  16  20
BRANCH  18  32
ATOM     32  C   UNL     1       1.194  -3.299   9.771  1.00  0.00     0.435 C 
ATOM     33  F   UNL     1       1.462  -2.200  10.521  1.00  0.00    -0.164 F 
ATOM     34  F   UNL     1      -0.149  -3.515   9.844  1.00  0.00    -0.164 F 
ATOM     35  F   UNL     1       1.772  -4.354  10.416  1.00  0.00    -0.164 F 
ENDBRANCH  18  32
ENDBRANCH  10  15
ENDBRANCH   8   9
ENDBRANCH   6   8
ENDBRANCH   5   6
ENDBRANCH   4   5
ENDBRANCH   3   4
ENDBRANCH   2   3
ENDBRANCH   1   2
BRANCH   1  36
ATOM     36  C   UNL     1       5.289  -2.277   1.529  1.00  0.00     0.188 C 
BRANCH  36  37
ATOM     37  O   UNL     1       3.939  -2.334   1.138  1.00  0.00    -0.376 OA
BRANCH  37  38
ATOM     38  C   UNL     1       3.168  -1.220   0.756  1.00  0.00     0.202 C 
BRANCH  38  39
ATOM     39  C   UNL     1       3.473   0.204   1.159  1.00  0.00     0.261 C 
BRANCH  39  40
ATOM     40  O   UNL     1       4.807   0.403   1.520  1.00  0.00    -0.460 OA
BRANCH  40  41
ATOM     41  C   UNL     1       4.998   0.348   2.856  1.00  0.00     0.338 C 
ATOM     42  O   UNL     1       4.262  -0.126   3.702  1.00  0.00    -0.246 OA
BRANCH  41  43
ATOM     43  C   UNL     1       6.251   1.039   3.119  1.00  0.00     0.060 A 
ATOM     44  C   UNL     1       6.651   1.081   4.453  1.00  0.00     0.016 A 
ATOM     45  C   UNL     1       6.680   1.955   2.148  1.00  0.00     0.016 A 
ATOM     46  C   UNL     1       7.243   2.236   4.884  1.00  0.00     0.010 A 
ATOM     47  C   UNL     1       7.203   3.127   2.590  1.00  0.00     0.010 A 
ATOM     48  C   UNL     1       7.387   3.274   3.960  1.00  0.00    -0.014 A 
BRANCH  48  49
ATOM     49  C   UNL     1       7.861   4.546   4.423  1.00  0.00     0.031 A 
ATOM     50  C   UNL     1       9.325   4.534   4.571  1.00  0.00     0.074 A 
ATOM     51  C   UNL     1       7.040   5.604   4.520  1.00  0.00     0.049 A 
ATOM     52  N   UNL     1       9.987   4.477   5.676  1.00  0.00    -0.248 NA
ATOM     53  C   UNL     1      10.139   4.254   3.372  1.00  0.00     0.031 C 
ATOM     54  C   UNL     1       5.638   5.717   4.112  1.00  0.00     0.029 A 
ATOM     55  N   UNL     1       7.344   6.866   4.899  1.00  0.00    -0.354 N 
ATOM     56  C   UNL     1      11.316   4.470   5.285  1.00  0.00     0.074 A 
ATOM     57  C   UNL     1      11.326   4.013   3.926  1.00  0.00     0.031 C 
ATOM     58  C   UNL     1       5.309   7.027   4.032  1.00  0.00     0.029 A 
ATOM     59  C   UNL     1       6.440   7.829   4.472  1.00  0.00     0.049 A 
ATOM     60  H   UNL     1       8.141   7.084   5.434  1.00  0.00     0.167 HD
ATOM     61  C   UNL     1      12.240   5.180   5.983  1.00  0.00     0.034 A 
ATOM     62  C   UNL     1       6.691   9.165   4.378  1.00  0.00     0.034 A 
ATOM     63  C   UNL     1      11.736   5.520   7.300  1.00  0.00     0.049 A 
ATOM     64  C   UNL     1       7.853   9.434   5.279  1.00  0.00     0.074 A 
ATOM     65  C   UNL     1      11.204   4.773   8.337  1.00  0.00     0.029 A 
ATOM     66  N   UNL     1      11.324   6.817   7.528  1.00  0.00    -0.354 N 
ATOM     67  N   UNL     1       7.799   9.274   6.578  1.00  0.00    -0.248 NA
ATOM     68  C   UNL     1       9.195   9.338   4.713  1.00  0.00     0.031 C 
ATOM     69  C   UNL     1      10.104   5.544   8.815  1.00  0.00     0.029 A 
ATOM     70  C   UNL     1      10.088   6.761   8.130  1.00  0.00     0.049 A 
ATOM     71  H   UNL     1      11.823   7.635   7.302  1.00  0.00     0.167 HD
ATOM     72  C   UNL     1       8.986   8.639   6.922  1.00  0.00     0.074 A 
ATOM     73  C   UNL     1       9.843   8.781   5.744  1.00  0.00     0.031 C 
ATOM     74  C   UNL     1       9.061   7.782   7.988  1.00  0.00     0.034 A 
BRANCH  61  75
ATOM     75  C   UNL     1      13.397   5.906   5.337  1.00  0.00     0.023 A 
ATOM     76  C   UNL     1      14.272   6.577   6.205  1.00  0.00     0.031 A 
ATOM     77  C   UNL     1      13.542   6.213   3.961  1.00  0.00     0.131 A 
ATOM     78  C   UNL     1      15.137   7.572   5.726  1.00  0.00     0.055 A 
ATOM     79  C   UNL     1      14.459   7.150   3.482  1.00  0.00     0.041 A 
ATOM     80  F   UNL     1      12.759   5.706   3.004  1.00  0.00    -0.206 F 
ATOM     81  C   UNL     1      15.239   7.864   4.369  1.00  0.00     0.022 A 
BRANCH  78  82
ATOM     82  S   UNL     1      15.989   8.604   6.939  1.00  0.00     0.124 S 
ATOM     83  O   UNL     1      14.871   9.089   7.742  1.00  0.00    -0.237 OA
ATOM     84  O   UNL     1      16.874   7.638   7.581  1.00  0.00    -0.237 OA
ATOM     85  O   UNL     1      16.653   9.612   6.116  1.00  0.00    -0.744 OA
ENDBRANCH  78  82
ENDBRANCH  61  75
BRANCH  62  86
ATOM     86  C   UNL     1       6.232  10.069   3.275  1.00  0.00     0.023 A 
ATOM     87  C   UNL     1       6.280  11.479   3.356  1.00  0.00     0.031 A 
ATOM     88  C   UNL     1       5.910   9.532   2.004  1.00  0.00     0.131 A 
ATOM     89  C   UNL     1       5.995  12.273   2.213  1.00  0.00     0.055 A 
ATOM     90  C   UNL     1       5.615  10.319   0.888  1.00  0.00     0.041 A 
ATOM     91  F   UNL     1       5.951   8.212   1.768  1.00  0.00    -0.206 F 
ATOM     92  C   UNL     1       5.663  11.696   0.986  1.00  0.00     0.022 A 
BRANCH  89  93
ATOM     93  S   UNL     1       6.138  14.091   2.277  1.00  0.00     0.124 S 
ATOM     94  O   UNL     1       5.018  14.462   3.133  1.00  0.00    -0.237 OA
ATOM     95  O   UNL     1       7.473  14.283   2.832  1.00  0.00    -0.237 OA
ATOM     96  O   UNL     1       5.999  14.495   0.876  1.00  0.00    -0.744 OA
ENDBRANCH  89  93
ENDBRANCH  62  86
BRANCH  74  97
ATOM     97  C   UNL     1       7.907   7.721   8.976  1.00  0.00     0.023 A 
ATOM     98  C   UNL     1       6.561   7.444   8.642  1.00  0.00     0.031 A 
ATOM     99  C   UNL     1       8.230   7.796  10.344  1.00  0.00     0.131 A 
ATOM    100  C   UNL     1       5.602   7.260   9.661  1.00  0.00     0.055 A 
ATOM    101  C   UNL     1       7.285   7.588  11.348  1.00  0.00     0.041 A 
ATOM    102  F   UNL     1       9.495   8.029  10.733  1.00  0.00    -0.206 F 
ATOM    103  C   UNL     1       5.965   7.324  11.010  1.00  0.00     0.022 A 
BRANCH 100 104
ATOM    104  S   UNL     1       3.853   6.946   9.254  1.00  0.00     0.124 S 
ATOM    105  O   UNL     1       3.554   7.953   8.243  1.00  0.00    -0.237 OA
ATOM    106  O   UNL     1       3.882   5.561   8.790  1.00  0.00    -0.237 OA
ATOM    107  O   UNL     1       3.166   7.144  10.532  1.00  0.00    -0.744 OA
ENDBRANCH 100 104
ENDBRANCH  74  97
ENDBRANCH  48  49
ENDBRANCH  41  43
ENDBRANCH  40  41
ENDBRANCH  39  40
ENDBRANCH  38  39
ENDBRANCH  37  38
ENDBRANCH  36  37
ENDBRANCH   1  36
TORSDOF 26
