REMARK SMILES Cc1cc2nc(SCC(=O)OCCOCCOCCOC(=O)c3ccc(-c4c5nc(c(-c6cc(S(=O)(=O)[O-])ccc6F)c6ccc([nH]6)c(-c6cc(S(=O)(=O)[O-])ccc6F)c6nc(c(-c7cc(S(=O)(=O)[O-])ccc7F)c7ccc4[nH]7)C=C6)C=C5)cc3)n(CC(C)C)c(=O)c2[nH]1
REMARK SMILES IDX 15 1 14 2 13 3 12 4 11 5 9 6 10 7 8 8 7 9 6 10 1 11 2 12
REMARK SMILES IDX 3 13 94 14 4 15 93 16 5 18 91 19 86 20 92 21 87 22 88 23
REMARK SMILES IDX 89 24 90 25 16 26 17 27 18 28 19 29 20 30 21 31 22 32 23 33
REMARK SMILES IDX 24 34 85 35 25 36 84 37 26 38 27 39 28 40 78 41 29 42 83 43
REMARK SMILES IDX 77 44 79 45 30 46 82 47 76 48 75 49 31 51 63 52 43 53 62 54
REMARK SMILES IDX 44 55 47 56 61 57 80 58 45 59 46 60 60 62 81 63 48 64 32 65
REMARK SMILES IDX 33 66 41 67 34 68 40 69 42 70 39 71 35 72 36 73 37 74 38 75
REMARK SMILES IDX 64 76 65 77 73 78 66 79 72 80 74 81 71 82 67 83 68 84 69 85
REMARK SMILES IDX 70 86 49 87 50 88 58 89 51 90 57 91 59 92 56 93 52 94 53 95
REMARK SMILES IDX 54 96 55 97
REMARK H PARENT 94 17 79 50 47 61
REMARK Flexibility Score: inf
ROOT
ATOM      1  C   UNL     1      -5.986  -0.456   4.374  1.00  0.00     0.188 C 
ENDROOT
BRANCH   1   2
ATOM      2  O   UNL     1      -7.402  -0.317   4.296  1.00  0.00    -0.376 OA
BRANCH   2   3
ATOM      3  C   UNL     1      -7.944   0.992   4.447  1.00  0.00     0.202 C 
BRANCH   3   4
ATOM      4  C   UNL     1      -7.768   1.614   5.834  1.00  0.00     0.261 C 
BRANCH   4   5
ATOM      5  O   UNL     1      -6.373   1.756   6.151  1.00  0.00    -0.463 OA
BRANCH   5   6
ATOM      6  C   UNL     1      -6.055   1.804   7.468  1.00  0.00     0.316 C 
ATOM      7  O   UNL     1      -6.871   1.995   8.363  1.00  0.00    -0.251 OA
BRANCH   6   8
ATOM      8  C   UNL     1      -4.638   1.333   7.715  1.00  0.00     0.200 C 
BRANCH   8   9
ATOM      9  S   UNL     1      -3.320   2.316   7.065  1.00  0.00    -0.076 SA
BRANCH   9  10
ATOM     10  C   UNL     1      -2.283   1.399   5.956  1.00  0.00     0.172 A 
ATOM     11  C   UNL     1       0.910   1.089   0.993  1.00  0.00     0.064 C 
ATOM     12  C   UNL     1       0.342   1.229   2.361  1.00  0.00     0.014 A 
ATOM     13  C   UNL     1      -0.524   2.176   2.889  1.00  0.00     0.052 A 
ATOM     14  N   UNL     1       0.564   0.278   3.342  1.00  0.00    -0.353 N 
ATOM     15  C   UNL     1      -0.943   1.675   4.131  1.00  0.00     0.097 A 
ATOM     16  C   UNL     1      -0.298   0.512   4.387  1.00  0.00     0.131 A 
ATOM     17  H   UNL     1       1.229  -0.447   3.299  1.00  0.00     0.166 HD
ATOM     18  N   UNL     1      -1.900   2.191   4.990  1.00  0.00    -0.222 NA
ATOM     19  C   UNL     1      -0.630  -0.324   5.497  1.00  0.00     0.278 A 
ATOM     20  N   UNL     1      -1.806   0.088   6.178  1.00  0.00    -0.286 N 
ATOM     21  O   UNL     1       0.001  -1.327   5.779  1.00  0.00    -0.267 OA
BRANCH  20  22
ATOM     22  C   UNL     1      -2.338  -0.950   7.103  1.00  0.00     0.131 C 
BRANCH  22  23
ATOM     23  C   UNL     1      -3.300  -1.998   6.422  1.00  0.00     0.003 C 
ATOM     24  C   UNL     1      -2.643  -3.360   6.120  1.00  0.00     0.009 C 
ATOM     25  C   UNL     1      -4.525  -2.344   7.287  1.00  0.00     0.009 C 
ENDBRANCH  22  23
ENDBRANCH  20  22
ENDBRANCH   9  10
ENDBRANCH   8   9
ENDBRANCH   6   8
ENDBRANCH   5   6
ENDBRANCH   4   5
ENDBRANCH   3   4
ENDBRANCH   2   3
ENDBRANCH   1   2
BRANCH   1  26
ATOM     26  C   UNL     1      -5.080   0.631   3.770  1.00  0.00     0.188 C 
BRANCH  26  27
ATOM     27  O   UNL     1      -5.470   1.262   2.560  1.00  0.00    -0.376 OA
BRANCH  27  28
ATOM     28  C   UNL     1      -6.037   0.476   1.525  1.00  0.00     0.202 C 
BRANCH  28  29
ATOM     29  C   UNL     1      -5.063  -0.341   0.696  1.00  0.00     0.261 C 
BRANCH  29  30
ATOM     30  O   UNL     1      -4.532  -1.457   1.407  1.00  0.00    -0.460 OA
BRANCH  30  31
ATOM     31  C   UNL     1      -3.275  -1.217   1.817  1.00  0.00     0.338 C 
ATOM     32  O   UNL     1      -2.728  -0.132   1.938  1.00  0.00    -0.246 OA
BRANCH  31  33
ATOM     33  C   UNL     1      -2.529  -2.453   1.979  1.00  0.00     0.060 A 
ATOM     34  C   UNL     1      -1.546  -2.419   2.959  1.00  0.00     0.016 A 
ATOM     35  C   UNL     1      -2.483  -3.350   0.917  1.00  0.00     0.016 A 
ATOM     36  C   UNL     1      -0.381  -3.119   2.784  1.00  0.00     0.010 A 
ATOM     37  C   UNL     1      -1.314  -4.059   0.729  1.00  0.00     0.010 A 
ATOM     38  C   UNL     1      -0.237  -3.822   1.595  1.00  0.00    -0.014 A 
BRANCH  38  39
ATOM     39  C   UNL     1       1.133  -4.118   1.203  1.00  0.00     0.031 A 
ATOM     40  C   UNL     1       1.837  -5.151   2.004  1.00  0.00     0.074 A 
ATOM     41  C   UNL     1       1.648  -3.470   0.140  1.00  0.00     0.049 A 
ATOM     42  N   UNL     1       3.045  -5.138   2.475  1.00  0.00    -0.248 NA
ATOM     43  C   UNL     1       1.037  -6.314   2.418  1.00  0.00     0.031 C 
ATOM     44  C   UNL     1       0.940  -2.578  -0.789  1.00  0.00     0.029 A 
ATOM     45  N   UNL     1       2.869  -3.608  -0.440  1.00  0.00    -0.354 N 
ATOM     46  C   UNL     1       3.208  -6.363   3.118  1.00  0.00     0.074 A 
ATOM     47  C   UNL     1       1.907  -6.982   3.167  1.00  0.00     0.031 C 
ATOM     48  C   UNL     1       1.630  -2.517  -1.945  1.00  0.00     0.029 A 
ATOM     49  C   UNL     1       2.857  -3.276  -1.787  1.00  0.00     0.049 A 
ATOM     50  H   UNL     1       3.673  -3.909   0.042  1.00  0.00     0.167 HD
ATOM     51  C   UNL     1       4.420  -6.898   3.429  1.00  0.00     0.034 A 
ATOM     52  C   UNL     1       3.680  -3.781  -2.737  1.00  0.00     0.034 A 
ATOM     53  C   UNL     1       5.466  -5.922   3.458  1.00  0.00     0.049 A 
ATOM     54  C   UNL     1       4.883  -4.322  -2.053  1.00  0.00     0.074 A 
ATOM     55  C   UNL     1       5.766  -4.858   4.282  1.00  0.00     0.029 A 
ATOM     56  N   UNL     1       6.251  -5.775   2.342  1.00  0.00    -0.354 N 
ATOM     57  N   UNL     1       5.761  -3.593  -1.417  1.00  0.00    -0.248 NA
ATOM     58  C   UNL     1       4.892  -5.737  -1.712  1.00  0.00     0.031 C 
ATOM     59  C   UNL     1       6.395  -3.898   3.443  1.00  0.00     0.029 A 
ATOM     60  C   UNL     1       6.451  -4.430   2.152  1.00  0.00     0.049 A 
ATOM     61  H   UNL     1       6.607  -6.501   1.780  1.00  0.00     0.167 HD
ATOM     62  C   UNL     1       6.131  -4.357  -0.317  1.00  0.00     0.074 A 
ATOM     63  C   UNL     1       5.657  -5.705  -0.619  1.00  0.00     0.031 C 
ATOM     64  C   UNL     1       6.535  -3.783   0.856  1.00  0.00     0.034 A 
BRANCH  51  65
ATOM     65  C   UNL     1       4.658  -8.382   3.474  1.00  0.00     0.023 A 
ATOM     66  C   UNL     1       3.819  -9.277   2.780  1.00  0.00     0.031 A 
ATOM     67  C   UNL     1       5.818  -8.934   4.041  1.00  0.00     0.131 A 
ATOM     68  C   UNL     1       4.081 -10.649   2.734  1.00  0.00     0.055 A 
ATOM     69  C   UNL     1       6.122 -10.299   3.933  1.00  0.00     0.041 A 
ATOM     70  F   UNL     1       6.707  -8.161   4.684  1.00  0.00    -0.206 F 
ATOM     71  C   UNL     1       5.244 -11.167   3.289  1.00  0.00     0.022 A 
BRANCH  68  72
ATOM     72  S   UNL     1       2.881 -11.774   1.971  1.00  0.00     0.124 S 
ATOM     73  O   UNL     1       3.623 -12.261   0.813  1.00  0.00    -0.237 OA
ATOM     74  O   UNL     1       2.658 -12.745   3.038  1.00  0.00    -0.237 OA
ATOM     75  O   UNL     1       1.741 -10.909   1.679  1.00  0.00    -0.744 OA
ENDBRANCH  68  72
ENDBRANCH  51  65
BRANCH  52  76
ATOM     76  C   UNL     1       3.199  -4.254  -4.063  1.00  0.00     0.023 A 
ATOM     77  C   UNL     1       1.840  -4.583  -4.264  1.00  0.00     0.031 A 
ATOM     78  C   UNL     1       4.085  -4.591  -5.094  1.00  0.00     0.131 A 
ATOM     79  C   UNL     1       1.401  -5.202  -5.439  1.00  0.00     0.055 A 
ATOM     80  C   UNL     1       3.650  -5.222  -6.269  1.00  0.00     0.041 A 
ATOM     81  F   UNL     1       5.400  -4.355  -4.963  1.00  0.00    -0.206 F 
ATOM     82  C   UNL     1       2.301  -5.528  -6.448  1.00  0.00     0.022 A 
BRANCH  79  83
ATOM     83  S   UNL     1      -0.367  -5.566  -5.641  1.00  0.00     0.124 S 
ATOM     84  O   UNL     1      -0.559  -5.448  -7.085  1.00  0.00    -0.237 OA
ATOM     85  O   UNL     1      -0.459  -6.917  -5.101  1.00  0.00    -0.237 OA
ATOM     86  O   UNL     1      -1.013  -4.521  -4.850  1.00  0.00    -0.744 OA
ENDBRANCH  79  83
ENDBRANCH  52  76
BRANCH  64  87
ATOM     87  C   UNL     1       6.795  -2.291   0.887  1.00  0.00     0.023 A 
ATOM     88  C   UNL     1       8.011  -1.836   1.429  1.00  0.00     0.031 A 
ATOM     89  C   UNL     1       5.796  -1.329   0.643  1.00  0.00     0.131 A 
ATOM     90  C   UNL     1       8.185  -0.478   1.731  1.00  0.00     0.055 A 
ATOM     91  C   UNL     1       5.995   0.033   0.885  1.00  0.00     0.041 A 
ATOM     92  F   UNL     1       4.566  -1.687   0.257  1.00  0.00    -0.206 F 
ATOM     93  C   UNL     1       7.191   0.463   1.445  1.00  0.00     0.022 A 
BRANCH  90  94
ATOM     94  S   UNL     1       9.648   0.089   2.636  1.00  0.00     0.124 S 
ATOM     95  O   UNL     1      10.245   1.037   1.700  1.00  0.00    -0.237 OA
ATOM     96  O   UNL     1       9.058   0.682   3.835  1.00  0.00    -0.237 OA
ATOM     97  O   UNL     1      10.417  -1.131   2.865  1.00  0.00    -0.744 OA
ENDBRANCH  90  94
ENDBRANCH  64  87
ENDBRANCH  38  39
ENDBRANCH  31  33
ENDBRANCH  30  31
ENDBRANCH  29  30
ENDBRANCH  28  29
ENDBRANCH  27  28
ENDBRANCH  26  27
ENDBRANCH   1  26
TORSDOF 24
