REMARK SMILES CCc1ccc(-c2cc(Cl)cc3c2O[C@H](C(F)(F)F)C(C(=O)OCCOCCOCCOC(=O)c2ccc(-c4c5nc(c(-c6cc(S(=O)(=O)[O-])ccc6F)c6ccc([nH]6)c(-c6cc(S(=O)(=O)[O-])ccc6F)c6nc(c(-c7cc(S(=O)(=O)[O-])ccc7F)c7ccc4[nH]7)C=C6)C=C5)cc2)=C3)cc1
REMARK SMILES IDX 28 1 27 2 26 3 25 4 24 5 23 6 21 7 22 8 20 9 7 10 8 11 13 12
REMARK SMILES IDX 9 13 12 14 14 15 10 16 11 17 98 18 15 19 6 20 3 21 4 22
REMARK SMILES IDX 100 23 5 24 99 25 2 26 1 27 16 28 17 29 18 30 19 31 29 32
REMARK SMILES IDX 30 33 31 34 32 35 33 36 34 37 35 38 36 39 97 40 37 41 96 42
REMARK SMILES IDX 38 43 39 44 40 45 90 46 41 47 95 48 89 49 91 50 42 51 94 52
REMARK SMILES IDX 88 53 87 54 43 56 75 57 55 58 74 59 56 60 59 61 73 62 92 63
REMARK SMILES IDX 57 64 58 65 72 67 93 68 60 69 44 70 45 71 53 72 46 73 52 74
REMARK SMILES IDX 54 75 51 76 47 77 48 78 49 79 50 80 76 81 77 82 85 83 78 84
REMARK SMILES IDX 84 85 86 86 83 87 79 88 80 89 81 90 82 91 61 92 62 93 70 94
REMARK SMILES IDX 63 95 69 96 71 97 68 98 64 99 65 100 66 101 67 102
REMARK H PARENT 91 55 59 66
REMARK Flexibility Score: inf
ROOT
ATOM      1  C   UNL     1       6.426  -1.581 -10.044  1.00  0.00     0.188 C 
ENDROOT
BRANCH   1   2
ATOM      2  C   UNL     1       4.903  -1.359 -10.190  1.00  0.00     0.188 C 
BRANCH   2   3
ATOM      3  O   UNL     1       4.376  -1.683 -11.466  1.00  0.00    -0.376 OA
BRANCH   3   4
ATOM      4  C   UNL     1       4.174  -0.591 -12.359  1.00  0.00     0.202 C 
BRANCH   4   5
ATOM      5  C   UNL     1       5.407   0.287 -12.616  1.00  0.00     0.261 C 
BRANCH   5   6
ATOM      6  O   UNL     1       5.747   1.082 -11.451  1.00  0.00    -0.460 OA
BRANCH   6   7
ATOM      7  C   UNL     1       5.127   2.280 -11.376  1.00  0.00     0.338 C 
ATOM      8  O   UNL     1       4.446   2.762 -12.271  1.00  0.00    -0.246 OA
BRANCH   7   9
ATOM      9  C   UNL     1       5.256   2.905 -10.031  1.00  0.00     0.087 C 
ATOM     10  C   UNL     1       3.449   1.539  -6.573  1.00  0.00     0.026 A 
ATOM     11  C   UNL     1       2.343   0.782  -7.023  1.00  0.00     0.033 A 
ATOM     12  C   UNL     1       4.114   2.261  -7.567  1.00  0.00     0.135 A 
ATOM     13  C   UNL     1       1.819   0.883  -8.310  1.00  0.00     0.042 A 
ATOM     14  C   UNL     1       3.444   2.544  -8.776  1.00  0.00     0.019 A 
ATOM     15  O   UNL     1       5.468   2.583  -7.540  1.00  0.00    -0.475 OA
ATOM     16  Cl  UNL     1       0.514  -0.109  -8.818  1.00  0.00    -0.084 Cl
ATOM     17  C   UNL     1       2.319   1.836  -9.172  1.00  0.00     0.032 A 
ATOM     18  C   UNL     1       4.094   3.495  -9.702  1.00  0.00     0.027 C 
ATOM     19  C   UNL     1       6.087   2.320  -8.888  1.00  0.00     0.316 C 
BRANCH  10  20
ATOM     20  C   UNL     1       3.474   1.737  -5.094  1.00  0.00    -0.015 A 
ATOM     21  C   UNL     1       2.366   1.720  -2.437  1.00  0.00    -0.048 A 
ATOM     22  C   UNL     1       3.134   0.652  -2.905  1.00  0.00     0.004 A 
ATOM     23  C   UNL     1       2.234   2.836  -3.277  1.00  0.00     0.004 A 
ATOM     24  C   UNL     1       3.690   0.673  -4.203  1.00  0.00     0.009 A 
ATOM     25  C   UNL     1       2.787   2.849  -4.572  1.00  0.00     0.009 A 
BRANCH  21  26
ATOM     26  C   UNL     1       1.578   1.700  -1.141  1.00  0.00     0.032 C 
ATOM     27  C   UNL     1       1.819   0.563  -0.156  1.00  0.00     0.009 C 
ENDBRANCH  21  26
ENDBRANCH  10  20
BRANCH  19  28
ATOM     28  C   UNL     1       7.515   2.865  -8.983  1.00  0.00     0.430 C 
ATOM     29  F   UNL     1       7.563   4.209  -8.840  1.00  0.00    -0.167 F 
ATOM     30  F   UNL     1       8.332   2.317  -8.059  1.00  0.00    -0.167 F 
ATOM     31  F   UNL     1       8.056   2.580 -10.197  1.00  0.00    -0.167 F 
ENDBRANCH  19  28
ENDBRANCH   7   9
ENDBRANCH   6   7
ENDBRANCH   5   6
ENDBRANCH   4   5
ENDBRANCH   3   4
ENDBRANCH   2   3
ENDBRANCH   1   2
BRANCH   1  32
ATOM     32  O   UNL     1       7.174  -2.113 -11.130  1.00  0.00    -0.376 OA
BRANCH  32  33
ATOM     33  C   UNL     1       6.691  -3.266 -11.808  1.00  0.00     0.202 C 
BRANCH  33  34
ATOM     34  C   UNL     1       6.354  -4.524 -10.996  1.00  0.00     0.261 C 
BRANCH  34  35
ATOM     35  O   UNL     1       5.360  -4.336  -9.970  1.00  0.00    -0.460 OA
BRANCH  35  36
ATOM     36  C   UNL     1       5.796  -4.545  -8.700  1.00  0.00     0.338 C 
ATOM     37  O   UNL     1       6.923  -4.861  -8.362  1.00  0.00    -0.246 OA
BRANCH  36  38
ATOM     38  C   UNL     1       4.755  -4.166  -7.720  1.00  0.00     0.060 A 
ATOM     39  C   UNL     1       5.070  -3.170  -6.792  1.00  0.00     0.016 A 
ATOM     40  C   UNL     1       3.535  -4.842  -7.630  1.00  0.00     0.016 A 
ATOM     41  C   UNL     1       4.175  -2.870  -5.764  1.00  0.00     0.010 A 
ATOM     42  C   UNL     1       2.641  -4.538  -6.587  1.00  0.00     0.010 A 
ATOM     43  C   UNL     1       2.957  -3.555  -5.635  1.00  0.00    -0.014 A 
BRANCH  43  44
ATOM     44  C   UNL     1       2.135  -3.350  -4.403  1.00  0.00     0.031 A 
ATOM     45  C   UNL     1       2.553  -4.045  -3.141  1.00  0.00     0.074 A 
ATOM     46  C   UNL     1       1.073  -2.521  -4.374  1.00  0.00     0.049 A 
ATOM     47  N   UNL     1       2.038  -3.971  -1.942  1.00  0.00    -0.248 NA
ATOM     48  C   UNL     1       3.686  -4.972  -3.261  1.00  0.00     0.031 C 
ATOM     49  C   UNL     1       0.571  -1.802  -5.530  1.00  0.00     0.029 A 
ATOM     50  N   UNL     1       0.267  -2.088  -3.344  1.00  0.00    -0.354 N 
ATOM     51  C   UNL     1       2.744  -4.889  -1.173  1.00  0.00     0.074 A 
ATOM     52  C   UNL     1       3.744  -5.478  -2.041  1.00  0.00     0.031 C 
ATOM     53  C   UNL     1      -0.339  -0.897  -5.127  1.00  0.00     0.029 A 
ATOM     54  C   UNL     1      -0.574  -1.047  -3.695  1.00  0.00     0.049 A 
ATOM     55  H   UNL     1       0.287  -2.483  -2.443  1.00  0.00     0.167 HD
ATOM     56  C   UNL     1       2.541  -5.240   0.121  1.00  0.00     0.034 A 
ATOM     57  C   UNL     1      -1.420  -0.303  -2.945  1.00  0.00     0.034 A 
ATOM     58  C   UNL     1       1.508  -4.673   0.956  1.00  0.00     0.049 A 
ATOM     59  C   UNL     1      -1.619  -0.709  -1.499  1.00  0.00     0.074 A 
ATOM     60  C   UNL     1       1.179  -4.999   2.260  1.00  0.00     0.029 A 
ATOM     61  N   UNL     1       0.626  -3.672   0.565  1.00  0.00    -0.354 N 
ATOM     62  N   UNL     1      -0.977  -1.613  -0.794  1.00  0.00    -0.248 NA
ATOM     63  C   UNL     1      -2.685  -0.020  -0.757  1.00  0.00     0.031 C 
ATOM     64  C   UNL     1       0.056  -4.251   2.631  1.00  0.00     0.029 A 
ATOM     65  C   UNL     1      -0.261  -3.388   1.593  1.00  0.00     0.049 A 
ATOM     66  H   UNL     1       0.630  -3.229  -0.314  1.00  0.00     0.167 HD
ATOM     67  C   UNL     1      -1.555  -1.591   0.473  1.00  0.00     0.074 A 
ATOM     68  C   UNL     1      -2.566  -0.555   0.449  1.00  0.00     0.031 C 
ATOM     69  C   UNL     1      -1.284  -2.367   1.555  1.00  0.00     0.034 A 
BRANCH  56  70
ATOM     70  C   UNL     1       3.379  -6.380   0.649  1.00  0.00     0.023 A 
ATOM     71  C   UNL     1       4.779  -6.294   0.742  1.00  0.00     0.031 A 
ATOM     72  C   UNL     1       2.773  -7.609   0.966  1.00  0.00     0.131 A 
ATOM     73  C   UNL     1       5.529  -7.441   1.042  1.00  0.00     0.055 A 
ATOM     74  C   UNL     1       3.520  -8.720   1.360  1.00  0.00     0.041 A 
ATOM     75  F   UNL     1       1.443  -7.763   0.866  1.00  0.00    -0.206 F 
ATOM     76  C   UNL     1       4.909  -8.647   1.377  1.00  0.00     0.022 A 
BRANCH  73  77
ATOM     77  S   UNL     1       7.325  -7.386   0.788  1.00  0.00     0.124 S 
ATOM     78  O   UNL     1       7.410  -7.007  -0.620  1.00  0.00    -0.237 OA
ATOM     79  O   UNL     1       7.747  -6.375   1.750  1.00  0.00    -0.237 OA
ATOM     80  O   UNL     1       7.755  -8.751   1.085  1.00  0.00    -0.744 OA
ENDBRANCH  73  77
ENDBRANCH  56  70
BRANCH  57  81
ATOM     81  C   UNL     1      -2.136   0.901  -3.494  1.00  0.00     0.023 A 
ATOM     82  C   UNL     1      -2.014   2.153  -2.859  1.00  0.00     0.031 A 
ATOM     83  C   UNL     1      -2.986   0.842  -4.611  1.00  0.00     0.131 A 
ATOM     84  C   UNL     1      -2.719   3.275  -3.325  1.00  0.00     0.055 A 
ATOM     85  C   UNL     1      -3.643   1.974  -5.110  1.00  0.00     0.041 A 
ATOM     86  F   UNL     1      -3.199  -0.321  -5.245  1.00  0.00    -0.206 F 
ATOM     87  C   UNL     1      -3.518   3.199  -4.462  1.00  0.00     0.022 A 
BRANCH  84  88
ATOM     88  S   UNL     1      -2.634   4.813  -2.364  1.00  0.00     0.124 S 
ATOM     89  O   UNL     1      -3.078   4.368  -1.048  1.00  0.00    -0.237 OA
ATOM     90  O   UNL     1      -1.221   5.161  -2.479  1.00  0.00    -0.237 OA
ATOM     91  O   UNL     1      -3.555   5.704  -3.066  1.00  0.00    -0.744 OA
ENDBRANCH  84  88
ENDBRANCH  57  81
BRANCH  69  92
ATOM     92  C   UNL     1      -2.088  -2.113   2.810  1.00  0.00     0.023 A 
ATOM     93  C   UNL     1      -3.478  -2.328   2.858  1.00  0.00     0.031 A 
ATOM     94  C   UNL     1      -1.454  -1.653   3.978  1.00  0.00     0.131 A 
ATOM     95  C   UNL     1      -4.195  -2.028   4.028  1.00  0.00     0.055 A 
ATOM     96  C   UNL     1      -2.162  -1.420   5.159  1.00  0.00     0.041 A 
ATOM     97  F   UNL     1      -0.130  -1.428   3.994  1.00  0.00    -0.206 F 
ATOM     98  C   UNL     1      -3.543  -1.594   5.184  1.00  0.00     0.022 A 
BRANCH  95  99
ATOM     99  S   UNL     1      -6.006  -2.126   3.991  1.00  0.00     0.124 S 
ATOM    100  O   UNL     1      -6.340  -1.171   2.939  1.00  0.00    -0.237 OA
ATOM    101  O   UNL     1      -6.238  -3.531   3.673  1.00  0.00    -0.237 OA
ATOM    102  O   UNL     1      -6.400  -1.724   5.340  1.00  0.00    -0.744 OA
ENDBRANCH  95  99
ENDBRANCH  69  92
ENDBRANCH  43  44
ENDBRANCH  36  38
ENDBRANCH  35  36
ENDBRANCH  34  35
ENDBRANCH  33  34
ENDBRANCH  32  33
ENDBRANCH   1  32
TORSDOF 23
