REMARK SMILES Cc1cc(Cl)c(C)c2c1O[C@H](C(F)(F)F)C(C(=O)OCCOCCOCCOC(=O)c1ccc(-c3c4nc(c(-c5cc(S(=O)(=O)[O-])ccc5F)c5ccc([nH]5)c(-c5cc(S(=O)(=O)[O-])ccc5F)c5nc(c(-c6cc(S(=O)(=O)[O-])ccc6F)c6ccc3[nH]6)C=C5)C=C4)cc1)=C2
REMARK SMILES IDX 24 1 23 2 22 3 21 4 20 5 19 6 17 7 18 8 16 9 1 10 2 11 3 12
REMARK SMILES IDX 9 13 4 14 8 15 10 16 5 17 6 18 94 19 11 20 7 21 12 22 13 23
REMARK SMILES IDX 14 24 15 25 25 26 26 27 27 28 28 29 29 30 30 31 31 32 32 33
REMARK SMILES IDX 93 34 33 35 92 36 34 37 35 38 36 39 86 40 37 41 91 42 85 43
REMARK SMILES IDX 87 44 38 45 90 46 84 47 83 48 39 50 71 51 51 52 70 53 52 54
REMARK SMILES IDX 55 55 69 56 88 57 53 58 54 59 68 61 89 62 56 63 40 64 41 65
REMARK SMILES IDX 49 66 42 67 48 68 50 69 47 70 43 71 44 72 45 73 46 74 72 75
REMARK SMILES IDX 73 76 81 77 74 78 80 79 82 80 79 81 75 82 76 83 77 84 78 85
REMARK SMILES IDX 57 86 58 87 66 88 59 89 65 90 67 91 64 92 60 93 61 94 62 95
REMARK SMILES IDX 63 96
REMARK H PARENT 87 49 55 60
REMARK Flexibility Score: inf
ROOT
ATOM      1  C   UNL     1      -5.901   2.517   0.819  1.00  0.00     0.188 C 
ENDROOT
BRANCH   1   2
ATOM      2  C   UNL     1      -6.329   3.727  -0.038  1.00  0.00     0.188 C 
BRANCH   2   3
ATOM      3  O   UNL     1      -7.569   3.734  -0.723  1.00  0.00    -0.376 OA
BRANCH   3   4
ATOM      4  C   UNL     1      -7.912   2.682  -1.608  1.00  0.00     0.202 C 
BRANCH   4   5
ATOM      5  C   UNL     1      -6.918   2.182  -2.655  1.00  0.00     0.261 C 
BRANCH   5   6
ATOM      6  O   UNL     1      -5.638   1.841  -2.110  1.00  0.00    -0.460 OA
BRANCH   6   7
ATOM      7  C   UNL     1      -4.591   2.498  -2.662  1.00  0.00     0.338 C 
ATOM      8  O   UNL     1      -4.632   3.284  -3.596  1.00  0.00    -0.246 OA
BRANCH   7   9
ATOM      9  C   UNL     1      -3.365   2.208  -1.898  1.00  0.00     0.087 C 
ATOM     10  C   UNL     1       0.768  -0.009   0.100  1.00  0.00     0.048 C 
ATOM     11  C   UNL     1       0.322   1.407  -0.130  1.00  0.00    -0.007 A 
ATOM     12  C   UNL     1       1.177   2.462   0.198  1.00  0.00     0.028 A 
ATOM     13  C   UNL     1      -0.947   1.700  -0.648  1.00  0.00     0.131 A 
ATOM     14  C   UNL     1       0.781   3.791   0.017  1.00  0.00     0.045 A 
ATOM     15  C   UNL     1      -1.341   3.032  -0.877  1.00  0.00     0.022 A 
ATOM     16  O   UNL     1      -1.745   0.617  -0.902  1.00  0.00    -0.475 OA
ATOM     17  Cl  UNL     1       1.937   5.000   0.456  1.00  0.00    -0.084 Cl
ATOM     18  C   UNL     1      -0.485   4.103  -0.509  1.00  0.00    -0.021 A 
ATOM     19  C   UNL     1      -2.615   3.262  -1.556  1.00  0.00     0.027 C 
ATOM     20  C   UNL     1      -3.019   0.790  -1.567  1.00  0.00     0.316 C 
ATOM     21  C   UNL     1      -0.934   5.536  -0.682  1.00  0.00     0.047 C 
BRANCH  20  22
ATOM     22  C   UNL     1      -3.042  -0.133  -2.794  1.00  0.00     0.430 C 
ATOM     23  F   UNL     1      -2.696  -1.401  -2.460  1.00  0.00    -0.167 F 
ATOM     24  F   UNL     1      -4.276  -0.210  -3.347  1.00  0.00    -0.167 F 
ATOM     25  F   UNL     1      -2.191   0.277  -3.760  1.00  0.00    -0.167 F 
ENDBRANCH  20  22
ENDBRANCH   7   9
ENDBRANCH   6   7
ENDBRANCH   5   6
ENDBRANCH   4   5
ENDBRANCH   3   4
ENDBRANCH   2   3
ENDBRANCH   1   2
BRANCH   1  26
ATOM     26  O   UNL     1      -6.782   1.437   1.057  1.00  0.00    -0.376 OA
BRANCH  26  27
ATOM     27  C   UNL     1      -8.048   1.669   1.653  1.00  0.00     0.202 C 
BRANCH  27  28
ATOM     28  C   UNL     1      -8.223   2.589   2.866  1.00  0.00     0.261 C 
BRANCH  28  29
ATOM     29  O   UNL     1      -7.568   3.857   2.763  1.00  0.00    -0.460 OA
BRANCH  29  30
ATOM     30  C   UNL     1      -6.590   4.067   3.681  1.00  0.00     0.338 C 
ATOM     31  O   UNL     1      -6.239   3.309   4.569  1.00  0.00    -0.246 OA
BRANCH  30  32
ATOM     32  C   UNL     1      -5.860   5.299   3.336  1.00  0.00     0.060 A 
ATOM     33  C   UNL     1      -4.500   5.193   3.019  1.00  0.00     0.016 A 
ATOM     34  C   UNL     1      -6.493   6.542   3.365  1.00  0.00     0.016 A 
ATOM     35  C   UNL     1      -3.759   6.341   2.744  1.00  0.00     0.010 A 
ATOM     36  C   UNL     1      -5.741   7.695   3.119  1.00  0.00     0.010 A 
ATOM     37  C   UNL     1      -4.368   7.600   2.832  1.00  0.00    -0.014 A 
BRANCH  37  38
ATOM     38  C   UNL     1      -3.522   8.816   2.814  1.00  0.00     0.031 A 
ATOM     39  C   UNL     1      -3.005   9.343   4.125  1.00  0.00     0.074 A 
ATOM     40  C   UNL     1      -3.181   9.412   1.658  1.00  0.00     0.049 A 
ATOM     41  N   UNL     1      -2.279  10.403   4.362  1.00  0.00    -0.248 NA
ATOM     42  C   UNL     1      -3.347   8.563   5.326  1.00  0.00     0.031 C 
ATOM     43  C   UNL     1      -3.562   8.952   0.324  1.00  0.00     0.029 A 
ATOM     44  N   UNL     1      -2.428  10.536   1.425  1.00  0.00    -0.354 N 
ATOM     45  C   UNL     1      -2.062  10.410   5.735  1.00  0.00     0.074 A 
ATOM     46  C   UNL     1      -2.761   9.268   6.282  1.00  0.00     0.031 C 
ATOM     47  C   UNL     1      -3.039   9.790  -0.590  1.00  0.00     0.029 A 
ATOM     48  C   UNL     1      -2.320  10.863   0.094  1.00  0.00     0.049 A 
ATOM     49  H   UNL     1      -2.005  11.059   2.144  1.00  0.00     0.167 HD
ATOM     50  C   UNL     1      -1.337  11.284   6.472  1.00  0.00     0.034 A 
ATOM     51  C   UNL     1      -1.727  11.921  -0.497  1.00  0.00     0.034 A 
ATOM     52  C   UNL     1      -0.666  12.434   5.926  1.00  0.00     0.049 A 
ATOM     53  C   UNL     1      -1.039  12.957   0.360  1.00  0.00     0.074 A 
ATOM     54  C   UNL     1       0.073  13.395   6.593  1.00  0.00     0.029 A 
ATOM     55  N   UNL     1      -0.658  12.784   4.584  1.00  0.00    -0.354 N 
ATOM     56  N   UNL     1      -0.877  12.974   1.663  1.00  0.00    -0.248 NA
ATOM     57  C   UNL     1      -0.463  14.119  -0.332  1.00  0.00     0.031 C 
ATOM     58  C   UNL     1       0.477  14.358   5.663  1.00  0.00     0.029 A 
ATOM     59  C   UNL     1       0.046  13.963   4.407  1.00  0.00     0.049 A 
ATOM     60  H   UNL     1      -1.090  12.270   3.864  1.00  0.00     0.167 HD
ATOM     61  C   UNL     1      -0.161  14.136   1.941  1.00  0.00     0.074 A 
ATOM     62  C   UNL     1       0.081  14.792   0.673  1.00  0.00     0.031 C 
ATOM     63  C   UNL     1       0.265  14.613   3.138  1.00  0.00     0.034 A 
BRANCH  50  64
ATOM     64  C   UNL     1      -1.272  11.051   7.956  1.00  0.00     0.023 A 
ATOM     65  C   UNL     1      -0.548   9.975   8.496  1.00  0.00     0.031 A 
ATOM     66  C   UNL     1      -1.935  11.920   8.839  1.00  0.00     0.131 A 
ATOM     67  C   UNL     1      -0.533   9.774   9.884  1.00  0.00     0.055 A 
ATOM     68  C   UNL     1      -1.867  11.748  10.222  1.00  0.00     0.041 A 
ATOM     69  F   UNL     1      -2.659  12.948   8.370  1.00  0.00    -0.206 F 
ATOM     70  C   UNL     1      -1.168  10.667  10.752  1.00  0.00     0.022 A 
BRANCH  67  71
ATOM     71  S   UNL     1       0.270   8.287  10.540  1.00  0.00     0.124 S 
ATOM     72  O   UNL     1      -0.583   7.231  10.002  1.00  0.00    -0.237 OA
ATOM     73  O   UNL     1       1.612   8.374   9.977  1.00  0.00    -0.237 OA
ATOM     74  O   UNL     1       0.190   8.467  11.989  1.00  0.00    -0.744 OA
ENDBRANCH  67  71
ENDBRANCH  50  64
BRANCH  51  75
ATOM     75  C   UNL     1      -1.791  12.090  -1.976  1.00  0.00     0.023 A 
ATOM     76  C   UNL     1      -0.633  12.013  -2.765  1.00  0.00     0.031 A 
ATOM     77  C   UNL     1      -3.010  12.376  -2.615  1.00  0.00     0.131 A 
ATOM     78  C   UNL     1      -0.714  12.247  -4.147  1.00  0.00     0.055 A 
ATOM     79  C   UNL     1      -3.092  12.568  -3.995  1.00  0.00     0.041 A 
ATOM     80  F   UNL     1      -4.145  12.464  -1.903  1.00  0.00    -0.206 F 
ATOM     81  C   UNL     1      -1.937  12.512  -4.769  1.00  0.00     0.022 A 
BRANCH  78  82
ATOM     82  S   UNL     1       0.815  12.246  -5.123  1.00  0.00     0.124 S 
ATOM     83  O   UNL     1       1.528  13.386  -4.558  1.00  0.00    -0.237 OA
ATOM     84  O   UNL     1       1.367  10.929  -4.822  1.00  0.00    -0.237 OA
ATOM     85  O   UNL     1       0.343  12.421  -6.495  1.00  0.00    -0.744 OA
ENDBRANCH  78  82
ENDBRANCH  51  75
BRANCH  63  86
ATOM     86  C   UNL     1       1.059  15.893   3.139  1.00  0.00     0.023 A 
ATOM     87  C   UNL     1       0.452  17.134   2.889  1.00  0.00     0.031 A 
ATOM     88  C   UNL     1       2.431  15.872   3.450  1.00  0.00     0.131 A 
ATOM     89  C   UNL     1       1.222  18.307   2.933  1.00  0.00     0.055 A 
ATOM     90  C   UNL     1       3.181  17.044   3.536  1.00  0.00     0.041 A 
ATOM     91  F   UNL     1       3.055  14.710   3.702  1.00  0.00    -0.206 F 
ATOM     92  C   UNL     1       2.578  18.271   3.272  1.00  0.00     0.022 A 
BRANCH  89  93
ATOM     93  S   UNL     1       0.434  19.886   2.516  1.00  0.00     0.124 S 
ATOM     94  O   UNL     1       0.093  19.692   1.111  1.00  0.00    -0.237 OA
ATOM     95  O   UNL     1      -0.692  19.933   3.444  1.00  0.00    -0.237 OA
ATOM     96  O   UNL     1       1.484  20.871   2.769  1.00  0.00    -0.744 OA
ENDBRANCH  89  93
ENDBRANCH  63  86
ENDBRANCH  37  38
ENDBRANCH  30  32
ENDBRANCH  29  30
ENDBRANCH  28  29
ENDBRANCH  27  28
ENDBRANCH  26  27
ENDBRANCH   1  26
TORSDOF 21
