REMARK SMILES O=C(OCCOCCOCCOC(=O)c1ccc(-c2c3nc(c(-c4cc(S(=O)(=O)[O-])ccc4F)c4ccc([nH]4)c(-c4cc(S(=O)(=O)[O-])ccc4F)c4nc(c(-c5cc(S(=O)(=O)[O-])ccc5F)c5ccc2[nH]5)C=C4)C=C3)cc1)C1=Cc2ccc(Cl)c(Cl)c2O[C@@H]1C(F)(F)F
REMARK SMILES IDX 8 1 7 2 6 3 5 4 4 5 3 6 2 7 1 8 78 9 79 10 89 11 80 12 88 13
REMARK SMILES IDX 81 14 87 15 82 16 85 17 83 18 86 19 84 20 90 21 91 22 92 23
REMARK SMILES IDX 93 24 9 25 10 26 11 27 12 28 13 29 14 30 15 31 16 32 77 33
REMARK SMILES IDX 17 34 76 35 18 36 19 37 20 38 70 39 21 40 75 41 69 42 71 43
REMARK SMILES IDX 22 44 74 45 68 46 67 47 23 49 55 50 35 51 54 52 36 53 39 54
REMARK SMILES IDX 53 55 72 56 37 57 38 58 52 60 73 61 40 62 24 63 25 64 33 65
REMARK SMILES IDX 26 66 32 67 34 68 31 69 27 70 28 71 29 72 30 73 56 74 57 75
REMARK SMILES IDX 65 76 58 77 64 78 66 79 63 80 59 81 60 82 61 83 62 84 41 85
REMARK SMILES IDX 42 86 50 87 43 88 49 89 51 90 48 91 44 92 45 93 46 94 47 95
REMARK H PARENT 71 48 39 59
REMARK Flexibility Score: inf
ROOT
ATOM      1  C   UNL     1       2.263   3.133   1.310  1.00  0.00     0.188 C 
ENDROOT
BRANCH   1   2
ATOM      2  C   UNL     1       2.530   1.653   1.639  1.00  0.00     0.188 C 
BRANCH   2   3
ATOM      3  O   UNL     1       3.843   1.008   1.652  1.00  0.00    -0.376 OA
BRANCH   3   4
ATOM      4  C   UNL     1       4.488  -0.146   0.652  1.00  0.00     0.202 C 
BRANCH   4   5
ATOM      5  C   UNL     1       3.740  -0.835  -1.261  1.00  0.00     0.261 C 
BRANCH   5   6
ATOM      6  O   UNL     1       2.849  -2.054  -1.507  1.00  0.00    -0.460 OA
BRANCH   6   7
ATOM      7  C   UNL     1       3.097  -3.045  -0.642  1.00  0.00     0.338 C 
ATOM      8  O   UNL     1       2.534  -4.101  -0.513  1.00  0.00    -0.246 OA
BRANCH   7   9
ATOM      9  C   UNL     1       3.933  -2.271   0.254  1.00  0.00     0.087 C 
ATOM     10  C   UNL     1       5.309  -2.094  -0.240  1.00  0.00     0.027 C 
ATOM     11  C   UNL     1       2.652  -0.850   0.480  1.00  0.00     0.316 C 
ATOM     12  C   UNL     1       5.928  -0.555  -0.961  1.00  0.00     0.019 A 
ATOM     13  O   UNL     1       3.245   0.778  -0.397  1.00  0.00    -0.474 OA
ATOM     14  C   UNL     1       7.176  -0.540  -1.519  1.00  0.00     0.013 A 
ATOM     15  C   UNL     1       4.927   0.859  -1.120  1.00  0.00     0.148 A 
ATOM     16  C   UNL     1       7.520   0.664  -2.161  1.00  0.00     0.023 A 
ATOM     17  C   UNL     1       5.339   1.982  -1.794  1.00  0.00     0.102 A 
ATOM     18  C   UNL     1       6.665   1.848  -2.293  1.00  0.00     0.063 A 
ATOM     19  Cl  UNL     1       4.347   3.331  -2.100  1.00  0.00    -0.079 Cl
ATOM     20  Cl  UNL     1       7.410   3.153  -3.182  1.00  0.00    -0.083 Cl
BRANCH  11  21
ATOM     21  C   UNL     1       2.333  -1.209   2.048  1.00  0.00     0.430 C 
ATOM     22  F   UNL     1       1.700  -0.315   2.810  1.00  0.00    -0.167 F 
ATOM     23  F   UNL     1       1.501  -2.294   2.033  1.00  0.00    -0.167 F 
ATOM     24  F   UNL     1       3.424  -1.632   2.740  1.00  0.00    -0.167 F 
ENDBRANCH  11  21
ENDBRANCH   7   9
ENDBRANCH   6   7
ENDBRANCH   5   6
ENDBRANCH   4   5
ENDBRANCH   3   4
ENDBRANCH   2   3
ENDBRANCH   1   2
BRANCH   1  25
ATOM     25  O   UNL     1       3.271   3.946   0.770  1.00  0.00    -0.376 OA
BRANCH  25  26
ATOM     26  C   UNL     1       4.546   3.887   1.381  1.00  0.00     0.202 C 
BRANCH  26  27
ATOM     27  C   UNL     1       4.634   4.205   2.878  1.00  0.00     0.261 C 
BRANCH  27  28
ATOM     28  O   UNL     1       4.121   3.158   3.725  1.00  0.00    -0.460 OA
BRANCH  28  29
ATOM     29  C   UNL     1       3.033   3.469   4.474  1.00  0.00     0.338 C 
ATOM     30  O   UNL     1       2.438   4.532   4.490  1.00  0.00    -0.246 OA
BRANCH  29  31
ATOM     31  C   UNL     1       2.542   2.260   5.171  1.00  0.00     0.060 A 
ATOM     32  C   UNL     1       1.205   1.877   4.985  1.00  0.00     0.016 A 
ATOM     33  C   UNL     1       3.371   1.542   6.034  1.00  0.00     0.016 A 
ATOM     34  C   UNL     1       0.684   0.790   5.683  1.00  0.00     0.010 A 
ATOM     35  C   UNL     1       2.836   0.479   6.770  1.00  0.00     0.010 A 
ATOM     36  C   UNL     1       1.480   0.132   6.629  1.00  0.00    -0.014 A 
BRANCH  36  37
ATOM     37  C   UNL     1       0.798  -0.659   7.682  1.00  0.00     0.031 A 
ATOM     38  C   UNL     1       0.372   0.083   8.922  1.00  0.00     0.074 A 
ATOM     39  C   UNL     1       0.505  -1.962   7.523  1.00  0.00     0.049 A 
ATOM     40  N   UNL     1      -0.278  -0.346   9.972  1.00  0.00    -0.248 NA
ATOM     41  C   UNL     1       0.733   1.510   8.980  1.00  0.00     0.031 C 
ATOM     42  C   UNL     1       0.818  -2.762   6.342  1.00  0.00     0.029 A 
ATOM     43  N   UNL     1      -0.136  -2.837   8.364  1.00  0.00    -0.354 N 
ATOM     44  C   UNL     1      -0.407   0.758  10.809  1.00  0.00     0.074 A 
ATOM     45  C   UNL     1       0.272   1.861  10.168  1.00  0.00     0.031 C 
ATOM     46  C   UNL     1       0.364  -4.015   6.534  1.00  0.00     0.029 A 
ATOM     47  C   UNL     1      -0.244  -4.112   7.861  1.00  0.00     0.049 A 
ATOM     48  H   UNL     1      -0.486  -2.575   9.247  1.00  0.00     0.167 HD
ATOM     49  C   UNL     1      -1.043   0.847  12.002  1.00  0.00     0.034 A 
ATOM     50  C   UNL     1      -0.766  -5.224   8.418  1.00  0.00     0.034 A 
ATOM     51  C   UNL     1      -1.685  -0.274  12.639  1.00  0.00     0.049 A 
ATOM     52  C   UNL     1      -1.381  -5.125   9.799  1.00  0.00     0.074 A 
ATOM     53  C   UNL     1      -2.361  -0.307  13.845  1.00  0.00     0.029 A 
ATOM     54  N   UNL     1      -1.712  -1.568  12.131  1.00  0.00    -0.354 N 
ATOM     55  N   UNL     1      -1.514  -4.073  10.576  1.00  0.00    -0.248 NA
ATOM     56  C   UNL     1      -1.930  -6.362  10.367  1.00  0.00     0.031 C 
ATOM     57  C   UNL     1      -2.707  -1.635  14.113  1.00  0.00     0.029 A 
ATOM     58  C   UNL     1      -2.354  -2.414  13.021  1.00  0.00     0.049 A 
ATOM     59  H   UNL     1      -1.330  -1.843  11.266  1.00  0.00     0.167 HD
ATOM     60  C   UNL     1      -2.208  -4.515  11.702  1.00  0.00     0.074 A 
ATOM     61  C   UNL     1      -2.471  -5.924  11.494  1.00  0.00     0.031 C 
ATOM     62  C   UNL     1      -2.604  -3.820  12.801  1.00  0.00     0.034 A 
BRANCH  49  63
ATOM     63  C   UNL     1      -0.999   2.178  12.714  1.00  0.00     0.023 A 
ATOM     64  C   UNL     1      -1.564   3.341  12.160  1.00  0.00     0.031 A 
ATOM     65  C   UNL     1      -0.335   2.294  13.948  1.00  0.00     0.131 A 
ATOM     66  C   UNL     1      -1.387   4.577  12.800  1.00  0.00     0.055 A 
ATOM     67  C   UNL     1      -0.243   3.511  14.624  1.00  0.00     0.041 A 
ATOM     68  F   UNL     1       0.255   1.227  14.510  1.00  0.00    -0.206 F 
ATOM     69  C   UNL     1      -0.757   4.666  14.043  1.00  0.00     0.022 A 
BRANCH  66  70
ATOM     70  S   UNL     1      -1.840   6.090  11.906  1.00  0.00     0.124 S 
ATOM     71  O   UNL     1      -1.021   5.978  10.702  1.00  0.00    -0.237 OA
ATOM     72  O   UNL     1      -3.277   5.928  11.719  1.00  0.00    -0.237 OA
ATOM     73  O   UNL     1      -1.446   7.160  12.821  1.00  0.00    -0.744 OA
ENDBRANCH  66  70
ENDBRANCH  49  63
BRANCH  50  74
ATOM     74  C   UNL     1      -0.724  -6.534   7.700  1.00  0.00     0.023 A 
ATOM     75  C   UNL     1      -1.902  -7.227   7.374  1.00  0.00     0.031 A 
ATOM     76  C   UNL     1       0.503  -7.152   7.399  1.00  0.00     0.131 A 
ATOM     77  C   UNL     1      -1.829  -8.516   6.822  1.00  0.00     0.055 A 
ATOM     78  C   UNL     1       0.571  -8.407   6.789  1.00  0.00     0.041 A 
ATOM     79  F   UNL     1       1.663  -6.545   7.700  1.00  0.00    -0.206 F 
ATOM     80  C   UNL     1      -0.601  -9.103   6.511  1.00  0.00     0.022 A 
BRANCH  77  81
ATOM     81  S   UNL     1      -3.362  -9.468   6.624  1.00  0.00     0.124 S 
ATOM     82  O   UNL     1      -3.868  -9.499   7.991  1.00  0.00    -0.237 OA
ATOM     83  O   UNL     1      -4.111  -8.645   5.681  1.00  0.00    -0.237 OA
ATOM     84  O   UNL     1      -2.900 -10.751   6.100  1.00  0.00    -0.744 OA
ENDBRANCH  77  81
ENDBRANCH  50  74
BRANCH  62  85
ATOM     85  C   UNL     1      -3.428  -4.561  13.830  1.00  0.00     0.023 A 
ATOM     86  C   UNL     1      -2.925  -5.665  14.541  1.00  0.00     0.031 A 
ATOM     87  C   UNL     1      -4.754  -4.164  14.087  1.00  0.00     0.131 A 
ATOM     88  C   UNL     1      -3.766  -6.381  15.406  1.00  0.00     0.055 A 
ATOM     89  C   UNL     1      -5.558  -4.827  15.015  1.00  0.00     0.041 A 
ATOM     90  F   UNL     1      -5.294  -3.120  13.437  1.00  0.00    -0.206 F 
ATOM     91  C   UNL     1      -5.071  -5.955  15.665  1.00  0.00     0.022 A 
BRANCH  88  92
ATOM     92  S   UNL     1      -3.180  -7.963  16.073  1.00  0.00     0.124 S 
ATOM     93  O   UNL     1      -2.833  -8.693  14.859  1.00  0.00    -0.237 OA
ATOM     94  O   UNL     1      -2.059  -7.551  16.912  1.00  0.00    -0.237 OA
ATOM     95  O   UNL     1      -4.339  -8.479  16.798  1.00  0.00    -0.744 OA
ENDBRANCH  88  92
ENDBRANCH  62  85
ENDBRANCH  36  37
ENDBRANCH  29  31
ENDBRANCH  28  29
ENDBRANCH  27  28
ENDBRANCH  26  27
ENDBRANCH  25  26
ENDBRANCH   1  25
TORSDOF 21
