REMARK SMILES C[C@H](C1CC1)n1c(SCC(=O)OCCOCCOCCOC(=O)c2ccc(-c3c4nc(c(-c5cc(S(=O)(=O)[O-])ccc5F)c5ccc([nH]5)c(-c5cc(S(=O)(=O)[O-])ccc5F)c5nc(c(-c6cc(S(=O)(=O)[O-])ccc6F)c6ccc3[nH]6)C=C5)C=C4)cc2)nc2cc(Cl)c(Cl)cc21
REMARK SMILES IDX 16 1 15 2 14 3 13 4 12 5 10 6 11 7 9 8 8 9 7 10 6 11 95 12
REMARK SMILES IDX 87 13 88 14 94 15 89 16 92 17 90 18 93 19 91 20 2 21 1 22
REMARK SMILES IDX 3 23 4 24 5 25 17 26 18 27 19 28 20 29 21 30 22 31 23 32
REMARK SMILES IDX 24 33 25 34 86 35 26 36 85 37 27 38 28 39 29 40 79 41 30 42
REMARK SMILES IDX 84 43 78 44 80 45 31 46 83 47 77 48 76 49 32 51 64 52 44 53
REMARK SMILES IDX 63 54 45 55 48 56 62 57 81 58 46 59 47 60 61 62 82 63 49 64
REMARK SMILES IDX 33 65 34 66 42 67 35 68 41 69 43 70 40 71 36 72 37 73 38 74
REMARK SMILES IDX 39 75 65 76 66 77 74 78 67 79 73 80 75 81 72 82 68 83 69 84
REMARK SMILES IDX 70 85 71 86 50 87 51 88 59 89 52 90 58 91 60 92 57 93 53 94
REMARK SMILES IDX 54 95 55 96 56 97
REMARK H PARENT 80 50 48 61
REMARK Flexibility Score: inf
ROOT
ATOM      1  C   UNL     1       1.057   0.499  -4.506  1.00  0.00     0.188 C 
ENDROOT
BRANCH   1   2
ATOM      2  O   UNL     1       1.759   0.141  -5.695  1.00  0.00    -0.376 OA
BRANCH   2   3
ATOM      3  C   UNL     1       1.185  -0.900  -6.493  1.00  0.00     0.202 C 
BRANCH   3   4
ATOM      4  C   UNL     1       1.012  -2.262  -5.797  1.00  0.00     0.261 C 
BRANCH   4   5
ATOM      5  O   UNL     1      -0.152  -2.213  -4.948  1.00  0.00    -0.463 OA
BRANCH   5   6
ATOM      6  C   UNL     1      -0.240  -3.130  -3.950  1.00  0.00     0.316 C 
ATOM      7  O   UNL     1       0.513  -4.093  -3.857  1.00  0.00    -0.251 OA
BRANCH   6   8
ATOM      8  C   UNL     1      -1.220  -2.723  -2.856  1.00  0.00     0.200 C 
BRANCH   8   9
ATOM      9  S   UNL     1      -2.632  -1.755  -3.402  1.00  0.00    -0.076 SA
BRANCH   9  10
ATOM     10  C   UNL     1      -3.230  -0.794  -2.058  1.00  0.00     0.169 A 
ATOM     11  N   UNL     1      -2.556   0.228  -1.421  1.00  0.00    -0.316 N 
ATOM     12  C   UNL     1      -3.454   1.288  -1.309  1.00  0.00     0.071 A 
ATOM     13  N   UNL     1      -4.535  -0.588  -1.963  1.00  0.00    -0.222 NA
ATOM     14  C   UNL     1      -4.688   0.691  -1.489  1.00  0.00     0.091 A 
ATOM     15  C   UNL     1      -3.294   2.636  -0.953  1.00  0.00     0.050 A 
ATOM     16  C   UNL     1      -5.845   1.436  -1.219  1.00  0.00     0.052 A 
ATOM     17  C   UNL     1      -4.452   3.377  -0.709  1.00  0.00     0.061 A 
ATOM     18  C   UNL     1      -5.713   2.779  -0.818  1.00  0.00     0.061 A 
ATOM     19  Cl  UNL     1      -4.239   5.031  -0.246  1.00  0.00    -0.083 Cl
ATOM     20  Cl  UNL     1      -7.166   3.655  -0.476  1.00  0.00    -0.083 Cl
BRANCH  11  21
ATOM     21  C   UNL     1      -1.353   0.240  -0.592  1.00  0.00     0.090 C 
ATOM     22  C   UNL     1      -0.074   0.529  -1.333  1.00  0.00     0.032 C 
BRANCH  21  23
ATOM     23  C   UNL     1      -1.252  -0.754   0.526  1.00  0.00     0.012 C 
ATOM     24  C   UNL     1      -1.595  -2.227   0.534  1.00  0.00     0.006 C 
ATOM     25  C   UNL     1      -0.177  -1.796   0.478  1.00  0.00     0.006 C 
ENDBRANCH  21  23
ENDBRANCH  11  21
ENDBRANCH   9  10
ENDBRANCH   8   9
ENDBRANCH   6   8
ENDBRANCH   5   6
ENDBRANCH   4   5
ENDBRANCH   3   4
ENDBRANCH   2   3
ENDBRANCH   1   2
BRANCH   1  26
ATOM     26  C   UNL     1      -0.449   0.766  -4.662  1.00  0.00     0.188 C 
BRANCH  26  27
ATOM     27  O   UNL     1      -0.847   1.704  -5.643  1.00  0.00    -0.376 OA
BRANCH  27  28
ATOM     28  C   UNL     1      -0.631   3.086  -5.399  1.00  0.00     0.202 C 
BRANCH  28  29
ATOM     29  C   UNL     1      -0.924   3.650  -4.003  1.00  0.00     0.261 C 
BRANCH  29  30
ATOM     30  O   UNL     1       0.249   3.577  -3.166  1.00  0.00    -0.460 OA
BRANCH  30  31
ATOM     31  C   UNL     1       0.211   4.417  -2.082  1.00  0.00     0.338 C 
ATOM     32  O   UNL     1      -0.583   5.295  -1.888  1.00  0.00    -0.246 OA
BRANCH  31  33
ATOM     33  C   UNL     1       1.073   3.821  -1.022  1.00  0.00     0.060 A 
ATOM     34  C   UNL     1       2.314   3.221  -1.274  1.00  0.00     0.016 A 
ATOM     35  C   UNL     1       0.468   3.666   0.219  1.00  0.00     0.016 A 
ATOM     36  C   UNL     1       2.865   2.313  -0.348  1.00  0.00     0.010 A 
ATOM     37  C   UNL     1       1.001   2.745   1.114  1.00  0.00     0.010 A 
ATOM     38  C   UNL     1       2.155   1.982   0.809  1.00  0.00    -0.014 A 
BRANCH  38  39
ATOM     39  C   UNL     1       2.511   0.873   1.735  1.00  0.00     0.031 A 
ATOM     40  C   UNL     1       2.505   1.283   3.146  1.00  0.00     0.074 A 
ATOM     41  C   UNL     1       2.776  -0.446   1.547  1.00  0.00     0.049 A 
ATOM     42  N   UNL     1       3.512   1.870   3.696  1.00  0.00    -0.248 NA
ATOM     43  C   UNL     1       1.295   1.221   3.973  1.00  0.00     0.031 C 
ATOM     44  C   UNL     1       2.822  -1.221   0.305  1.00  0.00     0.029 A 
ATOM     45  N   UNL     1       2.960  -1.425   2.510  1.00  0.00    -0.354 N 
ATOM     46  C   UNL     1       3.159   1.987   5.018  1.00  0.00     0.074 A 
ATOM     47  C   UNL     1       1.716   1.905   5.043  1.00  0.00     0.031 C 
ATOM     48  C   UNL     1       2.793  -2.552   0.592  1.00  0.00     0.029 A 
ATOM     49  C   UNL     1       2.857  -2.732   2.039  1.00  0.00     0.049 A 
ATOM     50  H   UNL     1       3.150  -1.214   3.453  1.00  0.00     0.167 HD
ATOM     51  C   UNL     1       4.080   1.780   6.000  1.00  0.00     0.034 A 
ATOM     52  C   UNL     1       3.060  -3.893   2.714  1.00  0.00     0.034 A 
ATOM     53  C   UNL     1       5.387   1.486   5.445  1.00  0.00     0.049 A 
ATOM     54  C   UNL     1       4.194  -3.661   3.635  1.00  0.00     0.074 A 
ATOM     55  C   UNL     1       6.270   2.145   4.614  1.00  0.00     0.029 A 
ATOM     56  N   UNL     1       5.736   0.154   5.407  1.00  0.00    -0.354 N 
ATOM     57  N   UNL     1       5.414  -3.449   3.227  1.00  0.00    -0.248 NA
ATOM     58  C   UNL     1       3.959  -3.378   5.044  1.00  0.00     0.031 C 
ATOM     59  C   UNL     1       6.956   1.137   3.876  1.00  0.00     0.029 A 
ATOM     60  C   UNL     1       6.519  -0.117   4.304  1.00  0.00     0.049 A 
ATOM     61  H   UNL     1       5.463  -0.515   6.076  1.00  0.00     0.167 HD
ATOM     62  C   UNL     1       5.887  -2.510   4.115  1.00  0.00     0.074 A 
ATOM     63  C   UNL     1       5.083  -2.709   5.314  1.00  0.00     0.031 C 
ATOM     64  C   UNL     1       6.608  -1.435   3.675  1.00  0.00     0.034 A 
BRANCH  51  65
ATOM     65  C   UNL     1       3.722   1.496   7.429  1.00  0.00     0.023 A 
ATOM     66  C   UNL     1       2.462   1.016   7.822  1.00  0.00     0.031 A 
ATOM     67  C   UNL     1       4.682   1.619   8.446  1.00  0.00     0.131 A 
ATOM     68  C   UNL     1       2.138   0.815   9.165  1.00  0.00     0.055 A 
ATOM     69  C   UNL     1       4.392   1.320   9.783  1.00  0.00     0.041 A 
ATOM     70  F   UNL     1       5.932   2.019   8.167  1.00  0.00    -0.206 F 
ATOM     71  C   UNL     1       3.104   0.944  10.155  1.00  0.00     0.022 A 
BRANCH  68  72
ATOM     72  S   UNL     1       0.419   0.470   9.629  1.00  0.00     0.124 S 
ATOM     73  O   UNL     1       0.515  -0.896  10.128  1.00  0.00    -0.237 OA
ATOM     74  O   UNL     1       0.167   1.501  10.633  1.00  0.00    -0.237 OA
ATOM     75  O   UNL     1      -0.308   0.644   8.374  1.00  0.00    -0.744 OA
ENDBRANCH  68  72
ENDBRANCH  51  65
BRANCH  52  76
ATOM     76  C   UNL     1       2.261  -5.146   2.770  1.00  0.00     0.023 A 
ATOM     77  C   UNL     1       0.852  -5.109   2.738  1.00  0.00     0.031 A 
ATOM     78  C   UNL     1       2.856  -6.365   3.153  1.00  0.00     0.131 A 
ATOM     79  C   UNL     1       0.099  -6.241   3.117  1.00  0.00     0.055 A 
ATOM     80  C   UNL     1       2.105  -7.493   3.511  1.00  0.00     0.041 A 
ATOM     81  F   UNL     1       4.191  -6.473   3.242  1.00  0.00    -0.206 F 
ATOM     82  C   UNL     1       0.718  -7.431   3.505  1.00  0.00     0.022 A 
BRANCH  79  83
ATOM     83  S   UNL     1      -1.719  -6.195   3.159  1.00  0.00     0.124 S 
ATOM     84  O   UNL     1      -2.082  -7.494   2.595  1.00  0.00    -0.237 OA
ATOM     85  O   UNL     1      -1.981  -6.035   4.584  1.00  0.00    -0.237 OA
ATOM     86  O   UNL     1      -2.043  -5.049   2.317  1.00  0.00    -0.744 OA
ENDBRANCH  79  83
ENDBRANCH  52  76
BRANCH  64  87
ATOM     87  C   UNL     1       7.342  -1.534   2.337  1.00  0.00     0.023 A 
ATOM     88  C   UNL     1       8.680  -1.099   2.286  1.00  0.00     0.031 A 
ATOM     89  C   UNL     1       6.764  -1.902   1.105  1.00  0.00     0.131 A 
ATOM     90  C   UNL     1       9.358  -0.994   1.060  1.00  0.00     0.055 A 
ATOM     91  C   UNL     1       7.454  -1.841  -0.111  1.00  0.00     0.041 A 
ATOM     92  F   UNL     1       5.494  -2.293   1.008  1.00  0.00    -0.206 F 
ATOM     93  C   UNL     1       8.754  -1.366  -0.142  1.00  0.00     0.022 A 
BRANCH  90  94
ATOM     94  S   UNL     1      11.019  -0.283   0.971  1.00  0.00     0.124 S 
ATOM     95  O   UNL     1      11.802  -1.397   0.443  1.00  0.00    -0.237 OA
ATOM     96  O   UNL     1      10.826   0.837   0.051  1.00  0.00    -0.237 OA
ATOM     97  O   UNL     1      11.316   0.092   2.350  1.00  0.00    -0.744 OA
ENDBRANCH  90  94
ENDBRANCH  64  87
ENDBRANCH  38  39
ENDBRANCH  31  33
ENDBRANCH  30  31
ENDBRANCH  29  30
ENDBRANCH  28  29
ENDBRANCH  27  28
ENDBRANCH  26  27
ENDBRANCH   1  26
TORSDOF 24
