REMARK SMILES Cc1c(CC(=O)OCCOCCOCCOC(=O)c2ccc(-c3c4nc(c(-c5cc(S(=O)(=O)[O-])ccc5F)c5ccc([nH]5)c(-c5cc(S(=O)(=O)[O-])ccc5F)c5nc(c(-c6cc(S(=O)(=O)[O-])ccc6F)c6ccc3[nH]6)C=C5)C=C4)cc2)c2cc(O)ccc2n1C(=O)c1ccc(Cl)cc1
REMARK SMILES IDX 11 1 10 2 9 3 8 4 7 5 5 6 6 7 4 8 3 9 1 10 2 11 89 12 82 13
REMARK SMILES IDX 88 14 83 15 87 16 84 17 86 18 90 19 91 20 92 21 93 22 98 23
REMARK SMILES IDX 94 24 97 25 95 26 96 27 85 28 12 30 13 31 14 32 15 33 16 34
REMARK SMILES IDX 17 35 18 36 19 37 20 38 81 39 21 40 80 41 22 42 23 43 24 44
REMARK SMILES IDX 74 45 25 46 79 47 73 48 75 49 26 50 78 51 72 52 71 53 27 55
REMARK SMILES IDX 59 56 39 57 58 58 40 59 43 60 57 61 76 62 41 63 42 64 56 66
REMARK SMILES IDX 77 67 44 68 28 69 29 70 37 71 30 72 36 73 38 74 35 75 31 76
REMARK SMILES IDX 32 77 33 78 34 79 60 80 61 81 69 82 62 83 68 84 70 85 67 86
REMARK SMILES IDX 63 87 64 88 65 89 66 90 45 91 46 92 54 93 47 94 53 95 55 96
REMARK SMILES IDX 52 97 48 98 49 99 50 100 51 101
REMARK H PARENT 85 29 75 54 43 65
REMARK Flexibility Score: inf
ROOT
ATOM      1  C   UNL     1       0.873  -1.254   6.111  1.00  0.00     0.188 C 
ENDROOT
BRANCH   1   2
ATOM      2  O   UNL     1       1.898  -2.105   6.577  1.00  0.00    -0.376 OA
BRANCH   2   3
ATOM      3  C   UNL     1       3.016  -2.287   5.720  1.00  0.00     0.202 C 
BRANCH   3   4
ATOM      4  C   UNL     1       2.706  -2.580   4.243  1.00  0.00     0.261 C 
BRANCH   4   5
ATOM      5  O   UNL     1       2.279  -1.376   3.556  1.00  0.00    -0.463 OA
BRANCH   5   6
ATOM      6  C   UNL     1       1.355  -1.545   2.572  1.00  0.00     0.310 C 
ATOM      7  O   UNL     1       1.171  -2.633   2.033  1.00  0.00    -0.252 OA
BRANCH   6   8
ATOM      8  C   UNL     1       0.398  -0.364   2.390  1.00  0.00     0.160 C 
BRANCH   8   9
ATOM      9  C   UNL     1       0.838   1.002   1.934  1.00  0.00    -0.008 A 
ATOM     10  C   UNL     1       1.588   0.275  -0.448  1.00  0.00     0.065 C 
ATOM     11  C   UNL     1       1.282   1.251   0.641  1.00  0.00     0.028 A 
ATOM     12  N   UNL     1       1.355   2.625   0.459  1.00  0.00    -0.280 N 
ATOM     13  C   UNL     1       0.540   2.295   2.521  1.00  0.00     0.008 A 
ATOM     14  C   UNL     1       0.631   3.229   1.491  1.00  0.00     0.057 A 
ATOM     15  C   UNL     1       0.080   2.796   3.766  1.00  0.00     0.056 A 
ATOM     16  C   UNL     1       0.075   4.526   1.632  1.00  0.00     0.031 A 
ATOM     17  C   UNL     1      -0.387   4.104   3.931  1.00  0.00     0.116 A 
ATOM     18  C   UNL     1      -0.429   4.953   2.856  1.00  0.00     0.048 A 
BRANCH  12  19
ATOM     19  C   UNL     1       2.086   3.313  -0.546  1.00  0.00     0.262 C 
ATOM     20  O   UNL     1       2.627   2.698  -1.447  1.00  0.00    -0.268 OA
BRANCH  19  21
ATOM     21  C   UNL     1       2.318   4.767  -0.446  1.00  0.00     0.040 A 
ATOM     22  C   UNL     1       3.136   5.232   0.593  1.00  0.00     0.015 A 
ATOM     23  C   UNL     1       1.522   5.635  -1.196  1.00  0.00     0.015 A 
ATOM     24  C   UNL     1       3.100   6.581   0.934  1.00  0.00     0.021 A 
ATOM     25  C   UNL     1       1.484   6.984  -0.839  1.00  0.00     0.021 A 
ATOM     26  C   UNL     1       2.257   7.446   0.233  1.00  0.00     0.041 A 
ATOM     27  Cl  UNL     1       2.120   9.085   0.739  1.00  0.00    -0.084 Cl
ENDBRANCH  19  21
ENDBRANCH  12  19
BRANCH  17  28
ATOM     28  O   UNL     1      -0.860   4.589   5.117  1.00  0.00    -0.508 OA
ATOM     29  H   UNL     1      -0.853   4.047   5.881  1.00  0.00     0.293 HD
ENDBRANCH  17  28
ENDBRANCH   8   9
ENDBRANCH   6   8
ENDBRANCH   5   6
ENDBRANCH   4   5
ENDBRANCH   3   4
ENDBRANCH   2   3
ENDBRANCH   1   2
BRANCH   1  30
ATOM     30  C   UNL     1       1.263   0.147   5.636  1.00  0.00     0.188 C 
BRANCH  30  31
ATOM     31  O   UNL     1       2.453   0.764   6.057  1.00  0.00    -0.376 OA
BRANCH  31  32
ATOM     32  C   UNL     1       2.504   1.191   7.404  1.00  0.00     0.202 C 
BRANCH  32  33
ATOM     33  C   UNL     1       1.239   1.834   8.023  1.00  0.00     0.261 C 
BRANCH  33  34
ATOM     34  O   UNL     1       0.043   0.998   7.979  1.00  0.00    -0.460 OA
BRANCH  34  35
ATOM     35  C   UNL     1      -1.098   1.629   7.552  1.00  0.00     0.338 C 
ATOM     36  O   UNL     1      -1.240   2.846   7.527  1.00  0.00    -0.246 OA
BRANCH  35  37
ATOM     37  C   UNL     1      -1.946   0.738   6.684  1.00  0.00     0.060 A 
ATOM     38  C   UNL     1      -2.331  -0.577   6.940  1.00  0.00     0.016 A 
ATOM     39  C   UNL     1      -2.242   1.271   5.423  1.00  0.00     0.016 A 
ATOM     40  C   UNL     1      -2.901  -1.351   5.897  1.00  0.00     0.010 A 
ATOM     41  C   UNL     1      -2.711   0.493   4.372  1.00  0.00     0.010 A 
ATOM     42  C   UNL     1      -3.028  -0.839   4.587  1.00  0.00    -0.014 A 
BRANCH  42  43
ATOM     43  C   UNL     1      -3.839  -1.482   3.537  1.00  0.00     0.031 A 
ATOM     44  C   UNL     1      -5.273  -1.356   3.815  1.00  0.00     0.074 A 
ATOM     45  C   UNL     1      -3.510  -2.018   2.341  1.00  0.00     0.049 A 
ATOM     46  N   UNL     1      -5.932  -2.221   4.505  1.00  0.00    -0.248 NA
ATOM     47  C   UNL     1      -6.004  -0.130   3.496  1.00  0.00     0.031 C 
ATOM     48  C   UNL     1      -2.191  -2.201   1.777  1.00  0.00     0.029 A 
ATOM     49  N   UNL     1      -4.319  -2.514   1.348  1.00  0.00    -0.354 N 
ATOM     50  C   UNL     1      -7.239  -1.790   4.467  1.00  0.00     0.074 A 
ATOM     51  C   UNL     1      -7.176  -0.399   4.079  1.00  0.00     0.031 C 
ATOM     52  C   UNL     1      -2.263  -2.547   0.469  1.00  0.00     0.029 A 
ATOM     53  C   UNL     1      -3.659  -2.820   0.159  1.00  0.00     0.049 A 
ATOM     54  H   UNL     1      -5.287  -2.643   1.467  1.00  0.00     0.167 HD
ATOM     55  C   UNL     1      -8.252  -2.700   4.483  1.00  0.00     0.034 A 
ATOM     56  C   UNL     1      -4.075  -3.579  -0.890  1.00  0.00     0.034 A 
ATOM     57  C   UNL     1      -7.749  -4.037   4.731  1.00  0.00     0.049 A 
ATOM     58  C   UNL     1      -5.108  -4.503  -0.379  1.00  0.00     0.074 A 
ATOM     59  C   UNL     1      -7.010  -4.628   5.739  1.00  0.00     0.029 A 
ATOM     60  N   UNL     1      -7.632  -4.875   3.644  1.00  0.00    -0.354 N 
ATOM     61  N   UNL     1      -4.847  -5.538   0.367  1.00  0.00    -0.248 NA
ATOM     62  C   UNL     1      -6.491  -4.056  -0.368  1.00  0.00     0.031 C 
ATOM     63  C   UNL     1      -6.147  -5.558   5.089  1.00  0.00     0.029 A 
ATOM     64  C   UNL     1      -6.435  -5.545   3.723  1.00  0.00     0.049 A 
ATOM     65  H   UNL     1      -8.298  -4.977   2.926  1.00  0.00     0.167 HD
ATOM     66  C   UNL     1      -5.868  -5.542   1.300  1.00  0.00     0.074 A 
ATOM     67  C   UNL     1      -6.917  -4.712   0.714  1.00  0.00     0.031 C 
ATOM     68  C   UNL     1      -5.655  -5.982   2.575  1.00  0.00     0.034 A 
BRANCH  55  69
ATOM     69  C   UNL     1      -9.622  -2.429   3.928  1.00  0.00     0.023 A 
ATOM     70  C   UNL     1      -9.916  -1.327   3.105  1.00  0.00     0.031 A 
ATOM     71  C   UNL     1     -10.653  -3.373   4.082  1.00  0.00     0.131 A 
ATOM     72  C   UNL     1     -11.176  -1.151   2.529  1.00  0.00     0.055 A 
ATOM     73  C   UNL     1     -11.890  -3.242   3.440  1.00  0.00     0.041 A 
ATOM     74  F   UNL     1     -10.473  -4.476   4.826  1.00  0.00    -0.206 F 
ATOM     75  C   UNL     1     -12.162  -2.119   2.666  1.00  0.00     0.022 A 
BRANCH  72  76
ATOM     76  S   UNL     1     -11.545   0.364   1.602  1.00  0.00     0.124 S 
ATOM     77  O   UNL     1     -11.852  -0.163   0.278  1.00  0.00    -0.237 OA
ATOM     78  O   UNL     1     -12.678   0.900   2.353  1.00  0.00    -0.237 OA
ATOM     79  O   UNL     1     -10.312   1.139   1.711  1.00  0.00    -0.744 OA
ENDBRANCH  72  76
ENDBRANCH  55  69
BRANCH  56  80
ATOM     80  C   UNL     1      -4.044  -3.192  -2.326  1.00  0.00     0.023 A 
ATOM     81  C   UNL     1      -3.879  -1.851  -2.706  1.00  0.00     0.031 A 
ATOM     82  C   UNL     1      -4.471  -4.099  -3.319  1.00  0.00     0.131 A 
ATOM     83  C   UNL     1      -4.231  -1.436  -4.002  1.00  0.00     0.055 A 
ATOM     84  C   UNL     1      -4.795  -3.687  -4.617  1.00  0.00     0.041 A 
ATOM     85  F   UNL     1      -4.652  -5.396  -3.026  1.00  0.00    -0.206 F 
ATOM     86  C   UNL     1      -4.696  -2.343  -4.957  1.00  0.00     0.022 A 
BRANCH  83  87
ATOM     87  S   UNL     1      -4.168   0.322  -4.444  1.00  0.00     0.124 S 
ATOM     88  O   UNL     1      -3.657   0.288  -5.812  1.00  0.00    -0.237 OA
ATOM     89  O   UNL     1      -5.568   0.710  -4.308  1.00  0.00    -0.237 OA
ATOM     90  O   UNL     1      -3.251   0.887  -3.458  1.00  0.00    -0.744 OA
ENDBRANCH  83  87
ENDBRANCH  56  80
BRANCH  68  91
ATOM     91  C   UNL     1      -4.400  -6.788   2.868  1.00  0.00     0.023 A 
ATOM     92  C   UNL     1      -4.560  -7.981   3.596  1.00  0.00     0.031 A 
ATOM     93  C   UNL     1      -3.080  -6.357   2.627  1.00  0.00     0.131 A 
ATOM     94  C   UNL     1      -3.446  -8.670   4.094  1.00  0.00     0.055 A 
ATOM     95  C   UNL     1      -1.967  -7.085   3.066  1.00  0.00     0.041 A 
ATOM     96  F   UNL     1      -2.821  -5.188   2.030  1.00  0.00    -0.206 F 
ATOM     97  C   UNL     1      -2.146  -8.239   3.819  1.00  0.00     0.022 A 
BRANCH  94  98
ATOM     98  S   UNL     1      -3.664 -10.061   5.234  1.00  0.00     0.124 S 
ATOM     99  O   UNL     1      -3.087 -11.172   4.482  1.00  0.00    -0.237 OA
ATOM    100  O   UNL     1      -2.895  -9.628   6.400  1.00  0.00    -0.237 OA
ATOM    101  O   UNL     1      -5.108 -10.128   5.438  1.00  0.00    -0.744 OA
ENDBRANCH  94  98
ENDBRANCH  68  91
ENDBRANCH  42  43
ENDBRANCH  35  37
ENDBRANCH  34  35
ENDBRANCH  33  34
ENDBRANCH  32  33
ENDBRANCH  31  32
ENDBRANCH  30  31
ENDBRANCH   1  30
TORSDOF 24
