REMARK SMILES CC[C@H]1Sc2ccc(S(=O)(=O)N3CCC(C(=O)OCCOCCOCCOC(=O)c4ccc(-c5c6nc(c(-c7cc(S(=O)(=O)[O-])ccc7F)c7ccc([nH]7)c(-c7cc(S(=O)(=O)[O-])ccc7F)c7nc(c(-c8cc(S(=O)(=O)[O-])ccc8F)c8ccc5[nH]8)C=C7)C=C6)cc4)CC3)cc2NC1=O
REMARK SMILES IDX 22 1 21 2 20 3 19 4 18 5 16 6 17 7 15 8 12 9 13 10 94 11
REMARK SMILES IDX 14 12 93 13 9 14 10 15 11 16 8 17 3 18 4 19 98 20 5 21 97 22
REMARK SMILES IDX 99 23 6 24 96 25 7 27 95 28 2 29 1 30 23 31 24 32 25 33
REMARK SMILES IDX 26 34 27 35 28 36 29 37 30 38 31 39 92 40 32 41 91 42 33 43
REMARK SMILES IDX 34 44 35 45 85 46 36 47 90 48 84 49 86 50 37 51 89 52 83 53
REMARK SMILES IDX 82 54 38 56 70 57 50 58 69 59 51 60 54 61 68 62 87 63 52 64
REMARK SMILES IDX 53 65 67 67 88 68 55 69 39 70 40 71 48 72 41 73 47 74 49 75
REMARK SMILES IDX 46 76 42 77 43 78 44 79 45 80 71 81 72 82 80 83 73 84 79 85
REMARK SMILES IDX 81 86 78 87 74 88 75 89 76 90 77 91 56 92 57 93 65 94 58 95
REMARK SMILES IDX 64 96 66 97 63 98 59 99 60 100 61 101 62 102
REMARK H PARENT 97 26 86 55 54 66
REMARK Flexibility Score: inf
ROOT
ATOM      1  C   UNL     1       8.232   0.145  -3.119  1.00  0.00     0.188 C 
ENDROOT
BRANCH   1   2
ATOM      2  O   UNL     1       9.572   0.497  -3.443  1.00  0.00    -0.376 OA
BRANCH   2   3
ATOM      3  C   UNL     1      10.480  -0.568  -3.711  1.00  0.00     0.202 C 
BRANCH   3   4
ATOM      4  C   UNL     1      10.721  -1.586  -2.586  1.00  0.00     0.261 C 
BRANCH   4   5
ATOM      5  O   UNL     1       9.535  -2.230  -2.072  1.00  0.00    -0.463 OA
BRANCH   5   6
ATOM      6  C   UNL     1       9.206  -1.898  -0.798  1.00  0.00     0.309 C 
ATOM      7  O   UNL     1       9.844  -1.120  -0.094  1.00  0.00    -0.252 OA
BRANCH   6   8
ATOM      8  C   UNL     1       7.940  -2.554  -0.279  1.00  0.00     0.102 C 
ATOM      9  N   UNL     1       6.182  -4.597   0.776  1.00  0.00    -0.198 NA
ATOM     10  C   UNL     1       5.881  -4.002  -0.555  1.00  0.00     0.103 C 
ATOM     11  C   UNL     1       7.140  -3.903   1.664  1.00  0.00     0.103 C 
ATOM     12  C   UNL     1       7.114  -3.401  -1.241  1.00  0.00     0.032 C 
ATOM     13  C   UNL     1       8.353  -3.421   0.903  1.00  0.00     0.032 C 
BRANCH   9  14
ATOM     14  S   UNL     1       4.891  -5.389   1.580  1.00  0.00     0.243 S 
ATOM     15  O   UNL     1       5.450  -6.080   2.720  1.00  0.00    -0.207 OA
ATOM     16  O   UNL     1       4.119  -6.097   0.577  1.00  0.00    -0.207 OA
BRANCH  14  17
ATOM     17  C   UNL     1       3.811  -4.133   2.246  1.00  0.00     0.084 A 
ATOM     18  C   UNL     1       0.920   0.127   2.428  1.00  0.00     0.141 C 
ATOM     19  S   UNL     1       0.725  -1.105   3.779  1.00  0.00    -0.111 SA
ATOM     20  C   UNL     1       2.389   0.509   2.291  1.00  0.00     0.237 C 
ATOM     21  C   UNL     1       1.955  -2.271   3.221  1.00  0.00     0.032 A 
ATOM     22  N   UNL     1       3.311  -0.498   2.204  1.00  0.00    -0.324 N 
ATOM     23  O   UNL     1       2.761   1.666   2.101  1.00  0.00    -0.273 OA
ATOM     24  C   UNL     1       1.799  -3.631   3.505  1.00  0.00     0.018 A 
ATOM     25  C   UNL     1       3.075  -1.847   2.491  1.00  0.00     0.056 A 
ATOM     26  H   UNL     1       4.220  -0.253   1.915  1.00  0.00     0.170 HD
ATOM     27  C   UNL     1       2.720  -4.562   3.013  1.00  0.00     0.023 A 
ATOM     28  C   UNL     1       4.002  -2.772   2.018  1.00  0.00     0.049 A 
BRANCH  18  29
ATOM     29  C   UNL     1       0.334  -0.443   1.120  1.00  0.00     0.021 C 
ATOM     30  C   UNL     1       0.745   0.315  -0.137  1.00  0.00     0.005 C 
ENDBRANCH  18  29
ENDBRANCH  14  17
ENDBRANCH   9  14
ENDBRANCH   6   8
ENDBRANCH   5   6
ENDBRANCH   4   5
ENDBRANCH   3   4
ENDBRANCH   2   3
ENDBRANCH   1   2
BRANCH   1  31
ATOM     31  C   UNL     1       7.491  -0.710  -4.146  1.00  0.00     0.188 C 
BRANCH  31  32
ATOM     32  O   UNL     1       8.233  -1.772  -4.720  1.00  0.00    -0.376 OA
BRANCH  32  33
ATOM     33  C   UNL     1       7.715  -2.347  -5.922  1.00  0.00     0.202 C 
BRANCH  33  34
ATOM     34  C   UNL     1       7.326  -1.396  -7.083  1.00  0.00     0.261 C 
BRANCH  34  35
ATOM     35  O   UNL     1       6.343  -0.371  -6.805  1.00  0.00    -0.460 OA
BRANCH  35  36
ATOM     36  C   UNL     1       5.188  -0.749  -6.204  1.00  0.00     0.338 C 
ATOM     37  O   UNL     1       4.790  -1.896  -6.093  1.00  0.00    -0.246 OA
BRANCH  36  38
ATOM     38  C   UNL     1       4.630   0.406  -5.433  1.00  0.00     0.060 A 
ATOM     39  C   UNL     1       4.111   0.144  -4.156  1.00  0.00     0.016 A 
ATOM     40  C   UNL     1       4.671   1.726  -5.894  1.00  0.00     0.016 A 
ATOM     41  C   UNL     1       3.598   1.179  -3.363  1.00  0.00     0.010 A 
ATOM     42  C   UNL     1       4.137   2.762  -5.104  1.00  0.00     0.010 A 
ATOM     43  C   UNL     1       3.567   2.493  -3.845  1.00  0.00    -0.014 A 
BRANCH  43  44
ATOM     44  C   UNL     1       2.775   3.529  -3.117  1.00  0.00     0.031 A 
ATOM     45  C   UNL     1       1.387   3.856  -3.614  1.00  0.00     0.074 A 
ATOM     46  C   UNL     1       3.234   4.137  -2.005  1.00  0.00     0.049 A 
ATOM     47  N   UNL     1       0.518   4.724  -3.161  1.00  0.00    -0.248 NA
ATOM     48  C   UNL     1       0.922   3.095  -4.783  1.00  0.00     0.031 C 
ATOM     49  C   UNL     1       4.527   3.883  -1.374  1.00  0.00     0.029 A 
ATOM     50  N   UNL     1       2.656   5.098  -1.206  1.00  0.00    -0.354 N 
ATOM     51  C   UNL     1      -0.594   4.618  -3.990  1.00  0.00     0.074 A 
ATOM     52  C   UNL     1      -0.271   3.628  -4.996  1.00  0.00     0.031 C 
ATOM     53  C   UNL     1       4.645   4.668  -0.287  1.00  0.00     0.029 A 
ATOM     54  C   UNL     1       3.457   5.513  -0.165  1.00  0.00     0.049 A 
ATOM     55  H   UNL     1       1.753   5.457  -1.365  1.00  0.00     0.167 HD
ATOM     56  C   UNL     1      -1.779   5.276  -3.920  1.00  0.00     0.034 A 
ATOM     57  C   UNL     1       3.270   6.478   0.763  1.00  0.00     0.034 A 
ATOM     58  C   UNL     1      -2.095   6.273  -2.925  1.00  0.00     0.049 A 
ATOM     59  C   UNL     1       1.981   7.273   0.758  1.00  0.00     0.074 A 
ATOM     60  C   UNL     1      -3.273   6.984  -2.763  1.00  0.00     0.029 A 
ATOM     61  N   UNL     1      -1.229   6.718  -1.934  1.00  0.00    -0.354 N 
ATOM     62  N   UNL     1       0.935   7.157  -0.030  1.00  0.00    -0.248 NA
ATOM     63  C   UNL     1       1.847   8.327   1.774  1.00  0.00     0.031 C 
ATOM     64  C   UNL     1      -3.090   7.915  -1.735  1.00  0.00     0.029 A 
ATOM     65  C   UNL     1      -1.832   7.722  -1.188  1.00  0.00     0.049 A 
ATOM     66  H   UNL     1      -0.320   6.371  -1.782  1.00  0.00     0.167 HD
ATOM     67  C   UNL     1       0.012   8.101   0.420  1.00  0.00     0.074 A 
ATOM     68  C   UNL     1       0.614   8.760   1.559  1.00  0.00     0.031 C 
ATOM     69  C   UNL     1      -1.224   8.395  -0.063  1.00  0.00     0.034 A 
BRANCH  56  70
ATOM     70  C   UNL     1      -2.805   4.975  -4.988  1.00  0.00     0.023 A 
ATOM     71  C   UNL     1      -3.382   3.700  -5.125  1.00  0.00     0.031 A 
ATOM     72  C   UNL     1      -3.198   5.976  -5.894  1.00  0.00     0.131 A 
ATOM     73  C   UNL     1      -4.266   3.443  -6.185  1.00  0.00     0.055 A 
ATOM     74  C   UNL     1      -4.142   5.736  -6.894  1.00  0.00     0.041 A 
ATOM     75  F   UNL     1      -2.663   7.205  -5.829  1.00  0.00    -0.206 F 
ATOM     76  C   UNL     1      -4.671   4.459  -7.053  1.00  0.00     0.022 A 
BRANCH  73  77
ATOM     77  S   UNL     1      -4.761   1.727  -6.502  1.00  0.00     0.124 S 
ATOM     78  O   UNL     1      -3.467   1.078  -6.699  1.00  0.00    -0.237 OA
ATOM     79  O   UNL     1      -5.473   1.373  -5.280  1.00  0.00    -0.237 OA
ATOM     80  O   UNL     1      -5.589   1.825  -7.702  1.00  0.00    -0.744 OA
ENDBRANCH  73  77
ENDBRANCH  56  70
BRANCH  57  81
ATOM     81  C   UNL     1       4.344   6.810   1.751  1.00  0.00     0.023 A 
ATOM     82  C   UNL     1       4.132   6.699   3.136  1.00  0.00     0.031 A 
ATOM     83  C   UNL     1       5.577   7.334   1.319  1.00  0.00     0.131 A 
ATOM     84  C   UNL     1       5.111   7.154   4.036  1.00  0.00     0.055 A 
ATOM     85  C   UNL     1       6.572   7.725   2.216  1.00  0.00     0.041 A 
ATOM     86  F   UNL     1       5.831   7.481   0.008  1.00  0.00    -0.206 F 
ATOM     87  C   UNL     1       6.336   7.649   3.584  1.00  0.00     0.022 A 
BRANCH  84  88
ATOM     88  S   UNL     1       4.720   7.198   5.809  1.00  0.00     0.124 S 
ATOM     89  O   UNL     1       3.542   8.057   5.832  1.00  0.00    -0.237 OA
ATOM     90  O   UNL     1       4.493   5.789   6.108  1.00  0.00    -0.237 OA
ATOM     91  O   UNL     1       5.923   7.773   6.408  1.00  0.00    -0.744 OA
ENDBRANCH  84  88
ENDBRANCH  57  81
BRANCH  69  92
ATOM     92  C   UNL     1      -2.023   9.451   0.669  1.00  0.00     0.023 A 
ATOM     93  C   UNL     1      -1.593  10.789   0.747  1.00  0.00     0.031 A 
ATOM     94  C   UNL     1      -3.219   9.110   1.328  1.00  0.00     0.131 A 
ATOM     95  C   UNL     1      -2.308  11.713   1.526  1.00  0.00     0.055 A 
ATOM     96  C   UNL     1      -3.966  10.051   2.039  1.00  0.00     0.041 A 
ATOM     97  F   UNL     1      -3.683   7.850   1.295  1.00  0.00    -0.206 F 
ATOM     98  C   UNL     1      -3.502  11.357   2.157  1.00  0.00     0.022 A 
BRANCH  95  99
ATOM     99  S   UNL     1      -1.588  13.354   1.810  1.00  0.00     0.124 S 
ATOM    100  O   UNL     1      -0.290  13.020   2.386  1.00  0.00    -0.237 OA
ATOM    101  O   UNL     1      -1.561  13.920   0.465  1.00  0.00    -0.237 OA
ATOM    102  O   UNL     1      -2.530  13.988   2.730  1.00  0.00    -0.744 OA
ENDBRANCH  95  99
ENDBRANCH  69  92
ENDBRANCH  43  44
ENDBRANCH  36  38
ENDBRANCH  35  36
ENDBRANCH  34  35
ENDBRANCH  33  34
ENDBRANCH  32  33
ENDBRANCH  31  32
ENDBRANCH   1  31
TORSDOF 23
