REMARK SMILES Cc1cc(C)cc(-c2ccc([C@@H](C)C(=O)OCCOCCOCCOC(=O)c3ccc(-c4c5nc(c(-c6cc(S(=O)(=O)[O-])ccc6F)c6ccc([nH]6)c(-c6cc(S(=O)(=O)[O-])ccc6F)c6nc(c(-c7cc(S(=O)(=O)[O-])ccc7F)c7ccc4[nH]7)C=C6)C=C5)cc3)cc2F)c1
REMARK SMILES IDX 21 1 20 2 19 3 18 4 17 5 16 6 14 7 15 8 12 9 13 10 11 11
REMARK SMILES IDX 8 12 9 13 92 14 10 15 91 16 93 17 7 18 1 19 2 20 3 21 94 22
REMARK SMILES IDX 4 23 5 24 6 25 22 26 23 27 24 28 25 29 26 30 27 31 28 32
REMARK SMILES IDX 29 33 90 34 30 35 89 36 31 37 32 38 33 39 83 40 34 41 88 42
REMARK SMILES IDX 82 43 84 44 35 45 87 46 81 47 80 48 36 50 68 51 48 52 67 53
REMARK SMILES IDX 49 54 52 55 66 56 85 57 50 58 51 59 65 61 86 62 53 63 37 64
REMARK SMILES IDX 38 65 46 66 39 67 45 68 47 69 44 70 40 71 41 72 42 73 43 74
REMARK SMILES IDX 69 75 70 76 78 77 71 78 77 79 79 80 76 81 72 82 73 83 74 84
REMARK SMILES IDX 75 85 54 86 55 87 63 88 56 89 62 90 64 91 61 92 57 93 58 94
REMARK SMILES IDX 59 95 60 96
REMARK H PARENT 84 49 52 60
REMARK Flexibility Score: inf
ROOT
ATOM      1  C   UNL     1       2.397  -6.410  -1.775  1.00  0.00     0.188 C 
ENDROOT
BRANCH   1   2
ATOM      2  C   UNL     1       2.972  -7.824  -1.602  1.00  0.00     0.188 C 
BRANCH   2   3
ATOM      3  O   UNL     1       3.116  -8.660  -2.746  1.00  0.00    -0.376 OA
BRANCH   3   4
ATOM      4  C   UNL     1       2.119  -8.630  -3.759  1.00  0.00     0.202 C 
BRANCH   4   5
ATOM      5  C   UNL     1       0.653  -8.876  -3.361  1.00  0.00     0.261 C 
BRANCH   5   6
ATOM      6  O   UNL     1       0.135  -8.025  -2.313  1.00  0.00    -0.463 OA
BRANCH   6   7
ATOM      7  C   UNL     1      -0.340  -8.652  -1.206  1.00  0.00     0.313 C 
ATOM      8  O   UNL     1      -0.408  -9.876  -1.111  1.00  0.00    -0.252 OA
BRANCH   7   9
ATOM      9  C   UNL     1      -0.782  -7.751  -0.046  1.00  0.00     0.126 C 
ATOM     10  C   UNL     1      -2.227  -8.101   0.308  1.00  0.00     0.025 C 
BRANCH   9  11
ATOM     11  C   UNL     1      -0.614  -6.232  -0.099  1.00  0.00    -0.031 A 
ATOM     12  C   UNL     1      -0.268  -3.381  -0.067  1.00  0.00     0.017 A 
ATOM     13  C   UNL     1      -0.928  -4.037  -1.124  1.00  0.00     0.012 A 
ATOM     14  C   UNL     1       0.217  -4.186   0.968  1.00  0.00     0.131 A 
ATOM     15  C   UNL     1      -1.106  -5.434  -1.139  1.00  0.00     0.005 A 
ATOM     16  C   UNL     1       0.042  -5.576   0.964  1.00  0.00     0.044 A 
ATOM     17  F   UNL     1       0.853  -3.634   2.013  1.00  0.00    -0.206 F 
BRANCH  12  18
ATOM     18  C   UNL     1      -0.156  -1.908  -0.040  1.00  0.00    -0.015 A 
ATOM     19  C   UNL     1       2.487   0.869   0.027  1.00  0.00     0.044 C 
ATOM     20  C   UNL     1       1.164   0.158   0.000  1.00  0.00    -0.050 A 
ATOM     21  C   UNL     1      -0.016   0.912  -0.005  1.00  0.00     0.006 A 
ATOM     22  C   UNL     1       1.085  -1.247  -0.012  1.00  0.00     0.012 A 
ATOM     23  C   UNL     1      -1.264   0.284  -0.019  1.00  0.00    -0.050 A 
ATOM     24  C   UNL     1      -2.516   1.108  -0.009  1.00  0.00     0.044 C 
ATOM     25  C   UNL     1      -1.321  -1.117  -0.039  1.00  0.00     0.012 A 
ENDBRANCH  12  18
ENDBRANCH   9  11
ENDBRANCH   7   9
ENDBRANCH   6   7
ENDBRANCH   5   6
ENDBRANCH   4   5
ENDBRANCH   3   4
ENDBRANCH   2   3
ENDBRANCH   1   2
BRANCH   1  26
ATOM     26  O   UNL     1       2.215  -6.008  -3.116  1.00  0.00    -0.376 OA
BRANCH  26  27
ATOM     27  C   UNL     1       2.906  -4.846  -3.529  1.00  0.00     0.202 C 
BRANCH  27  28
ATOM     28  C   UNL     1       4.440  -4.926  -3.496  1.00  0.00     0.261 C 
BRANCH  28  29
ATOM     29  O   UNL     1       5.027  -5.402  -2.270  1.00  0.00    -0.460 OA
BRANCH  29  30
ATOM     30  C   UNL     1       4.987  -4.570  -1.205  1.00  0.00     0.338 C 
ATOM     31  O   UNL     1       4.516  -3.440  -1.186  1.00  0.00    -0.246 OA
BRANCH  30  32
ATOM     32  C   UNL     1       5.404  -5.333  -0.004  1.00  0.00     0.060 A 
ATOM     33  C   UNL     1       4.510  -5.463   1.069  1.00  0.00     0.016 A 
ATOM     34  C   UNL     1       6.670  -5.919   0.066  1.00  0.00     0.016 A 
ATOM     35  C   UNL     1       4.894  -6.146   2.226  1.00  0.00     0.010 A 
ATOM     36  C   UNL     1       7.061  -6.584   1.235  1.00  0.00     0.010 A 
ATOM     37  C   UNL     1       6.189  -6.673   2.335  1.00  0.00    -0.014 A 
BRANCH  37  38
ATOM     38  C   UNL     1       6.694  -7.139   3.655  1.00  0.00     0.031 A 
ATOM     39  C   UNL     1       7.556  -6.202   4.462  1.00  0.00     0.074 A 
ATOM     40  C   UNL     1       6.373  -8.348   4.152  1.00  0.00     0.049 A 
ATOM     41  N   UNL     1       8.156  -6.404   5.606  1.00  0.00    -0.248 NA
ATOM     42  C   UNL     1       7.767  -4.857   3.901  1.00  0.00     0.031 C 
ATOM     43  C   UNL     1       5.498  -9.323   3.504  1.00  0.00     0.029 A 
ATOM     44  N   UNL     1       6.747  -8.961   5.325  1.00  0.00    -0.354 N 
ATOM     45  C   UNL     1       8.815  -5.215   5.902  1.00  0.00     0.074 A 
ATOM     46  C   UNL     1       8.571  -4.310   4.800  1.00  0.00     0.031 C 
ATOM     47  C   UNL     1       5.399 -10.410   4.291  1.00  0.00     0.029 A 
ATOM     48  C   UNL     1       6.236 -10.229   5.477  1.00  0.00     0.049 A 
ATOM     49  H   UNL     1       7.327  -8.531   5.995  1.00  0.00     0.167 HD
ATOM     50  C   UNL     1       9.548  -4.903   6.997  1.00  0.00     0.034 A 
ATOM     51  C   UNL     1       6.436 -11.148   6.448  1.00  0.00     0.034 A 
ATOM     52  C   UNL     1       9.785  -5.806   8.093  1.00  0.00     0.049 A 
ATOM     53  C   UNL     1       7.344 -10.817   7.608  1.00  0.00     0.074 A 
ATOM     54  C   UNL     1      10.507  -5.575   9.251  1.00  0.00     0.029 A 
ATOM     55  N   UNL     1       9.314  -7.108   8.168  1.00  0.00    -0.354 N 
ATOM     56  N   UNL     1       7.989  -9.701   7.857  1.00  0.00    -0.248 NA
ATOM     57  C   UNL     1       7.559 -11.868   8.614  1.00  0.00     0.031 C 
ATOM     58  C   UNL     1      10.535  -6.760   9.991  1.00  0.00     0.029 A 
ATOM     59  C   UNL     1       9.761  -7.704   9.336  1.00  0.00     0.049 A 
ATOM     60  H   UNL     1       8.746  -7.544   7.492  1.00  0.00     0.167 HD
ATOM     61  C   UNL     1       8.660  -9.907   9.060  1.00  0.00     0.074 A 
ATOM     62  C   UNL     1       8.348 -11.255   9.487  1.00  0.00     0.031 C 
ATOM     63  C   UNL     1       9.453  -9.051   9.751  1.00  0.00     0.034 A 
BRANCH  50  64
ATOM     64  C   UNL     1      10.180  -3.537   7.053  1.00  0.00     0.023 A 
ATOM     65  C   UNL     1       9.410  -2.373   7.204  1.00  0.00     0.031 A 
ATOM     66  C   UNL     1      11.579  -3.405   6.998  1.00  0.00     0.131 A 
ATOM     67  C   UNL     1      10.042  -1.122   7.263  1.00  0.00     0.055 A 
ATOM     68  C   UNL     1      12.206  -2.165   7.119  1.00  0.00     0.041 A 
ATOM     69  F   UNL     1      12.360  -4.485   6.835  1.00  0.00    -0.206 F 
ATOM     70  C   UNL     1      11.435  -1.013   7.248  1.00  0.00     0.022 A 
BRANCH  67  71
ATOM     71  S   UNL     1       9.016   0.373   7.292  1.00  0.00     0.124 S 
ATOM     72  O   UNL     1       8.349   0.297   5.995  1.00  0.00    -0.237 OA
ATOM     73  O   UNL     1       8.170   0.155   8.459  1.00  0.00    -0.237 OA
ATOM     74  O   UNL     1       9.991   1.455   7.422  1.00  0.00    -0.744 OA
ENDBRANCH  67  71
ENDBRANCH  50  64
BRANCH  51  75
ATOM     75  C   UNL     1       5.789 -12.487   6.349  1.00  0.00     0.023 A 
ATOM     76  C   UNL     1       4.794 -12.883   7.257  1.00  0.00     0.031 A 
ATOM     77  C   UNL     1       6.165 -13.396   5.343  1.00  0.00     0.131 A 
ATOM     78  C   UNL     1       4.219 -14.160   7.150  1.00  0.00     0.055 A 
ATOM     79  C   UNL     1       5.562 -14.648   5.216  1.00  0.00     0.041 A 
ATOM     80  F   UNL     1       7.115 -13.067   4.453  1.00  0.00    -0.206 F 
ATOM     81  C   UNL     1       4.585 -15.038   6.127  1.00  0.00     0.022 A 
BRANCH  78  82
ATOM     82  S   UNL     1       2.998 -14.675   8.389  1.00  0.00     0.124 S 
ATOM     83  O   UNL     1       3.801 -14.698   9.606  1.00  0.00    -0.237 OA
ATOM     84  O   UNL     1       2.001 -13.613   8.296  1.00  0.00    -0.237 OA
ATOM     85  O   UNL     1       2.555 -15.983   7.908  1.00  0.00    -0.744 OA
ENDBRANCH  78  82
ENDBRANCH  51  75
BRANCH  63  86
ATOM     86  C   UNL     1      10.021  -9.511  11.069  1.00  0.00     0.023 A 
ATOM     87  C   UNL     1      11.065 -10.448  11.136  1.00  0.00     0.031 A 
ATOM     88  C   UNL     1       9.573  -8.927  12.268  1.00  0.00     0.131 A 
ATOM     89  C   UNL     1      11.623 -10.781  12.381  1.00  0.00     0.055 A 
ATOM     90  C   UNL     1      10.160  -9.229  13.497  1.00  0.00     0.041 A 
ATOM     91  F   UNL     1       8.582  -8.020  12.256  1.00  0.00    -0.206 F 
ATOM     92  C   UNL     1      11.191 -10.162  13.558  1.00  0.00     0.022 A 
BRANCH  89  93
ATOM     93  S   UNL     1      12.922 -12.045  12.449  1.00  0.00     0.124 S 
ATOM     94  O   UNL     1      12.202 -13.241  12.023  1.00  0.00    -0.237 OA
ATOM     95  O   UNL     1      13.915 -11.530  11.512  1.00  0.00    -0.237 OA
ATOM     96  O   UNL     1      13.336 -12.037  13.851  1.00  0.00    -0.744 OA
ENDBRANCH  89  93
ENDBRANCH  63  86
ENDBRANCH  37  38
ENDBRANCH  30  32
ENDBRANCH  29  30
ENDBRANCH  28  29
ENDBRANCH  27  28
ENDBRANCH  26  27
ENDBRANCH   1  26
TORSDOF 22
