REMARK SMILES Cc1cc(OC(F)(F)F)cc2c1O[C@H](C(F)(F)F)C(C(=O)OCCOCCOCCOC(=O)c1ccc(-c3c4nc(c(-c5cc(S(=O)(=O)[O-])ccc5F)c5ccc([nH]5)c(-c5cc(S(=O)(=O)[O-])ccc5F)c5nc(c(-c6cc(S(=O)(=O)[O-])ccc6F)c6ccc3[nH]6)C=C5)C=C4)cc1)=C2
REMARK SMILES IDX 27 1 26 2 25 3 24 4 23 5 22 6 20 7 21 8 19 9 1 10 2 11 3 12
REMARK SMILES IDX 12 13 4 14 11 15 13 16 10 17 97 18 14 19 5 20 6 21 7 22 8 23
REMARK SMILES IDX 9 24 15 25 16 26 17 27 18 28 28 29 29 30 30 31 31 32 32 33
REMARK SMILES IDX 33 34 34 35 35 36 96 37 36 38 95 39 37 40 38 41 39 42 89 43
REMARK SMILES IDX 40 44 94 45 88 46 90 47 41 48 93 49 87 50 86 51 42 53 74 54
REMARK SMILES IDX 54 55 73 56 55 57 58 58 72 59 91 60 56 61 57 62 71 64 92 65
REMARK SMILES IDX 59 66 43 67 44 68 52 69 45 70 51 71 53 72 50 73 46 74 47 75
REMARK SMILES IDX 48 76 49 77 75 78 76 79 84 80 77 81 83 82 85 83 82 84 78 85
REMARK SMILES IDX 79 86 80 87 81 88 60 89 61 90 69 91 62 92 68 93 70 94 67 95
REMARK SMILES IDX 63 96 64 97 65 98 66 99
REMARK H PARENT 90 52 58 63
REMARK Flexibility Score: inf
ROOT
ATOM      1  C   UNL     1       2.846  -5.719   3.826  1.00  0.00     0.188 C 
ENDROOT
BRANCH   1   2
ATOM      2  C   UNL     1       1.883  -6.499   4.748  1.00  0.00     0.188 C 
BRANCH   2   3
ATOM      3  O   UNL     1       1.950  -7.894   4.529  1.00  0.00    -0.376 OA
BRANCH   3   4
ATOM      4  C   UNL     1       0.832  -8.529   3.941  1.00  0.00     0.202 C 
BRANCH   4   5
ATOM      5  C   UNL     1       0.335  -8.053   2.566  1.00  0.00     0.261 C 
BRANCH   5   6
ATOM      6  O   UNL     1       0.477  -6.653   2.284  1.00  0.00    -0.460 OA
BRANCH   6   7
ATOM      7  C   UNL     1      -0.560  -5.846   2.599  1.00  0.00     0.338 C 
ATOM      8  O   UNL     1      -1.607  -6.181   3.123  1.00  0.00    -0.246 OA
BRANCH   7   9
ATOM      9  C   UNL     1      -0.186  -4.448   2.283  1.00  0.00     0.087 C 
ATOM     10  C   UNL     1       1.181  -0.107  -0.081  1.00  0.00     0.048 C 
ATOM     11  C   UNL     1       0.613  -0.472   1.263  1.00  0.00    -0.005 A 
ATOM     12  C   UNL     1       0.284   0.549   2.171  1.00  0.00     0.054 A 
ATOM     13  C   UNL     1       0.425  -1.813   1.635  1.00  0.00     0.131 A 
ATOM     14  C   UNL     1      -0.243   0.242   3.426  1.00  0.00     0.130 A 
ATOM     15  C   UNL     1      -0.134  -2.128   2.876  1.00  0.00     0.021 A 
ATOM     16  O   UNL     1       0.816  -2.761   0.732  1.00  0.00    -0.475 OA
ATOM     17  C   UNL     1      -0.441  -1.098   3.774  1.00  0.00     0.058 A 
ATOM     18  C   UNL     1      -0.450  -3.511   3.204  1.00  0.00     0.027 C 
ATOM     19  C   UNL     1       0.485  -4.155   0.967  1.00  0.00     0.316 C 
BRANCH  14  20
ATOM     20  O   UNL     1      -0.607   1.139   4.390  1.00  0.00    -0.406 OA
BRANCH  20  21
ATOM     21  C   UNL     1      -0.678   2.509   4.026  1.00  0.00     0.573 C 
ATOM     22  F   UNL     1       0.544   2.994   3.720  1.00  0.00    -0.132 F 
ATOM     23  F   UNL     1      -1.503   2.688   2.970  1.00  0.00    -0.132 F 
ATOM     24  F   UNL     1      -1.168   3.219   5.064  1.00  0.00    -0.132 F 
ENDBRANCH  20  21
ENDBRANCH  14  20
BRANCH  19  25
ATOM     25  C   UNL     1      -0.331  -4.653  -0.233  1.00  0.00     0.430 C 
ATOM     26  F   UNL     1       0.277  -4.339  -1.405  1.00  0.00    -0.167 F 
ATOM     27  F   UNL     1      -0.475  -5.999  -0.227  1.00  0.00    -0.167 F 
ATOM     28  F   UNL     1      -1.570  -4.113  -0.267  1.00  0.00    -0.167 F 
ENDBRANCH  19  25
ENDBRANCH   7   9
ENDBRANCH   6   7
ENDBRANCH   5   6
ENDBRANCH   4   5
ENDBRANCH   3   4
ENDBRANCH   2   3
ENDBRANCH   1   2
BRANCH   1  29
ATOM     29  O   UNL     1       3.739  -6.434   2.977  1.00  0.00    -0.376 OA
BRANCH  29  30
ATOM     30  C   UNL     1       4.494  -7.504   3.536  1.00  0.00     0.202 C 
BRANCH  30  31
ATOM     31  C   UNL     1       5.346  -7.254   4.792  1.00  0.00     0.261 C 
BRANCH  31  32
ATOM     32  O   UNL     1       4.657  -6.636   5.892  1.00  0.00    -0.460 OA
BRANCH  32  33
ATOM     33  C   UNL     1       5.064  -5.383   6.222  1.00  0.00     0.338 C 
ATOM     34  O   UNL     1       5.956  -4.734   5.700  1.00  0.00    -0.246 OA
BRANCH  33  35
ATOM     35  C   UNL     1       4.135  -4.822   7.221  1.00  0.00     0.060 A 
ATOM     36  C   UNL     1       3.270  -3.785   6.838  1.00  0.00     0.016 A 
ATOM     37  C   UNL     1       4.135  -5.294   8.534  1.00  0.00     0.016 A 
ATOM     38  C   UNL     1       2.384  -3.236   7.763  1.00  0.00     0.010 A 
ATOM     39  C   UNL     1       3.274  -4.714   9.470  1.00  0.00     0.010 A 
ATOM     40  C   UNL     1       2.404  -3.676   9.092  1.00  0.00    -0.014 A 
BRANCH  40  41
ATOM     41  C   UNL     1       1.616  -2.947  10.111  1.00  0.00     0.031 A 
ATOM     42  C   UNL     1       2.255  -1.794  10.829  1.00  0.00     0.074 A 
ATOM     43  C   UNL     1       0.346  -3.295  10.382  1.00  0.00     0.049 A 
ATOM     44  N   UNL     1       1.745  -1.002  11.734  1.00  0.00    -0.248 NA
ATOM     45  C   UNL     1       3.652  -1.493  10.479  1.00  0.00     0.031 C 
ATOM     46  C   UNL     1      -0.384  -4.383   9.736  1.00  0.00     0.029 A 
ATOM     47  N   UNL     1      -0.550  -2.771  11.281  1.00  0.00    -0.354 N 
ATOM     48  C   UNL     1       2.752  -0.101  12.055  1.00  0.00     0.074 A 
ATOM     49  C   UNL     1       3.914  -0.466  11.274  1.00  0.00     0.031 C 
ATOM     50  C   UNL     1      -1.615  -4.457  10.272  1.00  0.00     0.029 A 
ATOM     51  C   UNL     1      -1.754  -3.434  11.310  1.00  0.00     0.049 A 
ATOM     52  H   UNL     1      -0.350  -1.993  11.850  1.00  0.00     0.167 HD
ATOM     53  C   UNL     1       2.706   0.944  12.914  1.00  0.00     0.034 A 
ATOM     54  C   UNL     1      -2.838  -3.245  12.091  1.00  0.00     0.034 A 
ATOM     55  C   UNL     1       1.554   1.288  13.704  1.00  0.00     0.049 A 
ATOM     56  C   UNL     1      -2.845  -2.110  13.086  1.00  0.00     0.074 A 
ATOM     57  C   UNL     1       1.409   2.346  14.584  1.00  0.00     0.029 A 
ATOM     58  N   UNL     1       0.359   0.585  13.723  1.00  0.00    -0.354 N 
ATOM     59  N   UNL     1      -1.915  -1.214  13.322  1.00  0.00    -0.248 NA
ATOM     60  C   UNL     1      -4.051  -1.948  13.911  1.00  0.00     0.031 C 
ATOM     61  C   UNL     1       0.150   2.249  15.178  1.00  0.00     0.029 A 
ATOM     62  C   UNL     1      -0.517   1.169  14.623  1.00  0.00     0.049 A 
ATOM     63  H   UNL     1       0.163  -0.211  13.178  1.00  0.00     0.167 HD
ATOM     64  C   UNL     1      -2.432  -0.372  14.305  1.00  0.00     0.074 A 
ATOM     65  C   UNL     1      -3.766  -0.850  14.600  1.00  0.00     0.031 C 
ATOM     66  C   UNL     1      -1.851   0.696  14.909  1.00  0.00     0.034 A 
BRANCH  53  67
ATOM     67  C   UNL     1       3.932   1.806  13.051  1.00  0.00     0.023 A 
ATOM     68  C   UNL     1       4.629   1.848  14.271  1.00  0.00     0.031 A 
ATOM     69  C   UNL     1       4.333   2.671  12.018  1.00  0.00     0.131 A 
ATOM     70  C   UNL     1       5.670   2.766  14.441  1.00  0.00     0.055 A 
ATOM     71  C   UNL     1       5.396   3.559  12.181  1.00  0.00     0.041 A 
ATOM     72  F   UNL     1       3.700   2.658  10.834  1.00  0.00    -0.206 F 
ATOM     73  C   UNL     1       6.062   3.618  13.402  1.00  0.00     0.022 A 
BRANCH  70  74
ATOM     74  S   UNL     1       6.529   2.920  16.031  1.00  0.00     0.124 S 
ATOM     75  O   UNL     1       7.928   2.774  15.634  1.00  0.00    -0.237 OA
ATOM     76  O   UNL     1       6.138   4.260  16.457  1.00  0.00    -0.237 OA
ATOM     77  O   UNL     1       5.994   1.820  16.825  1.00  0.00    -0.744 OA
ENDBRANCH  70  74
ENDBRANCH  53  67
BRANCH  54  78
ATOM     78  C   UNL     1      -4.020  -4.136  11.922  1.00  0.00     0.023 A 
ATOM     79  C   UNL     1      -3.937  -5.511  12.208  1.00  0.00     0.031 A 
ATOM     80  C   UNL     1      -5.226  -3.640  11.398  1.00  0.00     0.131 A 
ATOM     81  C   UNL     1      -5.020  -6.349  11.918  1.00  0.00     0.055 A 
ATOM     82  C   UNL     1      -6.324  -4.470  11.167  1.00  0.00     0.041 A 
ATOM     83  F   UNL     1      -5.348  -2.336  11.105  1.00  0.00    -0.206 F 
ATOM     84  C   UNL     1      -6.220  -5.835  11.415  1.00  0.00     0.022 A 
BRANCH  81  85
ATOM     85  S   UNL     1      -4.879  -8.148  12.103  1.00  0.00     0.124 S 
ATOM     86  O   UNL     1      -6.037  -8.464  12.935  1.00  0.00    -0.237 OA
ATOM     87  O   UNL     1      -4.960  -8.594  10.714  1.00  0.00    -0.237 OA
ATOM     88  O   UNL     1      -3.580  -8.328  12.741  1.00  0.00    -0.744 OA
ENDBRANCH  81  85
ENDBRANCH  54  78
BRANCH  66  89
ATOM     89  C   UNL     1      -2.632   1.447  15.960  1.00  0.00     0.023 A 
ATOM     90  C   UNL     1      -2.974   2.798  15.757  1.00  0.00     0.031 A 
ATOM     91  C   UNL     1      -2.913   0.872  17.212  1.00  0.00     0.131 A 
ATOM     92  C   UNL     1      -3.547   3.538  16.799  1.00  0.00     0.055 A 
ATOM     93  C   UNL     1      -3.525   1.601  18.233  1.00  0.00     0.041 A 
ATOM     94  F   UNL     1      -2.595  -0.409  17.460  1.00  0.00    -0.206 F 
ATOM     95  C   UNL     1      -3.833   2.944  18.033  1.00  0.00     0.022 A 
BRANCH  92  96
ATOM     96  S   UNL     1      -3.878   5.312  16.620  1.00  0.00     0.124 S 
ATOM     97  O   UNL     1      -5.316   5.379  16.870  1.00  0.00    -0.237 OA
ATOM     98  O   UNL     1      -3.036   5.889  17.664  1.00  0.00    -0.237 OA
ATOM     99  O   UNL     1      -3.473   5.610  15.250  1.00  0.00    -0.744 OA
ENDBRANCH  92  96
ENDBRANCH  66  89
ENDBRANCH  40  41
ENDBRANCH  33  35
ENDBRANCH  32  33
ENDBRANCH  31  32
ENDBRANCH  30  31
ENDBRANCH  29  30
ENDBRANCH   1  29
TORSDOF 23
