REMARK SMILES C[C@@H](C(=O)OCCOCCOCCOC(=O)c1ccc(-c2c3nc(c(-c4cc(S(=O)(=O)[O-])ccc4F)c4ccc([nH]4)c(-c4cc(S(=O)(=O)[O-])ccc4F)c4nc(c(-c5cc(S(=O)(=O)[O-])ccc5F)c5ccc2[nH]5)C=C4)C=C3)cc1)c1ccc2c3cc(Cl)ccc3n(C(=O)c3ccc(Cl)cc3)c2c1
REMARK SMILES IDX 9 1 8 2 7 3 6 4 5 5 3 6 4 7 2 8 1 9 80 10 81 11 102 12 82 13
REMARK SMILES IDX 101 14 83 15 91 16 84 17 90 18 85 19 89 20 86 21 88 22 87 23
REMARK SMILES IDX 92 24 93 25 94 26 95 27 100 28 96 29 99 30 97 31 98 32 10 33
REMARK SMILES IDX 11 34 12 35 13 36 14 37 15 38 16 39 17 40 18 41 79 42 19 43
REMARK SMILES IDX 78 44 20 45 21 46 22 47 72 48 23 49 77 50 71 51 73 52 24 53
REMARK SMILES IDX 76 54 70 55 69 56 25 58 57 59 37 60 56 61 38 62 41 63 55 64
REMARK SMILES IDX 74 65 39 66 40 67 54 69 75 70 42 71 26 72 27 73 35 74 28 75
REMARK SMILES IDX 34 76 36 77 33 78 29 79 30 80 31 81 32 82 58 83 59 84 67 85
REMARK SMILES IDX 60 86 66 87 68 88 65 89 61 90 62 91 63 92 64 93 43 94 44 95
REMARK SMILES IDX 52 96 45 97 51 98 53 99 50 100 46 101 47 102 48 103 49 104
REMARK H PARENT 73 57 41 68
REMARK Flexibility Score: inf
ROOT
ATOM      1  C   UNL     1       0.354   1.438   3.414  1.00  0.00     0.188 C 
ENDROOT
BRANCH   1   2
ATOM      2  O   UNL     1       1.020   1.372   4.673  1.00  0.00    -0.376 OA
BRANCH   2   3
ATOM      3  C   UNL     1       2.307   0.764   4.732  1.00  0.00     0.202 C 
BRANCH   3   4
ATOM      4  C   UNL     1       2.509  -0.610   4.072  1.00  0.00     0.261 C 
BRANCH   4   5
ATOM      5  O   UNL     1       2.129  -0.674   2.681  1.00  0.00    -0.463 OA
BRANCH   5   6
ATOM      6  C   UNL     1       1.392  -1.759   2.315  1.00  0.00     0.313 C 
ATOM      7  O   UNL     1       1.146  -2.694   3.072  1.00  0.00    -0.252 OA
BRANCH   6   8
ATOM      8  C   UNL     1       0.872  -1.715   0.868  1.00  0.00     0.126 C 
ATOM      9  C   UNL     1       1.725  -0.933  -0.138  1.00  0.00     0.025 C 
BRANCH   8  10
ATOM     10  C   UNL     1      -0.639  -1.477   0.797  1.00  0.00    -0.032 A 
ATOM     11  C   UNL     1      -1.240  -0.306   0.331  1.00  0.00     0.005 A 
ATOM     12  C   UNL     1      -1.475  -2.520   1.236  1.00  0.00     0.032 A 
ATOM     13  C   UNL     1      -2.639  -0.182   0.271  1.00  0.00     0.011 A 
ATOM     14  C   UNL     1      -2.880  -2.381   1.211  1.00  0.00     0.057 A 
ATOM     15  C   UNL     1      -3.473  -1.233   0.708  1.00  0.00     0.008 A 
ATOM     16  N   UNL     1      -3.893  -3.277   1.589  1.00  0.00    -0.276 N 
ATOM     17  C   UNL     1      -4.883  -1.419   0.766  1.00  0.00     0.009 A 
ATOM     18  C   UNL     1      -5.131  -2.666   1.360  1.00  0.00     0.057 A 
ATOM     19  C   UNL     1      -5.970  -0.599   0.387  1.00  0.00     0.031 A 
ATOM     20  C   UNL     1      -6.448  -3.055   1.677  1.00  0.00     0.029 A 
ATOM     21  C   UNL     1      -7.273  -1.027   0.630  1.00  0.00     0.041 A 
ATOM     22  C   UNL     1      -7.509  -2.230   1.280  1.00  0.00     0.023 A 
ATOM     23  Cl  UNL     1      -8.594  -0.045   0.128  1.00  0.00    -0.084 Cl
BRANCH  16  24
ATOM     24  C   UNL     1      -3.609  -4.551   2.143  1.00  0.00     0.262 C 
ATOM     25  O   UNL     1      -2.606  -4.603   2.860  1.00  0.00    -0.268 OA
BRANCH  24  26
ATOM     26  C   UNL     1      -4.282  -5.861   1.892  1.00  0.00     0.040 A 
ATOM     27  C   UNL     1      -3.744  -6.979   2.567  1.00  0.00     0.015 A 
ATOM     28  C   UNL     1      -5.288  -6.082   0.947  1.00  0.00     0.015 A 
ATOM     29  C   UNL     1      -4.197  -8.274   2.316  1.00  0.00     0.021 A 
ATOM     30  C   UNL     1      -5.769  -7.383   0.719  1.00  0.00     0.021 A 
ATOM     31  C   UNL     1      -5.215  -8.471   1.394  1.00  0.00     0.041 A 
ATOM     32  Cl  UNL     1      -5.759 -10.069   1.061  1.00  0.00    -0.084 Cl
ENDBRANCH  24  26
ENDBRANCH  16  24
ENDBRANCH   8  10
ENDBRANCH   6   8
ENDBRANCH   5   6
ENDBRANCH   4   5
ENDBRANCH   3   4
ENDBRANCH   2   3
ENDBRANCH   1   2
BRANCH   1  33
ATOM     33  C   UNL     1       1.149   1.934   2.193  1.00  0.00     0.188 C 
BRANCH  33  34
ATOM     34  O   UNL     1       2.500   2.243   2.469  1.00  0.00    -0.376 OA
BRANCH  34  35
ATOM     35  C   UNL     1       2.928   3.576   2.268  1.00  0.00     0.202 C 
BRANCH  35  36
ATOM     36  C   UNL     1       2.195   4.705   3.014  1.00  0.00     0.261 C 
BRANCH  36  37
ATOM     37  O   UNL     1       0.759   4.656   3.015  1.00  0.00    -0.460 OA
BRANCH  37  38
ATOM     38  C   UNL     1       0.134   5.038   1.873  1.00  0.00     0.338 C 
ATOM     39  O   UNL     1       0.670   5.412   0.849  1.00  0.00    -0.246 OA
BRANCH  38  40
ATOM     40  C   UNL     1      -1.306   4.696   2.002  1.00  0.00     0.060 A 
ATOM     41  C   UNL     1      -1.878   3.846   1.047  1.00  0.00     0.016 A 
ATOM     42  C   UNL     1      -2.084   5.192   3.052  1.00  0.00     0.016 A 
ATOM     43  C   UNL     1      -3.229   3.500   1.137  1.00  0.00     0.010 A 
ATOM     44  C   UNL     1      -3.445   4.858   3.128  1.00  0.00     0.010 A 
ATOM     45  C   UNL     1      -4.028   4.015   2.166  1.00  0.00    -0.014 A 
BRANCH  45  46
ATOM     46  C   UNL     1      -5.501   3.815   2.118  1.00  0.00     0.031 A 
ATOM     47  C   UNL     1      -6.330   4.806   1.347  1.00  0.00     0.074 A 
ATOM     48  C   UNL     1      -6.096   2.760   2.705  1.00  0.00     0.049 A 
ATOM     49  N   UNL     1      -7.627   4.872   1.198  1.00  0.00    -0.248 NA
ATOM     50  C   UNL     1      -5.585   5.859   0.641  1.00  0.00     0.031 C 
ATOM     51  C   UNL     1      -5.402   1.676   3.396  1.00  0.00     0.029 A 
ATOM     52  N   UNL     1      -7.426   2.425   2.807  1.00  0.00    -0.354 N 
ATOM     53  C   UNL     1      -7.857   5.974   0.381  1.00  0.00     0.074 A 
ATOM     54  C   UNL     1      -6.564   6.553   0.084  1.00  0.00     0.031 C 
ATOM     55  C   UNL     1      -6.314   0.802   3.861  1.00  0.00     0.029 A 
ATOM     56  C   UNL     1      -7.658   1.284   3.542  1.00  0.00     0.049 A 
ATOM     57  H   UNL     1      -8.146   2.953   2.393  1.00  0.00     0.167 HD
ATOM     58  C   UNL     1      -9.037   6.463  -0.075  1.00  0.00     0.034 A 
ATOM     59  C   UNL     1      -8.820   0.711   3.926  1.00  0.00     0.034 A 
ATOM     60  C   UNL     1     -10.324   5.908   0.263  1.00  0.00     0.049 A 
ATOM     61  C   UNL     1     -10.130   1.347   3.505  1.00  0.00     0.074 A 
ATOM     62  C   UNL     1     -11.580   6.360  -0.103  1.00  0.00     0.029 A 
ATOM     63  N   UNL     1     -10.524   4.789   1.062  1.00  0.00    -0.354 N 
ATOM     64  N   UNL     1     -10.337   2.404   2.753  1.00  0.00    -0.248 NA
ATOM     65  C   UNL     1     -11.365   0.709   3.986  1.00  0.00     0.031 C 
ATOM     66  C   UNL     1     -12.537   5.568   0.541  1.00  0.00     0.029 A 
ATOM     67  C   UNL     1     -11.882   4.562   1.233  1.00  0.00     0.049 A 
ATOM     68  H   UNL     1      -9.807   4.237   1.449  1.00  0.00     0.167 HD
ATOM     69  C   UNL     1     -11.722   2.530   2.643  1.00  0.00     0.074 A 
ATOM     70  C   UNL     1     -12.300   1.434   3.390  1.00  0.00     0.031 C 
ATOM     71  C   UNL     1     -12.452   3.469   1.985  1.00  0.00     0.034 A 
BRANCH  58  72
ATOM     72  C   UNL     1      -8.978   7.715  -0.914  1.00  0.00     0.023 A 
ATOM     73  C   UNL     1      -8.350   7.734  -2.172  1.00  0.00     0.031 A 
ATOM     74  C   UNL     1      -9.506   8.922  -0.422  1.00  0.00     0.131 A 
ATOM     75  C   UNL     1      -8.195   8.950  -2.856  1.00  0.00     0.055 A 
ATOM     76  C   UNL     1      -9.426  10.111  -1.148  1.00  0.00     0.041 A 
ATOM     77  F   UNL     1     -10.091   8.970   0.785  1.00  0.00    -0.206 F 
ATOM     78  C   UNL     1      -8.752  10.133  -2.365  1.00  0.00     0.022 A 
BRANCH  75  79
ATOM     79  S   UNL     1      -7.110   8.992  -4.309  1.00  0.00     0.124 S 
ATOM     80  O   UNL     1      -5.846   8.523  -3.747  1.00  0.00    -0.237 OA
ATOM     81  O   UNL     1      -7.778   8.079  -5.229  1.00  0.00    -0.237 OA
ATOM     82  O   UNL     1      -7.123  10.399  -4.705  1.00  0.00    -0.744 OA
ENDBRANCH  75  79
ENDBRANCH  58  72
BRANCH  59  83
ATOM     83  C   UNL     1      -8.824  -0.509   4.791  1.00  0.00     0.023 A 
ATOM     84  C   UNL     1      -9.441  -1.699   4.370  1.00  0.00     0.031 A 
ATOM     85  C   UNL     1      -8.281  -0.483   6.088  1.00  0.00     0.131 A 
ATOM     86  C   UNL     1      -9.534  -2.795   5.243  1.00  0.00     0.055 A 
ATOM     87  C   UNL     1      -8.332  -1.592   6.937  1.00  0.00     0.041 A 
ATOM     88  F   UNL     1      -7.693   0.630   6.556  1.00  0.00    -0.206 F 
ATOM     89  C   UNL     1      -8.974  -2.753   6.520  1.00  0.00     0.022 A 
BRANCH  86  90
ATOM     90  S   UNL     1     -10.463  -4.255   4.702  1.00  0.00     0.124 S 
ATOM     91  O   UNL     1     -11.777  -3.687   4.426  1.00  0.00    -0.237 OA
ATOM     92  O   UNL     1      -9.690  -4.680   3.538  1.00  0.00    -0.237 OA
ATOM     93  O   UNL     1     -10.395  -5.149   5.855  1.00  0.00    -0.744 OA
ENDBRANCH  86  90
ENDBRANCH  59  83
BRANCH  71  94
ATOM     94  C   UNL     1     -13.959   3.328   2.006  1.00  0.00     0.023 A 
ATOM     95  C   UNL     1     -14.703   3.446   3.193  1.00  0.00     0.031 A 
ATOM     96  C   UNL     1     -14.662   3.084   0.812  1.00  0.00     0.131 A 
ATOM     97  C   UNL     1     -16.096   3.267   3.170  1.00  0.00     0.055 A 
ATOM     98  C   UNL     1     -16.053   2.973   0.784  1.00  0.00     0.041 A 
ATOM     99  F   UNL     1     -14.008   2.959  -0.354  1.00  0.00    -0.206 F 
ATOM    100  C   UNL     1     -16.777   3.051   1.969  1.00  0.00     0.022 A 
BRANCH  97 101
ATOM    101  S   UNL     1     -17.000   3.226   4.742  1.00  0.00     0.124 S 
ATOM    102  O   UNL     1     -16.339   2.131   5.445  1.00  0.00    -0.237 OA
ATOM    103  O   UNL     1     -16.760   4.563   5.276  1.00  0.00    -0.237 OA
ATOM    104  O   UNL     1     -18.380   2.959   4.339  1.00  0.00    -0.744 OA
ENDBRANCH  97 101
ENDBRANCH  71  94
ENDBRANCH  45  46
ENDBRANCH  38  40
ENDBRANCH  37  38
ENDBRANCH  36  37
ENDBRANCH  35  36
ENDBRANCH  34  35
ENDBRANCH  33  34
ENDBRANCH   1  33
TORSDOF 23
