REMARK SMILES C[C@@H]1CN(c2ccc(N)cc2C(=O)OCCOCCOCCOC(=O)c2ccc(-c3c4nc(c(-c5cc(S(=O)(=O)[O-])ccc5F)c5ccc([nH]5)c(-c5cc(S(=O)(=O)[O-])ccc5F)c5nc(c(-c6cc(S(=O)(=O)[O-])ccc6F)c6ccc3[nH]6)C=C5)C=C4)cc2)C[C@H]1C
REMARK SMILES IDX 19 1 18 2 17 3 16 4 15 5 14 6 12 7 13 8 11 9 5 10 6 11 7 12
REMARK SMILES IDX 10 13 8 14 4 15 1 16 2 17 3 18 90 19 89 20 91 21 9 22 20 25
REMARK SMILES IDX 21 26 22 27 23 28 24 29 25 30 26 31 27 32 88 33 28 34 87 35
REMARK SMILES IDX 29 36 30 37 31 38 81 39 32 40 86 41 80 42 82 43 33 44 85 45
REMARK SMILES IDX 79 46 78 47 34 49 66 50 46 51 65 52 47 53 50 54 64 55 83 56
REMARK SMILES IDX 48 57 49 58 63 60 84 61 51 62 35 63 36 64 44 65 37 66 43 67
REMARK SMILES IDX 45 68 42 69 38 70 39 71 40 72 41 73 67 74 68 75 76 76 69 77
REMARK SMILES IDX 75 78 77 79 74 80 70 81 71 82 72 83 73 84 52 85 53 86 61 87
REMARK SMILES IDX 54 88 60 89 62 90 59 91 55 92 56 93 57 94 58 95
REMARK H PARENT 9 23 9 24 82 48 50 59
REMARK Flexibility Score: inf
ROOT
ATOM      1  C   UNL     1      -1.284   4.561   1.188  1.00  0.00     0.188 C 
ENDROOT
BRANCH   1   2
ATOM      2  C   UNL     1      -2.714   5.146   1.183  1.00  0.00     0.188 C 
BRANCH   2   3
ATOM      3  O   UNL     1      -3.783   4.367   1.702  1.00  0.00    -0.376 OA
BRANCH   3   4
ATOM      4  C   UNL     1      -4.072   3.108   1.108  1.00  0.00     0.202 C 
BRANCH   4   5
ATOM      5  C   UNL     1      -3.993   2.921  -0.413  1.00  0.00     0.261 C 
BRANCH   5   6
ATOM      6  O   UNL     1      -2.765   3.389  -0.988  1.00  0.00    -0.460 OA
BRANCH   6   7
ATOM      7  C   UNL     1      -2.875   4.192  -2.076  1.00  0.00     0.340 C 
ATOM      8  O   UNL     1      -3.916   4.499  -2.638  1.00  0.00    -0.246 OA
BRANCH   7   9
ATOM      9  C   UNL     1      -1.571   4.813  -2.413  1.00  0.00     0.085 A 
ATOM     10  C   UNL     1      -0.357   4.119  -2.597  1.00  0.00     0.051 A 
ATOM     11  C   UNL     1       0.773   4.922  -2.860  1.00  0.00     0.029 A 
ATOM     12  C   UNL     1       0.722   6.322  -2.894  1.00  0.00     0.027 A 
ATOM     13  C   UNL     1      -1.612   6.229  -2.437  1.00  0.00     0.043 A 
ATOM     14  C   UNL     1      -0.473   6.991  -2.679  1.00  0.00     0.032 A 
BRANCH  10  15
ATOM     15  N   UNL     1      -0.160   2.755  -2.506  1.00  0.00    -0.370 N 
ATOM     16  C   UNL     1       1.043   0.142  -0.164  1.00  0.00     0.010 C 
ATOM     17  C   UNL     1       0.580   0.744  -1.482  1.00  0.00     0.010 C 
ATOM     18  C   UNL     1       0.872   2.250  -1.585  1.00  0.00     0.120 C 
ATOM     19  C   UNL     1      -0.938   0.697  -1.698  1.00  0.00     0.010 C 
ATOM     20  C   UNL     1      -1.116   1.707  -2.839  1.00  0.00     0.120 C 
ATOM     21  C   UNL     1      -1.493  -0.673  -2.039  1.00  0.00     0.010 C 
ENDBRANCH  10  15
BRANCH  14  22
ATOM     22  N   UNL     1      -0.502   8.368  -2.574  1.00  0.00    -0.399 N 
ATOM     23  H   UNL     1       0.312   8.893  -2.749  1.00  0.00     0.156 HD
ATOM     24  H   UNL     1      -1.338   8.825  -2.323  1.00  0.00     0.156 HD
ENDBRANCH  14  22
ENDBRANCH   7   9
ENDBRANCH   6   7
ENDBRANCH   5   6
ENDBRANCH   4   5
ENDBRANCH   3   4
ENDBRANCH   2   3
ENDBRANCH   1   2
BRANCH   1  25
ATOM     25  O   UNL     1      -1.162   3.188   1.481  1.00  0.00    -0.376 OA
BRANCH  25  26
ATOM     26  C   UNL     1      -1.098   2.745   2.825  1.00  0.00     0.202 C 
BRANCH  26  27
ATOM     27  C   UNL     1      -1.264   3.612   4.090  1.00  0.00     0.261 C 
BRANCH  27  28
ATOM     28  O   UNL     1      -1.612   4.989   3.947  1.00  0.00    -0.460 OA
BRANCH  28  29
ATOM     29  C   UNL     1      -0.589   5.872   4.050  1.00  0.00     0.338 C 
ATOM     30  O   UNL     1       0.595   5.607   4.204  1.00  0.00    -0.246 OA
BRANCH  29  31
ATOM     31  C   UNL     1      -1.108   7.221   3.758  1.00  0.00     0.060 A 
ATOM     32  C   UNL     1      -0.681   7.879   2.596  1.00  0.00     0.016 A 
ATOM     33  C   UNL     1      -2.008   7.833   4.631  1.00  0.00     0.016 A 
ATOM     34  C   UNL     1      -1.143   9.165   2.312  1.00  0.00     0.010 A 
ATOM     35  C   UNL     1      -2.451   9.130   4.356  1.00  0.00     0.010 A 
ATOM     36  C   UNL     1      -2.002   9.812   3.210  1.00  0.00    -0.014 A 
BRANCH  36  37
ATOM     37  C   UNL     1      -2.290  11.260   3.055  1.00  0.00     0.031 A 
ATOM     38  C   UNL     1      -1.518  12.236   3.900  1.00  0.00     0.074 A 
ATOM     39  C   UNL     1      -3.216  11.702   2.184  1.00  0.00     0.049 A 
ATOM     40  N   UNL     1      -1.654  13.531   4.012  1.00  0.00    -0.248 NA
ATOM     41  C   UNL     1      -0.454  11.665   4.740  1.00  0.00     0.031 C 
ATOM     42  C   UNL     1      -3.991  10.860   1.276  1.00  0.00     0.029 A 
ATOM     43  N   UNL     1      -3.669  12.974   1.934  1.00  0.00    -0.354 N 
ATOM     44  C   UNL     1      -0.700  13.931   4.942  1.00  0.00     0.074 A 
ATOM     45  C   UNL     1      -0.021  12.734   5.390  1.00  0.00     0.031 C 
ATOM     46  C   UNL     1      -4.837  11.638   0.577  1.00  0.00     0.029 A 
ATOM     47  C   UNL     1      -4.696  13.025   1.020  1.00  0.00     0.049 A 
ATOM     48  H   UNL     1      -3.294  13.774   2.368  1.00  0.00     0.167 HD
ATOM     49  C   UNL     1      -0.414  15.183   5.378  1.00  0.00     0.034 A 
ATOM     50  C   UNL     1      -5.456  14.064   0.616  1.00  0.00     0.034 A 
ATOM     51  C   UNL     1      -1.114  16.364   4.934  1.00  0.00     0.049 A 
ATOM     52  C   UNL     1      -5.188  15.438   1.190  1.00  0.00     0.074 A 
ATOM     53  C   UNL     1      -0.898  17.681   5.299  1.00  0.00     0.029 A 
ATOM     54  N   UNL     1      -2.178  16.371   4.040  1.00  0.00    -0.354 N 
ATOM     55  N   UNL     1      -4.281  15.808   2.065  1.00  0.00    -0.248 NA
ATOM     56  C   UNL     1      -6.044  16.535   0.717  1.00  0.00     0.031 C 
ATOM     57  C   UNL     1      -1.883  18.471   4.697  1.00  0.00     0.029 A 
ATOM     58  C   UNL     1      -2.652  17.664   3.874  1.00  0.00     0.049 A 
ATOM     59  H   UNL     1      -2.543  15.575   3.591  1.00  0.00     0.167 HD
ATOM     60  C   UNL     1      -4.432  17.186   2.212  1.00  0.00     0.074 A 
ATOM     61  C   UNL     1      -5.512  17.580   1.333  1.00  0.00     0.031 C 
ATOM     62  C   UNL     1      -3.734  18.048   2.996  1.00  0.00     0.034 A 
BRANCH  49  63
ATOM     63  C   UNL     1       0.661  15.324   6.429  1.00  0.00     0.023 A 
ATOM     64  C   UNL     1       1.995  14.955   6.182  1.00  0.00     0.031 A 
ATOM     65  C   UNL     1       0.340  15.807   7.711  1.00  0.00     0.131 A 
ATOM     66  C   UNL     1       2.938  15.002   7.220  1.00  0.00     0.055 A 
ATOM     67  C   UNL     1       1.303  15.935   8.713  1.00  0.00     0.041 A 
ATOM     68  F   UNL     1      -0.922  16.150   8.016  1.00  0.00    -0.206 F 
ATOM     69  C   UNL     1       2.608  15.516   8.475  1.00  0.00     0.022 A 
BRANCH  66  70
ATOM     70  S   UNL     1       4.561  14.237   6.951  1.00  0.00     0.124 S 
ATOM     71  O   UNL     1       4.188  12.866   6.610  1.00  0.00    -0.237 OA
ATOM     72  O   UNL     1       5.111  15.038   5.864  1.00  0.00    -0.237 OA
ATOM     73  O   UNL     1       5.230  14.390   8.241  1.00  0.00    -0.744 OA
ENDBRANCH  66  70
ENDBRANCH  49  63
BRANCH  50  74
ATOM     74  C   UNL     1      -6.573  13.854  -0.351  1.00  0.00     0.023 A 
ATOM     75  C   UNL     1      -6.578  14.485  -1.606  1.00  0.00     0.031 A 
ATOM     76  C   UNL     1      -7.687  13.065  -0.009  1.00  0.00     0.131 A 
ATOM     77  C   UNL     1      -7.692  14.355  -2.451  1.00  0.00     0.055 A 
ATOM     78  C   UNL     1      -8.765  12.890  -0.878  1.00  0.00     0.041 A 
ATOM     79  F   UNL     1      -7.741  12.446   1.181  1.00  0.00    -0.206 F 
ATOM     80  C   UNL     1      -8.777  13.549  -2.103  1.00  0.00     0.022 A 
BRANCH  77  81
ATOM     81  S   UNL     1      -7.745  15.339  -3.974  1.00  0.00     0.124 S 
ATOM     82  O   UNL     1      -7.639  16.697  -3.453  1.00  0.00    -0.237 OA
ATOM     83  O   UNL     1      -6.582  14.838  -4.699  1.00  0.00    -0.237 OA
ATOM     84  O   UNL     1      -9.039  14.993  -4.559  1.00  0.00    -0.744 OA
ENDBRANCH  77  81
ENDBRANCH  50  74
BRANCH  62  85
ATOM     85  C   UNL     1      -4.070  19.519   2.887  1.00  0.00     0.023 A 
ATOM     86  C   UNL     1      -5.313  20.036   3.291  1.00  0.00     0.031 A 
ATOM     87  C   UNL     1      -3.117  20.419   2.375  1.00  0.00     0.131 A 
ATOM     88  C   UNL     1      -5.588  21.404   3.128  1.00  0.00     0.055 A 
ATOM     89  C   UNL     1      -3.371  21.788   2.278  1.00  0.00     0.041 A 
ATOM     90  F   UNL     1      -1.913  19.983   1.968  1.00  0.00    -0.206 F 
ATOM     91  C   UNL     1      -4.617  22.285   2.644  1.00  0.00     0.022 A 
BRANCH  88  92
ATOM     92  S   UNL     1      -7.266  22.005   3.467  1.00  0.00     0.124 S 
ATOM     93  O   UNL     1      -8.068  21.193   2.558  1.00  0.00    -0.237 OA
ATOM     94  O   UNL     1      -7.421  21.714   4.888  1.00  0.00    -0.237 OA
ATOM     95  O   UNL     1      -7.196  23.426   3.130  1.00  0.00    -0.744 OA
ENDBRANCH  88  92
ENDBRANCH  62  85
ENDBRANCH  36  37
ENDBRANCH  29  31
ENDBRANCH  28  29
ENDBRANCH  27  28
ENDBRANCH  26  27
ENDBRANCH  25  26
ENDBRANCH   1  25
TORSDOF 22
