REMARK SMILES CC(C)Cc1ccc(-c2cc(Cl)cc3c2O[C@H](C(F)(F)F)C(C(=O)OCCOCCOCCOC(=O)c2ccc(-c4c5nc(c(-c6cc(S(=O)(=O)[O-])ccc6F)c6ccc([nH]6)c(-c6cc(S(=O)(=O)[O-])ccc6F)c6nc(c(-c7cc(S(=O)(=O)[O-])ccc7F)c7ccc4[nH]7)C=C6)C=C5)cc2)=C3)cc1
REMARK SMILES IDX 29 1 28 2 27 3 26 4 25 5 23 6 24 7 22 8 9 9 10 10 15 11
REMARK SMILES IDX 11 12 14 13 16 14 12 15 13 16 100 17 17 18 8 19 5 20 6 21
REMARK SMILES IDX 102 22 7 23 101 24 4 25 2 26 1 27 3 28 18 29 19 30 20 31
REMARK SMILES IDX 21 32 30 33 31 34 32 35 33 36 34 37 35 38 36 39 37 40 38 41
REMARK SMILES IDX 99 42 39 43 98 44 40 45 41 46 42 47 92 48 43 49 97 50 91 51
REMARK SMILES IDX 93 52 44 53 96 54 90 55 89 56 45 58 77 59 57 60 76 61 58 62
REMARK SMILES IDX 61 63 75 64 94 65 59 66 60 67 74 69 95 70 62 71 46 72 47 73
REMARK SMILES IDX 55 74 48 75 54 76 56 77 53 78 49 79 50 80 51 81 52 82 78 83
REMARK SMILES IDX 79 84 87 85 80 86 86 87 88 88 85 89 81 90 82 91 83 92 84 93
REMARK SMILES IDX 63 94 64 95 72 96 65 97 71 98 73 99 70 100 66 101 67 102
REMARK SMILES IDX 68 103 69 104
REMARK H PARENT 93 57 61 68
REMARK Flexibility Score: inf
ROOT
ATOM      1  C   UNL     1      -4.052  -7.955   5.840  1.00  0.00     0.188 C 
ENDROOT
BRANCH   1   2
ATOM      2  O   UNL     1      -5.196  -8.794   5.798  1.00  0.00    -0.376 OA
BRANCH   2   3
ATOM      3  C   UNL     1      -5.197  -9.808   4.797  1.00  0.00     0.202 C 
BRANCH   3   4
ATOM      4  C   UNL     1      -4.006 -10.773   4.857  1.00  0.00     0.261 C 
BRANCH   4   5
ATOM      5  O   UNL     1      -2.803 -10.142   4.354  1.00  0.00    -0.460 OA
BRANCH   5   6
ATOM      6  C   UNL     1      -2.630 -10.239   3.018  1.00  0.00     0.338 C 
ATOM      7  O   UNL     1      -3.318 -10.932   2.277  1.00  0.00    -0.246 OA
BRANCH   6   8
ATOM      8  C   UNL     1      -1.589  -9.303   2.515  1.00  0.00     0.087 C 
ATOM      9  C   UNL     1      -1.958  -5.202   2.547  1.00  0.00     0.026 A 
ATOM     10  C   UNL     1      -3.348  -4.958   2.579  1.00  0.00     0.033 A 
ATOM     11  C   UNL     1      -1.590  -6.529   2.330  1.00  0.00     0.135 A 
ATOM     12  C   UNL     1      -4.292  -5.910   2.197  1.00  0.00     0.042 A 
ATOM     13  C   UNL     1      -2.515  -7.416   1.742  1.00  0.00     0.019 A 
ATOM     14  O   UNL     1      -0.424  -7.101   2.824  1.00  0.00    -0.475 OA
ATOM     15  Cl  UNL     1      -5.971  -5.564   2.280  1.00  0.00    -0.084 Cl
ATOM     16  C   UNL     1      -3.870  -7.123   1.690  1.00  0.00     0.032 A 
ATOM     17  C   UNL     1      -2.012  -8.753   1.362  1.00  0.00     0.027 C 
ATOM     18  C   UNL     1      -0.742  -8.429   3.442  1.00  0.00     0.316 C 
BRANCH   9  19
ATOM     19  C   UNL     1      -1.145  -3.985   2.283  1.00  0.00    -0.015 A 
ATOM     20  C   UNL     1      -0.696  -1.280   1.482  1.00  0.00    -0.048 A 
ATOM     21  C   UNL     1      -0.768  -1.625   2.836  1.00  0.00     0.004 A 
ATOM     22  C   UNL     1      -0.745  -2.306   0.534  1.00  0.00     0.004 A 
ATOM     23  C   UNL     1      -0.983  -2.962   3.229  1.00  0.00     0.009 A 
ATOM     24  C   UNL     1      -0.948  -3.635   0.930  1.00  0.00     0.009 A 
BRANCH  20  25
ATOM     25  C   UNL     1      -0.640   0.169   1.038  1.00  0.00     0.038 C 
BRANCH  25  26
ATOM     26  C   UNL     1       0.775   0.769   0.965  1.00  0.00    -0.013 C 
ATOM     27  C   UNL     1       1.617   0.113  -0.132  1.00  0.00     0.008 C 
ATOM     28  C   UNL     1       0.696   2.278   0.702  1.00  0.00     0.008 C 
ENDBRANCH  25  26
ENDBRANCH  20  25
ENDBRANCH   9  19
BRANCH  18  29
ATOM     29  C   UNL     1       0.521  -9.191   3.849  1.00  0.00     0.430 C 
ATOM     30  F   UNL     1       1.313  -9.480   2.793  1.00  0.00    -0.167 F 
ATOM     31  F   UNL     1       1.260  -8.502   4.748  1.00  0.00    -0.167 F 
ATOM     32  F   UNL     1       0.200 -10.373   4.438  1.00  0.00    -0.167 F 
ENDBRANCH  18  29
ENDBRANCH   6   8
ENDBRANCH   5   6
ENDBRANCH   4   5
ENDBRANCH   3   4
ENDBRANCH   2   3
ENDBRANCH   1   2
BRANCH   1  33
ATOM     33  C   UNL     1      -2.998  -8.347   6.899  1.00  0.00     0.188 C 
BRANCH  33  34
ATOM     34  O   UNL     1      -3.266  -9.407   7.808  1.00  0.00    -0.376 OA
BRANCH  34  35
ATOM     35  C   UNL     1      -4.511  -9.433   8.496  1.00  0.00     0.202 C 
BRANCH  35  36
ATOM     36  C   UNL     1      -4.906  -8.214   9.336  1.00  0.00     0.261 C 
BRANCH  36  37
ATOM     37  O   UNL     1      -5.054  -7.000   8.576  1.00  0.00    -0.460 OA
BRANCH  37  38
ATOM     38  C   UNL     1      -4.215  -5.995   8.931  1.00  0.00     0.338 C 
ATOM     39  O   UNL     1      -3.372  -6.026   9.812  1.00  0.00    -0.246 OA
BRANCH  38  40
ATOM     40  C   UNL     1      -4.322  -4.868   7.981  1.00  0.00     0.060 A 
ATOM     41  C   UNL     1      -3.160  -4.473   7.312  1.00  0.00     0.016 A 
ATOM     42  C   UNL     1      -5.505  -4.142   7.821  1.00  0.00     0.016 A 
ATOM     43  C   UNL     1      -3.176  -3.334   6.507  1.00  0.00     0.010 A 
ATOM     44  C   UNL     1      -5.511  -2.987   7.021  1.00  0.00     0.010 A 
ATOM     45  C   UNL     1      -4.341  -2.564   6.371  1.00  0.00    -0.014 A 
BRANCH  45  46
ATOM     46  C   UNL     1      -4.250  -1.241   5.689  1.00  0.00     0.031 A 
ATOM     47  C   UNL     1      -3.699  -0.073   6.451  1.00  0.00     0.074 A 
ATOM     48  C   UNL     1      -4.593  -1.082   4.398  1.00  0.00     0.049 A 
ATOM     49  N   UNL     1      -3.485   1.152   6.050  1.00  0.00    -0.248 NA
ATOM     50  C   UNL     1      -3.381  -0.319   7.863  1.00  0.00     0.031 C 
ATOM     51  C   UNL     1      -5.158  -2.130   3.567  1.00  0.00     0.029 A 
ATOM     52  N   UNL     1      -4.469  -0.012   3.544  1.00  0.00    -0.354 N 
ATOM     53  C   UNL     1      -3.068   1.847   7.178  1.00  0.00     0.074 A 
ATOM     54  C   UNL     1      -3.023   0.890   8.265  1.00  0.00     0.031 C 
ATOM     55  C   UNL     1      -5.197  -1.708   2.292  1.00  0.00     0.029 A 
ATOM     56  C   UNL     1      -4.763  -0.316   2.230  1.00  0.00     0.049 A 
ATOM     57  H   UNL     1      -4.197   0.886   3.841  1.00  0.00     0.167 HD
ATOM     58  C   UNL     1      -2.802   3.172   7.303  1.00  0.00     0.034 A 
ATOM     59  C   UNL     1      -4.696   0.443   1.113  1.00  0.00     0.034 A 
ATOM     60  C   UNL     1      -2.893   4.117   6.216  1.00  0.00     0.049 A 
ATOM     61  C   UNL     1      -4.341   1.905   1.265  1.00  0.00     0.074 A 
ATOM     62  C   UNL     1      -2.700   5.488   6.247  1.00  0.00     0.029 A 
ATOM     63  N   UNL     1      -3.222   3.796   4.904  1.00  0.00    -0.354 N 
ATOM     64  N   UNL     1      -3.976   2.560   2.344  1.00  0.00    -0.248 NA
ATOM     65  C   UNL     1      -4.435   2.741   0.060  1.00  0.00     0.031 C 
ATOM     66  C   UNL     1      -2.979   6.001   4.975  1.00  0.00     0.029 A 
ATOM     67  C   UNL     1      -3.263   4.944   4.125  1.00  0.00     0.049 A 
ATOM     68  H   UNL     1      -3.399   2.885   4.575  1.00  0.00     0.167 HD
ATOM     69  C   UNL     1      -3.823   3.888   1.950  1.00  0.00     0.074 A 
ATOM     70  C   UNL     1      -4.070   3.928   0.524  1.00  0.00     0.031 C 
ATOM     71  C   UNL     1      -3.534   4.979   2.705  1.00  0.00     0.034 A 
BRANCH  58  72
ATOM     72  C   UNL     1      -2.525   3.670   8.700  1.00  0.00     0.023 A 
ATOM     73  C   UNL     1      -1.411   3.236   9.439  1.00  0.00     0.031 A 
ATOM     74  C   UNL     1      -3.457   4.506   9.342  1.00  0.00     0.131 A 
ATOM     75  C   UNL     1      -1.315   3.552  10.803  1.00  0.00     0.055 A 
ATOM     76  C   UNL     1      -3.304   4.896  10.672  1.00  0.00     0.041 A 
ATOM     77  F   UNL     1      -4.556   4.927   8.696  1.00  0.00    -0.206 F 
ATOM     78  C   UNL     1      -2.240   4.400  11.419  1.00  0.00     0.022 A 
BRANCH  75  79
ATOM     79  S   UNL     1      -0.086   2.672  11.806  1.00  0.00     0.124 S 
ATOM     80  O   UNL     1      -0.447   1.278  11.557  1.00  0.00    -0.237 OA
ATOM     81  O   UNL     1       1.173   3.120  11.224  1.00  0.00    -0.237 OA
ATOM     82  O   UNL     1      -0.351   3.143  13.164  1.00  0.00    -0.744 OA
ENDBRANCH  75  79
ENDBRANCH  58  72
BRANCH  59  83
ATOM     83  C   UNL     1      -4.990  -0.130  -0.239  1.00  0.00     0.023 A 
ATOM     84  C   UNL     1      -4.027  -0.082  -1.263  1.00  0.00     0.031 A 
ATOM     85  C   UNL     1      -6.237  -0.698  -0.556  1.00  0.00     0.131 A 
ATOM     86  C   UNL     1      -4.324  -0.573  -2.545  1.00  0.00     0.055 A 
ATOM     87  C   UNL     1      -6.509  -1.240  -1.815  1.00  0.00     0.041 A 
ATOM     88  F   UNL     1      -7.214  -0.747   0.363  1.00  0.00    -0.206 F 
ATOM     89  C   UNL     1      -5.552  -1.173  -2.822  1.00  0.00     0.022 A 
BRANCH  86  90
ATOM     90  S   UNL     1      -3.098  -0.354  -3.865  1.00  0.00     0.124 S 
ATOM     91  O   UNL     1      -2.983   1.099  -3.924  1.00  0.00    -0.237 OA
ATOM     92  O   UNL     1      -1.944  -1.068  -3.328  1.00  0.00    -0.237 OA
ATOM     93  O   UNL     1      -3.731  -0.979  -5.024  1.00  0.00    -0.744 OA
ENDBRANCH  86  90
ENDBRANCH  59  83
BRANCH  71  94
ATOM     94  C   UNL     1      -3.472   6.314   1.999  1.00  0.00     0.023 A 
ATOM     95  C   UNL     1      -4.615   6.902   1.426  1.00  0.00     0.031 A 
ATOM     96  C   UNL     1      -2.257   7.016   1.912  1.00  0.00     0.131 A 
ATOM     97  C   UNL     1      -4.510   8.129   0.752  1.00  0.00     0.055 A 
ATOM     98  C   UNL     1      -2.170   8.263   1.291  1.00  0.00     0.041 A 
ATOM     99  F   UNL     1      -1.133   6.504   2.440  1.00  0.00    -0.206 F 
ATOM    100  C   UNL     1      -3.298   8.821   0.697  1.00  0.00     0.022 A 
BRANCH  97 101
ATOM    101  S   UNL     1      -5.963   8.776  -0.122  1.00  0.00     0.124 S 
ATOM    102  O   UNL     1      -6.260   7.697  -1.058  1.00  0.00    -0.237 OA
ATOM    103  O   UNL     1      -6.922   8.963   0.962  1.00  0.00    -0.237 OA
ATOM    104  O   UNL     1      -5.474  10.010  -0.734  1.00  0.00    -0.744 OA
ENDBRANCH  97 101
ENDBRANCH  71  94
ENDBRANCH  45  46
ENDBRANCH  38  40
ENDBRANCH  37  38
ENDBRANCH  36  37
ENDBRANCH  35  36
ENDBRANCH  34  35
ENDBRANCH  33  34
ENDBRANCH   1  33
TORSDOF 24
