REMARK SMILES N#Cc1ccc(C(F)(F)F)nc1N1CCOC[C@H]1C(=O)OCCOCCOCCOC(=O)c1ccc(-c2c3nc(c(-c4cc(S(=O)(=O)[O-])ccc4F)c4ccc([nH]4)c(-c4cc(S(=O)(=O)[O-])ccc4F)c4nc(c(-c5cc(S(=O)(=O)[O-])ccc5F)c5ccc2[nH]5)C=C4)C=C3)cc1
REMARK SMILES IDX 26 1 25 2 24 3 23 4 22 5 21 6 19 7 20 8 18 9 13 10 14 11
REMARK SMILES IDX 15 12 17 13 16 14 12 15 3 16 4 17 5 18 11 19 6 20 2 21 1 22
REMARK SMILES IDX 7 23 8 24 9 25 10 26 27 27 28 28 29 29 30 30 31 31 32 32
REMARK SMILES IDX 33 33 34 34 95 35 35 36 94 37 36 38 37 39 38 40 88 41 39 42
REMARK SMILES IDX 93 43 87 44 89 45 40 46 92 47 86 48 85 49 41 51 73 52 53 53
REMARK SMILES IDX 72 54 54 55 57 56 71 57 90 58 55 59 56 60 70 62 91 63 58 64
REMARK SMILES IDX 42 65 43 66 51 67 44 68 50 69 52 70 49 71 45 72 46 73 47 74
REMARK SMILES IDX 48 75 74 76 75 77 83 78 76 79 82 80 84 81 81 82 77 83 78 84
REMARK SMILES IDX 79 85 80 86 59 87 60 88 68 89 61 90 67 91 69 92 66 93 62 94
REMARK SMILES IDX 63 95 64 96 65 97
REMARK H PARENT 89 50 57 61
REMARK Flexibility Score: inf
ROOT
ATOM      1  C   UNL     1      -2.012  -3.717   1.672  1.00  0.00     0.188 C 
ENDROOT
BRANCH   1   2
ATOM      2  C   UNL     1      -2.659  -4.918   0.947  1.00  0.00     0.188 C 
BRANCH   2   3
ATOM      3  O   UNL     1      -2.715  -6.172   1.609  1.00  0.00    -0.376 OA
BRANCH   3   4
ATOM      4  C   UNL     1      -1.560  -6.625   2.296  1.00  0.00     0.202 C 
BRANCH   4   5
ATOM      5  C   UNL     1      -0.181  -6.536   1.609  1.00  0.00     0.261 C 
BRANCH   5   6
ATOM      6  O   UNL     1       0.234  -5.226   1.137  1.00  0.00    -0.462 OA
BRANCH   6   7
ATOM      7  C   UNL     1       0.295  -5.017  -0.211  1.00  0.00     0.331 C 
ATOM      8  O   UNL     1       0.068  -5.915  -1.023  1.00  0.00    -0.250 OA
BRANCH   7   9
ATOM      9  C   UNL     1       0.735  -3.590  -0.692  1.00  0.00     0.220 C 
ATOM     10  N   UNL     1       0.731  -2.419   0.264  1.00  0.00    -0.338 N 
ATOM     11  C   UNL     1       1.643  -2.581   1.412  1.00  0.00     0.147 C 
ATOM     12  C   UNL     1       3.036  -3.075   0.968  1.00  0.00     0.181 C 
ATOM     13  C   UNL     1       2.192  -3.840  -1.120  1.00  0.00     0.197 C 
ATOM     14  O   UNL     1       3.002  -4.161   0.033  1.00  0.00    -0.377 OA
BRANCH  10  15
ATOM     15  C   UNL     1       0.229  -1.142  -0.045  1.00  0.00     0.148 A 
ATOM     16  C   UNL     1       1.040   0.014  -0.037  1.00  0.00     0.095 A 
ATOM     17  C   UNL     1       0.478   1.299  -0.031  1.00  0.00     0.025 A 
ATOM     18  C   UNL     1      -0.882   1.459  -0.108  1.00  0.00     0.035 A 
ATOM     19  N   UNL     1      -1.124  -0.968  -0.217  1.00  0.00    -0.225 NA
ATOM     20  C   UNL     1      -1.668   0.327  -0.257  1.00  0.00     0.146 A 
BRANCH  16  21
ATOM     21  C   UNL     1       2.468   0.004  -0.076  1.00  0.00     0.103 C 
ATOM     22  N   UNL     1       3.622   0.100  -0.102  1.00  0.00    -0.192 NA
ENDBRANCH  16  21
BRANCH  20  23
ATOM     23  C   UNL     1      -3.162   0.644  -0.512  1.00  0.00     0.433 C 
ATOM     24  F   UNL     1      -3.594   0.204  -1.723  1.00  0.00    -0.165 F 
ATOM     25  F   UNL     1      -3.997   0.144   0.427  1.00  0.00    -0.165 F 
ATOM     26  F   UNL     1      -3.429   1.988  -0.514  1.00  0.00    -0.165 F 
ENDBRANCH  20  23
ENDBRANCH  10  15
ENDBRANCH   7   9
ENDBRANCH   6   7
ENDBRANCH   5   6
ENDBRANCH   4   5
ENDBRANCH   3   4
ENDBRANCH   2   3
ENDBRANCH   1   2
BRANCH   1  27
ATOM     27  O   UNL     1      -1.532  -3.979   2.966  1.00  0.00    -0.376 OA
BRANCH  27  28
ATOM     28  C   UNL     1      -2.339  -3.580   4.053  1.00  0.00     0.202 C 
BRANCH  28  29
ATOM     29  C   UNL     1      -3.878  -3.446   3.971  1.00  0.00     0.261 C 
BRANCH  29  30
ATOM     30  O   UNL     1      -4.506  -3.450   2.676  1.00  0.00    -0.460 OA
BRANCH  30  31
ATOM     31  C   UNL     1      -4.738  -2.233   2.119  1.00  0.00     0.338 C 
ATOM     32  O   UNL     1      -4.483  -1.159   2.637  1.00  0.00    -0.246 OA
BRANCH  31  33
ATOM     33  C   UNL     1      -5.223  -2.398   0.720  1.00  0.00     0.060 A 
ATOM     34  C   UNL     1      -4.328  -2.373  -0.362  1.00  0.00     0.016 A 
ATOM     35  C   UNL     1      -6.588  -2.424   0.465  1.00  0.00     0.016 A 
ATOM     36  C   UNL     1      -4.780  -2.300  -1.678  1.00  0.00     0.010 A 
ATOM     37  C   UNL     1      -7.044  -2.375  -0.861  1.00  0.00     0.010 A 
ATOM     38  C   UNL     1      -6.147  -2.268  -1.942  1.00  0.00    -0.014 A 
BRANCH  38  39
ATOM     39  C   UNL     1      -6.639  -2.010  -3.322  1.00  0.00     0.031 A 
ATOM     40  C   UNL     1      -7.412  -0.751  -3.610  1.00  0.00     0.074 A 
ATOM     41  C   UNL     1      -6.386  -2.878  -4.320  1.00  0.00     0.049 A 
ATOM     42  N   UNL     1      -8.113  -0.427  -4.667  1.00  0.00    -0.248 NA
ATOM     43  C   UNL     1      -7.401   0.274  -2.557  1.00  0.00     0.031 C 
ATOM     44  C   UNL     1      -5.549  -4.074  -4.212  1.00  0.00     0.029 A 
ATOM     45  N   UNL     1      -6.822  -2.893  -5.622  1.00  0.00    -0.354 N 
ATOM     46  C   UNL     1      -8.663   0.821  -4.390  1.00  0.00     0.074 A 
ATOM     47  C   UNL     1      -8.233   1.178  -3.053  1.00  0.00     0.031 C 
ATOM     48  C   UNL     1      -5.536  -4.706  -5.396  1.00  0.00     0.029 A 
ATOM     49  C   UNL     1      -6.432  -4.014  -6.316  1.00  0.00     0.049 A 
ATOM     50  H   UNL     1      -7.361  -2.172  -6.019  1.00  0.00     0.167 HD
ATOM     51  C   UNL     1      -9.453   1.592  -5.181  1.00  0.00     0.034 A 
ATOM     52  C   UNL     1      -6.799  -4.465  -7.533  1.00  0.00     0.034 A 
ATOM     53  C   UNL     1      -9.862   1.215  -6.514  1.00  0.00     0.049 A 
ATOM     54  C   UNL     1      -7.793  -3.666  -8.338  1.00  0.00     0.074 A 
ATOM     55  C   UNL     1     -10.663   1.914  -7.401  1.00  0.00     0.029 A 
ATOM     56  N   UNL     1      -9.510   0.031  -7.152  1.00  0.00    -0.354 N 
ATOM     57  N   UNL     1      -8.361  -2.517  -8.049  1.00  0.00    -0.248 NA
ATOM     58  C   UNL     1      -8.198  -4.228  -9.632  1.00  0.00     0.031 C 
ATOM     59  C   UNL     1     -10.871   1.115  -8.530  1.00  0.00     0.029 A 
ATOM     60  C   UNL     1     -10.114  -0.037  -8.400  1.00  0.00     0.049 A 
ATOM     61  H   UNL     1      -8.918  -0.659  -6.774  1.00  0.00     0.167 HD
ATOM     62  C   UNL     1      -9.158  -2.201  -9.147  1.00  0.00     0.074 A 
ATOM     63  C   UNL     1      -8.988  -3.275 -10.104  1.00  0.00     0.031 C 
ATOM     64  C   UNL     1      -9.949  -1.116  -9.348  1.00  0.00     0.034 A 
BRANCH  51  65
ATOM     65  C   UNL     1      -9.981   2.882  -4.593  1.00  0.00     0.023 A 
ATOM     66  C   UNL     1      -9.126   3.914  -4.170  1.00  0.00     0.031 A 
ATOM     67  C   UNL     1     -11.365   3.064  -4.413  1.00  0.00     0.131 A 
ATOM     68  C   UNL     1      -9.653   5.033  -3.506  1.00  0.00     0.055 A 
ATOM     69  C   UNL     1     -11.890   4.225  -3.843  1.00  0.00     0.041 A 
ATOM     70  F   UNL     1     -12.234   2.106  -4.772  1.00  0.00    -0.206 F 
ATOM     71  C   UNL     1     -11.031   5.210  -3.367  1.00  0.00     0.022 A 
BRANCH  68  72
ATOM     72  S   UNL     1      -8.505   6.158  -2.666  1.00  0.00     0.124 S 
ATOM     73  O   UNL     1      -7.791   5.243  -1.777  1.00  0.00    -0.237 OA
ATOM     74  O   UNL     1      -7.731   6.706  -3.773  1.00  0.00    -0.237 OA
ATOM     75  O   UNL     1      -9.387   7.107  -1.990  1.00  0.00    -0.744 OA
ENDBRANCH  68  72
ENDBRANCH  51  65
BRANCH  52  76
ATOM     76  C   UNL     1      -6.267  -5.759  -8.050  1.00  0.00     0.023 A 
ATOM     77  C   UNL     1      -5.508  -5.799  -9.229  1.00  0.00     0.031 A 
ATOM     78  C   UNL     1      -6.547  -6.978  -7.404  1.00  0.00     0.131 A 
ATOM     79  C   UNL     1      -5.094  -7.033  -9.752  1.00  0.00     0.055 A 
ATOM     80  C   UNL     1      -6.072  -8.196  -7.891  1.00  0.00     0.041 A 
ATOM     81  F   UNL     1      -7.279  -7.000  -6.279  1.00  0.00    -0.206 F 
ATOM     82  C   UNL     1      -5.352  -8.230  -9.081  1.00  0.00     0.022 A 
BRANCH  79  83
ATOM     83  S   UNL     1      -4.304  -7.056 -11.383  1.00  0.00     0.124 S 
ATOM     84  O   UNL     1      -5.334  -6.448 -12.218  1.00  0.00    -0.237 OA
ATOM     85  O   UNL     1      -3.108  -6.253 -11.153  1.00  0.00    -0.237 OA
ATOM     86  O   UNL     1      -4.063  -8.477 -11.624  1.00  0.00    -0.744 OA
ENDBRANCH  79  83
ENDBRANCH  52  76
BRANCH  64  87
ATOM     87  C   UNL     1     -10.646  -1.006 -10.685  1.00  0.00     0.023 A 
ATOM     88  C   UNL     1     -11.622  -1.930 -11.097  1.00  0.00     0.031 A 
ATOM     89  C   UNL     1     -10.315   0.038 -11.568  1.00  0.00     0.131 A 
ATOM     90  C   UNL     1     -12.186  -1.828 -12.379  1.00  0.00     0.055 A 
ATOM     91  C   UNL     1     -10.935   0.179 -12.810  1.00  0.00     0.041 A 
ATOM     92  F   UNL     1      -9.382   0.946 -11.235  1.00  0.00    -0.206 F 
ATOM     93  C   UNL     1     -11.866  -0.766 -13.228  1.00  0.00     0.022 A 
BRANCH  90  94
ATOM     94  S   UNL     1     -13.256  -3.168 -12.969  1.00  0.00     0.124 S 
ATOM     95  O   UNL     1     -12.376  -4.327 -12.863  1.00  0.00    -0.237 OA
ATOM     96  O   UNL     1     -14.366  -3.122 -12.023  1.00  0.00    -0.237 OA
ATOM     97  O   UNL     1     -13.589  -2.765 -14.335  1.00  0.00    -0.744 OA
ENDBRANCH  90  94
ENDBRANCH  64  87
ENDBRANCH  38  39
ENDBRANCH  31  33
ENDBRANCH  30  31
ENDBRANCH  29  30
ENDBRANCH  28  29
ENDBRANCH  27  28
ENDBRANCH   1  27
TORSDOF 23
