REMARK SMILES O=C(OCCOCCOCCOC(=O)[C@H]1CC2(CC[NH+](C(=O)c3cc4ccccc4[nH]3)CC2)CN1C(=O)C1CC1)c1ccc(-c2c3nc(c(-c4cc(S(=O)(=O)[O-])ccc4F)c4ccc([nH]4)c(-c4cc(S(=O)(=O)[O-])ccc4F)c4nc(c(-c5cc(S(=O)(=O)[O-])ccc5F)c5ccc2[nH]5)C=C4)C=C3)cc1
REMARK SMILES IDX 7 1 6 2 5 3 4 4 3 5 2 6 1 7 41 8 42 9 103 10 43 11 102 12
REMARK SMILES IDX 44 13 45 14 46 15 96 16 47 17 101 18 95 19 97 20 48 21
REMARK SMILES IDX 100 22 94 23 93 24 49 26 81 27 61 28 80 29 62 30 65 31 79 32
REMARK SMILES IDX 98 33 63 34 64 35 78 37 99 38 66 39 50 40 51 41 59 42 52 43
REMARK SMILES IDX 58 44 60 45 57 46 53 47 54 48 55 49 56 50 82 51 83 52 91 53
REMARK SMILES IDX 84 54 90 55 92 56 89 57 85 58 86 59 87 60 88 61 67 62 68 63
REMARK SMILES IDX 76 64 69 65 75 66 77 67 74 68 70 69 71 70 72 71 73 72 8 73
REMARK SMILES IDX 9 74 10 75 11 76 12 77 13 78 14 79 15 80 16 81 35 82 17 83
REMARK SMILES IDX 34 84 18 85 33 86 19 87 32 88 20 89 36 91 37 92 38 93 39 94
REMARK SMILES IDX 40 95 21 96 22 97 23 98 24 99 31 100 25 101 30 102 26 104
REMARK SMILES IDX 29 105 27 106 28 107
REMARK H PARENT 97 25 65 36 20 90 31 103
REMARK Flexibility Score: inf
ROOT
ATOM      1  C   UNL     1      -0.164  -0.337  -8.231  1.00  0.00     0.188 C 
ENDROOT
BRANCH   1   2
ATOM      2  O   UNL     1      -0.798  -1.301  -7.385  1.00  0.00    -0.376 OA
BRANCH   2   3
ATOM      3  C   UNL     1      -1.867  -2.005  -7.990  1.00  0.00     0.202 C 
BRANCH   3   4
ATOM      4  C   UNL     1      -3.206  -1.268  -8.023  1.00  0.00     0.261 C 
BRANCH   4   5
ATOM      5  O   UNL     1      -3.126   0.161  -7.947  1.00  0.00    -0.460 OA
BRANCH   5   6
ATOM      6  C   UNL     1      -3.084   0.993  -6.878  1.00  0.00     0.338 C 
ATOM      7  O   UNL     1      -3.168   2.202  -7.109  1.00  0.00    -0.246 OA
BRANCH   6   8
ATOM      8  C   UNL     1      -2.861   0.574  -5.451  1.00  0.00     0.060 A 
ATOM      9  C   UNL     1      -3.106  -0.685  -4.898  1.00  0.00     0.016 A 
ATOM     10  C   UNL     1      -2.381   1.576  -4.581  1.00  0.00     0.016 A 
ATOM     11  C   UNL     1      -2.798  -0.961  -3.551  1.00  0.00     0.010 A 
ATOM     12  C   UNL     1      -2.082   1.312  -3.235  1.00  0.00     0.010 A 
ATOM     13  C   UNL     1      -2.272   0.031  -2.712  1.00  0.00    -0.014 A 
BRANCH  13  14
ATOM     14  C   UNL     1      -2.244  -0.174  -1.239  1.00  0.00     0.031 A 
ATOM     15  C   UNL     1      -3.553  -0.014  -0.536  1.00  0.00     0.074 A 
ATOM     16  C   UNL     1      -1.131  -0.462  -0.536  1.00  0.00     0.049 A 
ATOM     17  N   UNL     1      -3.841  -0.154   0.727  1.00  0.00    -0.248 NA
ATOM     18  C   UNL     1      -4.694   0.350  -1.391  1.00  0.00     0.031 C 
ATOM     19  C   UNL     1       0.182  -0.668  -1.118  1.00  0.00     0.029 A 
ATOM     20  N   UNL     1      -0.911  -0.622   0.812  1.00  0.00    -0.354 N 
ATOM     21  C   UNL     1      -5.209   0.058   0.811  1.00  0.00     0.074 A 
ATOM     22  C   UNL     1      -5.678   0.389  -0.515  1.00  0.00     0.031 C 
ATOM     23  C   UNL     1       1.081  -0.920  -0.151  1.00  0.00     0.029 A 
ATOM     24  C   UNL     1       0.413  -0.834   1.142  1.00  0.00     0.049 A 
ATOM     25  H   UNL     1      -1.632  -0.589   1.481  1.00  0.00     0.167 HD
ATOM     26  C   UNL     1      -6.006  -0.010   1.901  1.00  0.00     0.034 A 
ATOM     27  C   UNL     1       1.018  -0.909   2.347  1.00  0.00     0.034 A 
ATOM     28  C   UNL     1      -5.489  -0.162   3.231  1.00  0.00     0.049 A 
ATOM     29  C   UNL     1       0.145  -0.788   3.575  1.00  0.00     0.074 A 
ATOM     30  C   UNL     1      -6.166  -0.119   4.433  1.00  0.00     0.029 A 
ATOM     31  N   UNL     1      -4.139  -0.318   3.533  1.00  0.00    -0.354 N 
ATOM     32  N   UNL     1      -1.158  -0.622   3.639  1.00  0.00    -0.248 NA
ATOM     33  C   UNL     1       0.805  -0.867   4.884  1.00  0.00     0.031 C 
ATOM     34  C   UNL     1      -5.218  -0.160   5.461  1.00  0.00     0.029 A 
ATOM     35  C   UNL     1      -3.958  -0.334   4.903  1.00  0.00     0.049 A 
ATOM     36  H   UNL     1      -3.418  -0.405   2.867  1.00  0.00     0.167 HD
ATOM     37  C   UNL     1      -1.479  -0.623   4.993  1.00  0.00     0.074 A 
ATOM     38  C   UNL     1      -0.230  -0.792   5.711  1.00  0.00     0.031 C 
ATOM     39  C   UNL     1      -2.695  -0.515   5.586  1.00  0.00     0.034 A 
BRANCH  26  40
ATOM     40  C   UNL     1      -7.470   0.226   1.639  1.00  0.00     0.023 A 
ATOM     41  C   UNL     1      -8.191  -0.628   0.779  1.00  0.00     0.031 A 
ATOM     42  C   UNL     1      -8.079   1.421   2.052  1.00  0.00     0.131 A 
ATOM     43  C   UNL     1      -9.414  -0.200   0.244  1.00  0.00     0.055 A 
ATOM     44  C   UNL     1      -9.348   1.788   1.599  1.00  0.00     0.041 A 
ATOM     45  F   UNL     1      -7.421   2.290   2.835  1.00  0.00    -0.206 F 
ATOM     46  C   UNL     1     -10.009   0.991   0.667  1.00  0.00     0.022 A 
BRANCH  43  47
ATOM     47  S   UNL     1     -10.079  -1.087  -1.195  1.00  0.00     0.124 S 
ATOM     48  O   UNL     1      -8.999  -0.924  -2.167  1.00  0.00    -0.237 OA
ATOM     49  O   UNL     1     -10.271  -2.436  -0.677  1.00  0.00    -0.237 OA
ATOM     50  O   UNL     1     -11.305  -0.358  -1.511  1.00  0.00    -0.744 OA
ENDBRANCH  43  47
ENDBRANCH  26  40
BRANCH  27  51
ATOM     51  C   UNL     1       2.507  -1.039   2.463  1.00  0.00     0.023 A 
ATOM     52  C   UNL     1       3.112  -2.158   3.061  1.00  0.00     0.031 A 
ATOM     53  C   UNL     1       3.355  -0.010   2.006  1.00  0.00     0.131 A 
ATOM     54  C   UNL     1       4.511  -2.208   3.213  1.00  0.00     0.055 A 
ATOM     55  C   UNL     1       4.746  -0.081   2.125  1.00  0.00     0.041 A 
ATOM     56  F   UNL     1       2.841   1.083   1.419  1.00  0.00    -0.206 F 
ATOM     57  C   UNL     1       5.332  -1.181   2.741  1.00  0.00     0.022 A 
BRANCH  54  58
ATOM     58  S   UNL     1       5.252  -3.619   4.087  1.00  0.00     0.124 S 
ATOM     59  O   UNL     1       4.619  -3.523   5.397  1.00  0.00    -0.237 OA
ATOM     60  O   UNL     1       4.838  -4.741   3.252  1.00  0.00    -0.237 OA
ATOM     61  O   UNL     1       6.683  -3.324   4.061  1.00  0.00    -0.744 OA
ENDBRANCH  54  58
ENDBRANCH  27  51
BRANCH  39  62
ATOM     62  C   UNL     1      -2.756  -0.659   7.084  1.00  0.00     0.023 A 
ATOM     63  C   UNL     1      -2.261   0.325   7.954  1.00  0.00     0.031 A 
ATOM     64  C   UNL     1      -3.407  -1.776   7.638  1.00  0.00     0.131 A 
ATOM     65  C   UNL     1      -2.414   0.163   9.339  1.00  0.00     0.055 A 
ATOM     66  C   UNL     1      -3.606  -1.903   9.011  1.00  0.00     0.041 A 
ATOM     67  F   UNL     1      -3.894  -2.745   6.845  1.00  0.00    -0.206 F 
ATOM     68  C   UNL     1      -3.105  -0.931   9.870  1.00  0.00     0.022 A 
BRANCH  65  69
ATOM     69  S   UNL     1      -1.663   1.383  10.450  1.00  0.00     0.124 S 
ATOM     70  O   UNL     1      -0.246   1.252  10.128  1.00  0.00    -0.237 OA
ATOM     71  O   UNL     1      -2.301   2.626  10.029  1.00  0.00    -0.237 OA
ATOM     72  O   UNL     1      -2.042   0.913  11.781  1.00  0.00    -0.744 OA
ENDBRANCH  65  69
ENDBRANCH  39  62
ENDBRANCH  13  14
ENDBRANCH   6   8
ENDBRANCH   5   6
ENDBRANCH   4   5
ENDBRANCH   3   4
ENDBRANCH   2   3
ENDBRANCH   1   2
BRANCH   1  73
ATOM     73  C   UNL     1       1.356  -0.506  -8.167  1.00  0.00     0.188 C 
BRANCH  73  74
ATOM     74  O   UNL     1       1.845  -1.604  -8.948  1.00  0.00    -0.376 OA
BRANCH  74  75
ATOM     75  C   UNL     1       1.762  -2.888  -8.327  1.00  0.00     0.202 C 
BRANCH  75  76
ATOM     76  C   UNL     1       3.055  -3.327  -7.623  1.00  0.00     0.261 C 
BRANCH  76  77
ATOM     77  O   UNL     1       3.159  -2.781  -6.298  1.00  0.00    -0.462 OA
BRANCH  77  78
ATOM     78  C   UNL     1       3.720  -1.559  -6.173  1.00  0.00     0.328 C 
ATOM     79  O   UNL     1       4.274  -0.976  -7.098  1.00  0.00    -0.250 OA
BRANCH  78  80
ATOM     80  C   UNL     1       3.522  -1.008  -4.740  1.00  0.00     0.195 C 
ATOM     81  C   UNL     1       4.514   0.183  -4.667  1.00  0.00     0.046 C 
ATOM     82  N   UNL     1       2.278  -0.336  -4.376  1.00  0.00    -0.328 N 
ATOM     83  C   UNL     1       3.985   1.182  -3.627  1.00  0.00     0.001 C 
ATOM     84  C   UNL     1       2.509   0.825  -3.523  1.00  0.00     0.128 C 
ATOM     85  C   UNL     1       4.110   2.644  -4.109  1.00  0.00     0.071 C 
ATOM     86  C   UNL     1       4.728   1.040  -2.285  1.00  0.00     0.071 C 
ATOM     87  C   UNL     1       5.564   3.065  -4.232  1.00  0.00     0.271 C 
ATOM     88  C   UNL     1       6.172   1.544  -2.374  1.00  0.00     0.271 C 
ATOM     89  N   UNL     1       6.246   2.888  -2.949  1.00  0.00    -0.266 N 
ATOM     90  H   UNL     1       6.906   2.807  -3.675  1.00  0.00     0.357 HD
BRANCH  82  91
ATOM     91  C   UNL     1       0.972  -0.592  -4.720  1.00  0.00     0.226 C 
ATOM     92  O   UNL     1       0.273   0.383  -5.001  1.00  0.00    -0.275 OA
BRANCH  91  93
ATOM     93  C   UNL     1       0.278  -1.904  -4.670  1.00  0.00     0.079 C 
ATOM     94  C   UNL     1       0.657  -3.320  -4.932  1.00  0.00     0.014 C 
ATOM     95  C   UNL     1       0.429  -2.876  -3.527  1.00  0.00     0.014 C 
ENDBRANCH  91  93
ENDBRANCH  82  91
BRANCH  89  96
ATOM     96  C   UNL     1       7.126   3.809  -2.385  1.00  0.00     0.360 C 
ATOM     97  O   UNL     1       7.835   3.527  -1.417  1.00  0.00    -0.224 OA
BRANCH  96  98
ATOM     98  C   UNL     1       7.212   5.106  -3.009  1.00  0.00     0.145 A 
ATOM     99  C   UNL     1       8.315   5.690  -3.601  1.00  0.00     0.046 A 
ATOM    100  N   UNL     1       6.188   6.024  -3.076  1.00  0.00    -0.347 N 
ATOM    101  C   UNL     1       7.921   6.946  -4.129  1.00  0.00     0.000 A 
ATOM    102  C   UNL     1       6.580   7.131  -3.797  1.00  0.00     0.046 A 
ATOM    103  H   UNL     1       5.301   5.907  -2.665  1.00  0.00     0.167 HD
ATOM    104  C   UNL     1       8.585   7.944  -4.866  1.00  0.00     0.010 A 
ATOM    105  C   UNL     1       5.861   8.272  -4.171  1.00  0.00     0.026 A 
ATOM    106  C   UNL     1       7.882   9.090  -5.252  1.00  0.00     0.001 A 
ATOM    107  C   UNL     1       6.540   9.248  -4.909  1.00  0.00     0.002 A 
ENDBRANCH  96  98
ENDBRANCH  89  96
ENDBRANCH  78  80
ENDBRANCH  77  78
ENDBRANCH  76  77
ENDBRANCH  75  76
ENDBRANCH  74  75
ENDBRANCH  73  74
ENDBRANCH   1  73
TORSDOF 24
