REMARK SMILES Cc1ccc(NC(=O)C[C@@H](C(=O)OCCOCCOCCOC(=O)c2ccc(-c3c4nc(c(-c5cc(S(=O)(=O)[O-])ccc5F)c5ccc([nH]5)c(-c5cc(S(=O)(=O)[O-])ccc5F)c5nc(c(-c6cc(S(=O)(=O)[O-])ccc6F)c6ccc3[nH]6)C=C5)C=C4)cc2)[C@@H](C)c2ccccc2)cc1Br
REMARK SMILES IDX 17 1 16 2 15 3 14 4 13 5 11 6 12 7 10 8 9 9 7 10 6 11 8 13
REMARK SMILES IDX 5 14 1 15 2 16 3 17 97 18 4 19 96 20 98 21 88 22 89 23 90 24
REMARK SMILES IDX 91 25 95 26 92 27 94 28 93 29 18 30 19 31 20 32 21 33 22 34
REMARK SMILES IDX 23 35 24 36 25 37 26 38 87 39 27 40 86 41 28 42 29 43 30 44
REMARK SMILES IDX 80 45 31 46 85 47 79 48 81 49 32 50 84 51 78 52 77 53 33 55
REMARK SMILES IDX 65 56 45 57 64 58 46 59 49 60 63 61 82 62 47 63 48 64 62 66
REMARK SMILES IDX 83 67 50 68 34 69 35 70 43 71 36 72 42 73 44 74 41 75 37 76
REMARK SMILES IDX 38 77 39 78 40 79 66 80 67 81 75 82 68 83 74 84 76 85 73 86
REMARK SMILES IDX 69 87 70 88 71 89 72 90 51 91 52 92 60 93 53 94 59 95 61 96
REMARK SMILES IDX 58 97 54 98 55 99 56 100 57 101
REMARK H PARENT 6 12 81 54 49 65
REMARK Flexibility Score: inf
ROOT
ATOM      1  C   UNL     1       0.298   0.759   1.625  1.00  0.00     0.188 C 
ENDROOT
BRANCH   1   2
ATOM      2  O   UNL     1       0.968  -0.381   1.092  1.00  0.00    -0.376 OA
BRANCH   2   3
ATOM      3  C   UNL     1       2.133  -0.330   0.085  1.00  0.00     0.202 C 
BRANCH   3   4
ATOM      4  C   UNL     1       2.158   0.035  -2.069  1.00  0.00     0.261 C 
BRANCH   4   5
ATOM      5  O   UNL     1       2.101   1.610  -2.768  1.00  0.00    -0.463 OA
BRANCH   5   6
ATOM      6  C   UNL     1       1.050   2.277  -3.311  1.00  0.00     0.310 C 
ATOM      7  O   UNL     1       0.685   1.994  -4.447  1.00  0.00    -0.252 OA
BRANCH   6   8
ATOM      8  C   UNL     1       0.467   3.533  -2.512  1.00  0.00     0.116 C 
BRANCH   8   9
ATOM      9  C   UNL     1       1.138   4.085  -1.222  1.00  0.00     0.116 C 
BRANCH   9  10
ATOM     10  C   UNL     1       2.608   3.974  -0.924  1.00  0.00     0.225 C 
ATOM     11  N   UNL     1       3.188   2.794  -0.614  1.00  0.00    -0.326 N 
ATOM     12  H   UNL     1       4.112   2.860  -0.281  1.00  0.00     0.169 HD
ATOM     13  O   UNL     1       3.311   4.989  -0.883  1.00  0.00    -0.275 OA
BRANCH  11  14
ATOM     14  C   UNL     1       2.683   1.499  -0.694  1.00  0.00     0.042 A 
ATOM     15  C   UNL     1       1.313  -3.362  -1.014  1.00  0.00     0.045 C 
ATOM     16  C   UNL     1       1.702  -1.928  -1.285  1.00  0.00    -0.037 A 
ATOM     17  C   UNL     1       3.434  -1.480  -1.203  1.00  0.00     0.007 A 
ATOM     18  C   UNL     1       0.431  -0.690  -1.109  1.00  0.00     0.022 A 
ATOM     19  C   UNL     1       3.928   0.214  -0.904  1.00  0.00     0.026 A 
ATOM     20  C   UNL     1       0.921   1.037  -0.836  1.00  0.00     0.042 A 
ATOM     21  Br  UNL     1      -1.363  -1.296  -0.837  1.00  0.00    -0.050 Br
ENDBRANCH  11  14
ENDBRANCH   9  10
ENDBRANCH   8   9
BRANCH   8  22
ATOM     22  C   UNL     1      -1.106   3.470  -2.198  1.00  0.00     0.031 C 
ATOM     23  C   UNL     1      -1.722   4.828  -1.800  1.00  0.00     0.013 C 
BRANCH  22  24
ATOM     24  C   UNL     1      -1.927   2.724  -3.225  1.00  0.00    -0.044 A 
ATOM     25  C   UNL     1      -2.646   3.318  -4.257  1.00  0.00     0.004 A 
ATOM     26  C   UNL     1      -1.934   1.327  -3.144  1.00  0.00     0.004 A 
ATOM     27  C   UNL     1      -3.290   2.517  -5.207  1.00  0.00     0.000 A 
ATOM     28  C   UNL     1      -2.544   0.522  -4.095  1.00  0.00     0.000 A 
ATOM     29  C   UNL     1      -3.217   1.124  -5.142  1.00  0.00     0.000 A 
ENDBRANCH  22  24
ENDBRANCH   8  22
ENDBRANCH   6   8
ENDBRANCH   5   6
ENDBRANCH   4   5
ENDBRANCH   3   4
ENDBRANCH   2   3
ENDBRANCH   1   2
BRANCH   1  30
ATOM     30  C   UNL     1       1.085   1.889   2.291  1.00  0.00     0.188 C 
BRANCH  30  31
ATOM     31  O   UNL     1       2.430   1.653   2.604  1.00  0.00    -0.376 OA
BRANCH  31  32
ATOM     32  C   UNL     1       2.806   0.626   3.496  1.00  0.00     0.202 C 
BRANCH  32  33
ATOM     33  C   UNL     1       1.886  -0.283   4.345  1.00  0.00     0.261 C 
BRANCH  33  34
ATOM     34  O   UNL     1       0.469  -0.311   4.159  1.00  0.00    -0.460 OA
BRANCH  34  35
ATOM     35  C   UNL     1      -0.300   0.600   4.809  1.00  0.00     0.338 C 
ATOM     36  O   UNL     1       0.101   1.468   5.561  1.00  0.00    -0.246 OA
BRANCH  35  37
ATOM     37  C   UNL     1      -1.681   0.517   4.238  1.00  0.00     0.060 A 
ATOM     38  C   UNL     1      -2.230   1.645   3.598  1.00  0.00     0.016 A 
ATOM     39  C   UNL     1      -2.368  -0.700   4.197  1.00  0.00     0.016 A 
ATOM     40  C   UNL     1      -3.472   1.566   2.954  1.00  0.00     0.010 A 
ATOM     41  C   UNL     1      -3.633  -0.766   3.598  1.00  0.00     0.010 A 
ATOM     42  C   UNL     1      -4.210   0.377   3.012  1.00  0.00    -0.014 A 
BRANCH  42  43
ATOM     43  C   UNL     1      -5.685   0.417   2.813  1.00  0.00     0.031 A 
ATOM     44  C   UNL     1      -6.516   0.701   4.040  1.00  0.00     0.074 A 
ATOM     45  C   UNL     1      -6.281   0.207   1.625  1.00  0.00     0.049 A 
ATOM     46  N   UNL     1      -7.813   0.697   4.197  1.00  0.00    -0.248 NA
ATOM     47  C   UNL     1      -5.765   1.025   5.265  1.00  0.00     0.031 C 
ATOM     48  C   UNL     1      -5.595  -0.009   0.354  1.00  0.00     0.029 A 
ATOM     49  N   UNL     1      -7.616   0.130   1.302  1.00  0.00    -0.354 N 
ATOM     50  C   UNL     1      -8.030   1.006   5.537  1.00  0.00     0.074 A 
ATOM     51  C   UNL     1      -6.732   1.156   6.154  1.00  0.00     0.031 C 
ATOM     52  C   UNL     1      -6.514  -0.210  -0.609  1.00  0.00     0.029 A 
ATOM     53  C   UNL     1      -7.853  -0.184  -0.017  1.00  0.00     0.049 A 
ATOM     54  H   UNL     1      -8.337   0.284   1.955  1.00  0.00     0.167 HD
ATOM     55  C   UNL     1      -9.204   1.152   6.196  1.00  0.00     0.034 A 
ATOM     56  C   UNL     1      -9.013  -0.449  -0.657  1.00  0.00     0.034 A 
ATOM     57  C   UNL     1     -10.489   0.966   5.574  1.00  0.00     0.049 A 
ATOM     58  C   UNL     1     -10.311  -0.397   0.125  1.00  0.00     0.074 A 
ATOM     59  C   UNL     1     -11.743   1.089   6.141  1.00  0.00     0.029 A 
ATOM     60  N   UNL     1     -10.683   0.591   4.251  1.00  0.00    -0.354 N 
ATOM     61  N   UNL     1     -10.506  -0.098   1.391  1.00  0.00    -0.248 NA
ATOM     62  C   UNL     1     -11.544  -0.715  -0.609  1.00  0.00     0.031 C 
ATOM     63  C   UNL     1     -12.690   0.697   5.191  1.00  0.00     0.029 A 
ATOM     64  C   UNL     1     -12.035   0.436   3.997  1.00  0.00     0.049 A 
ATOM     65  H   UNL     1      -9.965   0.456   3.591  1.00  0.00     0.167 HD
ATOM     66  C   UNL     1     -11.886  -0.150   1.588  1.00  0.00     0.074 A 
ATOM     67  C   UNL     1     -12.473  -0.500   0.311  1.00  0.00     0.031 C 
ATOM     68  C   UNL     1     -12.606   0.080   2.718  1.00  0.00     0.034 A 
BRANCH  55  69
ATOM     69  C   UNL     1      -9.135   1.455   7.673  1.00  0.00     0.023 A 
ATOM     70  C   UNL     1      -8.544   2.633   8.165  1.00  0.00     0.031 A 
ATOM     71  C   UNL     1      -9.626   0.527   8.608  1.00  0.00     0.131 A 
ATOM     72  C   UNL     1      -8.388   2.813   9.547  1.00  0.00     0.055 A 
ATOM     73  C   UNL     1      -9.552   0.756   9.983  1.00  0.00     0.041 A 
ATOM     74  F   UNL     1     -10.169  -0.631   8.201  1.00  0.00    -0.206 F 
ATOM     75  C   UNL     1      -8.915   1.897  10.460  1.00  0.00     0.022 A 
BRANCH  72  76
ATOM     76  S   UNL     1      -7.339   4.174  10.130  1.00  0.00     0.124 S 
ATOM     77  O   UNL     1      -6.070   3.870   9.472  1.00  0.00    -0.237 OA
ATOM     78  O   UNL     1      -8.047   5.350   9.640  1.00  0.00    -0.237 OA
ATOM     79  O   UNL     1      -7.335   4.006  11.582  1.00  0.00    -0.744 OA
ENDBRANCH  72  76
ENDBRANCH  55  69
BRANCH  56  80
ATOM     80  C   UNL     1      -9.022  -0.831  -2.103  1.00  0.00     0.023 A 
ATOM     81  C   UNL     1      -9.710  -0.062  -3.057  1.00  0.00     0.031 A 
ATOM     82  C   UNL     1      -8.407  -2.018  -2.543  1.00  0.00     0.131 A 
ATOM     83  C   UNL     1      -9.806  -0.509  -4.386  1.00  0.00     0.055 A 
ATOM     84  C   UNL     1      -8.451  -2.425  -3.879  1.00  0.00     0.041 A 
ATOM     85  F   UNL     1      -7.752  -2.806  -1.675  1.00  0.00    -0.206 F 
ATOM     86  C   UNL     1      -9.165  -1.675  -4.807  1.00  0.00     0.022 A 
BRANCH  83  87
ATOM     87  S   UNL     1     -10.876   0.400  -5.536  1.00  0.00     0.124 S 
ATOM     88  O   UNL     1     -12.167   0.323  -4.862  1.00  0.00    -0.237 OA
ATOM     89  O   UNL     1     -10.245   1.715  -5.566  1.00  0.00    -0.237 OA
ATOM     90  O   UNL     1     -10.773  -0.366  -6.776  1.00  0.00    -0.744 OA
ENDBRANCH  83  87
ENDBRANCH  56  80
BRANCH  68  91
ATOM     91  C   UNL     1     -14.113   0.024   2.611  1.00  0.00     0.023 A 
ATOM     92  C   UNL     1     -14.797  -1.164   2.303  1.00  0.00     0.031 A 
ATOM     93  C   UNL     1     -14.877   1.185   2.834  1.00  0.00     0.131 A 
ATOM     94  C   UNL     1     -16.194  -1.151   2.166  1.00  0.00     0.055 A 
ATOM     95  C   UNL     1     -16.271   1.174   2.772  1.00  0.00     0.041 A 
ATOM     96  F   UNL     1     -14.280   2.351   3.128  1.00  0.00    -0.206 F 
ATOM     97  C   UNL     1     -16.936   0.004   2.422  1.00  0.00     0.022 A 
BRANCH  94  98
ATOM     98  S   UNL     1     -17.020  -2.637   1.536  1.00  0.00     0.124 S 
ATOM     99  O   UNL     1     -16.350  -2.837   0.256  1.00  0.00    -0.237 OA
ATOM    100  O   UNL     1     -16.724  -3.622   2.571  1.00  0.00    -0.237 OA
ATOM    101  O   UNL     1     -18.424  -2.237   1.446  1.00  0.00    -0.744 OA
ENDBRANCH  94  98
ENDBRANCH  68  91
ENDBRANCH  42  43
ENDBRANCH  35  37
ENDBRANCH  34  35
ENDBRANCH  33  34
ENDBRANCH  32  33
ENDBRANCH  31  32
ENDBRANCH  30  31
ENDBRANCH   1  30
TORSDOF 25
