REMARK SMILES CCc1ccc(C(=O)OCCOCCOCCOC(=O)c2ccc(-c3c4nc(c(-c5cc(S(=O)(=O)[O-])ccc5F)c5ccc([nH]5)c(-c5cc(S(=O)(=O)[O-])ccc5F)c5nc(c(-c6cc(S(=O)(=O)[O-])ccc6F)c6ccc3[nH]6)C=C5)C=C4)cc2)cc1S(=O)(=O)C(CC)CC
REMARK SMILES IDX 13 1 12 2 11 3 10 4 9 5 7 6 8 7 6 8 3 9 4 10 85 11 5 12
REMARK SMILES IDX 84 13 2 14 1 15 86 16 87 17 88 18 89 19 90 20 91 21 92 22
REMARK SMILES IDX 93 23 14 24 15 25 16 26 17 27 18 28 19 29 20 30 21 31 22 32
REMARK SMILES IDX 83 33 23 34 82 35 24 36 25 37 26 38 76 39 27 40 81 41 75 42
REMARK SMILES IDX 77 43 28 44 80 45 74 46 73 47 29 49 61 50 41 51 60 52 42 53
REMARK SMILES IDX 45 54 59 55 78 56 43 57 44 58 58 60 79 61 46 62 30 63 31 64
REMARK SMILES IDX 39 65 32 66 38 67 40 68 37 69 33 70 34 71 35 72 36 73 62 74
REMARK SMILES IDX 63 75 71 76 64 77 70 78 72 79 69 80 65 81 66 82 67 83 68 84
REMARK SMILES IDX 47 85 48 86 56 87 49 88 55 89 57 90 54 91 50 92 51 93 52 94
REMARK SMILES IDX 53 95
REMARK H PARENT 77 48 45 59
REMARK Flexibility Score: inf
ROOT
ATOM      1  C   UNL     1       1.038  -2.617   7.691  1.00  0.00     0.188 C 
ENDROOT
BRANCH   1   2
ATOM      2  O   UNL     1       1.581  -2.190   8.930  1.00  0.00    -0.376 OA
BRANCH   2   3
ATOM      3  C   UNL     1       2.982  -1.957   8.931  1.00  0.00     0.202 C 
BRANCH   3   4
ATOM      4  C   UNL     1       3.517  -0.838   8.015  1.00  0.00     0.261 C 
BRANCH   4   5
ATOM      5  O   UNL     1       3.012  -0.832   6.665  1.00  0.00    -0.460 OA
BRANCH   5   6
ATOM      6  C   UNL     1       3.641  -1.609   5.753  1.00  0.00     0.338 C 
ATOM      7  O   UNL     1       4.632  -2.291   5.943  1.00  0.00    -0.246 OA
BRANCH   6   8
ATOM      8  C   UNL     1       2.787  -1.701   4.539  1.00  0.00     0.061 A 
ATOM      9  C   UNL     1       0.943  -1.940   2.360  1.00  0.00    -0.030 A 
ATOM     10  C   UNL     1       1.397  -3.050   3.145  1.00  0.00     0.006 A 
ATOM     11  C   UNL     1       1.489  -0.674   2.664  1.00  0.00     0.071 A 
ATOM     12  C   UNL     1       2.316  -2.949   4.184  1.00  0.00     0.016 A 
ATOM     13  C   UNL     1       2.372  -0.586   3.799  1.00  0.00     0.036 A 
BRANCH   9  14
ATOM     14  C   UNL     1      -0.124  -2.432   1.410  1.00  0.00     0.033 C 
ATOM     15  C   UNL     1      -0.673  -1.591   0.310  1.00  0.00     0.009 C 
ENDBRANCH   9  14
BRANCH  11  16
ATOM     16  S   UNL     1       1.217   0.976   1.952  1.00  0.00     0.181 S 
ATOM     17  O   UNL     1       0.075   1.497   2.680  1.00  0.00    -0.223 OA
ATOM     18  O   UNL     1       2.504   1.634   2.180  1.00  0.00    -0.223 OA
BRANCH  16  19
ATOM     19  C   UNL     1       0.985   1.278   0.224  1.00  0.00     0.113 C 
BRANCH  19  20
ATOM     20  C   UNL     1       2.109   0.832  -0.744  1.00  0.00     0.017 C 
ATOM     21  C   UNL     1       2.722  -0.551  -0.607  1.00  0.00     0.005 C 
ENDBRANCH  19  20
BRANCH  19  22
ATOM     22  C   UNL     1      -0.406   1.387  -0.451  1.00  0.00     0.017 C 
ATOM     23  C   UNL     1      -1.592   1.856   0.382  1.00  0.00     0.005 C 
ENDBRANCH  19  22
ENDBRANCH  16  19
ENDBRANCH  11  16
ENDBRANCH   6   8
ENDBRANCH   5   6
ENDBRANCH   4   5
ENDBRANCH   3   4
ENDBRANCH   2   3
ENDBRANCH   1   2
BRANCH   1  24
ATOM     24  C   UNL     1       0.146  -1.551   7.024  1.00  0.00     0.188 C 
BRANCH  24  25
ATOM     25  O   UNL     1      -0.042  -0.293   7.649  1.00  0.00    -0.376 OA
BRANCH  25  26
ATOM     26  C   UNL     1      -0.339  -0.230   9.034  1.00  0.00     0.202 C 
BRANCH  26  27
ATOM     27  C   UNL     1      -1.339  -1.188   9.715  1.00  0.00     0.261 C 
BRANCH  27  28
ATOM     28  O   UNL     1      -1.431  -2.529   9.218  1.00  0.00    -0.460 OA
BRANCH  28  29
ATOM     29  C   UNL     1      -2.478  -2.787   8.398  1.00  0.00     0.338 C 
ATOM     30  O   UNL     1      -3.330  -1.996   8.020  1.00  0.00    -0.246 OA
BRANCH  29  31
ATOM     31  C   UNL     1      -2.356  -4.168   7.889  1.00  0.00     0.060 A 
ATOM     32  C   UNL     1      -2.127  -4.383   6.522  1.00  0.00     0.016 A 
ATOM     33  C   UNL     1      -2.506  -5.248   8.758  1.00  0.00     0.016 A 
ATOM     34  C   UNL     1      -2.065  -5.683   6.015  1.00  0.00     0.010 A 
ATOM     35  C   UNL     1      -2.467  -6.548   8.245  1.00  0.00     0.010 A 
ATOM     36  C   UNL     1      -2.275  -6.772   6.869  1.00  0.00    -0.014 A 
BRANCH  36  37
ATOM     37  C   UNL     1      -2.499  -8.134   6.320  1.00  0.00     0.031 A 
ATOM     38  C   UNL     1      -3.916  -8.627   6.205  1.00  0.00     0.074 A 
ATOM     39  C   UNL     1      -1.476  -8.928   5.958  1.00  0.00     0.049 A 
ATOM     40  N   UNL     1      -4.362  -9.821   5.916  1.00  0.00    -0.248 NA
ATOM     41  C   UNL     1      -4.969  -7.634   6.467  1.00  0.00     0.031 C 
ATOM     42  C   UNL     1      -0.065  -8.546   5.963  1.00  0.00     0.029 A 
ATOM     43  N   UNL     1      -1.469 -10.236   5.537  1.00  0.00    -0.354 N 
ATOM     44  C   UNL     1      -5.749  -9.730   5.981  1.00  0.00     0.074 A 
ATOM     45  C   UNL     1      -6.064  -8.370   6.366  1.00  0.00     0.031 C 
ATOM     46  C   UNL     1       0.673  -9.605   5.586  1.00  0.00     0.029 A 
ATOM     47  C   UNL     1      -0.205 -10.754   5.367  1.00  0.00     0.049 A 
ATOM     48  H   UNL     1      -2.290 -10.754   5.373  1.00  0.00     0.167 HD
ATOM     49  C   UNL     1      -6.673 -10.693   5.741  1.00  0.00     0.034 A 
ATOM     50  C   UNL     1       0.194 -12.017   5.108  1.00  0.00     0.034 A 
ATOM     51  C   UNL     1      -6.340 -12.047   5.375  1.00  0.00     0.049 A 
ATOM     52  C   UNL     1      -0.849 -13.102   4.948  1.00  0.00     0.074 A 
ATOM     53  C   UNL     1      -7.196 -13.100   5.103  1.00  0.00     0.029 A 
ATOM     54  N   UNL     1      -5.049 -12.543   5.245  1.00  0.00    -0.354 N 
ATOM     55  N   UNL     1      -2.157 -13.011   5.020  1.00  0.00    -0.248 NA
ATOM     56  C   UNL     1      -0.360 -14.460   4.667  1.00  0.00     0.031 C 
ATOM     57  C   UNL     1      -6.426 -14.248   4.892  1.00  0.00     0.029 A 
ATOM     58  C   UNL     1      -5.087 -13.892   4.930  1.00  0.00     0.049 A 
ATOM     59  H   UNL     1      -4.227 -12.013   5.359  1.00  0.00     0.167 HD
ATOM     60  C   UNL     1      -2.645 -14.289   4.747  1.00  0.00     0.074 A 
ATOM     61  C   UNL     1      -1.492 -15.130   4.508  1.00  0.00     0.031 C 
ATOM     62  C   UNL     1      -3.930 -14.723   4.687  1.00  0.00     0.034 A 
BRANCH  49  63
ATOM     63  C   UNL     1      -8.125 -10.324   5.930  1.00  0.00     0.023 A 
ATOM     64  C   UNL     1      -8.749  -9.339   5.145  1.00  0.00     0.031 A 
ATOM     65  C   UNL     1      -8.889 -10.947   6.933  1.00  0.00     0.131 A 
ATOM     66  C   UNL     1     -10.069  -8.955   5.424  1.00  0.00     0.055 A 
ATOM     67  C   UNL     1     -10.230 -10.623   7.147  1.00  0.00     0.041 A 
ATOM     68  F   UNL     1      -8.341 -11.876   7.733  1.00  0.00    -0.206 F 
ATOM     69  C   UNL     1     -10.823  -9.609   6.401  1.00  0.00     0.022 A 
BRANCH  66  70
ATOM     70  S   UNL     1     -10.734  -7.484   4.597  1.00  0.00     0.124 S 
ATOM     71  O   UNL     1      -9.772  -6.460   4.998  1.00  0.00    -0.237 OA
ATOM     72  O   UNL     1     -10.704  -7.872   3.191  1.00  0.00    -0.237 OA
ATOM     73  O   UNL     1     -12.068  -7.338   5.177  1.00  0.00    -0.744 OA
ENDBRANCH  66  70
ENDBRANCH  49  63
BRANCH  50  74
ATOM     74  C   UNL     1       1.647 -12.353   5.031  1.00  0.00     0.023 A 
ATOM     75  C   UNL     1       2.212 -12.862   3.851  1.00  0.00     0.031 A 
ATOM     76  C   UNL     1       2.480 -12.235   6.159  1.00  0.00     0.131 A 
ATOM     77  C   UNL     1       3.551 -13.282   3.839  1.00  0.00     0.055 A 
ATOM     78  C   UNL     1       3.828 -12.595   6.124  1.00  0.00     0.041 A 
ATOM     79  F   UNL     1       1.992 -11.761   7.317  1.00  0.00    -0.206 F 
ATOM     80  C   UNL     1       4.368 -13.136   4.962  1.00  0.00     0.022 A 
BRANCH  77  81
ATOM     81  S   UNL     1       4.184 -14.120   2.360  1.00  0.00     0.124 S 
ATOM     82  O   UNL     1       3.277 -15.256   2.253  1.00  0.00    -0.237 OA
ATOM     83  O   UNL     1       4.040 -13.085   1.341  1.00  0.00    -0.237 OA
ATOM     84  O   UNL     1       5.562 -14.451   2.719  1.00  0.00    -0.744 OA
ENDBRANCH  77  81
ENDBRANCH  50  74
BRANCH  62  85
ATOM     85  C   UNL     1      -4.167 -16.157   4.268  1.00  0.00     0.023 A 
ATOM     86  C   UNL     1      -3.767 -17.249   5.056  1.00  0.00     0.031 A 
ATOM     87  C   UNL     1      -4.824 -16.427   3.052  1.00  0.00     0.131 A 
ATOM     88  C   UNL     1      -3.984 -18.559   4.599  1.00  0.00     0.055 A 
ATOM     89  C   UNL     1      -5.098 -17.730   2.635  1.00  0.00     0.041 A 
ATOM     90  F   UNL     1      -5.225 -15.425   2.254  1.00  0.00    -0.206 F 
ATOM     91  C   UNL     1      -4.666 -18.806   3.404  1.00  0.00     0.022 A 
BRANCH  88  92
ATOM     92  S   UNL     1      -3.285 -19.942   5.541  1.00  0.00     0.124 S 
ATOM     93  O   UNL     1      -1.863 -19.616   5.548  1.00  0.00    -0.237 OA
ATOM     94  O   UNL     1      -3.972 -19.827   6.823  1.00  0.00    -0.237 OA
ATOM     95  O   UNL     1      -3.648 -21.116   4.748  1.00  0.00    -0.744 OA
ENDBRANCH  88  92
ENDBRANCH  62  85
ENDBRANCH  36  37
ENDBRANCH  29  31
ENDBRANCH  28  29
ENDBRANCH  27  28
ENDBRANCH  26  27
ENDBRANCH  25  26
ENDBRANCH  24  25
ENDBRANCH   1  24
TORSDOF 25
