REMARK SMILES O=C(C[C@@H]1CN(c2ccc([N+](=O)[O-])cc2Cl)CCO1)OCCOCCOCCOC(=O)c1ccc(-c2c3nc(c(-c4cc(S(=O)(=O)[O-])ccc4F)c4ccc([nH]4)c(-c4cc(S(=O)(=O)[O-])ccc4F)c4nc(c(-c5cc(S(=O)(=O)[O-])ccc5F)c5ccc2[nH]5)C=C4)C=C3)cc1
REMARK SMILES IDX 24 1 23 2 22 3 21 4 20 5 2 6 1 7 3 8 4 9 5 10 19 11 6 12
REMARK SMILES IDX 18 13 17 14 7 15 8 16 15 17 9 18 14 19 16 20 10 21 11 22
REMARK SMILES IDX 12 23 13 24 25 25 26 26 27 27 28 28 29 29 30 30 31 31 32 32
REMARK SMILES IDX 33 33 94 34 34 35 93 36 35 37 36 38 37 39 87 40 38 41 92 42
REMARK SMILES IDX 86 43 88 44 39 45 91 46 85 47 84 48 40 50 72 51 52 52 71 53
REMARK SMILES IDX 53 54 56 55 70 56 89 57 54 58 55 59 69 61 90 62 57 63 41 64
REMARK SMILES IDX 42 65 50 66 43 67 49 68 51 69 48 70 44 71 45 72 46 73 47 74
REMARK SMILES IDX 73 75 74 76 82 77 75 78 81 79 83 80 80 81 76 82 77 83 78 84
REMARK SMILES IDX 79 85 58 86 59 87 67 88 60 89 66 90 68 91 65 92 61 93 62 94
REMARK SMILES IDX 63 95 64 96
REMARK H PARENT 88 49 56 60
REMARK Flexibility Score: inf
ROOT
ATOM      1  C   UNL     1       3.240   1.913  -1.165  1.00  0.00     0.188 C 
ENDROOT
BRANCH   1   2
ATOM      2  O   UNL     1       4.545   1.365  -1.205  1.00  0.00    -0.376 OA
BRANCH   2   3
ATOM      3  C   UNL     1       4.849   0.417  -0.207  1.00  0.00     0.202 C 
BRANCH   3   4
ATOM      4  C   UNL     1       4.097  -0.897  -0.386  1.00  0.00     0.261 C 
BRANCH   4   5
ATOM      5  O   UNL     1       2.654  -0.836  -0.289  1.00  0.00    -0.463 OA
BRANCH   5   6
ATOM      6  C   UNL     1       1.853  -0.644   0.774  1.00  0.00     0.308 C 
ATOM      7  O   UNL     1       0.684  -1.021   0.712  1.00  0.00    -0.252 OA
BRANCH   6   8
ATOM      8  C   UNL     1       2.336   0.105   1.986  1.00  0.00     0.156 C 
BRANCH   8   9
ATOM      9  C   UNL     1       3.448  -0.548   2.774  1.00  0.00     0.148 C 
ATOM     10  C   UNL     1       3.270  -2.063   2.931  1.00  0.00     0.149 C 
ATOM     11  O   UNL     1       3.521   0.085   4.073  1.00  0.00    -0.374 OA
ATOM     12  N   UNL     1       4.450  -2.535   3.651  1.00  0.00    -0.365 N 
ATOM     13  C   UNL     1       4.659  -0.399   4.815  1.00  0.00     0.182 C 
ATOM     14  C   UNL     1       4.644  -1.934   4.971  1.00  0.00     0.145 C 
BRANCH  12  15
ATOM     15  C   UNL     1       5.039  -3.709   3.251  1.00  0.00     0.056 A 
ATOM     16  C   UNL     1       4.471  -4.932   3.625  1.00  0.00     0.034 A 
ATOM     17  C   UNL     1       6.142  -3.722   2.369  1.00  0.00     0.071 A 
ATOM     18  C   UNL     1       4.961  -6.136   3.116  1.00  0.00     0.088 A 
ATOM     19  C   UNL     1       6.637  -4.916   1.845  1.00  0.00     0.108 A 
ATOM     20  Cl  UNL     1       6.914  -2.252   1.874  1.00  0.00    -0.082 Cl
ATOM     21  C   UNL     1       6.034  -6.120   2.217  1.00  0.00     0.271 A 
BRANCH  21  22
ATOM     22  N   UNL     1       6.525  -7.379   1.649  1.00  0.00     0.062 N 
ATOM     23  O   UNL     1       6.069  -8.435   2.108  1.00  0.00    -0.258 OA
ATOM     24  O   UNL     1       7.367  -7.312   0.742  1.00  0.00    -0.258 OA
ENDBRANCH  21  22
ENDBRANCH  12  15
ENDBRANCH   8   9
ENDBRANCH   6   8
ENDBRANCH   5   6
ENDBRANCH   4   5
ENDBRANCH   3   4
ENDBRANCH   2   3
ENDBRANCH   1   2
BRANCH   1  25
ATOM     25  C   UNL     1       2.404   1.584  -2.410  1.00  0.00     0.188 C 
BRANCH  25  26
ATOM     26  O   UNL     1       3.044   1.268  -3.642  1.00  0.00    -0.376 OA
BRANCH  26  27
ATOM     27  C   UNL     1       4.314   1.822  -3.947  1.00  0.00     0.202 C 
BRANCH  27  28
ATOM     28  C   UNL     1       4.429   3.345  -4.094  1.00  0.00     0.261 C 
BRANCH  28  29
ATOM     29  O   UNL     1       4.030   4.111  -2.940  1.00  0.00    -0.460 OA
BRANCH  29  30
ATOM     30  C   UNL     1       2.855   4.781  -3.067  1.00  0.00     0.338 C 
ATOM     31  O   UNL     1       2.148   4.815  -4.059  1.00  0.00    -0.246 OA
BRANCH  30  32
ATOM     32  C   UNL     1       2.419   5.354  -1.768  1.00  0.00     0.060 A 
ATOM     33  C   UNL     1       1.125   5.042  -1.327  1.00  0.00     0.016 A 
ATOM     34  C   UNL     1       3.210   6.240  -1.032  1.00  0.00     0.016 A 
ATOM     35  C   UNL     1       0.596   5.661  -0.193  1.00  0.00     0.010 A 
ATOM     36  C   UNL     1       2.668   6.876   0.100  1.00  0.00     0.010 A 
ATOM     37  C   UNL     1       1.342   6.623   0.500  1.00  0.00    -0.014 A 
BRANCH  37  38
ATOM     38  C   UNL     1       0.644   7.492   1.491  1.00  0.00     0.031 A 
ATOM     39  C   UNL     1       0.140   8.842   1.041  1.00  0.00     0.074 A 
ATOM     40  C   UNL     1       0.376   7.067   2.741  1.00  0.00     0.049 A 
ATOM     41  N   UNL     1      -0.536   9.745   1.705  1.00  0.00    -0.248 NA
ATOM     42  C   UNL     1       0.441   9.219  -0.349  1.00  0.00     0.031 C 
ATOM     43  C   UNL     1       0.767   5.773   3.295  1.00  0.00     0.029 A 
ATOM     44  N   UNL     1      -0.296   7.683   3.770  1.00  0.00    -0.354 N 
ATOM     45  C   UNL     1      -0.759  10.788   0.811  1.00  0.00     0.074 A 
ATOM     46  C   UNL     1      -0.096  10.427  -0.424  1.00  0.00     0.031 C 
ATOM     47  C   UNL     1       0.335   5.694   4.566  1.00  0.00     0.029 A 
ATOM     48  C   UNL     1      -0.345   6.939   4.927  1.00  0.00     0.049 A 
ATOM     49  H   UNL     1      -0.706   8.574   3.688  1.00  0.00     0.167 HD
ATOM     50  C   UNL     1      -1.466  11.932   0.990  1.00  0.00     0.034 A 
ATOM     51  C   UNL     1      -0.863   7.231   6.139  1.00  0.00     0.034 A 
ATOM     52  C   UNL     1      -2.106  12.303   2.230  1.00  0.00     0.049 A 
ATOM     53  C   UNL     1      -1.574   8.550   6.342  1.00  0.00     0.074 A 
ATOM     54  C   UNL     1      -2.832  13.447   2.517  1.00  0.00     0.029 A 
ATOM     55  N   UNL     1      -2.091  11.545   3.393  1.00  0.00    -0.354 N 
ATOM     56  N   UNL     1      -1.783   9.521   5.482  1.00  0.00    -0.248 NA
ATOM     57  C   UNL     1      -2.136   8.801   7.676  1.00  0.00     0.031 C 
ATOM     58  C   UNL     1      -3.197  13.411   3.868  1.00  0.00     0.029 A 
ATOM     59  C   UNL     1      -2.769  12.208   4.405  1.00  0.00     0.049 A 
ATOM     60  H   UNL     1      -1.661  10.664   3.486  1.00  0.00     0.167 HD
ATOM     61  C   UNL     1      -2.522  10.485   6.168  1.00  0.00     0.074 A 
ATOM     62  C   UNL     1      -2.748   9.962   7.499  1.00  0.00     0.031 C 
ATOM     63  C   UNL     1      -2.973  11.692   5.739  1.00  0.00     0.034 A 
BRANCH  50  64
ATOM     64  C   UNL     1      -1.546  12.884  -0.180  1.00  0.00     0.023 A 
ATOM     65  C   UNL     1      -2.204  12.533  -1.372  1.00  0.00     0.031 A 
ATOM     66  C   UNL     1      -0.938  14.150  -0.112  1.00  0.00     0.131 A 
ATOM     67  C   UNL     1      -2.186  13.410  -2.467  1.00  0.00     0.055 A 
ATOM     68  C   UNL     1      -0.988  15.049  -1.179  1.00  0.00     0.041 A 
ATOM     69  F   UNL     1      -0.275  14.532   0.991  1.00  0.00    -0.206 F 
ATOM     70  C   UNL     1      -1.603  14.676  -2.371  1.00  0.00     0.022 A 
BRANCH  67  71
ATOM     71  S   UNL     1      -2.818  12.822  -4.062  1.00  0.00     0.124 S 
ATOM     72  O   UNL     1      -1.953  11.673  -4.317  1.00  0.00    -0.237 OA
ATOM     73  O   UNL     1      -4.212  12.520  -3.757  1.00  0.00    -0.237 OA
ATOM     74  O   UNL     1      -2.608  13.960  -4.955  1.00  0.00    -0.744 OA
ENDBRANCH  67  71
ENDBRANCH  50  64
BRANCH  51  75
ATOM     75  C   UNL     1      -0.694   6.287   7.285  1.00  0.00     0.023 A 
ATOM     76  C   UNL     1      -1.798   5.705   7.930  1.00  0.00     0.031 A 
ATOM     77  C   UNL     1       0.585   6.025   7.808  1.00  0.00     0.131 A 
ATOM     78  C   UNL     1      -1.607   4.939   9.092  1.00  0.00     0.055 A 
ATOM     79  C   UNL     1       0.775   5.215   8.929  1.00  0.00     0.041 A 
ATOM     80  F   UNL     1       1.676   6.559   7.236  1.00  0.00    -0.206 F 
ATOM     81  C   UNL     1      -0.327   4.679   9.588  1.00  0.00     0.022 A 
BRANCH  78  82
ATOM     82  S   UNL     1      -3.064   4.369  10.012  1.00  0.00     0.124 S 
ATOM     83  O   UNL     1      -3.746   5.626  10.298  1.00  0.00    -0.237 OA
ATOM     84  O   UNL     1      -3.711   3.493   9.041  1.00  0.00    -0.237 OA
ATOM     85  O   UNL     1      -2.489   3.691  11.173  1.00  0.00    -0.744 OA
ENDBRANCH  78  82
ENDBRANCH  51  75
BRANCH  63  86
ATOM     86  C   UNL     1      -3.785  12.511   6.719  1.00  0.00     0.023 A 
ATOM     87  C   UNL     1      -3.226  13.001   7.913  1.00  0.00     0.031 A 
ATOM     88  C   UNL     1      -5.145  12.771   6.475  1.00  0.00     0.131 A 
ATOM     89  C   UNL     1      -4.040  13.655   8.852  1.00  0.00     0.055 A 
ATOM     90  C   UNL     1      -5.934  13.483   7.381  1.00  0.00     0.041 A 
ATOM     91  F   UNL     1      -5.736  12.329   5.353  1.00  0.00    -0.206 F 
ATOM     92  C   UNL     1      -5.387  13.912   8.587  1.00  0.00     0.022 A 
BRANCH  89  93
ATOM     93  S   UNL     1      -3.345  14.051  10.481  1.00  0.00     0.124 S 
ATOM     94  O   UNL     1      -2.872  12.747  10.934  1.00  0.00    -0.237 OA
ATOM     95  O   UNL     1      -2.309  15.024  10.149  1.00  0.00    -0.237 OA
ATOM     96  O   UNL     1      -4.486  14.588  11.220  1.00  0.00    -0.744 OA
ENDBRANCH  89  93
ENDBRANCH  63  86
ENDBRANCH  37  38
ENDBRANCH  30  32
ENDBRANCH  29  30
ENDBRANCH  28  29
ENDBRANCH  27  28
ENDBRANCH  26  27
ENDBRANCH  25  26
ENDBRANCH   1  25
TORSDOF 23
