REMARK SMILES CSc1ccc(C[C@H]([NH3+])C(=O)OCCOCCOCCOC(=O)c2ccc(-c3c4nc(c(-c5cc(S(=O)(=O)[O-])ccc5F)c5ccc([nH]5)c(-c5cc(S(=O)(=O)[O-])ccc5F)c5nc(c(-c6cc(S(=O)(=O)[O-])ccc6F)c6ccc3[nH]6)C=C5)C=C4)cc2)cc1
REMARK SMILES IDX 16 1 15 2 14 3 13 4 12 5 10 6 11 7 8 8 7 9 6 10 3 11 4 12
REMARK SMILES IDX 88 13 5 14 87 15 2 16 1 17 9 18 17 22 18 23 19 24 20 25
REMARK SMILES IDX 21 26 22 27 23 28 24 29 25 30 86 31 26 32 85 33 27 34 28 35
REMARK SMILES IDX 29 36 79 37 30 38 84 39 78 40 80 41 31 42 83 43 77 44 76 45
REMARK SMILES IDX 32 47 64 48 44 49 63 50 45 51 48 52 62 53 81 54 46 55 47 56
REMARK SMILES IDX 61 58 82 59 49 60 33 61 34 62 42 63 35 64 41 65 43 66 40 67
REMARK SMILES IDX 36 68 37 69 38 70 39 71 65 72 66 73 74 74 67 75 73 76 75 77
REMARK SMILES IDX 72 78 68 79 69 80 70 81 71 82 50 83 51 84 59 85 52 86 58 87
REMARK SMILES IDX 60 88 57 89 53 90 54 91 55 92 56 93
REMARK H PARENT 9 19 9 20 9 21 80 46 48 57
REMARK Flexibility Score: inf
ROOT
ATOM      1  C   UNL     1       2.872  -8.876   5.749  1.00  0.00     0.188 C 
ENDROOT
BRANCH   1   2
ATOM      2  O   UNL     1       2.888 -10.299   5.759  1.00  0.00    -0.376 OA
BRANCH   2   3
ATOM      3  C   UNL     1       2.697 -10.994   4.534  1.00  0.00     0.202 C 
BRANCH   3   4
ATOM      4  C   UNL     1       1.523 -10.609   3.619  1.00  0.00     0.261 C 
BRANCH   4   5
ATOM      5  O   UNL     1       1.456  -9.226   3.217  1.00  0.00    -0.459 OA
BRANCH   5   6
ATOM      6  C   UNL     1       0.383  -8.499   3.651  1.00  0.00     0.365 C 
ATOM      7  O   UNL     1      -0.449  -8.914   4.453  1.00  0.00    -0.245 OA
BRANCH   6   8
ATOM      8  C   UNL     1       0.245  -7.108   2.968  1.00  0.00     0.296 C 
BRANCH   8   9
ATOM      9  C   UNL     1      -0.797  -7.141   1.830  1.00  0.00     0.113 C 
BRANCH   9  10
ATOM     10  C   UNL     1      -0.885  -8.490   1.162  1.00  0.00    -0.041 A 
ATOM     11  C   UNL     1      -0.807 -11.196   0.455  1.00  0.00     0.007 A 
ATOM     12  C   UNL     1       0.235 -10.342   0.081  1.00  0.00     0.015 A 
ATOM     13  C   UNL     1      -1.908 -10.682   1.143  1.00  0.00     0.015 A 
ATOM     14  C   UNL     1       0.191  -8.989   0.419  1.00  0.00     0.005 A 
ATOM     15  C   UNL     1      -1.953  -9.335   1.486  1.00  0.00     0.005 A 
BRANCH  11  16
ATOM     16  S   UNL     1      -0.726 -12.949   0.149  1.00  0.00    -0.130 SA
ATOM     17  C   UNL     1      -0.602 -12.911  -1.651  1.00  0.00     0.091 C 
ENDBRANCH  11  16
ENDBRANCH   9  10
ENDBRANCH   8   9
BRANCH   8  18
ATOM     18  N   UNL     1       1.525  -6.516   2.497  1.00  0.00    -0.346 N 
ATOM     19  H   UNL     1       1.912  -7.093   1.750  1.00  0.00     0.345 HD
ATOM     20  H   UNL     1       2.187  -6.474   3.272  1.00  0.00     0.345 HD
ATOM     21  H   UNL     1       1.355  -5.574   2.145  1.00  0.00     0.345 HD
ENDBRANCH   8  18
ENDBRANCH   6   8
ENDBRANCH   5   6
ENDBRANCH   4   5
ENDBRANCH   3   4
ENDBRANCH   2   3
ENDBRANCH   1   2
BRANCH   1  22
ATOM     22  C   UNL     1       3.670  -8.133   4.660  1.00  0.00     0.188 C 
BRANCH  22  23
ATOM     23  O   UNL     1       4.381  -8.979   3.787  1.00  0.00    -0.376 OA
BRANCH  23  24
ATOM     24  C   UNL     1       5.783  -9.064   3.936  1.00  0.00     0.202 C 
BRANCH  24  25
ATOM     25  C   UNL     1       6.440  -9.184   5.326  1.00  0.00     0.261 C 
BRANCH  25  26
ATOM     26  O   UNL     1       5.801  -8.531   6.436  1.00  0.00    -0.460 OA
BRANCH  26  27
ATOM     27  C   UNL     1       6.046  -7.211   6.607  1.00  0.00     0.338 C 
ATOM     28  O   UNL     1       6.767  -6.513   5.907  1.00  0.00    -0.246 OA
BRANCH  27  29
ATOM     29  C   UNL     1       5.112  -6.687   7.634  1.00  0.00     0.060 A 
ATOM     30  C   UNL     1       4.191  -5.696   7.263  1.00  0.00     0.016 A 
ATOM     31  C   UNL     1       5.128  -7.167   8.946  1.00  0.00     0.016 A 
ATOM     32  C   UNL     1       3.315  -5.157   8.208  1.00  0.00     0.010 A 
ATOM     33  C   UNL     1       4.263  -6.608   9.899  1.00  0.00     0.010 A 
ATOM     34  C   UNL     1       3.376  -5.574   9.544  1.00  0.00    -0.014 A 
BRANCH  34  35
ATOM     35  C   UNL     1       2.655  -4.789  10.585  1.00  0.00     0.031 A 
ATOM     36  C   UNL     1       3.433  -3.778  11.389  1.00  0.00     0.074 A 
ATOM     37  C   UNL     1       1.329  -4.918  10.774  1.00  0.00     0.049 A 
ATOM     38  N   UNL     1       3.024  -2.966  12.330  1.00  0.00    -0.248 NA
ATOM     39  C   UNL     1       4.869  -3.674  11.088  1.00  0.00     0.031 C 
ATOM     40  C   UNL     1       0.455  -5.828  10.037  1.00  0.00     0.029 A 
ATOM     41  N   UNL     1       0.483  -4.275  11.646  1.00  0.00    -0.354 N 
ATOM     42  C   UNL     1       4.150  -2.255  12.735  1.00  0.00     0.074 A 
ATOM     43  C   UNL     1       5.265  -2.768  11.967  1.00  0.00     0.031 C 
ATOM     44  C   UNL     1      -0.804  -5.685  10.487  1.00  0.00     0.029 A 
ATOM     45  C   UNL     1      -0.824  -4.699  11.567  1.00  0.00     0.049 A 
ATOM     46  H   UNL     1       0.784  -3.575  12.270  1.00  0.00     0.167 HD
ATOM     47  C   UNL     1       4.245  -1.260  13.651  1.00  0.00     0.034 A 
ATOM     48  C   UNL     1      -1.906  -4.346  12.293  1.00  0.00     0.034 A 
ATOM     49  C   UNL     1       3.130  -0.767  14.424  1.00  0.00     0.049 A 
ATOM     50  C   UNL     1      -1.758  -3.292  13.367  1.00  0.00     0.074 A 
ATOM     51  C   UNL     1       3.116   0.244  15.369  1.00  0.00     0.029 A 
ATOM     52  N   UNL     1       1.832  -1.260  14.356  1.00  0.00    -0.354 N 
ATOM     53  N   UNL     1      -0.691  -2.613  13.725  1.00  0.00    -0.248 NA
ATOM     54  C   UNL     1      -2.969  -2.946  14.122  1.00  0.00     0.031 C 
ATOM     55  C   UNL     1       1.836   0.305  15.931  1.00  0.00     0.029 A 
ATOM     56  C   UNL     1       1.021  -0.599  15.269  1.00  0.00     0.049 A 
ATOM     57  H   UNL     1       1.531  -1.974  13.749  1.00  0.00     0.167 HD
ATOM     58  C   UNL     1      -1.114  -1.739  14.726  1.00  0.00     0.074 A 
ATOM     59  C   UNL     1      -2.536  -1.957  14.889  1.00  0.00     0.031 C 
ATOM     60  C   UNL     1      -0.394  -0.837  15.444  1.00  0.00     0.034 A 
BRANCH  47  61
ATOM     61  C   UNL     1       5.619  -0.679  13.904  1.00  0.00     0.023 A 
ATOM     62  C   UNL     1       6.340  -0.010  12.899  1.00  0.00     0.031 A 
ATOM     63  C   UNL     1       6.228  -0.823  15.164  1.00  0.00     0.131 A 
ATOM     64  C   UNL     1       7.652   0.424  13.149  1.00  0.00     0.055 A 
ATOM     65  C   UNL     1       7.499  -0.312  15.431  1.00  0.00     0.041 A 
ATOM     66  F   UNL     1       5.601  -1.475  16.156  1.00  0.00    -0.206 F 
ATOM     67  C   UNL     1       8.226   0.302  14.416  1.00  0.00     0.022 A 
BRANCH  64  68
ATOM     68  S   UNL     1       8.652   1.011  11.754  1.00  0.00     0.124 S 
ATOM     69  O   UNL     1       8.620  -0.145  10.860  1.00  0.00    -0.237 OA
ATOM     70  O   UNL     1       7.912   2.185  11.306  1.00  0.00    -0.237 OA
ATOM     71  O   UNL     1       9.954   1.286  12.357  1.00  0.00    -0.744 OA
ENDBRANCH  64  68
ENDBRANCH  47  61
BRANCH  48  72
ATOM     72  C   UNL     1      -3.225  -5.010  12.066  1.00  0.00     0.023 A 
ATOM     73  C   UNL     1      -4.353  -4.278  11.660  1.00  0.00     0.031 A 
ATOM     74  C   UNL     1      -3.393  -6.382  12.327  1.00  0.00     0.131 A 
ATOM     75  C   UNL     1      -5.606  -4.909  11.575  1.00  0.00     0.055 A 
ATOM     76  C   UNL     1      -4.627  -7.018  12.181  1.00  0.00     0.041 A 
ATOM     77  F   UNL     1      -2.352  -7.129  12.729  1.00  0.00    -0.206 F 
ATOM     78  C   UNL     1      -5.746  -6.277  11.817  1.00  0.00     0.022 A 
BRANCH  75  79
ATOM     79  S   UNL     1      -7.072  -3.893  11.238  1.00  0.00     0.124 S 
ATOM     80  O   UNL     1      -7.038  -2.946  12.346  1.00  0.00    -0.237 OA
ATOM     81  O   UNL     1      -6.766  -3.349   9.919  1.00  0.00    -0.237 OA
ATOM     82  O   UNL     1      -8.169  -4.858  11.272  1.00  0.00    -0.744 OA
ENDBRANCH  75  79
ENDBRANCH  48  72
BRANCH  60  83
ATOM     83  C   UNL     1      -1.154   0.010  16.444  1.00  0.00     0.023 A 
ATOM     84  C   UNL     1      -1.833  -0.561  17.535  1.00  0.00     0.031 A 
ATOM     85  C   UNL     1      -1.247   1.404  16.272  1.00  0.00     0.131 A 
ATOM     86  C   UNL     1      -2.649   0.239  18.351  1.00  0.00     0.055 A 
ATOM     87  C   UNL     1      -1.990   2.207  17.139  1.00  0.00     0.041 A 
ATOM     88  F   UNL     1      -0.624   2.011  15.249  1.00  0.00    -0.206 F 
ATOM     89  C   UNL     1      -2.716   1.622  18.172  1.00  0.00     0.022 A 
BRANCH  86  90
ATOM     90  S   UNL     1      -3.745  -0.576  19.547  1.00  0.00     0.124 S 
ATOM     91  O   UNL     1      -4.484  -1.502  18.696  1.00  0.00    -0.237 OA
ATOM     92  O   UNL     1      -2.796  -1.181  20.476  1.00  0.00    -0.237 OA
ATOM     93  O   UNL     1      -4.533   0.526  20.095  1.00  0.00    -0.744 OA
ENDBRANCH  86  90
ENDBRANCH  60  83
ENDBRANCH  34  35
ENDBRANCH  27  29
ENDBRANCH  26  27
ENDBRANCH  25  26
ENDBRANCH  24  25
ENDBRANCH  23  24
ENDBRANCH  22  23
ENDBRANCH   1  22
TORSDOF 24
