REMARK SMILES O=C(CSc1ccccc1C(=O)OCCOCCOCCOC(=O)c1ccc(-c2c3nc(c(-c4cc(S(=O)(=O)[O-])ccc4F)c4ccc([nH]4)c(-c4cc(S(=O)(=O)[O-])ccc4F)c4nc(c(-c5cc(S(=O)(=O)[O-])ccc5F)c5ccc2[nH]5)C=C4)C=C3)cc1)NCc1ccc(Cl)cc1
REMARK SMILES IDX 17 1 16 2 15 3 14 4 13 5 11 6 12 7 10 8 5 9 6 10 7 11 9 12
REMARK SMILES IDX 8 13 4 14 3 15 2 16 1 17 88 18 89 20 90 21 91 22 96 23 92 24
REMARK SMILES IDX 95 25 93 26 94 27 18 28 19 29 20 30 21 31 22 32 23 33 24 34
REMARK SMILES IDX 25 35 26 36 87 37 27 38 86 39 28 40 29 41 30 42 80 43 31 44
REMARK SMILES IDX 85 45 79 46 81 47 32 48 84 49 78 50 77 51 33 53 65 54 45 55
REMARK SMILES IDX 64 56 46 57 49 58 63 59 82 60 47 61 48 62 62 64 83 65 50 66
REMARK SMILES IDX 34 67 35 68 43 69 36 70 42 71 44 72 41 73 37 74 38 75 39 76
REMARK SMILES IDX 40 77 66 78 67 79 75 80 68 81 74 82 76 83 73 84 69 85 70 86
REMARK SMILES IDX 71 87 72 88 51 89 52 90 60 91 53 92 59 93 61 94 58 95 54 96
REMARK SMILES IDX 55 97 56 98 57 99
REMARK H PARENT 88 19 81 52 49 63
REMARK Flexibility Score: inf
ROOT
ATOM      1  C   UNL     1       4.705  -3.086   3.765  1.00  0.00     0.188 C 
ENDROOT
BRANCH   1   2
ATOM      2  O   UNL     1       4.948  -4.166   2.871  1.00  0.00    -0.376 OA
BRANCH   2   3
ATOM      3  C   UNL     1       4.940  -3.911   1.474  1.00  0.00     0.202 C 
BRANCH   3   4
ATOM      4  C   UNL     1       3.778  -3.114   0.869  1.00  0.00     0.261 C 
BRANCH   4   5
ATOM      5  O   UNL     1       3.482  -1.863   1.515  1.00  0.00    -0.460 OA
BRANCH   5   6
ATOM      6  C   UNL     1       2.266  -1.750   2.108  1.00  0.00     0.339 C 
ATOM      7  O   UNL     1       1.393  -2.604   2.095  1.00  0.00    -0.246 OA
BRANCH   6   8
ATOM      8  C   UNL     1       2.164  -0.526   2.952  1.00  0.00     0.073 A 
ATOM      9  C   UNL     1       2.679   0.745   2.631  1.00  0.00     0.022 A 
ATOM     10  C   UNL     1       2.521   1.789   3.565  1.00  0.00     0.016 A 
ATOM     11  C   UNL     1       1.885   1.576   4.793  1.00  0.00     0.001 A 
ATOM     12  C   UNL     1       1.524  -0.724   4.193  1.00  0.00     0.017 A 
ATOM     13  C   UNL     1       1.396   0.316   5.112  1.00  0.00     0.001 A 
BRANCH   9  14
ATOM     14  S   UNL     1       3.659   1.126   1.177  1.00  0.00    -0.115 SA
BRANCH  14  15
ATOM     15  C   UNL     1       2.366   1.529  -0.028  1.00  0.00     0.174 C 
BRANCH  15  16
ATOM     16  C   UNL     1       1.462   0.353  -0.341  1.00  0.00     0.230 C 
ATOM     17  O   UNL     1       0.249   0.404  -0.162  1.00  0.00    -0.274 OA
ATOM     18  N   UNL     1       2.093  -0.731  -0.909  1.00  0.00    -0.351 N 
ATOM     19  H   UNL     1       3.067  -0.704  -1.054  1.00  0.00     0.163 HD
BRANCH  18  20
ATOM     20  C   UNL     1       1.350  -1.912  -1.297  1.00  0.00     0.151 C 
BRANCH  20  21
ATOM     21  C   UNL     1       2.088  -2.776  -2.292  1.00  0.00    -0.029 A 
ATOM     22  C   UNL     1       1.919  -4.171  -2.266  1.00  0.00     0.007 A 
ATOM     23  C   UNL     1       2.875  -2.212  -3.308  1.00  0.00     0.007 A 
ATOM     24  C   UNL     1       2.515  -4.980  -3.239  1.00  0.00     0.021 A 
ATOM     25  C   UNL     1       3.476  -3.021  -4.276  1.00  0.00     0.021 A 
ATOM     26  C   UNL     1       3.283  -4.399  -4.244  1.00  0.00     0.041 A 
ATOM     27  Cl  UNL     1       3.980  -5.385  -5.470  1.00  0.00    -0.084 Cl
ENDBRANCH  20  21
ENDBRANCH  18  20
ENDBRANCH  15  16
ENDBRANCH  14  15
ENDBRANCH   9  14
ENDBRANCH   6   8
ENDBRANCH   5   6
ENDBRANCH   4   5
ENDBRANCH   3   4
ENDBRANCH   2   3
ENDBRANCH   1   2
BRANCH   1  28
ATOM     28  C   UNL     1       5.481  -1.760   3.585  1.00  0.00     0.188 C 
BRANCH  28  29
ATOM     29  O   UNL     1       6.242  -1.700   2.392  1.00  0.00    -0.376 OA
BRANCH  29  30
ATOM     30  C   UNL     1       7.653  -1.743   2.546  1.00  0.00     0.202 C 
BRANCH  30  31
ATOM     31  C   UNL     1       8.292  -2.953   3.259  1.00  0.00     0.261 C 
BRANCH  31  32
ATOM     32  O   UNL     1       7.625  -3.454   4.429  1.00  0.00    -0.460 OA
BRANCH  32  33
ATOM     33  C   UNL     1       7.787  -2.764   5.582  1.00  0.00     0.338 C 
ATOM     34  O   UNL     1       8.445  -1.747   5.726  1.00  0.00    -0.246 OA
BRANCH  33  35
ATOM     35  C   UNL     1       6.840  -3.312   6.585  1.00  0.00     0.060 A 
ATOM     36  C   UNL     1       5.889  -2.451   7.153  1.00  0.00     0.016 A 
ATOM     37  C   UNL     1       6.862  -4.664   6.941  1.00  0.00     0.016 A 
ATOM     38  C   UNL     1       4.988  -2.930   8.107  1.00  0.00     0.010 A 
ATOM     39  C   UNL     1       5.977  -5.136   7.919  1.00  0.00     0.010 A 
ATOM     40  C   UNL     1       5.064  -4.261   8.537  1.00  0.00    -0.014 A 
BRANCH  40  41
ATOM     41  C   UNL     1       4.382  -4.652   9.801  1.00  0.00     0.031 A 
ATOM     42  C   UNL     1       5.193  -4.612  11.072  1.00  0.00     0.074 A 
ATOM     43  C   UNL     1       3.078  -4.978   9.843  1.00  0.00     0.049 A 
ATOM     44  N   UNL     1       4.842  -4.903  12.297  1.00  0.00    -0.248 NA
ATOM     45  C   UNL     1       6.595  -4.187  10.932  1.00  0.00     0.031 C 
ATOM     46  C   UNL     1       2.175  -5.007   8.695  1.00  0.00     0.029 A 
ATOM     47  N   UNL     1       2.285  -5.347  10.903  1.00  0.00    -0.354 N 
ATOM     48  C   UNL     1       5.979  -4.696  13.074  1.00  0.00     0.074 A 
ATOM     49  C   UNL     1       7.039  -4.302  12.172  1.00  0.00     0.031 C 
ATOM     50  C   UNL     1       0.951  -5.379   9.112  1.00  0.00     0.029 A 
ATOM     51  C   UNL     1       0.989  -5.648  10.550  1.00  0.00     0.049 A 
ATOM     52  H   UNL     1       2.614  -5.393  11.830  1.00  0.00     0.167 HD
ATOM     53  C   UNL     1       6.124  -4.811  14.417  1.00  0.00     0.034 A 
ATOM     54  C   UNL     1      -0.037  -6.106  11.298  1.00  0.00     0.034 A 
ATOM     55  C   UNL     1       5.065  -5.224  15.303  1.00  0.00     0.049 A 
ATOM     56  C   UNL     1       0.173  -6.318  12.782  1.00  0.00     0.074 A 
ATOM     57  C   UNL     1       5.101  -5.371  16.678  1.00  0.00     0.029 A 
ATOM     58  N   UNL     1       3.781  -5.572  14.901  1.00  0.00    -0.354 N 
ATOM     59  N   UNL     1       1.248  -6.108  13.507  1.00  0.00    -0.248 NA
ATOM     60  C   UNL     1      -0.977  -6.817  13.549  1.00  0.00     0.031 C 
ATOM     61  C   UNL     1       3.868  -5.884  17.097  1.00  0.00     0.029 A 
ATOM     62  C   UNL     1       3.029  -5.966  15.997  1.00  0.00     0.049 A 
ATOM     63  H   UNL     1       3.453  -5.542  13.973  1.00  0.00     0.167 HD
ATOM     64  C   UNL     1       0.890  -6.412  14.820  1.00  0.00     0.074 A 
ATOM     65  C   UNL     1      -0.504  -6.805  14.786  1.00  0.00     0.031 C 
ATOM     66  C   UNL     1       1.640  -6.364  15.952  1.00  0.00     0.034 A 
BRANCH  53  67
ATOM     67  C   UNL     1       7.497  -4.541  14.988  1.00  0.00     0.023 A 
ATOM     68  C   UNL     1       8.107  -3.278  14.890  1.00  0.00     0.031 A 
ATOM     69  C   UNL     1       8.223  -5.576  15.602  1.00  0.00     0.131 A 
ATOM     70  C   UNL     1       9.429  -3.103  15.326  1.00  0.00     0.055 A 
ATOM     71  C   UNL     1       9.507  -5.373  16.113  1.00  0.00     0.041 A 
ATOM     72  F   UNL     1       7.705  -6.811  15.701  1.00  0.00    -0.206 F 
ATOM     73  C   UNL     1      10.123  -4.135  15.962  1.00  0.00     0.022 A 
BRANCH  70  74
ATOM     74  S   UNL     1      10.284  -1.558  14.909  1.00  0.00     0.124 S 
ATOM     75  O   UNL     1      10.193  -1.555  13.450  1.00  0.00    -0.237 OA
ATOM     76  O   UNL     1       9.481  -0.557  15.601  1.00  0.00    -0.237 OA
ATOM     77  O   UNL     1      11.630  -1.756  15.441  1.00  0.00    -0.744 OA
ENDBRANCH  70  74
ENDBRANCH  53  67
BRANCH  54  78
ATOM     78  C   UNL     1      -1.351  -6.436  10.669  1.00  0.00     0.023 A 
ATOM     79  C   UNL     1      -2.529  -5.764  11.037  1.00  0.00     0.031 A 
ATOM     80  C   UNL     1      -1.459  -7.484   9.736  1.00  0.00     0.131 A 
ATOM     81  C   UNL     1      -3.766  -6.179  10.517  1.00  0.00     0.055 A 
ATOM     82  C   UNL     1      -2.683  -7.854   9.177  1.00  0.00     0.041 A 
ATOM     83  F   UNL     1      -0.368  -8.168   9.354  1.00  0.00    -0.206 F 
ATOM     84  C   UNL     1      -3.849  -7.209   9.578  1.00  0.00     0.022 A 
BRANCH  81  85
ATOM     85  S   UNL     1      -5.281  -5.415  11.159  1.00  0.00     0.124 S 
ATOM     86  O   UNL     1      -5.186  -5.720  12.582  1.00  0.00    -0.237 OA
ATOM     87  O   UNL     1      -5.096  -4.016  10.789  1.00  0.00    -0.237 OA
ATOM     88  O   UNL     1      -6.345  -6.112  10.440  1.00  0.00    -0.744 OA
ENDBRANCH  81  85
ENDBRANCH  54  78
BRANCH  66  89
ATOM     89  C   UNL     1       0.949  -6.689  17.257  1.00  0.00     0.023 A 
ATOM     90  C   UNL     1       0.426  -7.966  17.528  1.00  0.00     0.031 A 
ATOM     91  C   UNL     1       0.797  -5.694  18.241  1.00  0.00     0.131 A 
ATOM     92  C   UNL     1      -0.280  -8.195  18.720  1.00  0.00     0.055 A 
ATOM     93  C   UNL     1       0.158  -5.949  19.455  1.00  0.00     0.041 A 
ATOM     94  F   UNL     1       1.272  -4.455  18.040  1.00  0.00    -0.206 F 
ATOM     95  C   UNL     1      -0.401  -7.200  19.693  1.00  0.00     0.022 A 
BRANCH  92  96
ATOM     96  S   UNL     1      -1.143  -9.777  18.931  1.00  0.00     0.124 S 
ATOM     97  O   UNL     1      -2.003  -9.813  17.753  1.00  0.00    -0.237 OA
ATOM     98  O   UNL     1      -0.041 -10.734  18.944  1.00  0.00    -0.237 OA
ATOM     99  O   UNL     1      -1.841  -9.620  20.205  1.00  0.00    -0.744 OA
ENDBRANCH  92  96
ENDBRANCH  66  89
ENDBRANCH  40  41
ENDBRANCH  33  35
ENDBRANCH  32  33
ENDBRANCH  31  32
ENDBRANCH  30  31
ENDBRANCH  29  30
ENDBRANCH  28  29
ENDBRANCH   1  28
TORSDOF 25
