REMARK SMILES [NH3+][C@H]1CN(C(=O)OCC2c3ccccc3-c3ccccc32)C[C@@H]1C(=O)OCCOCCOCCOC(=O)c1ccc(-c2c3nc(c(-c4cc(S(=O)(=O)[O-])ccc4F)c4ccc([nH]4)c(-c4cc(S(=O)(=O)[O-])ccc4F)c4nc(c(-c5cc(S(=O)(=O)[O-])ccc5F)c5ccc2[nH]5)C=C4)C=C3)cc1
REMARK SMILES IDX 30 1 29 2 28 3 27 4 26 5 24 6 25 7 23 8 2 9 3 10 4 11 22 12
REMARK SMILES IDX 1 13 5 17 6 18 7 19 8 20 9 21 10 22 21 23 11 24 15 25 16 26
REMARK SMILES IDX 20 27 12 28 14 29 17 30 19 31 13 32 18 33 31 34 32 35 33 36
REMARK SMILES IDX 34 37 35 38 36 39 37 40 38 41 39 42 100 43 40 44 99 45 41 46
REMARK SMILES IDX 42 47 43 48 93 49 44 50 98 51 92 52 94 53 45 54 97 55 91 56
REMARK SMILES IDX 90 57 46 59 78 60 58 61 77 62 59 63 62 64 76 65 95 66 60 67
REMARK SMILES IDX 61 68 75 70 96 71 63 72 47 73 48 74 56 75 49 76 55 77 57 78
REMARK SMILES IDX 54 79 50 80 51 81 52 82 53 83 79 84 80 85 88 86 81 87 87 88
REMARK SMILES IDX 89 89 86 90 82 91 83 92 84 93 85 94 64 95 65 96 73 97 66 98
REMARK SMILES IDX 72 99 74 100 71 101 67 102 68 103 69 104 70 105
REMARK H PARENT 1 14 1 15 1 16 94 58 62 69
REMARK Flexibility Score: inf
ROOT
ATOM      1  C   UNL     1       3.182   3.291   3.232  1.00  0.00     0.188 C 
ENDROOT
BRANCH   1   2
ATOM      2  O   UNL     1       3.931   2.378   4.024  1.00  0.00    -0.376 OA
BRANCH   2   3
ATOM      3  C   UNL     1       4.328   1.137   3.466  1.00  0.00     0.202 C 
BRANCH   3   4
ATOM      4  C   UNL     1       3.232   0.185   2.959  1.00  0.00     0.261 C 
BRANCH   4   5
ATOM      5  O   UNL     1       2.403   0.650   1.862  1.00  0.00    -0.463 OA
BRANCH   5   6
ATOM      6  C   UNL     1       1.099   0.901   2.162  1.00  0.00     0.316 C 
ATOM      7  O   UNL     1       0.639   0.817   3.297  1.00  0.00    -0.252 OA
BRANCH   6   8
ATOM      8  C   UNL     1       0.221   1.347   0.999  1.00  0.00     0.178 C 
ATOM      9  C   UNL     1       0.591   0.944  -0.437  1.00  0.00     0.216 C 
ATOM     10  C   UNL     1       1.251   2.199  -1.054  1.00  0.00     0.188 C 
ATOM     11  N   UNL     1       0.763   3.305  -0.265  1.00  0.00    -0.301 N 
ATOM     12  C   UNL     1       0.052   2.861   0.931  1.00  0.00     0.145 C 
BRANCH   9  13
ATOM     13  N   UNL     1      -0.651   0.612  -1.172  1.00  0.00    -0.353 N 
ATOM     14  H   UNL     1      -0.418   0.343  -2.128  1.00  0.00     0.344 HD
ATOM     15  H   UNL     1      -1.265   1.426  -1.188  1.00  0.00     0.344 HD
ATOM     16  H   UNL     1      -1.125  -0.162  -0.707  1.00  0.00     0.344 HD
ENDBRANCH   9  13
BRANCH  11  17
ATOM     17  C   UNL     1       1.030   4.636  -0.467  1.00  0.00     0.410 C 
ATOM     18  O   UNL     1       0.781   5.457   0.412  1.00  0.00    -0.224 OA
BRANCH  17  19
ATOM     19  O   UNL     1       1.575   4.968  -1.674  1.00  0.00    -0.448 OA
BRANCH  19  20
ATOM     20  C   UNL     1       1.879   6.390  -1.810  1.00  0.00     0.248 C 
BRANCH  20  21
ATOM     21  C   UNL     1       0.703   7.305  -2.262  1.00  0.00     0.088 C 
ATOM     22  C   UNL     1      -0.621   6.989  -1.571  1.00  0.00    -0.029 A 
ATOM     23  C   UNL     1       0.925   8.759  -1.818  1.00  0.00    -0.029 A 
ATOM     24  C   UNL     1      -1.398   5.845  -1.679  1.00  0.00     0.005 A 
ATOM     25  C   UNL     1      -0.934   7.998  -0.642  1.00  0.00    -0.014 A 
ATOM     26  C   UNL     1      -0.067   9.125  -0.879  1.00  0.00    -0.014 A 
ATOM     27  C   UNL     1       1.864   9.685  -2.252  1.00  0.00     0.005 A 
ATOM     28  C   UNL     1      -2.379   5.632  -0.711  1.00  0.00     0.000 A 
ATOM     29  C   UNL     1      -1.906   7.790   0.320  1.00  0.00     0.009 A 
ATOM     30  C   UNL     1      -0.173  10.427  -0.425  1.00  0.00     0.009 A 
ATOM     31  C   UNL     1       1.772  10.996  -1.767  1.00  0.00     0.000 A 
ATOM     32  C   UNL     1      -2.603   6.578   0.304  1.00  0.00     0.001 A 
ATOM     33  C   UNL     1       0.755  11.365  -0.876  1.00  0.00     0.001 A 
ENDBRANCH  20  21
ENDBRANCH  19  20
ENDBRANCH  17  19
ENDBRANCH  11  17
ENDBRANCH   6   8
ENDBRANCH   5   6
ENDBRANCH   4   5
ENDBRANCH   3   4
ENDBRANCH   2   3
ENDBRANCH   1   2
BRANCH   1  34
ATOM     34  C   UNL     1       3.457   3.363   1.720  1.00  0.00     0.188 C 
BRANCH  34  35
ATOM     35  O   UNL     1       4.712   2.836   1.345  1.00  0.00    -0.376 OA
BRANCH  35  36
ATOM     36  C   UNL     1       5.603   3.735   0.722  1.00  0.00     0.202 C 
BRANCH  36  37
ATOM     37  C   UNL     1       6.026   4.960   1.546  1.00  0.00     0.261 C 
BRANCH  37  38
ATOM     38  O   UNL     1       4.977   5.603   2.299  1.00  0.00    -0.460 OA
BRANCH  38  39
ATOM     39  C   UNL     1       4.365   6.664   1.722  1.00  0.00     0.338 C 
ATOM     40  O   UNL     1       4.611   7.118   0.618  1.00  0.00    -0.246 OA
BRANCH  39  41
ATOM     41  C   UNL     1       3.308   7.194   2.620  1.00  0.00     0.060 A 
ATOM     42  C   UNL     1       2.059   6.581   2.668  1.00  0.00     0.016 A 
ATOM     43  C   UNL     1       3.494   8.389   3.304  1.00  0.00     0.016 A 
ATOM     44  C   UNL     1       0.958   7.210   3.250  1.00  0.00     0.010 A 
ATOM     45  C   UNL     1       2.414   8.969   3.992  1.00  0.00     0.010 A 
ATOM     46  C   UNL     1       1.116   8.420   3.921  1.00  0.00    -0.014 A 
BRANCH  46  47
ATOM     47  C   UNL     1      -0.067   9.157   4.458  1.00  0.00     0.031 A 
ATOM     48  C   UNL     1      -0.363  10.551   3.953  1.00  0.00     0.074 A 
ATOM     49  C   UNL     1      -0.897   8.595   5.364  1.00  0.00     0.049 A 
ATOM     50  N   UNL     1      -1.246  11.422   4.372  1.00  0.00    -0.248 NA
ATOM     51  C   UNL     1       0.439  11.022   2.814  1.00  0.00     0.031 C 
ATOM     52  C   UNL     1      -0.809   7.223   5.869  1.00  0.00     0.029 A 
ATOM     53  N   UNL     1      -1.973   9.122   6.042  1.00  0.00    -0.354 N 
ATOM     54  C   UNL     1      -1.113  12.530   3.540  1.00  0.00     0.074 A 
ATOM     55  C   UNL     1      -0.029  12.248   2.632  1.00  0.00     0.031 C 
ATOM     56  C   UNL     1      -1.770   7.026   6.785  1.00  0.00     0.029 A 
ATOM     57  C   UNL     1      -2.484   8.278   7.005  1.00  0.00     0.049 A 
ATOM     58  H   UNL     1      -2.341  10.016   5.858  1.00  0.00     0.167 HD
ATOM     59  C   UNL     1      -1.831  13.679   3.523  1.00  0.00     0.034 A 
ATOM     60  C   UNL     1      -3.370   8.507   7.997  1.00  0.00     0.034 A 
ATOM     61  C   UNL     1      -2.847  13.996   4.492  1.00  0.00     0.049 A 
ATOM     62  C   UNL     1      -3.974   9.887   8.126  1.00  0.00     0.074 A 
ATOM     63  C   UNL     1      -3.565  15.170   4.635  1.00  0.00     0.029 A 
ATOM     64  N   UNL     1      -3.262  13.149   5.509  1.00  0.00    -0.354 N 
ATOM     65  N   UNL     1      -3.822  10.934   7.346  1.00  0.00    -0.248 NA
ATOM     66  C   UNL     1      -4.865  10.119   9.270  1.00  0.00     0.031 C 
ATOM     67  C   UNL     1      -4.344  15.066   5.792  1.00  0.00     0.029 A 
ATOM     68  C   UNL     1      -4.189  13.791   6.312  1.00  0.00     0.049 A 
ATOM     69  H   UNL     1      -2.944  12.226   5.640  1.00  0.00     0.167 HD
ATOM     70  C   UNL     1      -4.638  11.928   7.884  1.00  0.00     0.074 A 
ATOM     71  C   UNL     1      -5.288  11.352   9.040  1.00  0.00     0.031 C 
ATOM     72  C   UNL     1      -4.837  13.202   7.459  1.00  0.00     0.034 A 
BRANCH  59  73
ATOM     73  C   UNL     1      -1.485  14.709   2.476  1.00  0.00     0.023 A 
ATOM     74  C   UNL     1      -1.785  14.520   1.114  1.00  0.00     0.031 A 
ATOM     75  C   UNL     1      -0.862  15.911   2.856  1.00  0.00     0.131 A 
ATOM     76  C   UNL     1      -1.442  15.513   0.180  1.00  0.00     0.055 A 
ATOM     77  C   UNL     1      -0.571  16.914   1.931  1.00  0.00     0.041 A 
ATOM     78  F   UNL     1      -0.531  16.132   4.138  1.00  0.00    -0.206 F 
ATOM     79  C   UNL     1      -0.857  16.716   0.585  1.00  0.00     0.022 A 
BRANCH  76  80
ATOM     80  S   UNL     1      -1.720  15.210  -1.588  1.00  0.00     0.124 S 
ATOM     81  O   UNL     1      -0.736  14.168  -1.862  1.00  0.00    -0.237 OA
ATOM     82  O   UNL     1      -3.119  14.799  -1.627  1.00  0.00    -0.237 OA
ATOM     83  O   UNL     1      -1.434  16.503  -2.207  1.00  0.00    -0.744 OA
ENDBRANCH  76  80
ENDBRANCH  59  73
BRANCH  60  84
ATOM     84  C   UNL     1      -3.677   7.457   9.019  1.00  0.00     0.023 A 
ATOM     85  C   UNL     1      -4.997   7.045   9.261  1.00  0.00     0.031 A 
ATOM     86  C   UNL     1      -2.669   6.941   9.857  1.00  0.00     0.131 A 
ATOM     87  C   UNL     1      -5.284   6.216  10.358  1.00  0.00     0.055 A 
ATOM     88  C   UNL     1      -2.950   6.049  10.893  1.00  0.00     0.041 A 
ATOM     89  F   UNL     1      -1.389   7.310   9.691  1.00  0.00    -0.206 F 
ATOM     90  C   UNL     1      -4.268   5.700  11.164  1.00  0.00     0.022 A 
BRANCH  87  91
ATOM     91  S   UNL     1      -7.021   5.961  10.817  1.00  0.00     0.124 S 
ATOM     92  O   UNL     1      -7.490   7.334  10.967  1.00  0.00    -0.237 OA
ATOM     93  O   UNL     1      -7.534   5.230   9.664  1.00  0.00    -0.237 OA
ATOM     94  O   UNL     1      -6.936   5.191  12.056  1.00  0.00    -0.744 OA
ENDBRANCH  87  91
ENDBRANCH  60  84
BRANCH  72  95
ATOM     95  C   UNL     1      -5.853  14.031   8.206  1.00  0.00     0.023 A 
ATOM     96  C   UNL     1      -5.670  14.404   9.548  1.00  0.00     0.031 A 
ATOM     97  C   UNL     1      -7.032  14.446   7.560  1.00  0.00     0.131 A 
ATOM     98  C   UNL     1      -6.678  15.112  10.220  1.00  0.00     0.055 A 
ATOM     99  C   UNL     1      -7.997  15.214   8.211  1.00  0.00     0.041 A 
ATOM    100  F   UNL     1      -7.263  14.115   6.279  1.00  0.00    -0.206 F 
ATOM    101  C   UNL     1      -7.830  15.538   9.554  1.00  0.00     0.022 A 
BRANCH  98 102
ATOM    102  S   UNL     1      -6.511  15.379  12.006  1.00  0.00     0.124 S 
ATOM    103  O   UNL     1      -6.398  14.014  12.508  1.00  0.00    -0.237 OA
ATOM    104  O   UNL     1      -5.301  16.191  12.089  1.00  0.00    -0.237 OA
ATOM    105  O   UNL     1      -7.747  16.073  12.365  1.00  0.00    -0.744 OA
ENDBRANCH  98 102
ENDBRANCH  72  95
ENDBRANCH  46  47
ENDBRANCH  39  41
ENDBRANCH  38  39
ENDBRANCH  37  38
ENDBRANCH  36  37
ENDBRANCH  35  36
ENDBRANCH  34  35
ENDBRANCH   1  34
TORSDOF 25
