REMARK SMILES C[C@H]1[C@H](C(=O)OCCOCCOCCOC(=O)c2ccc(-c3c4nc(c(-c5cc(S(=O)(=O)[O-])ccc5F)c5ccc([nH]5)c(-c5cc(S(=O)(=O)[O-])ccc5F)c5nc(c(-c6cc(S(=O)(=O)[O-])ccc6F)c6ccc3[nH]6)C=C5)C=C4)cc2)CC[N@@H+]1Cc1ccc(C(F)(F)F)cc1
REMARK SMILES IDX 10 1 9 2 8 3 7 4 6 5 4 6 5 7 3 8 1 9 2 10 83 11 81 12 82 13
REMARK SMILES IDX 84 15 85 16 86 17 94 18 87 19 93 20 88 21 89 22 90 23 91 24
REMARK SMILES IDX 92 25 11 26 12 27 13 28 14 29 15 30 16 31 17 32 18 33 19 34
REMARK SMILES IDX 80 35 20 36 79 37 21 38 22 39 23 40 73 41 24 42 78 43 72 44
REMARK SMILES IDX 74 45 25 46 77 47 71 48 70 49 26 51 58 52 38 53 57 54 39 55
REMARK SMILES IDX 42 56 56 57 75 58 40 59 41 60 55 62 76 63 43 64 27 65 28 66
REMARK SMILES IDX 36 67 29 68 35 69 37 70 34 71 30 72 31 73 32 74 33 75 59 76
REMARK SMILES IDX 60 77 68 78 61 79 67 80 69 81 66 82 62 83 63 84 64 85 65 86
REMARK SMILES IDX 44 87 45 88 53 89 46 90 52 91 54 92 51 93 47 94 48 95 49 96
REMARK SMILES IDX 50 97
REMARK H PARENT 83 14 74 50 42 61
REMARK Flexibility Score: inf
ROOT
ATOM      1  C   UNL     1       1.762   3.877   1.759  1.00  0.00     0.188 C 
ENDROOT
BRANCH   1   2
ATOM      2  O   UNL     1       1.231   4.679   2.807  1.00  0.00    -0.376 OA
BRANCH   2   3
ATOM      3  C   UNL     1       0.194   4.131   3.617  1.00  0.00     0.202 C 
BRANCH   3   4
ATOM      4  C   UNL     1      -0.983   3.419   2.927  1.00  0.00     0.261 C 
BRANCH   4   5
ATOM      5  O   UNL     1      -0.607   2.289   2.105  1.00  0.00    -0.463 OA
BRANCH   5   6
ATOM      6  C   UNL     1      -1.269   2.157   0.931  1.00  0.00     0.315 C 
ATOM      7  O   UNL     1      -2.204   2.885   0.604  1.00  0.00    -0.252 OA
BRANCH   6   8
ATOM      8  C   UNL     1      -0.703   1.113  -0.039  1.00  0.00     0.162 C 
ATOM      9  C   UNL     1       1.448  -0.158  -0.495  1.00  0.00     0.076 C 
ATOM     10  C   UNL     1       0.225  -0.021   0.438  1.00  0.00     0.195 C 
ATOM     11  N   UNL     1      -0.511  -1.282   0.302  1.00  0.00    -0.328 N 
ATOM     12  C   UNL     1      -1.877   0.397  -0.709  1.00  0.00     0.083 C 
ATOM     13  C   UNL     1      -1.564  -1.086  -0.678  1.00  0.00     0.263 C 
ATOM     14  H   UNL     1       0.109  -2.003  -0.066  1.00  0.00     0.348 HD
BRANCH  11  15
ATOM     15  C   UNL     1      -0.862  -1.946   1.556  1.00  0.00     0.299 C 
BRANCH  15  16
ATOM     16  C   UNL     1      -1.559  -1.111   2.608  1.00  0.00     0.006 A 
ATOM     17  C   UNL     1      -0.881  -0.737   3.779  1.00  0.00     0.010 A 
ATOM     18  C   UNL     1      -2.878  -0.683   2.433  1.00  0.00     0.010 A 
ATOM     19  C   UNL     1      -1.500   0.073   4.735  1.00  0.00     0.013 A 
ATOM     20  C   UNL     1      -3.489   0.148   3.372  1.00  0.00     0.013 A 
ATOM     21  C   UNL     1      -2.804   0.542   4.529  1.00  0.00     0.056 A 
BRANCH  21  22
ATOM     22  C   UNL     1      -3.450   1.460   5.535  1.00  0.00     0.416 C 
ATOM     23  F   UNL     1      -3.857   0.802   6.656  1.00  0.00    -0.166 F 
ATOM     24  F   UNL     1      -2.613   2.446   5.966  1.00  0.00    -0.166 F 
ATOM     25  F   UNL     1      -4.555   2.099   5.057  1.00  0.00    -0.166 F 
ENDBRANCH  21  22
ENDBRANCH  15  16
ENDBRANCH  11  15
ENDBRANCH   6   8
ENDBRANCH   5   6
ENDBRANCH   4   5
ENDBRANCH   3   4
ENDBRANCH   2   3
ENDBRANCH   1   2
BRANCH   1  26
ATOM     26  C   UNL     1       2.157   2.430   2.086  1.00  0.00     0.188 C 
BRANCH  26  27
ATOM     27  O   UNL     1       1.896   2.016   3.405  1.00  0.00    -0.376 OA
BRANCH  27  28
ATOM     28  C   UNL     1       2.978   1.798   4.288  1.00  0.00     0.202 C 
BRANCH  28  29
ATOM     29  C   UNL     1       4.231   2.695   4.302  1.00  0.00     0.261 C 
BRANCH  29  30
ATOM     30  O   UNL     1       4.632   3.313   3.073  1.00  0.00    -0.460 OA
BRANCH  30  31
ATOM     31  C   UNL     1       5.331   2.558   2.192  1.00  0.00     0.338 C 
ATOM     32  O   UNL     1       5.647   1.386   2.327  1.00  0.00    -0.246 OA
BRANCH  31  33
ATOM     33  C   UNL     1       5.411   3.331   0.930  1.00  0.00     0.060 A 
ATOM     34  C   UNL     1       4.779   2.844  -0.226  1.00  0.00     0.016 A 
ATOM     35  C   UNL     1       6.059   4.565   0.910  1.00  0.00     0.016 A 
ATOM     36  C   UNL     1       4.792   3.592  -1.406  1.00  0.00     0.010 A 
ATOM     37  C   UNL     1       6.105   5.293  -0.280  1.00  0.00     0.010 A 
ATOM     38  C   UNL     1       5.490   4.804  -1.448  1.00  0.00    -0.014 A 
BRANCH  38  39
ATOM     39  C   UNL     1       5.793   5.473  -2.737  1.00  0.00     0.031 A 
ATOM     40  C   UNL     1       7.148   5.227  -3.339  1.00  0.00     0.074 A 
ATOM     41  C   UNL     1       4.930   6.317  -3.328  1.00  0.00     0.049 A 
ATOM     42  N   UNL     1       7.761   5.863  -4.300  1.00  0.00    -0.248 NA
ATOM     43  C   UNL     1       7.918   4.117  -2.756  1.00  0.00     0.031 C 
ATOM     44  C   UNL     1       3.559   6.572  -2.892  1.00  0.00     0.029 A 
ATOM     45  N   UNL     1       5.099   7.144  -4.413  1.00  0.00    -0.354 N 
ATOM     46  C   UNL     1       9.005   5.252  -4.417  1.00  0.00     0.074 A 
ATOM     47  C   UNL     1       9.061   4.208  -3.417  1.00  0.00     0.031 C 
ATOM     48  C   UNL     1       3.021   7.518  -3.683  1.00  0.00     0.029 A 
ATOM     49  C   UNL     1       4.030   7.983  -4.636  1.00  0.00     0.049 A 
ATOM     50  H   UNL     1       5.906   7.138  -4.976  1.00  0.00     0.167 HD
ATOM     51  C   UNL     1      10.010   5.545  -5.277  1.00  0.00     0.034 A 
ATOM     52  C   UNL     1       3.906   9.037  -5.471  1.00  0.00     0.034 A 
ATOM     53  C   UNL     1       9.936   6.600  -6.256  1.00  0.00     0.049 A 
ATOM     54  C   UNL     1       5.081   9.426  -6.344  1.00  0.00     0.074 A 
ATOM     55  C   UNL     1      10.891   6.986  -7.179  1.00  0.00     0.029 A 
ATOM     56  N   UNL     1       8.849   7.448  -6.429  1.00  0.00    -0.354 N 
ATOM     57  N   UNL     1       6.268   8.869  -6.429  1.00  0.00    -0.248 NA
ATOM     58  C   UNL     1       4.904  10.587  -7.229  1.00  0.00     0.031 C 
ATOM     59  C   UNL     1      10.417   8.117  -7.850  1.00  0.00     0.029 A 
ATOM     60  C   UNL     1       9.125   8.375  -7.420  1.00  0.00     0.049 A 
ATOM     61  H   UNL     1       8.006   7.397  -5.922  1.00  0.00     0.167 HD
ATOM     62  C   UNL     1       6.957   9.583  -7.410  1.00  0.00     0.074 A 
ATOM     63  C   UNL     1       6.058  10.615  -7.881  1.00  0.00     0.031 C 
ATOM     64  C   UNL     1       8.212   9.391  -7.889  1.00  0.00     0.034 A 
BRANCH  51  65
ATOM     65  C   UNL     1      11.291   4.761  -5.142  1.00  0.00     0.023 A 
ATOM     66  C   UNL     1      11.340   3.373  -5.356  1.00  0.00     0.031 A 
ATOM     67  C   UNL     1      12.478   5.411  -4.759  1.00  0.00     0.131 A 
ATOM     68  C   UNL     1      12.529   2.670  -5.113  1.00  0.00     0.055 A 
ATOM     69  C   UNL     1      13.680   4.719  -4.606  1.00  0.00     0.041 A 
ATOM     70  F   UNL     1      12.487   6.730  -4.511  1.00  0.00    -0.206 F 
ATOM     71  C   UNL     1      13.707   3.337  -4.768  1.00  0.00     0.022 A 
BRANCH  68  72
ATOM     72  S   UNL     1      12.475   0.858  -5.102  1.00  0.00     0.124 S 
ATOM     73  O   UNL     1      11.473   0.599  -4.071  1.00  0.00    -0.237 OA
ATOM     74  O   UNL     1      12.079   0.545  -6.470  1.00  0.00    -0.237 OA
ATOM     75  O   UNL     1      13.840   0.476  -4.744  1.00  0.00    -0.744 OA
ENDBRANCH  68  72
ENDBRANCH  51  65
BRANCH  52  76
ATOM     76  C   UNL     1       2.654   9.851  -5.488  1.00  0.00     0.023 A 
ATOM     77  C   UNL     1       1.876   9.961  -6.651  1.00  0.00     0.031 A 
ATOM     78  C   UNL     1       2.249  10.585  -4.357  1.00  0.00     0.131 A 
ATOM     79  C   UNL     1       0.766  10.821  -6.674  1.00  0.00     0.055 A 
ATOM     80  C   UNL     1       1.108  11.389  -4.366  1.00  0.00     0.041 A 
ATOM     81  F   UNL     1       2.961  10.528  -3.220  1.00  0.00    -0.206 F 
ATOM     82  C   UNL     1       0.366  11.522  -5.535  1.00  0.00     0.022 A 
BRANCH  79  83
ATOM     83  S   UNL     1      -0.089  11.093  -8.251  1.00  0.00     0.124 S 
ATOM     84  O   UNL     1       0.992  11.603  -9.088  1.00  0.00    -0.237 OA
ATOM     85  O   UNL     1      -0.571   9.754  -8.570  1.00  0.00    -0.237 OA
ATOM     86  O   UNL     1      -1.128  12.064  -7.913  1.00  0.00    -0.744 OA
ENDBRANCH  79  83
ENDBRANCH  52  76
BRANCH  64  87
ATOM     87  C   UNL     1       8.668  10.250  -9.044  1.00  0.00     0.023 A 
ATOM     88  C   UNL     1       8.931  11.623  -8.907  1.00  0.00     0.031 A 
ATOM     89  C   UNL     1       8.901   9.654 -10.299  1.00  0.00     0.131 A 
ATOM     90  C   UNL     1       9.388  12.359 -10.013  1.00  0.00     0.055 A 
ATOM     91  C   UNL     1       9.408  10.377 -11.377  1.00  0.00     0.041 A 
ATOM     92  F   UNL     1       8.664   8.345 -10.486  1.00  0.00    -0.206 F 
ATOM     93  C   UNL     1       9.649  11.740 -11.239  1.00  0.00     0.022 A 
BRANCH  90  94
ATOM     94  S   UNL     1       9.592  14.155  -9.850  1.00  0.00     0.124 S 
ATOM     95  O   UNL     1       8.238  14.585  -9.521  1.00  0.00    -0.237 OA
ATOM     96  O   UNL     1      10.574  14.263  -8.776  1.00  0.00    -0.237 OA
ATOM     97  O   UNL     1      10.071  14.568 -11.168  1.00  0.00    -0.744 OA
ENDBRANCH  90  94
ENDBRANCH  64  87
ENDBRANCH  38  39
ENDBRANCH  31  33
ENDBRANCH  30  31
ENDBRANCH  29  30
ENDBRANCH  28  29
ENDBRANCH  27  28
ENDBRANCH  26  27
ENDBRANCH   1  26
TORSDOF 23
