REMARK SMILES O=C(OCCOCCOCCOC(=O)c1cc(-c2ccn(C(F)F)c(=O)c2)ccc1O)c1ccc(-c2c3nc(c(-c4cc(S(=O)(=O)[O-])ccc4F)c4ccc([nH]4)c(-c4cc(S(=O)(=O)[O-])ccc4F)c4nc(c(-c5cc(S(=O)(=O)[O-])ccc5F)c5ccc2[nH]5)C=C4)C=C3)cc1
REMARK SMILES IDX 7 1 6 2 5 3 4 4 3 5 2 6 1 7 32 8 33 9 94 10 34 11 93 12
REMARK SMILES IDX 35 13 36 14 37 15 87 16 38 17 92 18 86 19 88 20 39 21 91 22
REMARK SMILES IDX 85 23 84 24 40 26 72 27 52 28 71 29 53 30 56 31 70 32 89 33
REMARK SMILES IDX 54 34 55 35 69 37 90 38 57 39 41 40 42 41 50 42 43 43 49 44
REMARK SMILES IDX 51 45 48 46 44 47 45 48 46 49 47 50 73 51 74 52 82 53 75 54
REMARK SMILES IDX 81 55 83 56 80 57 76 58 77 59 78 60 79 61 58 62 59 63 67 64
REMARK SMILES IDX 60 65 66 66 68 67 65 68 61 69 62 70 63 71 64 72 8 73 9 74
REMARK SMILES IDX 10 75 11 76 12 77 13 78 14 79 15 80 16 81 30 82 17 83 29 84
REMARK SMILES IDX 28 85 31 86 18 88 19 89 27 90 20 91 25 92 21 93 26 94 22 95
REMARK SMILES IDX 23 96 24 97
REMARK H PARENT 88 25 56 36 31 87
REMARK Flexibility Score: inf
ROOT
ATOM      1  C   UNL     1       2.626   0.411   1.868  1.00  0.00     0.188 C 
ENDROOT
BRANCH   1   2
ATOM      2  O   UNL     1       3.892  -0.097   1.428  1.00  0.00    -0.376 OA
BRANCH   2   3
ATOM      3  C   UNL     1       4.860   0.923   1.165  1.00  0.00     0.202 C 
BRANCH   3   4
ATOM      4  C   UNL     1       4.795   1.508  -0.251  1.00  0.00     0.261 C 
BRANCH   4   5
ATOM      5  O   UNL     1       3.456   1.560  -0.758  1.00  0.00    -0.460 OA
BRANCH   5   6
ATOM      6  C   UNL     1       2.817   0.636  -1.517  1.00  0.00     0.338 C 
ATOM      7  O   UNL     1       1.673   0.902  -1.888  1.00  0.00    -0.246 OA
BRANCH   6   8
ATOM      8  C   UNL     1       3.392  -0.693  -1.919  1.00  0.00     0.060 A 
ATOM      9  C   UNL     1       2.752  -1.354  -2.979  1.00  0.00     0.016 A 
ATOM     10  C   UNL     1       4.448  -1.366  -1.298  1.00  0.00     0.016 A 
ATOM     11  C   UNL     1       3.146  -2.637  -3.382  1.00  0.00     0.010 A 
ATOM     12  C   UNL     1       4.880  -2.624  -1.728  1.00  0.00     0.010 A 
ATOM     13  C   UNL     1       4.221  -3.285  -2.761  1.00  0.00    -0.014 A 
BRANCH  13  14
ATOM     14  C   UNL     1       4.782  -4.541  -3.307  1.00  0.00     0.031 A 
ATOM     15  C   UNL     1       4.837  -5.824  -2.534  1.00  0.00     0.074 A 
ATOM     16  C   UNL     1       5.393  -4.463  -4.503  1.00  0.00     0.049 A 
ATOM     17  N   UNL     1       5.171  -7.017  -2.959  1.00  0.00    -0.248 NA
ATOM     18  C   UNL     1       4.505  -5.776  -1.104  1.00  0.00     0.031 C 
ATOM     19  C   UNL     1       5.530  -3.232  -5.281  1.00  0.00     0.029 A 
ATOM     20  N   UNL     1       6.049  -5.408  -5.244  1.00  0.00    -0.354 N 
ATOM     21  C   UNL     1       5.019  -7.867  -1.872  1.00  0.00     0.074 A 
ATOM     22  C   UNL     1       4.678  -7.042  -0.742  1.00  0.00     0.031 C 
ATOM     23  C   UNL     1       6.237  -3.492  -6.384  1.00  0.00     0.029 A 
ATOM     24  C   UNL     1       6.630  -4.898  -6.377  1.00  0.00     0.049 A 
ATOM     25  H   UNL     1       6.099  -6.358  -4.989  1.00  0.00     0.167 HD
ATOM     26  C   UNL     1       5.130  -9.216  -1.835  1.00  0.00     0.034 A 
ATOM     27  C   UNL     1       7.408  -5.485  -7.307  1.00  0.00     0.034 A 
ATOM     28  C   UNL     1       5.623  -9.991  -2.939  1.00  0.00     0.049 A 
ATOM     29  C   UNL     1       7.636  -6.965  -7.219  1.00  0.00     0.074 A 
ATOM     30  C   UNL     1       5.707 -11.365  -3.053  1.00  0.00     0.029 A 
ATOM     31  N   UNL     1       6.197  -9.452  -4.080  1.00  0.00    -0.354 N 
ATOM     32  N   UNL     1       7.202  -7.806  -6.309  1.00  0.00    -0.248 NA
ATOM     33  C   UNL     1       8.429  -7.587  -8.284  1.00  0.00     0.031 C 
ATOM     34  C   UNL     1       6.434 -11.651  -4.211  1.00  0.00     0.029 A 
ATOM     35  C   UNL     1       6.732 -10.461  -4.859  1.00  0.00     0.049 A 
ATOM     36  H   UNL     1       6.221  -8.493  -4.303  1.00  0.00     0.167 HD
ATOM     37  C   UNL     1       7.660  -9.061  -6.693  1.00  0.00     0.074 A 
ATOM     38  C   UNL     1       8.391  -8.868  -7.931  1.00  0.00     0.031 C 
ATOM     39  C   UNL     1       7.485 -10.257  -6.077  1.00  0.00     0.034 A 
BRANCH  26  40
ATOM     40  C   UNL     1       4.687  -9.955  -0.599  1.00  0.00     0.023 A 
ATOM     41  C   UNL     1       5.606 -10.660   0.198  1.00  0.00     0.031 A 
ATOM     42  C   UNL     1       3.317 -10.084  -0.305  1.00  0.00     0.131 A 
ATOM     43  C   UNL     1       5.139 -11.461   1.251  1.00  0.00     0.055 A 
ATOM     44  C   UNL     1       2.860 -10.864   0.760  1.00  0.00     0.041 A 
ATOM     45  F   UNL     1       2.398  -9.446  -1.047  1.00  0.00    -0.206 F 
ATOM     46  C   UNL     1       3.773 -11.560   1.541  1.00  0.00     0.022 A 
BRANCH  43  47
ATOM     47  S   UNL     1       6.274 -12.450   2.262  1.00  0.00     0.124 S 
ATOM     48  O   UNL     1       6.053 -11.878   3.589  1.00  0.00    -0.237 OA
ATOM     49  O   UNL     1       5.756 -13.801   2.070  1.00  0.00    -0.237 OA
ATOM     50  O   UNL     1       7.583 -12.183   1.679  1.00  0.00    -0.744 OA
ENDBRANCH  43  47
ENDBRANCH  26  40
BRANCH  27  51
ATOM     51  C   UNL     1       7.913  -4.621  -8.409  1.00  0.00     0.023 A 
ATOM     52  C   UNL     1       8.771  -3.539  -8.118  1.00  0.00     0.031 A 
ATOM     53  C   UNL     1       7.322  -4.682  -9.679  1.00  0.00     0.131 A 
ATOM     54  C   UNL     1       8.907  -2.497  -9.044  1.00  0.00     0.055 A 
ATOM     55  C   UNL     1       7.524  -3.678 -10.627  1.00  0.00     0.041 A 
ATOM     56  F   UNL     1       6.483  -5.683  -9.986  1.00  0.00    -0.206 F 
ATOM     57  C   UNL     1       8.295  -2.564 -10.300  1.00  0.00     0.022 A 
BRANCH  54  58
ATOM     58  S   UNL     1       9.694  -0.930  -8.566  1.00  0.00     0.124 S 
ATOM     59  O   UNL     1      10.791  -0.836  -9.523  1.00  0.00    -0.237 OA
ATOM     60  O   UNL     1       8.604   0.024  -8.759  1.00  0.00    -0.237 OA
ATOM     61  O   UNL     1      10.085  -1.148  -7.177  1.00  0.00    -0.744 OA
ENDBRANCH  54  58
ENDBRANCH  27  51
BRANCH  39  62
ATOM     62  C   UNL     1       8.133 -11.478  -6.675  1.00  0.00     0.023 A 
ATOM     63  C   UNL     1       7.337 -12.554  -7.109  1.00  0.00     0.031 A 
ATOM     64  C   UNL     1       9.526 -11.653  -6.625  1.00  0.00     0.131 A 
ATOM     65  C   UNL     1       7.935 -13.783  -7.408  1.00  0.00     0.055 A 
ATOM     66  C   UNL     1      10.122 -12.862  -6.981  1.00  0.00     0.041 A 
ATOM     67  F   UNL     1      10.324 -10.656  -6.208  1.00  0.00    -0.206 F 
ATOM     68  C   UNL     1       9.324 -13.941  -7.354  1.00  0.00     0.022 A 
BRANCH  65  69
ATOM     69  S   UNL     1       6.924 -15.249  -7.752  1.00  0.00     0.124 S 
ATOM     70  O   UNL     1       7.343 -15.592  -9.109  1.00  0.00    -0.237 OA
ATOM     71  O   UNL     1       7.360 -16.174  -6.710  1.00  0.00    -0.237 OA
ATOM     72  O   UNL     1       5.552 -14.768  -7.628  1.00  0.00    -0.744 OA
ENDBRANCH  65  69
ENDBRANCH  39  62
ENDBRANCH  13  14
ENDBRANCH   6   8
ENDBRANCH   5   6
ENDBRANCH   4   5
ENDBRANCH   3   4
ENDBRANCH   2   3
ENDBRANCH   1   2
BRANCH   1  73
ATOM     73  C   UNL     1       1.974  -0.530   2.881  1.00  0.00     0.188 C 
BRANCH  73  74
ATOM     74  O   UNL     1       2.622  -0.624   4.150  1.00  0.00    -0.376 OA
BRANCH  74  75
ATOM     75  C   UNL     1       3.972  -1.075   4.158  1.00  0.00     0.202 C 
BRANCH  75  76
ATOM     76  C   UNL     1       4.254  -2.556   3.863  1.00  0.00     0.261 C 
BRANCH  76  77
ATOM     77  O   UNL     1       3.611  -3.131   2.716  1.00  0.00    -0.460 OA
BRANCH  77  78
ATOM     78  C   UNL     1       2.477  -3.811   3.018  1.00  0.00     0.342 C 
ATOM     79  O   UNL     1       1.832  -3.747   4.060  1.00  0.00    -0.246 OA
BRANCH  78  80
ATOM     80  C   UNL     1       2.109  -4.726   1.932  1.00  0.00     0.102 A 
ATOM     81  C   UNL     1       1.293  -4.309   0.862  1.00  0.00     0.028 A 
ATOM     82  C   UNL     1       2.464  -6.067   2.078  1.00  0.00     0.130 A 
ATOM     83  C   UNL     1       0.818  -5.253  -0.067  1.00  0.00    -0.017 A 
ATOM     84  C   UNL     1       1.973  -7.007   1.189  1.00  0.00     0.048 A 
ATOM     85  C   UNL     1       1.176  -6.601   0.117  1.00  0.00     0.012 A 
BRANCH  82  86
ATOM     86  O   UNL     1       3.309  -6.455   3.079  1.00  0.00    -0.507 OA
ATOM     87  H   UNL     1       3.643  -5.820   3.682  1.00  0.00     0.293 HD
ENDBRANCH  82  86
BRANCH  83  88
ATOM     88  C   UNL     1      -0.042  -4.926  -1.239  1.00  0.00    -0.011 A 
ATOM     89  C   UNL     1      -1.145  -5.782  -1.657  1.00  0.00     0.027 A 
ATOM     90  C   UNL     1       0.255  -3.871  -2.016  1.00  0.00     0.080 A 
ATOM     91  C   UNL     1      -1.755  -5.605  -2.834  1.00  0.00     0.095 A 
ATOM     92  C   UNL     1      -0.437  -3.636  -3.321  1.00  0.00     0.255 A 
ATOM     93  N   UNL     1      -1.396  -4.571  -3.673  1.00  0.00    -0.258 N 
ATOM     94  O   UNL     1      -0.113  -2.670  -4.002  1.00  0.00    -0.269 OA
BRANCH  93  95
ATOM     95  C   UNL     1      -1.993  -4.446  -4.978  1.00  0.00     0.451 C 
ATOM     96  F   UNL     1      -2.604  -3.245  -5.133  1.00  0.00    -0.185 F 
ATOM     97  F   UNL     1      -1.065  -4.572  -5.957  1.00  0.00    -0.185 F 
ENDBRANCH  93  95
ENDBRANCH  83  88
ENDBRANCH  78  80
ENDBRANCH  77  78
ENDBRANCH  76  77
ENDBRANCH  75  76
ENDBRANCH  74  75
ENDBRANCH  73  74
ENDBRANCH   1  73
TORSDOF 23
