REMARK SMILES CC(C)CC[C@@H](C(=O)OCCOCCOCCOC(=O)c1ccc(-c2c3nc(c(-c4cc(S(=O)(=O)[O-])ccc4F)c4ccc([nH]4)c(-c4cc(S(=O)(=O)[O-])ccc4F)c4nc(c(-c5cc(S(=O)(=O)[O-])ccc5F)c5ccc2[nH]5)C=C4)C=C3)cc1)c1ccc(Br)cc1
REMARK SMILES IDX 13 1 12 2 11 3 10 4 9 5 7 6 8 7 6 8 5 9 4 10 2 11 1 12 3 13
REMARK SMILES IDX 84 14 85 15 90 16 86 17 89 18 87 19 88 20 14 21 15 22 16 23
REMARK SMILES IDX 17 24 18 25 19 26 20 27 21 28 22 29 83 30 23 31 82 32 24 33
REMARK SMILES IDX 25 34 26 35 76 36 27 37 81 38 75 39 77 40 28 41 80 42 74 43
REMARK SMILES IDX 73 44 29 46 61 47 41 48 60 49 42 50 45 51 59 52 78 53 43 54
REMARK SMILES IDX 44 55 58 57 79 58 46 59 30 60 31 61 39 62 32 63 38 64 40 65
REMARK SMILES IDX 37 66 33 67 34 68 35 69 36 70 62 71 63 72 71 73 64 74 70 75
REMARK SMILES IDX 72 76 69 77 65 78 66 79 67 80 68 81 47 82 48 83 56 84 49 85
REMARK SMILES IDX 55 86 57 87 54 88 50 89 51 90 52 91 53 92
REMARK H PARENT 77 45 45 56
REMARK Flexibility Score: inf
ROOT
ATOM      1  C   UNL     1      -3.440  -3.249   3.708  1.00  0.00     0.188 C 
ENDROOT
BRANCH   1   2
ATOM      2  O   UNL     1      -3.183  -3.292   5.109  1.00  0.00    -0.376 OA
BRANCH   2   3
ATOM      3  C   UNL     1      -2.408  -2.217   5.641  1.00  0.00     0.202 C 
BRANCH   3   4
ATOM      4  C   UNL     1      -1.009  -2.022   5.032  1.00  0.00     0.261 C 
BRANCH   4   5
ATOM      5  O   UNL     1      -1.020  -1.854   3.596  1.00  0.00    -0.463 OA
BRANCH   5   6
ATOM      6  C   UNL     1      -0.157  -2.633   2.886  1.00  0.00     0.313 C 
ATOM      7  O   UNL     1       0.702  -3.341   3.407  1.00  0.00    -0.252 OA
BRANCH   6   8
ATOM      8  C   UNL     1      -0.370  -2.578   1.358  1.00  0.00     0.129 C 
BRANCH   8   9
ATOM      9  C   UNL     1      -1.032  -1.284   0.823  1.00  0.00     0.020 C 
BRANCH   9  10
ATOM     10  C   UNL     1      -0.508   0.064   1.325  1.00  0.00     0.004 C 
BRANCH  10  11
ATOM     11  C   UNL     1       1.015   0.245   1.312  1.00  0.00    -0.017 C 
ATOM     12  C   UNL     1       1.585   0.220  -0.107  1.00  0.00     0.007 C 
ATOM     13  C   UNL     1       1.370   1.564   1.999  1.00  0.00     0.007 C 
ENDBRANCH  10  11
ENDBRANCH   9  10
ENDBRANCH   8   9
BRANCH   8  14
ATOM     14  C   UNL     1      -1.011  -3.865   0.785  1.00  0.00    -0.034 A 
ATOM     15  C   UNL     1      -2.045  -3.842  -0.173  1.00  0.00     0.006 A 
ATOM     16  C   UNL     1      -0.504  -5.128   1.147  1.00  0.00     0.006 A 
ATOM     17  C   UNL     1      -2.548  -5.021  -0.737  1.00  0.00     0.016 A 
ATOM     18  C   UNL     1      -1.018  -6.310   0.597  1.00  0.00     0.016 A 
ATOM     19  C   UNL     1      -2.037  -6.251  -0.345  1.00  0.00     0.017 A 
ATOM     20  Br  UNL     1      -2.712  -7.838  -1.114  1.00  0.00    -0.051 Br
ENDBRANCH   8  14
ENDBRANCH   6   8
ENDBRANCH   5   6
ENDBRANCH   4   5
ENDBRANCH   3   4
ENDBRANCH   2   3
ENDBRANCH   1   2
BRANCH   1  21
ATOM     21  C   UNL     1      -4.181  -2.006   3.209  1.00  0.00     0.188 C 
BRANCH  21  22
ATOM     22  O   UNL     1      -3.725  -0.762   3.722  1.00  0.00    -0.376 OA
BRANCH  22  23
ATOM     23  C   UNL     1      -4.527   0.390   3.455  1.00  0.00     0.202 C 
BRANCH  23  24
ATOM     24  C   UNL     1      -6.044   0.309   3.741  1.00  0.00     0.261 C 
BRANCH  24  25
ATOM     25  O   UNL     1      -6.787  -0.734   3.076  1.00  0.00    -0.460 OA
BRANCH  25  26
ATOM     26  C   UNL     1      -6.623  -0.889   1.740  1.00  0.00     0.338 C 
ATOM     27  O   UNL     1      -6.090  -0.090   0.987  1.00  0.00    -0.246 OA
BRANCH  26  28
ATOM     28  C   UNL     1      -6.923  -2.309   1.393  1.00  0.00     0.060 A 
ATOM     29  C   UNL     1      -6.078  -2.961   0.481  1.00  0.00     0.016 A 
ATOM     30  C   UNL     1      -7.954  -3.026   2.008  1.00  0.00     0.016 A 
ATOM     31  C   UNL     1      -6.277  -4.309   0.161  1.00  0.00     0.010 A 
ATOM     32  C   UNL     1      -8.169  -4.370   1.668  1.00  0.00     0.010 A 
ATOM     33  C   UNL     1      -7.351  -5.012   0.719  1.00  0.00    -0.014 A 
BRANCH  33  34
ATOM     34  C   UNL     1      -7.790  -6.304   0.121  1.00  0.00     0.031 A 
ATOM     35  C   UNL     1      -8.911  -6.249  -0.884  1.00  0.00     0.074 A 
ATOM     36  C   UNL     1      -7.217  -7.487   0.415  1.00  0.00     0.049 A 
ATOM     37  N   UNL     1      -9.597  -7.219  -1.429  1.00  0.00    -0.248 NA
ATOM     38  C   UNL     1      -9.310  -4.904  -1.329  1.00  0.00     0.031 C 
ATOM     39  C   UNL     1      -6.052  -7.679   1.274  1.00  0.00     0.029 A 
ATOM     40  N   UNL     1      -7.554  -8.761   0.018  1.00  0.00    -0.354 N 
ATOM     41  C   UNL     1     -10.518  -6.602  -2.270  1.00  0.00     0.074 A 
ATOM     42  C   UNL     1     -10.321  -5.175  -2.138  1.00  0.00     0.031 C 
ATOM     43  C   UNL     1      -5.781  -8.996   1.353  1.00  0.00     0.029 A 
ATOM     44  C   UNL     1      -6.787  -9.747   0.600  1.00  0.00     0.049 A 
ATOM     45  H   UNL     1      -8.276  -8.951  -0.624  1.00  0.00     0.167 HD
ATOM     46  C   UNL     1     -11.441  -7.171  -3.082  1.00  0.00     0.034 A 
ATOM     47  C   UNL     1      -6.913 -11.092   0.562  1.00  0.00     0.034 A 
ATOM     48  C   UNL     1     -11.640  -8.592  -3.198  1.00  0.00     0.049 A 
ATOM     49  C   UNL     1      -8.051 -11.706  -0.233  1.00  0.00     0.074 A 
ATOM     50  C   UNL     1     -12.577  -9.273  -3.955  1.00  0.00     0.029 A 
ATOM     51  N   UNL     1     -10.889  -9.555  -2.536  1.00  0.00    -0.354 N 
ATOM     52  N   UNL     1      -8.962 -11.113  -0.972  1.00  0.00    -0.248 NA
ATOM     53  C   UNL     1      -8.181 -13.171  -0.196  1.00  0.00     0.031 C 
ATOM     54  C   UNL     1     -12.441 -10.640  -3.696  1.00  0.00     0.029 A 
ATOM     55  C   UNL     1     -11.358 -10.820  -2.851  1.00  0.00     0.049 A 
ATOM     56  H   UNL     1     -10.135  -9.366  -1.932  1.00  0.00     0.167 HD
ATOM     57  C   UNL     1      -9.730 -12.138  -1.527  1.00  0.00     0.074 A 
ATOM     58  C   UNL     1      -9.181 -13.383  -1.038  1.00  0.00     0.031 C 
ATOM     59  C   UNL     1     -10.787 -12.057  -2.375  1.00  0.00     0.034 A 
BRANCH  46  60
ATOM     60  C   UNL     1     -12.345  -6.243  -3.855  1.00  0.00     0.023 A 
ATOM     61  C   UNL     1     -11.846  -5.378  -4.844  1.00  0.00     0.031 A 
ATOM     62  C   UNL     1     -13.722  -6.199  -3.573  1.00  0.00     0.131 A 
ATOM     63  C   UNL     1     -12.704  -4.458  -5.464  1.00  0.00     0.055 A 
ATOM     64  C   UNL     1     -14.586  -5.342  -4.256  1.00  0.00     0.041 A 
ATOM     65  F   UNL     1     -14.249  -6.981  -2.618  1.00  0.00    -0.206 F 
ATOM     66  C   UNL     1     -14.076  -4.455  -5.199  1.00  0.00     0.022 A 
BRANCH  63  67
ATOM     67  S   UNL     1     -11.979  -3.170  -6.514  1.00  0.00     0.124 S 
ATOM     68  O   UNL     1     -11.090  -2.490  -5.574  1.00  0.00    -0.237 OA
ATOM     69  O   UNL     1     -11.328  -3.945  -7.563  1.00  0.00    -0.237 OA
ATOM     70  O   UNL     1     -13.136  -2.386  -6.943  1.00  0.00    -0.744 OA
ENDBRANCH  63  67
ENDBRANCH  46  60
BRANCH  47  71
ATOM     71  C   UNL     1      -5.998 -11.979   1.347  1.00  0.00     0.023 A 
ATOM     72  C   UNL     1      -5.229 -12.973   0.717  1.00  0.00     0.031 A 
ATOM     73  C   UNL     1      -5.967 -11.925   2.753  1.00  0.00     0.131 A 
ATOM     74  C   UNL     1      -4.523 -13.911   1.488  1.00  0.00     0.055 A 
ATOM     75  C   UNL     1      -5.205 -12.816   3.513  1.00  0.00     0.041 A 
ATOM     76  F   UNL     1      -6.694 -11.011   3.415  1.00  0.00    -0.206 F 
ATOM     77  C   UNL     1      -4.492 -13.829   2.881  1.00  0.00     0.022 A 
BRANCH  74  78
ATOM     78  S   UNL     1      -3.759 -15.329   0.650  1.00  0.00     0.124 S 
ATOM     79  O   UNL     1      -4.906 -15.925  -0.025  1.00  0.00    -0.237 OA
ATOM     80  O   UNL     1      -2.773 -14.681  -0.208  1.00  0.00    -0.237 OA
ATOM     81  O   UNL     1      -3.204 -16.116   1.750  1.00  0.00    -0.744 OA
ENDBRANCH  74  78
ENDBRANCH  47  71
BRANCH  59  82
ATOM     82  C   UNL     1     -11.364 -13.348  -2.911  1.00  0.00     0.023 A 
ATOM     83  C   UNL     1     -12.042 -14.269  -2.095  1.00  0.00     0.031 A 
ATOM     84  C   UNL     1     -11.251 -13.640  -4.284  1.00  0.00     0.131 A 
ATOM     85  C   UNL     1     -12.546 -15.456  -2.652  1.00  0.00     0.055 A 
ATOM     86  C   UNL     1     -11.805 -14.793  -4.841  1.00  0.00     0.041 A 
ATOM     87  F   UNL     1     -10.612 -12.797  -5.112  1.00  0.00    -0.206 F 
ATOM     88  C   UNL     1     -12.449 -15.714  -4.022  1.00  0.00     0.022 A 
BRANCH  85  89
ATOM     89  S   UNL     1     -13.272 -16.702  -1.550  1.00  0.00     0.124 S 
ATOM     90  O   UNL     1     -12.164 -16.993  -0.647  1.00  0.00    -0.237 OA
ATOM     91  O   UNL     1     -14.399 -15.982  -0.964  1.00  0.00    -0.237 OA
ATOM     92  O   UNL     1     -13.637 -17.790  -2.455  1.00  0.00    -0.744 OA
ENDBRANCH  85  89
ENDBRANCH  59  82
ENDBRANCH  33  34
ENDBRANCH  26  28
ENDBRANCH  25  26
ENDBRANCH  24  25
ENDBRANCH  23  24
ENDBRANCH  22  23
ENDBRANCH  21  22
ENDBRANCH   1  21
TORSDOF 24
