REMARK SMILES C[C@@H]1CCC[C@H](C)[N@H+]1Cc1cc2c(cc1Cl)C=C(C(=O)OCCOCCOCCOC(=O)c1ccc(-c3c4nc(c(-c5cc(S(=O)(=O)[O-])ccc5F)c5ccc([nH]5)c(-c5cc(S(=O)(=O)[O-])ccc5F)c5nc(c(-c6cc(S(=O)(=O)[O-])ccc6F)c6ccc3[nH]6)C=C5)C=C4)cc1)[C@@H](C(F)(F)F)O2
REMARK SMILES IDX 26 1 25 2 24 3 23 4 22 5 21 6 19 7 20 8 18 9 10 10 11 11
REMARK SMILES IDX 15 12 12 13 14 14 16 15 13 16 101 17 17 18 96 19 9 20 8 21
REMARK SMILES IDX 7 22 6 23 5 24 4 25 2 26 3 28 1 29 97 30 98 31 99 32 100 33
REMARK SMILES IDX 27 34 28 35 29 36 30 37 31 38 32 39 33 40 34 41 95 42 35 43
REMARK SMILES IDX 94 44 36 45 37 46 38 47 88 48 39 49 93 50 87 51 89 52 40 53
REMARK SMILES IDX 92 54 86 55 85 56 41 58 73 59 53 60 72 61 54 62 57 63 71 64
REMARK SMILES IDX 90 65 55 66 56 67 70 69 91 70 58 71 42 72 43 73 51 74 44 75
REMARK SMILES IDX 50 76 52 77 49 78 45 79 46 80 47 81 48 82 74 83 75 84 83 85
REMARK SMILES IDX 76 86 82 87 84 88 81 89 77 90 78 91 79 92 80 93 59 94 60 95
REMARK SMILES IDX 68 96 61 97 67 98 69 99 66 100 62 101 63 102 64 103 65 104
REMARK H PARENT 8 27 89 57 57 68
REMARK Flexibility Score: inf
ROOT
ATOM      1  C   UNL     1       1.909   9.495   0.085  1.00  0.00     0.188 C 
ENDROOT
BRANCH   1   2
ATOM      2  C   UNL     1       1.522  10.333  -1.154  1.00  0.00     0.188 C 
BRANCH   2   3
ATOM      3  O   UNL     1       1.681  11.719  -0.958  1.00  0.00    -0.376 OA
BRANCH   3   4
ATOM      4  C   UNL     1       0.552  12.519  -0.658  1.00  0.00     0.202 C 
BRANCH   4   5
ATOM      5  C   UNL     1      -0.648  12.040   0.186  1.00  0.00     0.261 C 
BRANCH   5   6
ATOM      6  O   UNL     1      -0.763  10.637   0.453  1.00  0.00    -0.460 OA
BRANCH   6   7
ATOM      7  C   UNL     1      -1.626   9.960  -0.338  1.00  0.00     0.338 C 
ATOM      8  O   UNL     1      -2.302  10.435  -1.235  1.00  0.00    -0.246 OA
BRANCH   7   9
ATOM      9  C   UNL     1      -1.551   8.513  -0.051  1.00  0.00     0.087 C 
ATOM     10  C   UNL     1      -1.854   3.495  -0.424  1.00  0.00     0.029 A 
ATOM     11  C   UNL     1      -1.532   4.384   0.628  1.00  0.00     0.058 A 
ATOM     12  C   UNL     1      -2.207   4.056  -1.664  1.00  0.00     0.050 A 
ATOM     13  C   UNL     1      -1.488   5.770   0.417  1.00  0.00     0.128 A 
ATOM     14  C   UNL     1      -2.061   5.425  -1.897  1.00  0.00     0.033 A 
ATOM     15  Cl  UNL     1      -2.889   3.138  -2.959  1.00  0.00    -0.084 Cl
ATOM     16  C   UNL     1      -1.695   6.280  -0.862  1.00  0.00     0.019 A 
ATOM     17  O   UNL     1      -1.216   6.572   1.494  1.00  0.00    -0.475 OA
ATOM     18  C   UNL     1      -1.594   7.704  -1.115  1.00  0.00     0.027 C 
ATOM     19  C   UNL     1      -1.500   8.003   1.366  1.00  0.00     0.316 C 
BRANCH  10  20
ATOM     20  C   UNL     1      -1.816   1.993  -0.192  1.00  0.00     0.301 C 
BRANCH  20  21
ATOM     21  N   UNL     1      -0.558   1.266  -0.478  1.00  0.00    -0.327 N 
ATOM     22  C   UNL     1       1.273   0.134   0.755  1.00  0.00     0.075 C 
ATOM     23  C   UNL     1       0.513   1.452   0.509  1.00  0.00     0.181 C 
ATOM     24  C   UNL     1       1.481   2.596   0.165  1.00  0.00     0.065 C 
ATOM     25  C   UNL     1       1.968   2.568  -1.280  1.00  0.00     0.012 C 
ATOM     26  C   UNL     1      -0.135   1.259  -1.890  1.00  0.00     0.181 C 
ATOM     27  H   UNL     1      -0.824   0.292  -0.331  1.00  0.00     0.348 HD
ATOM     28  C   UNL     1       0.809   2.415  -2.256  1.00  0.00     0.065 C 
ATOM     29  C   UNL     1       0.487  -0.083  -2.312  1.00  0.00     0.075 C 
ENDBRANCH  20  21
ENDBRANCH  10  20
BRANCH  19  30
ATOM     30  C   UNL     1      -2.786   8.364   2.121  1.00  0.00     0.430 C 
ATOM     31  F   UNL     1      -2.772   7.888   3.389  1.00  0.00    -0.167 F 
ATOM     32  F   UNL     1      -2.940   9.708   2.216  1.00  0.00    -0.167 F 
ATOM     33  F   UNL     1      -3.893   7.875   1.518  1.00  0.00    -0.167 F 
ENDBRANCH  19  30
ENDBRANCH   7   9
ENDBRANCH   6   7
ENDBRANCH   5   6
ENDBRANCH   4   5
ENDBRANCH   3   4
ENDBRANCH   2   3
ENDBRANCH   1   2
BRANCH   1  34
ATOM     34  O   UNL     1       2.228  10.146   1.308  1.00  0.00    -0.376 OA
BRANCH  34  35
ATOM     35  C   UNL     1       3.189  11.197   1.302  1.00  0.00     0.202 C 
BRANCH  35  36
ATOM     36  C   UNL     1       4.535  11.059   0.562  1.00  0.00     0.261 C 
BRANCH  36  37
ATOM     37  O   UNL     1       4.484  10.504  -0.759  1.00  0.00    -0.460 OA
BRANCH  37  38
ATOM     38  C   UNL     1       4.977   9.241  -0.890  1.00  0.00     0.338 C 
ATOM     39  O   UNL     1       5.446   8.544  -0.019  1.00  0.00    -0.246 OA
BRANCH  38  40
ATOM     40  C   UNL     1       4.650   8.760  -2.253  1.00  0.00     0.060 A 
ATOM     41  C   UNL     1       5.152   9.418  -3.375  1.00  0.00     0.016 A 
ATOM     42  C   UNL     1       3.811   7.645  -2.398  1.00  0.00     0.016 A 
ATOM     43  C   UNL     1       4.817   8.951  -4.649  1.00  0.00     0.010 A 
ATOM     44  C   UNL     1       3.460   7.194  -3.673  1.00  0.00     0.010 A 
ATOM     45  C   UNL     1       3.975   7.834  -4.809  1.00  0.00    -0.014 A 
BRANCH  45  46
ATOM     46  C   UNL     1       3.788   7.239  -6.155  1.00  0.00     0.031 A 
ATOM     47  C   UNL     1       2.536   7.442  -6.953  1.00  0.00     0.074 A 
ATOM     48  C   UNL     1       4.791   6.490  -6.653  1.00  0.00     0.049 A 
ATOM     49  N   UNL     1       2.280   7.064  -8.178  1.00  0.00    -0.248 NA
ATOM     50  C   UNL     1       1.430   8.154  -6.298  1.00  0.00     0.031 C 
ATOM     51  C   UNL     1       6.035   6.197  -5.940  1.00  0.00     0.029 A 
ATOM     52  N   UNL     1       4.935   5.850  -7.857  1.00  0.00    -0.354 N 
ATOM     53  C   UNL     1       0.993   7.508  -8.457  1.00  0.00     0.074 A 
ATOM     54  C   UNL     1       0.502   8.140  -7.249  1.00  0.00     0.031 C 
ATOM     55  C   UNL     1       6.827   5.460  -6.730  1.00  0.00     0.029 A 
ATOM     56  C   UNL     1       6.137   5.195  -7.991  1.00  0.00     0.049 A 
ATOM     57  H   UNL     1       4.244   5.859  -8.559  1.00  0.00     0.167 HD
ATOM     58  C   UNL     1       0.303   7.410  -9.620  1.00  0.00     0.034 A 
ATOM     59  C   UNL     1       6.635   4.465  -9.011  1.00  0.00     0.034 A 
ATOM     60  C   UNL     1       0.815   6.765 -10.807  1.00  0.00     0.049 A 
ATOM     61  C   UNL     1       5.835   4.345 -10.281  1.00  0.00     0.074 A 
ATOM     62  C   UNL     1       0.214   6.674 -12.051  1.00  0.00     0.029 A 
ATOM     63  N   UNL     1       2.026   6.093 -10.904  1.00  0.00    -0.354 N 
ATOM     64  N   UNL     1       4.673   4.880 -10.574  1.00  0.00    -0.248 NA
ATOM     65  C   UNL     1       6.412   3.540 -11.367  1.00  0.00     0.031 C 
ATOM     66  C   UNL     1       1.015   5.878 -12.869  1.00  0.00     0.029 A 
ATOM     67  C   UNL     1       2.165   5.547 -12.171  1.00  0.00     0.049 A 
ATOM     68  H   UNL     1       2.688   6.016 -10.180  1.00  0.00     0.167 HD
ATOM     69  C   UNL     1       4.390   4.495 -11.882  1.00  0.00     0.074 A 
ATOM     70  C   UNL     1       5.517   3.706 -12.333  1.00  0.00     0.031 C 
ATOM     71  C   UNL     1       3.293   4.769 -12.632  1.00  0.00     0.034 A 
BRANCH  58  72
ATOM     72  C   UNL     1      -1.071   8.032  -9.715  1.00  0.00     0.023 A 
ATOM     73  C   UNL     1      -2.188   7.235 -10.031  1.00  0.00     0.031 A 
ATOM     74  C   UNL     1      -1.243   9.428  -9.676  1.00  0.00     0.131 A 
ATOM     75  C   UNL     1      -3.412   7.841 -10.344  1.00  0.00     0.055 A 
ATOM     76  C   UNL     1      -2.477  10.024  -9.942  1.00  0.00     0.041 A 
ATOM     77  F   UNL     1      -0.208  10.235  -9.392  1.00  0.00    -0.206 F 
ATOM     78  C   UNL     1      -3.564   9.230 -10.294  1.00  0.00     0.022 A 
BRANCH  75  79
ATOM     79  S   UNL     1      -4.828   6.861 -10.918  1.00  0.00     0.124 S 
ATOM     80  O   UNL     1      -5.841   7.184  -9.916  1.00  0.00    -0.237 OA
ATOM     81  O   UNL     1      -5.066   7.418 -12.247  1.00  0.00    -0.237 OA
ATOM     82  O   UNL     1      -4.339   5.487 -10.887  1.00  0.00    -0.744 OA
ENDBRANCH  75  79
ENDBRANCH  58  72
BRANCH  59  83
ATOM     83  C   UNL     1       7.991   3.859  -8.866  1.00  0.00     0.023 A 
ATOM     84  C   UNL     1       8.256   2.930  -7.842  1.00  0.00     0.031 A 
ATOM     85  C   UNL     1       9.065   4.290  -9.661  1.00  0.00     0.131 A 
ATOM     86  C   UNL     1       9.573   2.527  -7.590  1.00  0.00     0.055 A 
ATOM     87  C   UNL     1      10.365   3.824  -9.458  1.00  0.00     0.041 A 
ATOM     88  F   UNL     1       8.865   5.188 -10.638  1.00  0.00    -0.206 F 
ATOM     89  C   UNL     1      10.627   2.953  -8.404  1.00  0.00     0.022 A 
BRANCH  86  90
ATOM     90  S   UNL     1       9.980   1.561  -6.109  1.00  0.00     0.124 S 
ATOM     91  O   UNL     1      10.589   0.366  -6.683  1.00  0.00    -0.237 OA
ATOM     92  O   UNL     1      10.893   2.462  -5.410  1.00  0.00    -0.237 OA
ATOM     93  O   UNL     1       8.688   1.363  -5.461  1.00  0.00    -0.744 OA
ENDBRANCH  86  90
ENDBRANCH  59  83
BRANCH  71  94
ATOM     94  C   UNL     1       3.213   4.221 -14.040  1.00  0.00     0.023 A 
ATOM     95  C   UNL     1       3.094   5.102 -15.133  1.00  0.00     0.031 A 
ATOM     96  C   UNL     1       3.073   2.844 -14.282  1.00  0.00     0.131 A 
ATOM     97  C   UNL     1       2.780   4.601 -16.404  1.00  0.00     0.055 A 
ATOM     98  C   UNL     1       2.818   2.345 -15.561  1.00  0.00     0.041 A 
ATOM     99  F   UNL     1       3.168   1.961 -13.274  1.00  0.00    -0.206 F 
ATOM    100  C   UNL     1       2.651   3.227 -16.625  1.00  0.00     0.022 A 
BRANCH  97 101
ATOM    101  S   UNL     1       2.423   5.718 -17.789  1.00  0.00     0.124 S 
ATOM    102  O   UNL     1       3.414   5.301 -18.778  1.00  0.00    -0.237 OA
ATOM    103  O   UNL     1       1.040   5.375 -18.110  1.00  0.00    -0.237 OA
ATOM    104  O   UNL     1       2.627   7.050 -17.230  1.00  0.00    -0.744 OA
ENDBRANCH  97 101
ENDBRANCH  71  94
ENDBRANCH  45  46
ENDBRANCH  38  40
ENDBRANCH  37  38
ENDBRANCH  36  37
ENDBRANCH  35  36
ENDBRANCH  34  35
ENDBRANCH   1  34
TORSDOF 23
