REMARK SMILES O=C(OCCOCCOCCOC(=O)[C@@H]1c2ccccc2C(=O)N(C2CCCC2)C12CCCCC2)c1ccc(-c2c3nc(c(-c4cc(S(=O)(=O)[O-])ccc4F)c4ccc([nH]4)c(-c4cc(S(=O)(=O)[O-])ccc4F)c4nc(c(-c5cc(S(=O)(=O)[O-])ccc5F)c5ccc2[nH]5)C=C4)C=C3)cc1
REMARK SMILES IDX 7 1 6 2 5 3 4 4 3 5 2 6 1 7 36 8 37 9 98 10 38 11 97 12
REMARK SMILES IDX 39 13 40 14 41 15 91 16 42 17 96 18 90 19 92 20 43 21 95 22
REMARK SMILES IDX 89 23 88 24 44 26 76 27 56 28 75 29 57 30 60 31 74 32 93 33
REMARK SMILES IDX 58 34 59 35 73 37 94 38 61 39 45 40 46 41 54 42 47 43 53 44
REMARK SMILES IDX 55 45 52 46 48 47 49 48 50 49 51 50 77 51 78 52 86 53 79 54
REMARK SMILES IDX 85 55 87 56 84 57 80 58 81 59 82 60 83 61 62 62 63 63 71 64
REMARK SMILES IDX 64 65 70 66 72 67 69 68 65 69 66 70 67 71 68 72 8 73 9 74
REMARK SMILES IDX 10 75 11 76 12 77 13 78 14 79 15 80 16 81 30 82 17 83 21 84
REMARK SMILES IDX 24 85 31 86 35 87 18 88 20 89 22 90 32 91 34 92 19 93 23 94
REMARK SMILES IDX 33 95 25 96 26 97 29 98 27 99 28 100
REMARK H PARENT 92 25 60 36
REMARK Flexibility Score: inf
ROOT
ATOM      1  C   UNL     1       2.937   1.681  -0.581  1.00  0.00     0.188 C 
ENDROOT
BRANCH   1   2
ATOM      2  O   UNL     1       2.035   0.633  -0.242  1.00  0.00    -0.376 OA
BRANCH   2   3
ATOM      3  C   UNL     1       1.784   0.440   1.142  1.00  0.00     0.202 C 
BRANCH   3   4
ATOM      4  C   UNL     1       2.877  -0.296   1.922  1.00  0.00     0.261 C 
BRANCH   4   5
ATOM      5  O   UNL     1       4.208  -0.108   1.426  1.00  0.00    -0.460 OA
BRANCH   5   6
ATOM      6  C   UNL     1       4.918  -0.882   0.568  1.00  0.00     0.338 C 
ATOM      7  O   UNL     1       6.145  -0.770   0.600  1.00  0.00    -0.246 OA
BRANCH   6   8
ATOM      8  C   UNL     1       4.324  -1.743  -0.520  1.00  0.00     0.060 A 
ATOM      9  C   UNL     1       5.200  -2.120  -1.560  1.00  0.00     0.016 A 
ATOM     10  C   UNL     1       3.015  -2.221  -0.598  1.00  0.00     0.016 A 
ATOM     11  C   UNL     1       4.789  -2.946  -2.623  1.00  0.00     0.010 A 
ATOM     12  C   UNL     1       2.594  -3.042  -1.664  1.00  0.00     0.010 A 
ATOM     13  C   UNL     1       3.478  -3.429  -2.681  1.00  0.00    -0.014 A 
BRANCH  13  14
ATOM     14  C   UNL     1       3.078  -4.478  -3.669  1.00  0.00     0.031 A 
ATOM     15  C   UNL     1       2.252  -4.212  -4.900  1.00  0.00     0.074 A 
ATOM     16  C   UNL     1       3.374  -5.750  -3.372  1.00  0.00     0.049 A 
ATOM     17  N   UNL     1       1.775  -4.989  -5.840  1.00  0.00    -0.248 NA
ATOM     18  C   UNL     1       1.894  -2.821  -5.079  1.00  0.00     0.031 C 
ATOM     19  C   UNL     1       4.079  -6.194  -2.172  1.00  0.00     0.029 A 
ATOM     20  N   UNL     1       3.041  -6.898  -4.031  1.00  0.00    -0.354 N 
ATOM     21  C   UNL     1       1.112  -4.144  -6.743  1.00  0.00     0.074 A 
ATOM     22  C   UNL     1       1.162  -2.839  -6.183  1.00  0.00     0.031 C 
ATOM     23  C   UNL     1       4.048  -7.533  -2.137  1.00  0.00     0.029 A 
ATOM     24  C   UNL     1       3.316  -8.024  -3.305  1.00  0.00     0.049 A 
ATOM     25  H   UNL     1       2.645  -6.914  -4.932  1.00  0.00     0.167 HD
ATOM     26  C   UNL     1       0.544  -4.397  -7.947  1.00  0.00     0.034 A 
ATOM     27  C   UNL     1       2.970  -9.302  -3.545  1.00  0.00     0.034 A 
ATOM     28  C   UNL     1       0.444  -5.722  -8.446  1.00  0.00     0.049 A 
ATOM     29  C   UNL     1       2.320  -9.636  -4.863  1.00  0.00     0.074 A 
ATOM     30  C   UNL     1      -0.079  -6.147  -9.646  1.00  0.00     0.029 A 
ATOM     31  N   UNL     1       0.870  -6.826  -7.741  1.00  0.00    -0.354 N 
ATOM     32  N   UNL     1       1.899  -8.823  -5.806  1.00  0.00    -0.248 NA
ATOM     33  C   UNL     1       2.142 -11.057  -5.184  1.00  0.00     0.031 C 
ATOM     34  C   UNL     1       0.028  -7.534  -9.664  1.00  0.00     0.029 A 
ATOM     35  C   UNL     1       0.631  -7.952  -8.483  1.00  0.00     0.049 A 
ATOM     36  H   UNL     1       1.281  -6.809  -6.847  1.00  0.00     0.167 HD
ATOM     37  C   UNL     1       1.460  -9.634  -6.849  1.00  0.00     0.074 A 
ATOM     38  C   UNL     1       1.658 -11.001  -6.420  1.00  0.00     0.031 C 
ATOM     39  C   UNL     1       0.936  -9.289  -8.051  1.00  0.00     0.034 A 
BRANCH  26  40
ATOM     40  C   UNL     1       0.068  -3.290  -8.874  1.00  0.00     0.023 A 
ATOM     41  C   UNL     1      -1.287  -2.926  -8.981  1.00  0.00     0.031 A 
ATOM     42  C   UNL     1       0.952  -2.775  -9.844  1.00  0.00     0.131 A 
ATOM     43  C   UNL     1      -1.695  -2.054 -10.012  1.00  0.00     0.055 A 
ATOM     44  C   UNL     1       0.559  -1.845 -10.808  1.00  0.00     0.041 A 
ATOM     45  F   UNL     1       2.210  -3.232  -9.925  1.00  0.00    -0.206 F 
ATOM     46  C   UNL     1      -0.775  -1.481 -10.897  1.00  0.00     0.022 A 
BRANCH  43  47
ATOM     47  S   UNL     1      -3.454  -1.760 -10.370  1.00  0.00     0.124 S 
ATOM     48  O   UNL     1      -3.576  -0.324 -10.129  1.00  0.00    -0.237 OA
ATOM     49  O   UNL     1      -3.557  -2.168 -11.769  1.00  0.00    -0.237 OA
ATOM     50  O   UNL     1      -4.150  -2.613  -9.414  1.00  0.00    -0.744 OA
ENDBRANCH  43  47
ENDBRANCH  26  40
BRANCH  27  51
ATOM     51  C   UNL     1       3.326 -10.308  -2.510  1.00  0.00     0.023 A 
ATOM     52  C   UNL     1       2.784 -10.208  -1.212  1.00  0.00     0.031 A 
ATOM     53  C   UNL     1       4.356 -11.233  -2.731  1.00  0.00     0.131 A 
ATOM     54  C   UNL     1       3.333 -10.961  -0.169  1.00  0.00     0.055 A 
ATOM     55  C   UNL     1       4.851 -12.035  -1.702  1.00  0.00     0.041 A 
ATOM     56  F   UNL     1       4.927 -11.333  -3.941  1.00  0.00    -0.206 F 
ATOM     57  C   UNL     1       4.355 -11.884  -0.409  1.00  0.00     0.022 A 
BRANCH  54  58
ATOM     58  S   UNL     1       2.878 -10.622   1.557  1.00  0.00     0.124 S 
ATOM     59  O   UNL     1       2.168 -11.842   1.927  1.00  0.00    -0.237 OA
ATOM     60  O   UNL     1       4.184 -10.436   2.186  1.00  0.00    -0.237 OA
ATOM     61  O   UNL     1       2.062  -9.416   1.468  1.00  0.00    -0.744 OA
ENDBRANCH  54  58
ENDBRANCH  27  51
BRANCH  39  62
ATOM     62  C   UNL     1       0.557 -10.345  -9.045  1.00  0.00     0.023 A 
ATOM     63  C   UNL     1       1.209 -10.355 -10.294  1.00  0.00     0.031 A 
ATOM     64  C   UNL     1      -0.660 -11.026  -8.901  1.00  0.00     0.131 A 
ATOM     65  C   UNL     1       0.575 -10.948 -11.388  1.00  0.00     0.055 A 
ATOM     66  C   UNL     1      -1.257 -11.666  -9.983  1.00  0.00     0.041 A 
ATOM     67  F   UNL     1      -1.322 -10.996  -7.733  1.00  0.00    -0.206 F 
ATOM     68  C   UNL     1      -0.654 -11.603 -11.239  1.00  0.00     0.022 A 
BRANCH  65  69
ATOM     69  S   UNL     1       1.214 -10.704 -13.070  1.00  0.00     0.124 S 
ATOM     70  O   UNL     1       1.534 -12.072 -13.468  1.00  0.00    -0.237 OA
ATOM     71  O   UNL     1       0.069 -10.105 -13.751  1.00  0.00    -0.237 OA
ATOM     72  O   UNL     1       2.364  -9.823 -12.887  1.00  0.00    -0.744 OA
ENDBRANCH  65  69
ENDBRANCH  39  62
ENDBRANCH  13  14
ENDBRANCH   6   8
ENDBRANCH   5   6
ENDBRANCH   4   5
ENDBRANCH   3   4
ENDBRANCH   2   3
ENDBRANCH   1   2
BRANCH   1  73
ATOM     73  C   UNL     1       2.550   3.108  -0.165  1.00  0.00     0.188 C 
BRANCH  73  74
ATOM     74  O   UNL     1       1.209   3.279   0.280  1.00  0.00    -0.376 OA
BRANCH  74  75
ATOM     75  C   UNL     1       0.302   3.779  -0.703  1.00  0.00     0.202 C 
BRANCH  75  76
ATOM     76  C   UNL     1      -0.156   2.715  -1.694  1.00  0.00     0.261 C 
BRANCH  76  77
ATOM     77  O   UNL     1       0.902   2.298  -2.573  1.00  0.00    -0.463 OA
BRANCH  77  78
ATOM     78  C   UNL     1       1.252   3.126  -3.594  1.00  0.00     0.315 C 
ATOM     79  O   UNL     1       0.799   4.239  -3.756  1.00  0.00    -0.251 OA
BRANCH  78  80
ATOM     80  C   UNL     1       2.329   2.456  -4.452  1.00  0.00     0.156 C 
ATOM     81  C   UNL     1       3.386   3.468  -4.860  1.00  0.00    -0.019 A 
ATOM     82  C   UNL     1       1.767   1.585  -5.626  1.00  0.00     0.061 C 
ATOM     83  C   UNL     1       4.098   4.170  -3.874  1.00  0.00     0.005 A 
ATOM     84  C   UNL     1       3.739   3.661  -6.198  1.00  0.00     0.044 A 
ATOM     85  N   UNL     1       2.884   1.482  -6.693  1.00  0.00    -0.329 N 
ATOM     86  C   UNL     1       0.502   2.156  -6.346  1.00  0.00     0.030 C 
ATOM     87  C   UNL     1       1.363   0.228  -5.059  1.00  0.00     0.030 C 
ATOM     88  C   UNL     1       5.088   5.085  -4.222  1.00  0.00     0.000 A 
ATOM     89  C   UNL     1       4.713   4.601  -6.551  1.00  0.00     0.014 A 
ATOM     90  C   UNL     1       3.322   2.691  -7.233  1.00  0.00     0.254 C 
ATOM     91  C   UNL     1      -0.847   2.040  -5.619  1.00  0.00     0.002 C 
ATOM     92  C   UNL     1       0.016   0.026  -4.359  1.00  0.00     0.002 C 
ATOM     93  C   UNL     1       5.380   5.318  -5.562  1.00  0.00     0.001 A 
ATOM     94  O   UNL     1       3.601   2.869  -8.412  1.00  0.00    -0.269 OA
ATOM     95  C   UNL     1      -1.153   0.651  -5.087  1.00  0.00     0.000 C 
BRANCH  85  96
ATOM     96  C   UNL     1       3.675   0.319  -7.174  1.00  0.00     0.086 C 
ATOM     97  C   UNL     1       4.426  -0.542  -6.160  1.00  0.00     0.025 C 
ATOM     98  C   UNL     1       3.031  -0.627  -8.170  1.00  0.00     0.025 C 
ATOM     99  C   UNL     1       4.801  -1.815  -6.916  1.00  0.00     0.002 C 
ATOM    100  C   UNL     1       3.929  -1.868  -8.162  1.00  0.00     0.002 C 
ENDBRANCH  85  96
ENDBRANCH  78  80
ENDBRANCH  77  78
ENDBRANCH  76  77
ENDBRANCH  75  76
ENDBRANCH  74  75
ENDBRANCH  73  74
ENDBRANCH   1  73
TORSDOF 21
