REMARK SMILES [NH3+][C@@H](CC(=O)OCCOCCOCCOC(=O)c1ccc(-c2c3nc(c(-c4cc(S(=O)(=O)[O-])ccc4F)c4ccc([nH]4)c(-c4cc(S(=O)(=O)[O-])ccc4F)c4nc(c(-c5cc(S(=O)(=O)[O-])ccc5F)c5ccc2[nH]5)C=C4)C=C3)cc1)c1ccc(C(F)(F)F)cc1F
REMARK SMILES IDX 10 1 9 2 8 3 7 4 6 5 4 6 5 7 3 8 2 9 1 10 81 14 82 15 90 16
REMARK SMILES IDX 83 17 89 18 91 19 84 20 85 21 86 22 87 23 88 24 11 25 12 26
REMARK SMILES IDX 13 27 14 28 15 29 16 30 17 31 18 32 19 33 80 34 20 35 79 36
REMARK SMILES IDX 21 37 22 38 23 39 73 40 24 41 78 42 72 43 74 44 25 45 77 46
REMARK SMILES IDX 71 47 70 48 26 50 58 51 38 52 57 53 39 54 42 55 56 56 75 57
REMARK SMILES IDX 40 58 41 59 55 61 76 62 43 63 27 64 28 65 36 66 29 67 35 68
REMARK SMILES IDX 37 69 34 70 30 71 31 72 32 73 33 74 59 75 60 76 68 77 61 78
REMARK SMILES IDX 67 79 69 80 66 81 62 82 63 83 64 84 65 85 44 86 45 87 53 88
REMARK SMILES IDX 46 89 52 90 54 91 51 92 47 93 48 94 49 95 50 96
REMARK H PARENT 1 11 1 12 1 13 74 49 42 60
REMARK Flexibility Score: inf
ROOT
ATOM      1  C   UNL     1      -1.436   1.803  -3.449  1.00  0.00     0.188 C 
ENDROOT
BRANCH   1   2
ATOM      2  O   UNL     1      -0.802   1.485  -4.687  1.00  0.00    -0.376 OA
BRANCH   2   3
ATOM      3  C   UNL     1       0.296   0.576  -4.667  1.00  0.00     0.202 C 
BRANCH   3   4
ATOM      4  C   UNL     1       1.522   1.063  -3.894  1.00  0.00     0.261 C 
BRANCH   4   5
ATOM      5  O   UNL     1       1.232   1.102  -2.485  1.00  0.00    -0.463 OA
BRANCH   5   6
ATOM      6  C   UNL     1       1.942   1.988  -1.747  1.00  0.00     0.312 C 
ATOM      7  O   UNL     1       2.934   2.580  -2.152  1.00  0.00    -0.252 OA
BRANCH   6   8
ATOM      8  C   UNL     1       1.279   2.278  -0.415  1.00  0.00     0.192 C 
BRANCH   8   9
ATOM      9  C   UNL     1       0.963   1.119   0.565  1.00  0.00     0.226 C 
BRANCH   9  10
ATOM     10  N   UNL     1       1.529  -0.180   0.206  1.00  0.00    -0.351 N 
ATOM     11  H   UNL     1       2.503  -0.062  -0.072  1.00  0.00     0.345 HD
ATOM     12  H   UNL     1       1.000  -0.578  -0.570  1.00  0.00     0.345 HD
ATOM     13  H   UNL     1       1.478  -0.807   1.009  1.00  0.00     0.345 HD
ENDBRANCH   9  10
BRANCH   9  14
ATOM     14  C   UNL     1      -0.510   1.069   1.004  1.00  0.00     0.045 A 
ATOM     15  C   UNL     1      -1.097   2.221   1.568  1.00  0.00     0.013 A 
ATOM     16  C   UNL     1      -1.323  -0.073   0.928  1.00  0.00     0.132 A 
ATOM     17  C   UNL     1      -2.433   2.231   2.003  1.00  0.00     0.014 A 
ATOM     18  C   UNL     1      -2.656  -0.070   1.357  1.00  0.00     0.052 A 
ATOM     19  F   UNL     1      -0.867  -1.212   0.387  1.00  0.00    -0.206 F 
ATOM     20  C   UNL     1      -3.234   1.086   1.891  1.00  0.00     0.058 A 
BRANCH  20  21
ATOM     21  C   UNL     1      -4.686   1.114   2.321  1.00  0.00     0.416 C 
ATOM     22  F   UNL     1      -4.823   1.462   3.628  1.00  0.00    -0.166 F 
ATOM     23  F   UNL     1      -5.422   2.012   1.612  1.00  0.00    -0.166 F 
ATOM     24  F   UNL     1      -5.314  -0.087   2.187  1.00  0.00    -0.166 F 
ENDBRANCH  20  21
ENDBRANCH   9  14
ENDBRANCH   8   9
ENDBRANCH   6   8
ENDBRANCH   5   6
ENDBRANCH   4   5
ENDBRANCH   3   4
ENDBRANCH   2   3
ENDBRANCH   1   2
BRANCH   1  25
ATOM     25  C   UNL     1      -1.661   0.666  -2.444  1.00  0.00     0.188 C 
BRANCH  25  26
ATOM     26  O   UNL     1      -1.978  -0.573  -3.064  1.00  0.00    -0.376 OA
BRANCH  26  27
ATOM     27  C   UNL     1      -3.171  -1.170  -2.567  1.00  0.00     0.202 C 
BRANCH  27  28
ATOM     28  C   UNL     1      -4.381  -0.605  -3.314  1.00  0.00     0.261 C 
BRANCH  28  29
ATOM     29  O   UNL     1      -4.625   0.787  -3.028  1.00  0.00    -0.460 OA
BRANCH  29  30
ATOM     30  C   UNL     1      -5.114   1.044  -1.797  1.00  0.00     0.338 C 
ATOM     31  O   UNL     1      -5.368   0.223  -0.925  1.00  0.00    -0.246 OA
BRANCH  30  32
ATOM     32  C   UNL     1      -5.175   2.498  -1.595  1.00  0.00     0.060 A 
ATOM     33  C   UNL     1      -4.123   3.130  -0.926  1.00  0.00     0.016 A 
ATOM     34  C   UNL     1      -6.315   3.213  -1.953  1.00  0.00     0.016 A 
ATOM     35  C   UNL     1      -4.233   4.465  -0.549  1.00  0.00     0.010 A 
ATOM     36  C   UNL     1      -6.409   4.565  -1.606  1.00  0.00     0.010 A 
ATOM     37  C   UNL     1      -5.384   5.192  -0.872  1.00  0.00    -0.014 A 
BRANCH  37  38
ATOM     38  C   UNL     1      -5.558   6.577  -0.364  1.00  0.00     0.031 A 
ATOM     39  C   UNL     1      -6.609   6.855   0.675  1.00  0.00     0.074 A 
ATOM     40  C   UNL     1      -4.770   7.574  -0.805  1.00  0.00     0.049 A 
ATOM     41  N   UNL     1      -7.060   8.002   1.113  1.00  0.00    -0.248 NA
ATOM     42  C   UNL     1      -7.233   5.680   1.302  1.00  0.00     0.031 C 
ATOM     43  C   UNL     1      -3.655   7.420  -1.740  1.00  0.00     0.029 A 
ATOM     44  N   UNL     1      -4.794   8.919  -0.532  1.00  0.00    -0.354 N 
ATOM     45  C   UNL     1      -8.053   7.691   2.037  1.00  0.00     0.074 A 
ATOM     46  C   UNL     1      -8.136   6.245   2.091  1.00  0.00     0.031 C 
ATOM     47  C   UNL     1      -3.107   8.624  -1.969  1.00  0.00     0.029 A 
ATOM     48  C   UNL     1      -3.880   9.642  -1.263  1.00  0.00     0.049 A 
ATOM     49  H   UNL     1      -5.405   9.327   0.123  1.00  0.00     0.167 HD
ATOM     50  C   UNL     1      -8.826   8.537   2.763  1.00  0.00     0.034 A 
ATOM     51  C   UNL     1      -3.724  10.973  -1.401  1.00  0.00     0.034 A 
ATOM     52  C   UNL     1      -8.716   9.976   2.704  1.00  0.00     0.049 A 
ATOM     53  C   UNL     1      -4.654  11.898  -0.659  1.00  0.00     0.074 A 
ATOM     54  C   UNL     1      -9.446  10.927   3.396  1.00  0.00     0.029 A 
ATOM     55  N   UNL     1      -7.819  10.673   1.904  1.00  0.00    -0.354 N 
ATOM     56  N   UNL     1      -5.641  11.599   0.154  1.00  0.00    -0.248 NA
ATOM     57  C   UNL     1      -4.457  13.338  -0.867  1.00  0.00     0.031 C 
ATOM     58  C   UNL     1      -9.035  12.196   2.967  1.00  0.00     0.029 A 
ATOM     59  C   UNL     1      -7.998  12.040   2.061  1.00  0.00     0.049 A 
ATOM     60  H   UNL     1      -7.152  10.257   1.311  1.00  0.00     0.167 HD
ATOM     61  C   UNL     1      -6.177  12.817   0.563  1.00  0.00     0.074 A 
ATOM     62  C   UNL     1      -5.388  13.852  -0.076  1.00  0.00     0.031 C 
ATOM     63  C   UNL     1      -7.224  13.060   1.392  1.00  0.00     0.034 A 
BRANCH  50  64
ATOM     64  C   UNL     1      -9.909   7.923   3.617  1.00  0.00     0.023 A 
ATOM     65  C   UNL     1      -9.620   7.112   4.728  1.00  0.00     0.031 A 
ATOM     66  C   UNL     1     -11.261   8.130   3.285  1.00  0.00     0.131 A 
ATOM     67  C   UNL     1     -10.665   6.486   5.426  1.00  0.00     0.055 A 
ATOM     68  C   UNL     1     -12.298   7.562   4.028  1.00  0.00     0.041 A 
ATOM     69  F   UNL     1     -11.597   8.876   2.221  1.00  0.00    -0.206 F 
ATOM     70  C   UNL     1     -12.002   6.723   5.097  1.00  0.00     0.022 A 
BRANCH  67  71
ATOM     71  S   UNL     1     -10.251   5.248   6.686  1.00  0.00     0.124 S 
ATOM     72  O   UNL     1      -9.455   4.296   5.915  1.00  0.00    -0.237 OA
ATOM     73  O   UNL     1      -9.525   6.036   7.675  1.00  0.00    -0.237 OA
ATOM     74  O   UNL     1     -11.555   4.750   7.120  1.00  0.00    -0.744 OA
ENDBRANCH  67  71
ENDBRANCH  50  64
BRANCH  51  75
ATOM     75  C   UNL     1      -2.709  11.513  -2.349  1.00  0.00     0.023 A 
ATOM     76  C   UNL     1      -1.615  12.265  -1.897  1.00  0.00     0.031 A 
ATOM     77  C   UNL     1      -2.841  11.304  -3.734  1.00  0.00     0.131 A 
ATOM     78  C   UNL     1      -0.709  12.804  -2.824  1.00  0.00     0.055 A 
ATOM     79  C   UNL     1      -1.911  11.800  -4.648  1.00  0.00     0.041 A 
ATOM     80  F   UNL     1      -3.872  10.593  -4.218  1.00  0.00    -0.206 F 
ATOM     81  C   UNL     1      -0.842  12.564  -4.194  1.00  0.00     0.022 A 
BRANCH  78  82
ATOM     82  S   UNL     1       0.622  13.877  -2.217  1.00  0.00     0.124 S 
ATOM     83  O   UNL     1      -0.130  14.960  -1.594  1.00  0.00    -0.237 OA
ATOM     84  O   UNL     1       1.338  12.987  -1.309  1.00  0.00    -0.237 OA
ATOM     85  O   UNL     1       1.348  14.238  -3.433  1.00  0.00    -0.744 OA
ENDBRANCH  78  82
ENDBRANCH  51  75
BRANCH  63  86
ATOM     86  C   UNL     1      -7.548  14.508   1.668  1.00  0.00     0.023 A 
ATOM     87  C   UNL     1      -8.056  15.353   0.665  1.00  0.00     0.031 A 
ATOM     88  C   UNL     1      -7.311  15.057   2.940  1.00  0.00     0.131 A 
ATOM     89  C   UNL     1      -8.254  16.716   0.935  1.00  0.00     0.055 A 
ATOM     90  C   UNL     1      -7.564  16.401   3.219  1.00  0.00     0.041 A 
ATOM     91  F   UNL     1      -6.824  14.296   3.933  1.00  0.00    -0.206 F 
ATOM     92  C   UNL     1      -8.024  17.242   2.209  1.00  0.00     0.022 A 
BRANCH  89  93
ATOM     93  S   UNL     1      -8.717  17.817  -0.431  1.00  0.00     0.124 S 
ATOM     94  O   UNL     1      -7.622  17.609  -1.373  1.00  0.00    -0.237 OA
ATOM     95  O   UNL     1     -10.015  17.284  -0.833  1.00  0.00    -0.237 OA
ATOM     96  O   UNL     1      -8.757  19.139   0.192  1.00  0.00    -0.744 OA
ENDBRANCH  89  93
ENDBRANCH  63  86
ENDBRANCH  37  38
ENDBRANCH  30  32
ENDBRANCH  29  30
ENDBRANCH  28  29
ENDBRANCH  27  28
ENDBRANCH  26  27
ENDBRANCH  25  26
ENDBRANCH   1  25
TORSDOF 24
