REMARK SMILES CC1=C[C@@H]([C@@H]2N=N[C@H](S)N2/N=C/c2ccc(C(=O)OCCOCCOCCOC(=O)c3ccc(-c4c5nc(c(-c6cc(S(=O)(=O)[O-])ccc6F)c6ccc([nH]6)c(-c6cc(S(=O)(=O)[O-])ccc6F)c6nc(c(-c7cc(S(=O)(=O)[O-])ccc7F)c7ccc4[nH]7)C=C6)C=C5)cc3)cc2)N=N1
REMARK SMILES IDX 23 1 22 2 21 3 20 4 19 5 17 6 18 7 16 8 13 9 14 10 95 11
REMARK SMILES IDX 15 12 94 13 12 14 11 15 10 16 5 17 6 18 7 19 8 20 4 21 1 22
REMARK SMILES IDX 2 23 3 24 97 25 96 26 9 27 24 29 25 30 26 31 27 32 28 33
REMARK SMILES IDX 29 34 30 35 31 36 32 37 93 38 33 39 92 40 34 41 35 42 36 43
REMARK SMILES IDX 86 44 37 45 91 46 85 47 87 48 38 49 90 50 84 51 83 52 39 54
REMARK SMILES IDX 71 55 51 56 70 57 52 58 55 59 69 60 88 61 53 62 54 63 68 65
REMARK SMILES IDX 89 66 56 67 40 68 41 69 49 70 42 71 48 72 50 73 47 74 43 75
REMARK SMILES IDX 44 76 45 77 46 78 72 79 73 80 81 81 74 82 80 83 82 84 79 85
REMARK SMILES IDX 75 86 76 87 77 88 78 89 57 90 58 91 66 92 59 93 65 94 67 95
REMARK SMILES IDX 64 96 60 97 61 98 62 99 63 100
REMARK H PARENT 9 28 87 53 55 64
REMARK Flexibility Score: inf
ROOT
ATOM      1  C   UNL     1      -5.712  10.302  -6.352  1.00  0.00     0.188 C 
ENDROOT
BRANCH   1   2
ATOM      2  O   UNL     1      -7.104  10.592  -6.361  1.00  0.00    -0.376 OA
BRANCH   2   3
ATOM      3  C   UNL     1      -7.844  10.549  -5.150  1.00  0.00     0.202 C 
BRANCH   3   4
ATOM      4  C   UNL     1      -7.852   9.246  -4.335  1.00  0.00     0.261 C 
BRANCH   4   5
ATOM      5  O   UNL     1      -6.546   8.724  -4.036  1.00  0.00    -0.460 OA
BRANCH   5   6
ATOM      6  C   UNL     1      -6.268   7.505  -4.554  1.00  0.00     0.338 C 
ATOM      7  O   UNL     1      -7.034   6.762  -5.145  1.00  0.00    -0.246 OA
BRANCH   6   8
ATOM      8  C   UNL     1      -4.816   7.229  -4.461  1.00  0.00     0.060 A 
ATOM      9  C   UNL     1      -2.102   6.604  -4.405  1.00  0.00    -0.005 A 
ATOM     10  C   UNL     1      -2.827   6.415  -5.584  1.00  0.00     0.010 A 
ATOM     11  C   UNL     1      -2.712   7.139  -3.266  1.00  0.00     0.010 A 
ATOM     12  C   UNL     1      -4.189   6.708  -5.602  1.00  0.00     0.016 A 
ATOM     13  C   UNL     1      -4.072   7.472  -3.299  1.00  0.00     0.016 A 
BRANCH   9  14
ATOM     14  C   UNL     1      -0.696   6.163  -4.392  1.00  0.00     0.141 C 
ATOM     15  N   UNL     1      -0.186   5.597  -3.345  1.00  0.00    -0.180 NA
BRANCH  15  16
ATOM     16  N   UNL     1       1.097   5.130  -3.429  1.00  0.00    -0.233 NA
ATOM     17  C   UNL     1       1.492   4.113  -2.438  1.00  0.00     0.274 C 
ATOM     18  N   UNL     1       2.405   3.141  -3.092  1.00  0.00    -0.161 NA
ATOM     19  N   UNL     1       2.528   3.410  -4.307  1.00  0.00    -0.153 NA
ATOM     20  C   UNL     1       1.737   4.609  -4.650  1.00  0.00     0.298 C 
BRANCH  17  21
ATOM     21  C   UNL     1       2.166   4.739  -1.192  1.00  0.00     0.201 C 
ATOM     22  C   UNL     1       5.801   5.446  -1.200  1.00  0.00     0.068 C 
ATOM     23  C   UNL     1       4.391   5.013  -1.036  1.00  0.00     0.058 C 
ATOM     24  C   UNL     1       3.312   5.642  -1.496  1.00  0.00     0.031 C 
ATOM     25  N   UNL     1       4.080   3.857  -0.367  1.00  0.00    -0.160 NA
ATOM     26  N   UNL     1       2.828   3.671  -0.378  1.00  0.00    -0.177 NA
ENDBRANCH  17  21
BRANCH  20  27
ATOM     27  S   UNL     1       2.729   5.927  -5.446  1.00  0.00    -0.128 SA
ATOM     28  H   UNL     1       3.689   6.355  -4.582  1.00  0.00     0.106 HD
ENDBRANCH  20  27
ENDBRANCH  15  16
ENDBRANCH   9  14
ENDBRANCH   6   8
ENDBRANCH   5   6
ENDBRANCH   4   5
ENDBRANCH   3   4
ENDBRANCH   2   3
ENDBRANCH   1   2
BRANCH   1  29
ATOM     29  C   UNL     1      -4.790  10.778  -5.207  1.00  0.00     0.188 C 
BRANCH  29  30
ATOM     30  O   UNL     1      -5.434  11.409  -4.109  1.00  0.00    -0.376 OA
BRANCH  30  31
ATOM     31  C   UNL     1      -5.034  12.754  -3.860  1.00  0.00     0.202 C 
BRANCH  31  32
ATOM     32  C   UNL     1      -5.632  13.764  -4.837  1.00  0.00     0.261 C 
BRANCH  32  33
ATOM     33  O   UNL     1      -5.351  13.495  -6.208  1.00  0.00    -0.460 OA
BRANCH  33  34
ATOM     34  C   UNL     1      -4.058  13.607  -6.583  1.00  0.00     0.338 C 
ATOM     35  O   UNL     1      -3.089  13.677  -5.851  1.00  0.00    -0.246 OA
BRANCH  34  36
ATOM     36  C   UNL     1      -4.003  13.689  -8.048  1.00  0.00     0.060 A 
ATOM     37  C   UNL     1      -2.752  13.578  -8.661  1.00  0.00     0.016 A 
ATOM     38  C   UNL     1      -5.141  14.095  -8.760  1.00  0.00     0.016 A 
ATOM     39  C   UNL     1      -2.603  14.042  -9.954  1.00  0.00     0.010 A 
ATOM     40  C   UNL     1      -4.987  14.573 -10.041  1.00  0.00     0.010 A 
ATOM     41  C   UNL     1      -3.706  14.611 -10.595  1.00  0.00    -0.014 A 
BRANCH  41  42
ATOM     42  C   UNL     1      -3.484  15.368 -11.813  1.00  0.00     0.031 A 
ATOM     43  C   UNL     1      -3.512  14.617 -13.082  1.00  0.00     0.074 A 
ATOM     44  C   UNL     1      -3.444  16.716 -11.772  1.00  0.00     0.049 A 
ATOM     45  N   UNL     1      -2.612  14.589 -14.008  1.00  0.00    -0.248 NA
ATOM     46  C   UNL     1      -4.657  13.729 -13.331  1.00  0.00     0.031 C 
ATOM     47  C   UNL     1      -3.733  17.561 -10.607  1.00  0.00     0.029 A 
ATOM     48  N   UNL     1      -3.288  17.615 -12.786  1.00  0.00    -0.354 N 
ATOM     49  C   UNL     1      -3.170  13.864 -15.055  1.00  0.00     0.074 A 
ATOM     50  C   UNL     1      -4.343  13.225 -14.523  1.00  0.00     0.031 C 
ATOM     51  C   UNL     1      -3.955  18.823 -11.025  1.00  0.00     0.029 A 
ATOM     52  C   UNL     1      -3.720  18.894 -12.458  1.00  0.00     0.049 A 
ATOM     53  H   UNL     1      -2.906  17.381 -13.662  1.00  0.00     0.167 HD
ATOM     54  C   UNL     1      -2.749  14.034 -16.336  1.00  0.00     0.034 A 
ATOM     55  C   UNL     1      -3.966  19.924 -13.305  1.00  0.00     0.034 A 
ATOM     56  C   UNL     1      -1.430  14.623 -16.384  1.00  0.00     0.049 A 
ATOM     57  C   UNL     1      -3.243  19.659 -14.570  1.00  0.00     0.074 A 
ATOM     58  C   UNL     1      -0.200  14.278 -15.855  1.00  0.00     0.029 A 
ATOM     59  N   UNL     1      -1.301  15.928 -16.800  1.00  0.00    -0.354 N 
ATOM     60  N   UNL     1      -1.943  19.648 -14.677  1.00  0.00    -0.248 NA
ATOM     61  C   UNL     1      -3.954  19.009 -15.661  1.00  0.00     0.031 C 
ATOM     62  C   UNL     1       0.445  15.514 -15.561  1.00  0.00     0.029 A 
ATOM     63  C   UNL     1      -0.408  16.544 -15.958  1.00  0.00     0.049 A 
ATOM     64  H   UNL     1      -1.764  16.345 -17.562  1.00  0.00     0.167 HD
ATOM     65  C   UNL     1      -1.666  18.650 -15.597  1.00  0.00     0.074 A 
ATOM     66  C   UNL     1      -2.935  18.393 -16.266  1.00  0.00     0.031 C 
ATOM     67  C   UNL     1      -0.510  17.926 -15.527  1.00  0.00     0.034 A 
BRANCH  54  68
ATOM     68  C   UNL     1      -3.661  13.978 -17.543  1.00  0.00     0.023 A 
ATOM     69  C   UNL     1      -3.067  14.173 -18.804  1.00  0.00     0.031 A 
ATOM     70  C   UNL     1      -5.074  14.038 -17.518  1.00  0.00     0.131 A 
ATOM     71  C   UNL     1      -3.841  14.521 -19.923  1.00  0.00     0.055 A 
ATOM     72  C   UNL     1      -5.846  14.297 -18.654  1.00  0.00     0.041 A 
ATOM     73  F   UNL     1      -5.786  13.947 -16.389  1.00  0.00    -0.206 F 
ATOM     74  C   UNL     1      -5.230  14.578 -19.860  1.00  0.00     0.022 A 
BRANCH  71  75
ATOM     75  S   UNL     1      -2.980  15.119 -21.400  1.00  0.00     0.124 S 
ATOM     76  O   UNL     1      -2.070  16.106 -20.828  1.00  0.00    -0.237 OA
ATOM     77  O   UNL     1      -2.371  13.894 -21.905  1.00  0.00    -0.237 OA
ATOM     78  O   UNL     1      -4.058  15.667 -22.219  1.00  0.00    -0.744 OA
ENDBRANCH  71  75
ENDBRANCH  54  68
BRANCH  55  79
ATOM     79  C   UNL     1      -5.002  20.974 -13.136  1.00  0.00     0.023 A 
ATOM     80  C   UNL     1      -4.930  22.218 -13.789  1.00  0.00     0.031 A 
ATOM     81  C   UNL     1      -6.208  20.682 -12.456  1.00  0.00     0.131 A 
ATOM     82  C   UNL     1      -6.019  23.116 -13.724  1.00  0.00     0.055 A 
ATOM     83  C   UNL     1      -7.269  21.584 -12.368  1.00  0.00     0.041 A 
ATOM     84  F   UNL     1      -6.429  19.473 -11.915  1.00  0.00    -0.206 F 
ATOM     85  C   UNL     1      -7.179  22.808 -13.008  1.00  0.00     0.022 A 
BRANCH  82  86
ATOM     86  S   UNL     1      -5.980  24.665 -14.677  1.00  0.00     0.124 S 
ATOM     87  O   UNL     1      -4.972  25.442 -13.966  1.00  0.00    -0.237 OA
ATOM     88  O   UNL     1      -5.621  24.199 -16.012  1.00  0.00    -0.237 OA
ATOM     89  O   UNL     1      -7.348  25.172 -14.556  1.00  0.00    -0.744 OA
ENDBRANCH  82  86
ENDBRANCH  55  79
BRANCH  67  90
ATOM     90  C   UNL     1       0.641  18.476 -14.715  1.00  0.00     0.023 A 
ATOM     91  C   UNL     1       0.571  18.785 -13.339  1.00  0.00     0.031 A 
ATOM     92  C   UNL     1       1.897  18.572 -15.343  1.00  0.00     0.131 A 
ATOM     93  C   UNL     1       1.730  19.186 -12.648  1.00  0.00     0.055 A 
ATOM     94  C   UNL     1       3.045  18.955 -14.651  1.00  0.00     0.041 A 
ATOM     95  F   UNL     1       2.035  18.256 -16.642  1.00  0.00    -0.206 F 
ATOM     96  C   UNL     1       2.964  19.270 -13.300  1.00  0.00     0.022 A 
BRANCH  93  97
ATOM     97  S   UNL     1       1.645  19.608 -10.879  1.00  0.00     0.124 S 
ATOM     98  O   UNL     1       0.486  20.489 -10.792  1.00  0.00    -0.237 OA
ATOM     99  O   UNL     1       1.502  18.298 -10.251  1.00  0.00    -0.237 OA
ATOM    100  O   UNL     1       2.929  20.265 -10.626  1.00  0.00    -0.744 OA
ENDBRANCH  93  97
ENDBRANCH  67  90
ENDBRANCH  41  42
ENDBRANCH  34  36
ENDBRANCH  33  34
ENDBRANCH  32  33
ENDBRANCH  31  32
ENDBRANCH  30  31
ENDBRANCH  29  30
ENDBRANCH   1  29
TORSDOF 24
