REMARK SMILES C[C@@H](C(=O)OCCOCCOCCOC(=O)c1ccc(-c2c3nc(c(-c4cc(S(=O)(=O)[O-])ccc4F)c4ccc([nH]4)c(-c4cc(S(=O)(=O)[O-])ccc4F)c4nc(c(-c5cc(S(=O)(=O)[O-])ccc5F)c5ccc2[nH]5)C=C4)C=C3)cc1)c1ccc(-c2ccn(C(F)F)c(=O)c2)cc1
REMARK SMILES IDX 9 1 8 2 7 3 6 4 5 5 3 6 4 7 2 8 1 9 80 10 81 11 95 12 82 13
REMARK SMILES IDX 94 14 83 15 84 16 85 17 93 18 86 19 91 20 87 21 92 22 88 23
REMARK SMILES IDX 89 24 90 25 10 26 11 27 12 28 13 29 14 30 15 31 16 32 17 33
REMARK SMILES IDX 18 34 79 35 19 36 78 37 20 38 21 39 22 40 72 41 23 42 77 43
REMARK SMILES IDX 71 44 73 45 24 46 76 47 70 48 69 49 25 51 57 52 37 53 56 54
REMARK SMILES IDX 38 55 41 56 55 57 74 58 39 59 40 60 54 62 75 63 42 64 26 65
REMARK SMILES IDX 27 66 35 67 28 68 34 69 36 70 33 71 29 72 30 73 31 74 32 75
REMARK SMILES IDX 58 76 59 77 67 78 60 79 66 80 68 81 65 82 61 83 62 84 63 85
REMARK SMILES IDX 64 86 43 87 44 88 52 89 45 90 51 91 53 92 50 93 46 94 47 95
REMARK SMILES IDX 48 96 49 97
REMARK H PARENT 73 50 41 61
REMARK Flexibility Score: inf
ROOT
ATOM      1  C   UNL     1       0.195   1.035   3.556  1.00  0.00     0.188 C 
ENDROOT
BRANCH   1   2
ATOM      2  O   UNL     1       0.853   0.782   4.794  1.00  0.00    -0.376 OA
BRANCH   2   3
ATOM      3  C   UNL     1       2.143   0.181   4.773  1.00  0.00     0.202 C 
BRANCH   3   4
ATOM      4  C   UNL     1       2.353  -1.098   3.945  1.00  0.00     0.261 C 
BRANCH   4   5
ATOM      5  O   UNL     1       1.912  -1.017   2.573  1.00  0.00    -0.463 OA
BRANCH   5   6
ATOM      6  C   UNL     1       1.151  -2.054   2.129  1.00  0.00     0.313 C 
ATOM      7  O   UNL     1       0.911  -3.056   2.798  1.00  0.00    -0.252 OA
BRANCH   6   8
ATOM      8  C   UNL     1       0.583  -1.867   0.713  1.00  0.00     0.126 C 
ATOM      9  C   UNL     1       1.345  -0.920  -0.225  1.00  0.00     0.025 C 
BRANCH   8  10
ATOM     10  C   UNL     1      -0.935  -1.702   0.738  1.00  0.00    -0.034 A 
ATOM     11  C   UNL     1      -1.601  -0.479   0.578  1.00  0.00     0.005 A 
ATOM     12  C   UNL     1      -1.721  -2.841   0.975  1.00  0.00     0.005 A 
ATOM     13  C   UNL     1      -3.003  -0.410   0.635  1.00  0.00     0.009 A 
ATOM     14  C   UNL     1      -3.118  -2.771   1.021  1.00  0.00     0.009 A 
ATOM     15  C   UNL     1      -3.783  -1.555   0.842  1.00  0.00    -0.018 A 
BRANCH  15  16
ATOM     16  C   UNL     1      -5.269  -1.516   0.828  1.00  0.00    -0.011 A 
ATOM     17  C   UNL     1      -6.095  -2.303   1.731  1.00  0.00     0.027 A 
ATOM     18  C   UNL     1      -5.889  -0.791  -0.121  1.00  0.00     0.080 A 
ATOM     19  C   UNL     1      -7.423  -2.358   1.576  1.00  0.00     0.095 A 
ATOM     20  C   UNL     1      -7.370  -0.813  -0.285  1.00  0.00     0.255 A 
ATOM     21  N   UNL     1      -8.059  -1.633   0.587  1.00  0.00    -0.258 N 
ATOM     22  O   UNL     1      -7.854  -0.157  -1.203  1.00  0.00    -0.269 OA
BRANCH  21  23
ATOM     23  C   UNL     1      -9.489  -1.727   0.415  1.00  0.00     0.451 C 
ATOM     24  F   UNL     1     -10.069  -0.509   0.541  1.00  0.00    -0.185 F 
ATOM     25  F   UNL     1      -9.787  -2.201  -0.822  1.00  0.00    -0.185 F 
ENDBRANCH  21  23
ENDBRANCH  15  16
ENDBRANCH   8  10
ENDBRANCH   6   8
ENDBRANCH   5   6
ENDBRANCH   4   5
ENDBRANCH   3   4
ENDBRANCH   2   3
ENDBRANCH   1   2
BRANCH   1  26
ATOM     26  C   UNL     1       1.000   1.668   2.406  1.00  0.00     0.188 C 
BRANCH  26  27
ATOM     27  O   UNL     1       2.350   1.940   2.722  1.00  0.00    -0.376 OA
BRANCH  27  28
ATOM     28  C   UNL     1       2.771   3.291   2.684  1.00  0.00     0.202 C 
BRANCH  28  29
ATOM     29  C   UNL     1       2.050   4.299   3.595  1.00  0.00     0.261 C 
BRANCH  29  30
ATOM     30  O   UNL     1       0.613   4.258   3.591  1.00  0.00    -0.460 OA
BRANCH  30  31
ATOM     31  C   UNL     1      -0.011   4.791   2.510  1.00  0.00     0.338 C 
ATOM     32  O   UNL     1       0.527   5.296   1.545  1.00  0.00    -0.246 OA
BRANCH  31  33
ATOM     33  C   UNL     1      -1.450   4.436   2.594  1.00  0.00     0.060 A 
ATOM     34  C   UNL     1      -2.020   3.693   1.552  1.00  0.00     0.016 A 
ATOM     35  C   UNL     1      -2.231   4.818   3.688  1.00  0.00     0.016 A 
ATOM     36  C   UNL     1      -3.372   3.338   1.600  1.00  0.00     0.010 A 
ATOM     37  C   UNL     1      -3.591   4.476   3.724  1.00  0.00     0.010 A 
ATOM     38  C   UNL     1      -4.173   3.741   2.676  1.00  0.00    -0.014 A 
BRANCH  38  39
ATOM     39  C   UNL     1      -5.649   3.560   2.607  1.00  0.00     0.031 A 
ATOM     40  C   UNL     1      -6.467   4.649   1.970  1.00  0.00     0.074 A 
ATOM     41  C   UNL     1      -6.254   2.458   3.090  1.00  0.00     0.049 A 
ATOM     42  N   UNL     1      -7.764   4.754   1.846  1.00  0.00    -0.248 NA
ATOM     43  C   UNL     1      -5.711   5.774   1.400  1.00  0.00     0.031 C 
ATOM     44  C   UNL     1      -5.568   1.309   3.675  1.00  0.00     0.029 A 
ATOM     45  N   UNL     1      -7.587   2.128   3.171  1.00  0.00    -0.354 N 
ATOM     46  C   UNL     1      -7.983   5.958   1.185  1.00  0.00     0.074 A 
ATOM     47  C   UNL     1      -6.684   6.556   0.960  1.00  0.00     0.031 C 
ATOM     48  C   UNL     1      -6.487   0.410   4.073  1.00  0.00     0.029 A 
ATOM     49  C   UNL     1      -7.829   0.930   3.806  1.00  0.00     0.049 A 
ATOM     50  H   UNL     1      -8.304   2.698   2.809  1.00  0.00     0.167 HD
ATOM     51  C   UNL     1      -9.159   6.518   0.807  1.00  0.00     0.034 A 
ATOM     52  C   UNL     1      -8.996   0.336   4.145  1.00  0.00     0.034 A 
ATOM     53  C   UNL     1     -10.450   5.932   1.069  1.00  0.00     0.049 A 
ATOM     54  C   UNL     1     -10.299   1.019   3.772  1.00  0.00     0.074 A 
ATOM     55  C   UNL     1     -11.703   6.435   0.765  1.00  0.00     0.029 A 
ATOM     56  N   UNL     1     -10.657   4.715   1.707  1.00  0.00    -0.354 N 
ATOM     57  N   UNL     1     -10.490   2.151   3.132  1.00  0.00    -0.248 NA
ATOM     58  C   UNL     1     -11.543   0.337   4.155  1.00  0.00     0.031 C 
ATOM     59  C   UNL     1     -12.665   5.570   1.296  1.00  0.00     0.029 A 
ATOM     60  C   UNL     1     -12.016   4.478   1.849  1.00  0.00     0.049 A 
ATOM     61  H   UNL     1      -9.943   4.111   2.014  1.00  0.00     0.167 HD
ATOM     62  C   UNL     1     -11.872   2.287   3.001  1.00  0.00     0.074 A 
ATOM     63  C   UNL     1     -12.463   1.111   3.601  1.00  0.00     0.031 C 
ATOM     64  C   UNL     1     -12.593   3.298   2.449  1.00  0.00     0.034 A 
BRANCH  51  65
ATOM     65  C   UNL     1      -9.091   7.875   0.150  1.00  0.00     0.023 A 
ATOM     66  C   UNL     1      -8.462   8.069  -1.092  1.00  0.00     0.031 A 
ATOM     67  C   UNL     1      -9.620   9.002   0.805  1.00  0.00     0.131 A 
ATOM     68  C   UNL     1      -8.308   9.368  -1.601  1.00  0.00     0.055 A 
ATOM     69  C   UNL     1      -9.542  10.280   0.250  1.00  0.00     0.041 A 
ATOM     70  F   UNL     1     -10.204   8.884   2.008  1.00  0.00    -0.206 F 
ATOM     71  C   UNL     1      -8.868  10.471  -0.952  1.00  0.00     0.022 A 
BRANCH  68  72
ATOM     72  S   UNL     1      -7.223   9.616  -3.033  1.00  0.00     0.124 S 
ATOM     73  O   UNL     1      -5.958   9.073  -2.543  1.00  0.00    -0.237 OA
ATOM     74  O   UNL     1      -7.891   8.843  -4.074  1.00  0.00    -0.237 OA
ATOM     75  O   UNL     1      -7.236  11.064  -3.227  1.00  0.00    -0.744 OA
ENDBRANCH  68  72
ENDBRANCH  51  65
BRANCH  52  76
ATOM     76  C   UNL     1      -9.012  -0.977   4.865  1.00  0.00     0.023 A 
ATOM     77  C   UNL     1      -9.671  -2.085   4.313  1.00  0.00     0.031 A 
ATOM     78  C   UNL     1      -8.413  -1.153   6.123  1.00  0.00     0.131 A 
ATOM     79  C   UNL     1      -9.723  -3.308   4.998  1.00  0.00     0.055 A 
ATOM     80  C   UNL     1      -8.435  -2.383   6.792  1.00  0.00     0.041 A 
ATOM     81  F   UNL     1      -7.780  -0.134   6.724  1.00  0.00    -0.206 F 
ATOM     82  C   UNL     1      -9.098  -3.471   6.231  1.00  0.00     0.022 A 
BRANCH  79  83
ATOM     83  S   UNL     1     -10.628  -4.673   4.225  1.00  0.00     0.124 S 
ATOM     84  O   UNL     1     -11.968  -4.113   4.111  1.00  0.00    -0.237 OA
ATOM     85  O   UNL     1      -9.891  -4.822   2.972  1.00  0.00    -0.237 OA
ATOM     86  O   UNL     1     -10.475  -5.768   5.179  1.00  0.00    -0.744 OA
ENDBRANCH  79  83
ENDBRANCH  52  76
BRANCH  64  87
ATOM     87  C   UNL     1     -14.100   3.159   2.442  1.00  0.00     0.023 A 
ATOM     88  C   UNL     1     -14.846   3.117   3.634  1.00  0.00     0.031 A 
ATOM     89  C   UNL     1     -14.801   3.072   1.225  1.00  0.00     0.131 A 
ATOM     90  C   UNL     1     -16.236   2.928   3.586  1.00  0.00     0.055 A 
ATOM     91  C   UNL     1     -16.192   2.955   1.183  1.00  0.00     0.041 A 
ATOM     92  F   UNL     1     -14.147   3.109   0.054  1.00  0.00    -0.206 F 
ATOM     93  C   UNL     1     -16.916   2.868   2.368  1.00  0.00     0.022 A 
BRANCH  90  94
ATOM     94  S   UNL     1     -17.133   2.661   5.140  1.00  0.00     0.124 S 
ATOM     95  O   UNL     1     -16.462   1.483   5.679  1.00  0.00    -0.237 OA
ATOM     96  O   UNL     1     -16.899   3.911   5.856  1.00  0.00    -0.237 OA
ATOM     97  O   UNL     1     -18.513   2.446   4.708  1.00  0.00    -0.744 OA
ENDBRANCH  90  94
ENDBRANCH  64  87
ENDBRANCH  38  39
ENDBRANCH  31  33
ENDBRANCH  30  31
ENDBRANCH  29  30
ENDBRANCH  28  29
ENDBRANCH  27  28
ENDBRANCH  26  27
ENDBRANCH   1  26
TORSDOF 23
