REMARK SMILES C=CCN(CC(=O)OCCOCCOCCOC(=O)c1ccc(-c2c3nc(c(-c4cc(S(=O)(=O)[O-])ccc4F)c4ccc([nH]4)c(-c4cc(S(=O)(=O)[O-])ccc4F)c4nc(c(-c5cc(S(=O)(=O)[O-])ccc5F)c5ccc2[nH]5)C=C4)C=C3)cc1)C(=O)c1ccc(C[NH3+])cc1
REMARK SMILES IDX 12 1 11 2 10 3 9 4 8 5 6 6 7 7 5 8 4 9 3 10 2 11 1 12 83 13
REMARK SMILES IDX 84 14 85 15 86 16 92 17 87 18 91 19 88 20 89 21 90 22 13 26
REMARK SMILES IDX 14 27 15 28 16 29 17 30 18 31 19 32 20 33 21 34 82 35 22 36
REMARK SMILES IDX 81 37 23 38 24 39 25 40 75 41 26 42 80 43 74 44 76 45 27 46
REMARK SMILES IDX 79 47 73 48 72 49 28 51 60 52 40 53 59 54 41 55 44 56 58 57
REMARK SMILES IDX 77 58 42 59 43 60 57 62 78 63 45 64 29 65 30 66 38 67 31 68
REMARK SMILES IDX 37 69 39 70 36 71 32 72 33 73 34 74 35 75 61 76 62 77 70 78
REMARK SMILES IDX 63 79 69 80 71 81 68 82 64 83 65 84 66 85 67 86 46 87 47 88
REMARK SMILES IDX 55 89 48 90 54 91 56 92 53 93 49 94 50 95 51 96 52 97
REMARK H PARENT 90 23 90 24 90 25 76 50 44 61
REMARK Flexibility Score: inf
ROOT
ATOM      1  C   UNL     1      -5.383   1.059   3.843  1.00  0.00     0.188 C 
ENDROOT
BRANCH   1   2
ATOM      2  O   UNL     1      -6.761   1.006   3.545  1.00  0.00    -0.376 OA
BRANCH   2   3
ATOM      3  C   UNL     1      -7.063   0.797   2.174  1.00  0.00     0.202 C 
BRANCH   3   4
ATOM      4  C   UNL     1      -6.360   1.692   1.104  1.00  0.00     0.261 C 
BRANCH   4   5
ATOM      5  O   UNL     1      -4.892   1.630   0.966  1.00  0.00    -0.462 OA
BRANCH   5   6
ATOM      6  C   UNL     1      -4.147   2.760   1.151  1.00  0.00     0.325 C 
ATOM      7  O   UNL     1      -4.673   3.869   1.246  1.00  0.00    -0.250 OA
BRANCH   6   8
ATOM      8  C   UNL     1      -2.550   2.625   1.252  1.00  0.00     0.242 C 
BRANCH   8   9
ATOM      9  N   UNL     1      -1.641   1.422   1.317  1.00  0.00    -0.324 N 
BRANCH   9  10
ATOM     10  C   UNL     1      -1.179   0.940   0.009  1.00  0.00     0.147 C 
BRANCH  10  11
ATOM     11  C   UNL     1       0.304   1.179  -0.169  1.00  0.00    -0.014 C 
ATOM     12  C   UNL     1       1.181   0.190  -0.408  1.00  0.00     0.006 C 
ENDBRANCH  10  11
ENDBRANCH   9  10
BRANCH   9  13
ATOM     13  C   UNL     1      -1.019   0.750   2.423  1.00  0.00     0.254 C 
ATOM     14  O   UNL     1      -0.242  -0.193   2.249  1.00  0.00    -0.269 OA
BRANCH  13  15
ATOM     15  C   UNL     1      -1.224   1.046   3.866  1.00  0.00     0.040 A 
ATOM     16  C   UNL     1      -0.040   0.472   5.079  1.00  0.00     0.014 A 
ATOM     17  C   UNL     1      -2.659   1.935   4.338  1.00  0.00     0.014 A 
ATOM     18  C   UNL     1      -0.369   0.825   6.841  1.00  0.00     0.010 A 
ATOM     19  C   UNL     1      -3.139   2.304   5.958  1.00  0.00     0.010 A 
ATOM     20  C   UNL     1      -2.072   1.806   7.306  1.00  0.00     0.006 A 
BRANCH  20  21
ATOM     21  C   UNL     1      -2.973   2.225   8.595  1.00  0.00     0.295 C 
BRANCH  21  22
ATOM     22  N   UNL     1      -3.966   1.231   9.042  1.00  0.00    -0.354 N 
ATOM     23  H   UNL     1      -4.657   1.087   8.307  1.00  0.00     0.344 HD
ATOM     24  H   UNL     1      -4.431   1.571   9.884  1.00  0.00     0.344 HD
ATOM     25  H   UNL     1      -3.496   0.349   9.245  1.00  0.00     0.344 HD
ENDBRANCH  21  22
ENDBRANCH  20  21
ENDBRANCH  13  15
ENDBRANCH   9  13
ENDBRANCH   8   9
ENDBRANCH   6   8
ENDBRANCH   5   6
ENDBRANCH   4   5
ENDBRANCH   3   4
ENDBRANCH   2   3
ENDBRANCH   1   2
BRANCH   1  26
ATOM     26  C   UNL     1      -4.476   0.048   3.113  1.00  0.00     0.188 C 
BRANCH  26  27
ATOM     27  O   UNL     1      -5.133  -1.129   2.757  1.00  0.00    -0.376 OA
BRANCH  27  28
ATOM     28  C   UNL     1      -4.795  -2.280   3.494  1.00  0.00     0.202 C 
BRANCH  28  29
ATOM     29  C   UNL     1      -4.452  -2.211   5.000  1.00  0.00     0.261 C 
BRANCH  29  30
ATOM     30  O   UNL     1      -3.812  -1.033   5.545  1.00  0.00    -0.460 OA
BRANCH  30  31
ATOM     31  C   UNL     1      -2.486  -0.862   5.264  1.00  0.00     0.338 C 
ATOM     32  O   UNL     1      -1.819  -1.655   4.626  1.00  0.00    -0.246 OA
BRANCH  31  33
ATOM     33  C   UNL     1      -1.995   0.407   6.015  1.00  0.00     0.060 A 
ATOM     34  C   UNL     1      -1.044   2.164   5.749  1.00  0.00     0.016 A 
ATOM     35  C   UNL     1      -1.921  -0.301   7.689  1.00  0.00     0.016 A 
ATOM     36  C   UNL     1      -0.209   2.940   7.075  1.00  0.00     0.010 A 
ATOM     37  C   UNL     1      -1.065   0.607   8.940  1.00  0.00     0.010 A 
ATOM     38  C   UNL     1      -0.268   2.175   8.628  1.00  0.00    -0.014 A 
BRANCH  38  39
ATOM     39  C   UNL     1       0.445   2.971   9.639  1.00  0.00     0.031 A 
ATOM     40  C   UNL     1       1.567   2.308  10.343  1.00  0.00     0.074 A 
ATOM     41  C   UNL     1       0.222   4.307   9.670  1.00  0.00     0.049 A 
ATOM     42  N   UNL     1       2.455   2.832  11.134  1.00  0.00    -0.248 NA
ATOM     43  C   UNL     1       1.725   0.864  10.126  1.00  0.00     0.031 C 
ATOM     44  C   UNL     1      -0.825   5.025   8.919  1.00  0.00     0.029 A 
ATOM     45  N   UNL     1       0.926   5.325  10.253  1.00  0.00    -0.354 N 
ATOM     46  C   UNL     1       3.263   1.773  11.518  1.00  0.00     0.074 A 
ATOM     47  C   UNL     1       2.729   0.574  10.927  1.00  0.00     0.031 C 
ATOM     48  C   UNL     1      -0.591   6.343   8.955  1.00  0.00     0.029 A 
ATOM     49  C   UNL     1       0.515   6.586   9.861  1.00  0.00     0.049 A 
ATOM     50  H   UNL     1       1.659   5.175  10.892  1.00  0.00     0.167 HD
ATOM     51  C   UNL     1       4.367   1.816  12.289  1.00  0.00     0.034 A 
ATOM     52  C   UNL     1       0.971   7.801  10.220  1.00  0.00     0.034 A 
ATOM     53  C   UNL     1       4.833   3.041  12.869  1.00  0.00     0.049 A 
ATOM     54  C   UNL     1       2.107   7.802  11.207  1.00  0.00     0.074 A 
ATOM     55  C   UNL     1       5.852   3.234  13.776  1.00  0.00     0.029 A 
ATOM     56  N   UNL     1       4.284   4.293  12.598  1.00  0.00    -0.354 N 
ATOM     57  N   UNL     1       2.797   6.778  11.663  1.00  0.00    -0.248 NA
ATOM     58  C   UNL     1       2.508   9.099  11.749  1.00  0.00     0.031 C 
ATOM     59  C   UNL     1       5.856   4.587  14.126  1.00  0.00     0.029 A 
ATOM     60  C   UNL     1       4.924   5.260  13.346  1.00  0.00     0.049 A 
ATOM     61  H   UNL     1       3.547   4.462  11.967  1.00  0.00     0.167 HD
ATOM     62  C   UNL     1       3.736   7.313  12.533  1.00  0.00     0.074 A 
ATOM     63  C   UNL     1       3.533   8.751  12.513  1.00  0.00     0.031 C 
ATOM     64  C   UNL     1       4.677   6.683  13.283  1.00  0.00     0.034 A 
BRANCH  51  65
ATOM     65  C   UNL     1       4.993   0.490  12.626  1.00  0.00     0.023 A 
ATOM     66  C   UNL     1       5.516  -0.362  11.634  1.00  0.00     0.031 A 
ATOM     67  C   UNL     1       4.898  -0.001  13.938  1.00  0.00     0.131 A 
ATOM     68  C   UNL     1       5.820  -1.693  11.955  1.00  0.00     0.055 A 
ATOM     69  C   UNL     1       5.308  -1.292  14.270  1.00  0.00     0.041 A 
ATOM     70  F   UNL     1       4.346   0.745  14.908  1.00  0.00    -0.206 F 
ATOM     71  C   UNL     1       5.753  -2.154  13.272  1.00  0.00     0.022 A 
BRANCH  68  72
ATOM     72  S   UNL     1       6.081  -2.873  10.599  1.00  0.00     0.124 S 
ATOM     73  O   UNL     1       4.793  -2.812   9.910  1.00  0.00    -0.237 OA
ATOM     74  O   UNL     1       7.214  -2.294   9.888  1.00  0.00    -0.237 OA
ATOM     75  O   UNL     1       6.351  -4.132  11.289  1.00  0.00    -0.744 OA
ENDBRANCH  68  72
ENDBRANCH  51  65
BRANCH  52  76
ATOM     76  C   UNL     1       0.326   9.069   9.749  1.00  0.00     0.023 A 
ATOM     77  C   UNL     1       1.069  10.095   9.140  1.00  0.00     0.031 A 
ATOM     78  C   UNL     1      -1.044   9.312   9.973  1.00  0.00     0.131 A 
ATOM     79  C   UNL     1       0.455  11.323   8.831  1.00  0.00     0.055 A 
ATOM     80  C   UNL     1      -1.666  10.504   9.595  1.00  0.00     0.041 A 
ATOM     81  F   UNL     1      -1.812   8.387  10.572  1.00  0.00    -0.206 F 
ATOM     82  C   UNL     1      -0.911  11.527   9.036  1.00  0.00     0.022 A 
BRANCH  79  83
ATOM     83  S   UNL     1       1.493  12.707   8.276  1.00  0.00     0.124 S 
ATOM     84  O   UNL     1       2.451  12.813   9.370  1.00  0.00    -0.237 OA
ATOM     85  O   UNL     1       2.015  12.205   7.010  1.00  0.00    -0.237 OA
ATOM     86  O   UNL     1       0.549  13.817   8.163  1.00  0.00    -0.744 OA
ENDBRANCH  79  83
ENDBRANCH  52  76
BRANCH  64  87
ATOM     87  C   UNL     1       5.600   7.567  14.072  1.00  0.00     0.023 A 
ATOM     88  C   UNL     1       5.134   8.383  15.112  1.00  0.00     0.031 A 
ATOM     89  C   UNL     1       6.971   7.591  13.759  1.00  0.00     0.131 A 
ATOM     90  C   UNL     1       6.021   9.260  15.745  1.00  0.00     0.055 A 
ATOM     91  C   UNL     1       7.865   8.391  14.463  1.00  0.00     0.041 A 
ATOM     92  F   UNL     1       7.461   6.830  12.767  1.00  0.00    -0.206 F 
ATOM     93  C   UNL     1       7.387   9.249  15.450  1.00  0.00     0.022 A 
BRANCH  90  94
ATOM     94  S   UNL     1       5.334  10.526  16.843  1.00  0.00     0.124 S 
ATOM     95  O   UNL     1       4.385  11.202  15.965  1.00  0.00    -0.237 OA
ATOM     96  O   UNL     1       4.751   9.726  17.916  1.00  0.00    -0.237 OA
ATOM     97  O   UNL     1       6.503  11.318  17.222  1.00  0.00    -0.744 OA
ENDBRANCH  90  94
ENDBRANCH  64  87
ENDBRANCH  38  39
ENDBRANCH  31  33
ENDBRANCH  30  31
ENDBRANCH  29  30
ENDBRANCH  28  29
ENDBRANCH  27  28
ENDBRANCH  26  27
ENDBRANCH   1  26
TORSDOF 27
