REMARK SMILES O=C(COCCNC(=O)[C@@H]1CCCCO1)OCCOCCOCCOC(=O)c1ccc(-c2c3nc(c(-c4cc(S(=O)(=O)[O-])ccc4F)c4ccc([nH]4)c(-c4cc(S(=O)(=O)[O-])ccc4F)c4nc(c(-c5cc(S(=O)(=O)[O-])ccc5F)c5ccc2[nH]5)C=C4)C=C3)cc1
REMARK SMILES IDX 20 1 19 2 18 3 17 4 16 5 2 6 1 7 3 8 4 9 5 10 6 11 7 12 8 13
REMARK SMILES IDX 9 15 10 16 11 17 15 18 12 19 14 20 13 21 21 22 22 23 23 24
REMARK SMILES IDX 24 25 25 26 26 27 27 28 28 29 29 30 90 31 30 32 89 33 31 34
REMARK SMILES IDX 32 35 33 36 83 37 34 38 88 39 82 40 84 41 35 42 87 43 81 44
REMARK SMILES IDX 80 45 36 47 68 48 48 49 67 50 49 51 52 52 66 53 85 54 50 55
REMARK SMILES IDX 51 56 65 58 86 59 53 60 37 61 38 62 46 63 39 64 45 65 47 66
REMARK SMILES IDX 44 67 40 68 41 69 42 70 43 71 69 72 70 73 78 74 71 75 77 76
REMARK SMILES IDX 79 77 76 78 72 79 73 80 74 81 75 82 54 83 55 84 63 85 56 86
REMARK SMILES IDX 62 87 64 88 61 89 57 90 58 91 59 92 60 93
REMARK H PARENT 7 14 84 46 52 57
REMARK Flexibility Score: inf
ROOT
ATOM      1  C   UNL     1       2.965  -0.725  -1.717  1.00  0.00     0.188 C 
ENDROOT
BRANCH   1   2
ATOM      2  O   UNL     1       4.103   0.138  -1.751  1.00  0.00    -0.376 OA
BRANCH   2   3
ATOM      3  C   UNL     1       5.282  -0.264  -1.058  1.00  0.00     0.202 C 
BRANCH   3   4
ATOM      4  C   UNL     1       5.170  -0.976   0.296  1.00  0.00     0.261 C 
BRANCH   4   5
ATOM      5  O   UNL     1       4.077  -0.701   1.187  1.00  0.00    -0.462 OA
BRANCH   5   6
ATOM      6  C   UNL     1       3.233   0.343   1.112  1.00  0.00     0.332 C 
ATOM      7  O   UNL     1       2.034   0.152   1.295  1.00  0.00    -0.250 OA
BRANCH   6   8
ATOM      8  C   UNL     1       3.814   1.741   0.956  1.00  0.00     0.282 C 
BRANCH   8   9
ATOM      9  O   UNL     1       4.114   2.440   2.151  1.00  0.00    -0.368 OA
BRANCH   9  10
ATOM     10  C   UNL     1       3.007   2.627   3.035  1.00  0.00     0.182 C 
BRANCH  10  11
ATOM     11  C   UNL     1       1.980   3.668   2.565  1.00  0.00     0.144 C 
BRANCH  11  12
ATOM     12  N   UNL     1       0.959   3.136   1.679  1.00  0.00    -0.352 N 
ATOM     13  C   UNL     1      -0.257   2.562   1.842  1.00  0.00     0.249 C 
ATOM     14  H   UNL     1       1.213   3.209   0.731  1.00  0.00     0.163 HD
ATOM     15  O   UNL     1      -0.799   2.219   0.779  1.00  0.00    -0.272 OA
BRANCH  13  16
ATOM     16  C   UNL     1      -0.993   2.281   3.186  1.00  0.00     0.207 C 
ATOM     17  C   UNL     1      -0.594   2.913   4.516  1.00  0.00     0.042 C 
ATOM     18  O   UNL     1      -1.280   0.890   3.385  1.00  0.00    -0.368 OA
ATOM     19  C   UNL     1       0.428   2.119   5.328  1.00  0.00     0.006 C 
ATOM     20  C   UNL     1      -0.150   0.162   3.837  1.00  0.00     0.161 C 
ATOM     21  C   UNL     1       0.245   0.609   5.232  1.00  0.00     0.029 C 
ENDBRANCH  13  16
ENDBRANCH  11  12
ENDBRANCH  10  11
ENDBRANCH   9  10
ENDBRANCH   8   9
ENDBRANCH   6   8
ENDBRANCH   5   6
ENDBRANCH   4   5
ENDBRANCH   3   4
ENDBRANCH   2   3
ENDBRANCH   1   2
BRANCH   1  22
ATOM     22  C   UNL     1       2.299  -0.924  -3.080  1.00  0.00     0.188 C 
BRANCH  22  23
ATOM     23  O   UNL     1       2.951  -1.847  -3.948  1.00  0.00    -0.376 OA
BRANCH  23  24
ATOM     24  C   UNL     1       4.280  -1.524  -4.339  1.00  0.00     0.202 C 
BRANCH  24  25
ATOM     25  C   UNL     1       4.457  -0.327  -5.281  1.00  0.00     0.261 C 
BRANCH  25  26
ATOM     26  O   UNL     1       4.098   0.944  -4.702  1.00  0.00    -0.460 OA
BRANCH  26  27
ATOM     27  C   UNL     1       3.061   1.572  -5.305  1.00  0.00     0.338 C 
ATOM     28  O   UNL     1       2.407   1.156  -6.258  1.00  0.00    -0.246 OA
BRANCH  27  29
ATOM     29  C   UNL     1       2.734   2.846  -4.643  1.00  0.00     0.060 A 
ATOM     30  C   UNL     1       1.509   2.968  -3.973  1.00  0.00     0.016 A 
ATOM     31  C   UNL     1       3.524   3.974  -4.876  1.00  0.00     0.016 A 
ATOM     32  C   UNL     1       1.046   4.229  -3.582  1.00  0.00     0.010 A 
ATOM     33  C   UNL     1       3.055   5.236  -4.487  1.00  0.00     0.010 A 
ATOM     34  C   UNL     1       1.793   5.377  -3.879  1.00  0.00    -0.014 A 
BRANCH  34  35
ATOM     35  C   UNL     1       1.195   6.732  -3.722  1.00  0.00     0.031 A 
ATOM     36  C   UNL     1       0.645   7.434  -4.939  1.00  0.00     0.074 A 
ATOM     37  C   UNL     1       1.145   7.343  -2.524  1.00  0.00     0.049 A 
ATOM     38  N   UNL     1       0.183   8.653  -5.061  1.00  0.00    -0.248 NA
ATOM     39  C   UNL     1       0.624   6.654  -6.185  1.00  0.00     0.031 C 
ATOM     40  C   UNL     1       1.593   6.761  -1.261  1.00  0.00     0.029 A 
ATOM     41  N   UNL     1       0.708   8.599  -2.181  1.00  0.00    -0.354 N 
ATOM     42  C   UNL     1      -0.179   8.791  -6.398  1.00  0.00     0.074 A 
ATOM     43  C   UNL     1       0.152   7.540  -7.050  1.00  0.00     0.031 C 
ATOM     44  C   UNL     1       1.427   7.668  -0.282  1.00  0.00     0.029 A 
ATOM     45  C   UNL     1       0.900   8.907  -0.854  1.00  0.00     0.049 A 
ATOM     46  H   UNL     1       0.296   9.221  -2.824  1.00  0.00     0.167 HD
ATOM     47  C   UNL     1      -0.739   9.856  -7.025  1.00  0.00     0.034 A 
ATOM     48  C   UNL     1       0.707  10.063  -0.186  1.00  0.00     0.034 A 
ATOM     49  C   UNL     1      -1.060  11.103  -6.372  1.00  0.00     0.049 A 
ATOM     50  C   UNL     1       0.170  11.269  -0.921  1.00  0.00     0.074 A 
ATOM     51  C   UNL     1      -1.643  12.236  -6.915  1.00  0.00     0.029 A 
ATOM     52  N   UNL     1      -0.815  11.389  -5.035  1.00  0.00    -0.354 N 
ATOM     53  N   UNL     1      -0.162  11.389  -2.186  1.00  0.00    -0.248 NA
ATOM     54  C   UNL     1      -0.021  12.496  -0.134  1.00  0.00     0.031 C 
ATOM     55  C   UNL     1      -1.686  13.227  -5.927  1.00  0.00     0.029 A 
ATOM     56  C   UNL     1      -1.203  12.689  -4.746  1.00  0.00     0.049 A 
ATOM     57  H   UNL     1      -0.424  10.760  -4.387  1.00  0.00     0.167 HD
ATOM     58  C   UNL     1      -0.635  12.692  -2.334  1.00  0.00     0.074 A 
ATOM     59  C   UNL     1      -0.549  13.316  -1.031  1.00  0.00     0.031 C 
ATOM     60  C   UNL     1      -1.107  13.311  -3.446  1.00  0.00     0.034 A 
BRANCH  47  61
ATOM     61  C   UNL     1      -0.989   9.734  -8.509  1.00  0.00     0.023 A 
ATOM     62  C   UNL     1      -1.914   8.813  -9.033  1.00  0.00     0.031 A 
ATOM     63  C   UNL     1      -0.275  10.538  -9.415  1.00  0.00     0.131 A 
ATOM     64  C   UNL     1      -2.049   8.672 -10.423  1.00  0.00     0.055 A 
ATOM     65  C   UNL     1      -0.469  10.445 -10.795  1.00  0.00     0.041 A 
ATOM     66  F   UNL     1       0.636  11.421  -8.975  1.00  0.00    -0.206 F 
ATOM     67  C   UNL     1      -1.350   9.498 -11.306  1.00  0.00     0.022 A 
BRANCH  64  68
ATOM     68  S   UNL     1      -3.049   7.300 -11.063  1.00  0.00     0.124 S 
ATOM     69  O   UNL     1      -2.380   6.145 -10.470  1.00  0.00    -0.237 OA
ATOM     70  O   UNL     1      -4.376   7.609 -10.544  1.00  0.00    -0.237 OA
ATOM     71  O   UNL     1      -2.903   7.418 -12.513  1.00  0.00    -0.744 OA
ENDBRANCH  64  68
ENDBRANCH  47  61
BRANCH  48  72
ATOM     72  C   UNL     1       1.074  10.169   1.256  1.00  0.00     0.023 A 
ATOM     73  C   UNL     1       0.102  10.407   2.239  1.00  0.00     0.031 A 
ATOM     74  C   UNL     1       2.419  10.096   1.661  1.00  0.00     0.131 A 
ATOM     75  C   UNL     1       0.492  10.611   3.572  1.00  0.00     0.055 A 
ATOM     76  C   UNL     1       2.797  10.250   2.996  1.00  0.00     0.041 A 
ATOM     77  F   UNL     1       3.389   9.869   0.761  1.00  0.00    -0.206 F 
ATOM     78  C   UNL     1       1.831  10.522   3.958  1.00  0.00     0.022 A 
BRANCH  75  79
ATOM     79  S   UNL     1      -0.773  11.073   4.788  1.00  0.00     0.124 S 
ATOM     80  O   UNL     1      -1.297  12.308   4.217  1.00  0.00    -0.237 OA
ATOM     81  O   UNL     1      -1.662   9.917   4.750  1.00  0.00    -0.237 OA
ATOM     82  O   UNL     1      -0.012  11.229   6.026  1.00  0.00    -0.744 OA
ENDBRANCH  75  79
ENDBRANCH  48  72
BRANCH  60  83
ATOM     83  C   UNL     1      -1.621  14.723  -3.288  1.00  0.00     0.023 A 
ATOM     84  C   UNL     1      -0.767  15.800  -2.992  1.00  0.00     0.031 A 
ATOM     85  C   UNL     1      -2.994  14.992  -3.436  1.00  0.00     0.131 A 
ATOM     86  C   UNL     1      -1.300  17.086  -2.805  1.00  0.00     0.055 A 
ATOM     87  C   UNL     1      -3.512  16.281  -3.302  1.00  0.00     0.041 A 
ATOM     88  F   UNL     1      -3.857  14.002  -3.717  1.00  0.00    -0.206 F 
ATOM     89  C   UNL     1      -2.665  17.335  -2.973  1.00  0.00     0.022 A 
BRANCH  86  90
ATOM     90  S   UNL     1      -0.198  18.420  -2.258  1.00  0.00     0.124 S 
ATOM     91  O   UNL     1       0.320  17.890  -1.000  1.00  0.00    -0.237 OA
ATOM     92  O   UNL     1       0.759  18.505  -3.356  1.00  0.00    -0.237 OA
ATOM     93  O   UNL     1      -1.090  19.570  -2.125  1.00  0.00    -0.744 OA
ENDBRANCH  86  90
ENDBRANCH  60  83
ENDBRANCH  34  35
ENDBRANCH  27  29
ENDBRANCH  26  27
ENDBRANCH  25  26
ENDBRANCH  24  25
ENDBRANCH  23  24
ENDBRANCH  22  23
ENDBRANCH   1  22
TORSDOF 25
