REMARK SMILES COc1ccccc1NC(=O)N[C@@](C)(C(=O)OCCOCCOCCOC(=O)c1ccc(-c2c3nc(c(-c4cc(S(=O)(=O)[O-])ccc4F)c4ccc([nH]4)c(-c4cc(S(=O)(=O)[O-])ccc4F)c4nc(c(-c5cc(S(=O)(=O)[O-])ccc5F)c5ccc2[nH]5)C=C4)C=C3)cc1)C(F)(F)F
REMARK SMILES IDX 21 1 20 2 19 3 18 4 17 5 15 6 16 7 13 8 14 9 12 10 9 11
REMARK SMILES IDX 10 12 11 14 8 16 3 17 4 18 5 19 7 20 6 21 2 22 1 23 92 24
REMARK SMILES IDX 93 25 94 26 95 27 22 28 23 29 24 30 25 31 26 32 27 33 28 34
REMARK SMILES IDX 29 35 30 36 91 37 31 38 90 39 32 40 33 41 34 42 84 43 35 44
REMARK SMILES IDX 89 45 83 46 85 47 36 48 88 49 82 50 81 51 37 53 69 54 49 55
REMARK SMILES IDX 68 56 50 57 53 58 67 59 86 60 51 61 52 62 66 64 87 65 54 66
REMARK SMILES IDX 38 67 39 68 47 69 40 70 46 71 48 72 45 73 41 74 42 75 43 76
REMARK SMILES IDX 44 77 70 78 71 79 79 80 72 81 78 82 80 83 77 84 73 85 74 86
REMARK SMILES IDX 75 87 76 88 55 89 56 90 64 91 57 92 63 93 65 94 62 95 58 96
REMARK SMILES IDX 59 97 60 98 61 99
REMARK H PARENT 9 13 12 15 85 52 53 63
REMARK Flexibility Score: inf
ROOT
ATOM      1  C   UNL     1       4.613  -5.969   0.295  1.00  0.00     0.188 C 
ENDROOT
BRANCH   1   2
ATOM      2  O   UNL     1       5.233  -7.229   0.433  1.00  0.00    -0.376 OA
BRANCH   2   3
ATOM      3  C   UNL     1       5.559  -7.967  -0.736  1.00  0.00     0.202 C 
BRANCH   3   4
ATOM      4  C   UNL     1       5.451  -7.410  -2.173  1.00  0.00     0.261 C 
BRANCH   4   5
ATOM      5  O   UNL     1       5.358  -5.981  -2.317  1.00  0.00    -0.461 OA
BRANCH   5   6
ATOM      6  C   UNL     1       4.855  -5.583  -3.519  1.00  0.00     0.341 C 
ATOM      7  O   UNL     1       4.927  -6.292  -4.521  1.00  0.00    -0.249 OA
BRANCH   6   8
ATOM      8  C   UNL     1       3.923  -4.340  -3.424  1.00  0.00     0.232 C 
ATOM      9  C   UNL     1       3.819  -3.833  -4.873  1.00  0.00     0.058 C 
BRANCH   8  10
ATOM     10  N   UNL     1       4.467  -3.171  -2.647  1.00  0.00    -0.314 N 
ATOM     11  N   UNL     1       2.862  -1.603  -1.741  1.00  0.00    -0.305 N 
ATOM     12  C   UNL     1       4.079  -2.013  -2.104  1.00  0.00     0.320 C 
ATOM     13  H   UNL     1       2.928  -0.772  -1.216  1.00  0.00     0.172 HD
ATOM     14  O   UNL     1       5.016  -1.268  -1.776  1.00  0.00    -0.248 OA
ATOM     15  H   UNL     1       5.429  -3.303  -2.486  1.00  0.00     0.166 HD
BRANCH  11  16
ATOM     16  C   UNL     1       1.521  -1.983  -1.873  1.00  0.00     0.085 A 
ATOM     17  C   UNL     1       0.681  -1.788  -0.763  1.00  0.00     0.142 A 
ATOM     18  C   UNL     1      -0.564  -2.411  -0.678  1.00  0.00     0.048 A 
ATOM     19  C   UNL     1      -1.040  -3.124  -1.771  1.00  0.00     0.004 A 
ATOM     20  C   UNL     1       0.958  -2.516  -3.016  1.00  0.00     0.030 A 
ATOM     21  C   UNL     1      -0.313  -3.110  -2.960  1.00  0.00     0.002 A 
BRANCH  17  22
ATOM     22  O   UNL     1       1.111  -1.038   0.301  1.00  0.00    -0.495 OA
ATOM     23  C   UNL     1       0.805   0.345   0.088  1.00  0.00     0.278 C 
ENDBRANCH  17  22
ENDBRANCH  11  16
ENDBRANCH   8  10
BRANCH   8  24
ATOM     24  C   UNL     1       2.651  -5.040  -2.884  1.00  0.00     0.422 C 
ATOM     25  F   UNL     1       2.304  -4.584  -1.661  1.00  0.00    -0.168 F 
ATOM     26  F   UNL     1       1.614  -4.897  -3.736  1.00  0.00    -0.168 F 
ATOM     27  F   UNL     1       2.770  -6.383  -2.724  1.00  0.00    -0.168 F 
ENDBRANCH   8  24
ENDBRANCH   6   8
ENDBRANCH   5   6
ENDBRANCH   4   5
ENDBRANCH   3   4
ENDBRANCH   2   3
ENDBRANCH   1   2
BRANCH   1  28
ATOM     28  C   UNL     1       5.576  -4.781   0.111  1.00  0.00     0.188 C 
BRANCH  28  29
ATOM     29  O   UNL     1       6.950  -4.992  -0.167  1.00  0.00    -0.376 OA
BRANCH  29  30
ATOM     30  C   UNL     1       7.706  -5.781   0.739  1.00  0.00     0.202 C 
BRANCH  30  31
ATOM     31  C   UNL     1       7.562  -5.642   2.268  1.00  0.00     0.261 C 
BRANCH  31  32
ATOM     32  O   UNL     1       6.245  -5.381   2.778  1.00  0.00    -0.460 OA
BRANCH  32  33
ATOM     33  C   UNL     1       6.034  -4.109   3.204  1.00  0.00     0.338 C 
ATOM     34  O   UNL     1       6.857  -3.203   3.229  1.00  0.00    -0.246 OA
BRANCH  33  35
ATOM     35  C   UNL     1       4.591  -3.891   3.446  1.00  0.00     0.060 A 
ATOM     36  C   UNL     1       3.906  -2.968   2.642  1.00  0.00     0.016 A 
ATOM     37  C   UNL     1       3.930  -4.535   4.492  1.00  0.00     0.016 A 
ATOM     38  C   UNL     1       2.566  -2.679   2.892  1.00  0.00     0.010 A 
ATOM     39  C   UNL     1       2.592  -4.215   4.760  1.00  0.00     0.010 A 
ATOM     40  C   UNL     1       1.909  -3.267   3.976  1.00  0.00    -0.014 A 
BRANCH  40  41
ATOM     41  C   UNL     1       0.590  -2.731   4.402  1.00  0.00     0.031 A 
ATOM     42  C   UNL     1       0.557  -1.704   5.499  1.00  0.00     0.074 A 
ATOM     43  C   UNL     1      -0.556  -3.121   3.815  1.00  0.00     0.049 A 
ATOM     44  N   UNL     1      -0.468  -1.153   6.096  1.00  0.00    -0.248 NA
ATOM     45  C   UNL     1       1.863  -1.249   5.995  1.00  0.00     0.031 C 
ATOM     46  C   UNL     1      -0.653  -4.062   2.703  1.00  0.00     0.029 A 
ATOM     47  N   UNL     1      -1.859  -2.778   4.084  1.00  0.00    -0.354 N 
ATOM     48  C   UNL     1       0.068  -0.308   7.062  1.00  0.00     0.074 A 
ATOM     49  C   UNL     1       1.508  -0.439   6.978  1.00  0.00     0.031 C 
ATOM     50  C   UNL     1      -1.951  -4.237   2.397  1.00  0.00     0.029 A 
ATOM     51  C   UNL     1      -2.777  -3.454   3.316  1.00  0.00     0.049 A 
ATOM     52  H   UNL     1      -2.111  -2.111   4.763  1.00  0.00     0.167 HD
ATOM     53  C   UNL     1      -0.582   0.495   7.942  1.00  0.00     0.034 A 
ATOM     54  C   UNL     1      -4.126  -3.469   3.369  1.00  0.00     0.034 A 
ATOM     55  C   UNL     1      -2.019   0.601   8.022  1.00  0.00     0.049 A 
ATOM     56  C   UNL     1      -4.833  -2.624   4.405  1.00  0.00     0.074 A 
ATOM     57  C   UNL     1      -2.778   1.401   8.859  1.00  0.00     0.029 A 
ATOM     58  N   UNL     1      -2.919  -0.131   7.256  1.00  0.00    -0.354 N 
ATOM     59  N   UNL     1      -4.321  -1.824   5.312  1.00  0.00    -0.248 NA
ATOM     60  C   UNL     1      -6.301  -2.688   4.423  1.00  0.00     0.031 C 
ATOM     61  C   UNL     1      -4.127   1.084   8.667  1.00  0.00     0.029 A 
ATOM     62  C   UNL     1      -4.222   0.163   7.636  1.00  0.00     0.049 A 
ATOM     63  H   UNL     1      -2.669  -0.765   6.546  1.00  0.00     0.167 HD
ATOM     64  C   UNL     1      -5.405  -1.278   5.998  1.00  0.00     0.074 A 
ATOM     65  C   UNL     1      -6.598  -1.823   5.383  1.00  0.00     0.031 C 
ATOM     66  C   UNL     1      -5.412  -0.402   7.037  1.00  0.00     0.034 A 
BRANCH  53  67
ATOM     67  C   UNL     1       0.266   1.249   8.941  1.00  0.00     0.023 A 
ATOM     68  C   UNL     1       1.227   2.196   8.545  1.00  0.00     0.031 A 
ATOM     69  C   UNL     1       0.154   0.965  10.315  1.00  0.00     0.131 A 
ATOM     70  C   UNL     1       2.098   2.749   9.496  1.00  0.00     0.055 A 
ATOM     71  C   UNL     1       0.959   1.592  11.267  1.00  0.00     0.041 A 
ATOM     72  F   UNL     1      -0.727   0.052  10.755  1.00  0.00    -0.206 F 
ATOM     73  C   UNL     1       1.953   2.474  10.858  1.00  0.00     0.022 A 
BRANCH  70  74
ATOM     74  S   UNL     1       3.540   3.682   8.909  1.00  0.00     0.124 S 
ATOM     75  O   UNL     1       4.176   2.713   8.019  1.00  0.00    -0.237 OA
ATOM     76  O   UNL     1       2.926   4.836   8.264  1.00  0.00    -0.237 OA
ATOM     77  O   UNL     1       4.282   3.971  10.134  1.00  0.00    -0.744 OA
ENDBRANCH  70  74
ENDBRANCH  53  67
BRANCH  54  78
ATOM     78  C   UNL     1      -4.900  -4.364   2.459  1.00  0.00     0.023 A 
ATOM     79  C   UNL     1      -5.791  -3.851   1.502  1.00  0.00     0.031 A 
ATOM     80  C   UNL     1      -4.776  -5.763   2.558  1.00  0.00     0.131 A 
ATOM     81  C   UNL     1      -6.540  -4.729   0.701  1.00  0.00     0.055 A 
ATOM     82  C   UNL     1      -5.480  -6.630   1.722  1.00  0.00     0.041 A 
ATOM     83  F   UNL     1      -3.948  -6.308   3.463  1.00  0.00    -0.206 F 
ATOM     84  C   UNL     1      -6.376  -6.114   0.792  1.00  0.00     0.022 A 
BRANCH  81  85
ATOM     85  S   UNL     1      -7.785  -4.041  -0.425  1.00  0.00     0.124 S 
ATOM     86  O   UNL     1      -8.682  -3.362   0.502  1.00  0.00    -0.237 OA
ATOM     87  O   UNL     1      -6.975  -3.181  -1.282  1.00  0.00    -0.237 OA
ATOM     88  O   UNL     1      -8.340  -5.223  -1.082  1.00  0.00    -0.744 OA
ENDBRANCH  81  85
ENDBRANCH  54  78
BRANCH  66  89
ATOM     89  C   UNL     1      -6.760   0.054   7.555  1.00  0.00     0.023 A 
ATOM     90  C   UNL     1      -7.667  -0.835   8.162  1.00  0.00     0.031 A 
ATOM     91  C   UNL     1      -7.145   1.402   7.435  1.00  0.00     0.131 A 
ATOM     92  C   UNL     1      -8.931  -0.378   8.569  1.00  0.00     0.055 A 
ATOM     93  C   UNL     1      -8.375   1.865   7.906  1.00  0.00     0.041 A 
ATOM     94  F   UNL     1      -6.327   2.298   6.859  1.00  0.00    -0.206 F 
ATOM     95  C   UNL     1      -9.282   0.971   8.464  1.00  0.00     0.022 A 
BRANCH  92  96
ATOM     96  S   UNL     1     -10.158  -1.588   9.136  1.00  0.00     0.124 S 
ATOM     97  O   UNL     1     -10.246  -2.489   7.991  1.00  0.00    -0.237 OA
ATOM     98  O   UNL     1      -9.527  -2.136  10.332  1.00  0.00    -0.237 OA
ATOM     99  O   UNL     1     -11.351  -0.779   9.380  1.00  0.00    -0.744 OA
ENDBRANCH  92  96
ENDBRANCH  66  89
ENDBRANCH  40  41
ENDBRANCH  33  35
ENDBRANCH  32  33
ENDBRANCH  31  32
ENDBRANCH  30  31
ENDBRANCH  29  30
ENDBRANCH  28  29
ENDBRANCH   1  28
TORSDOF 24
