REMARK SMILES O=C(OCCOCCOCCOC(=O)c1cc(F)c(O[C@H]2CCCCNC2=O)c(F)c1)c1ccc(-c2c3nc(c(-c4cc(S(=O)(=O)[O-])ccc4F)c4ccc([nH]4)c(-c4cc(S(=O)(=O)[O-])ccc4F)c4nc(c(-c5cc(S(=O)(=O)[O-])ccc5F)c5ccc2[nH]5)C=C4)C=C3)cc1
REMARK SMILES IDX 9 1 8 2 7 3 6 4 5 5 4 6 3 7 2 8 1 9 32 10 33 11 94 12 34 13
REMARK SMILES IDX 93 14 35 15 36 16 37 17 87 18 38 19 92 20 86 21 88 22 39 23
REMARK SMILES IDX 91 24 85 25 84 26 40 28 72 29 52 30 71 31 53 32 56 33 70 34
REMARK SMILES IDX 89 35 54 36 55 37 69 39 90 40 57 41 41 42 42 43 50 44 43 45
REMARK SMILES IDX 49 46 51 47 48 48 44 49 45 50 46 51 47 52 73 53 74 54 82 55
REMARK SMILES IDX 75 56 81 57 83 58 80 59 76 60 77 61 78 62 79 63 58 64 59 65
REMARK SMILES IDX 67 66 60 67 66 68 68 69 65 70 61 71 62 72 63 73 64 74 10 75
REMARK SMILES IDX 11 76 12 77 13 78 14 79 15 80 16 81 31 82 17 83 29 84 18 85
REMARK SMILES IDX 19 86 30 87 20 88 21 89 22 90 27 92 26 93 28 94 25 96 24 97
REMARK SMILES IDX 23 98
REMARK H PARENT 88 27 56 38 26 95
REMARK Flexibility Score: 80.00
ROOT
ATOM      1  O   UNL     1       2.710   3.337  -2.807  1.00  0.00    -0.376 OA
ENDROOT
BRANCH   1   2
ATOM      2  C   UNL     1       2.006   2.535  -1.855  1.00  0.00     0.188 C 
BRANCH   2   3
ATOM      3  C   UNL     1       2.470   1.078  -1.776  1.00  0.00     0.188 C 
BRANCH   3   4
ATOM      4  O   UNL     1       3.748   0.984  -1.134  1.00  0.00    -0.376 OA
BRANCH   4   5
ATOM      5  C   UNL     1       4.551  -0.103  -1.606  1.00  0.00     0.202 C 
BRANCH   5   6
ATOM      6  C   UNL     1       4.329  -1.424  -0.856  1.00  0.00     0.261 C 
BRANCH   6   7
ATOM      7  O   UNL     1       2.960  -1.588  -0.447  1.00  0.00    -0.460 OA
BRANCH   7   8
ATOM      8  C   UNL     1       2.395  -1.258   0.743  1.00  0.00     0.338 C 
ATOM      9  O   UNL     1       1.194  -1.479   0.897  1.00  0.00    -0.246 OA
BRANCH   8  10
ATOM     10  C   UNL     1       3.155  -0.680   1.897  1.00  0.00     0.060 A 
ATOM     11  C   UNL     1       4.341   0.043   1.791  1.00  0.00     0.016 A 
ATOM     12  C   UNL     1       2.610  -0.849   3.184  1.00  0.00     0.016 A 
ATOM     13  C   UNL     1       5.049   0.441   2.918  1.00  0.00     0.010 A 
ATOM     14  C   UNL     1       3.274  -0.367   4.322  1.00  0.00     0.010 A 
ATOM     15  C   UNL     1       4.527   0.244   4.195  1.00  0.00    -0.014 A 
BRANCH  15  16
ATOM     16  C   UNL     1       5.382   0.568   5.363  1.00  0.00     0.031 A 
ATOM     17  C   UNL     1       5.954  -0.563   6.168  1.00  0.00     0.074 A 
ATOM     18  C   UNL     1       5.822   1.827   5.562  1.00  0.00     0.049 A 
ATOM     19  N   UNL     1       6.699  -0.524   7.239  1.00  0.00    -0.248 NA
ATOM     20  C   UNL     1       5.688  -1.921   5.665  1.00  0.00     0.031 C 
ATOM     21  C   UNL     1       5.519   2.961   4.687  1.00  0.00     0.029 A 
ATOM     22  N   UNL     1       6.657   2.360   6.513  1.00  0.00    -0.354 N 
ATOM     23  C   UNL     1       7.029  -1.846   7.513  1.00  0.00     0.074 A 
ATOM     24  C   UNL     1       6.342  -2.667   6.540  1.00  0.00     0.031 C 
ATOM     25  C   UNL     1       6.212   4.031   5.104  1.00  0.00     0.029 A 
ATOM     26  C   UNL     1       6.856   3.718   6.377  1.00  0.00     0.049 A 
ATOM     27  H   UNL     1       7.074   1.823   7.225  1.00  0.00     0.167 HD
ATOM     28  C   UNL     1       7.862  -2.325   8.469  1.00  0.00     0.034 A 
ATOM     29  C   UNL     1       7.397   4.616   7.234  1.00  0.00     0.034 A 
ATOM     30  C   UNL     1       8.502  -1.482   9.446  1.00  0.00     0.049 A 
ATOM     31  C   UNL     1       7.922   4.066   8.539  1.00  0.00     0.074 A 
ATOM     32  C   UNL     1       9.297  -1.838  10.519  1.00  0.00     0.029 A 
ATOM     33  N   UNL     1       8.400  -0.095   9.469  1.00  0.00    -0.354 N 
ATOM     34  N   UNL     1       8.128   2.812   8.876  1.00  0.00    -0.248 NA
ATOM     35  C   UNL     1       8.247   5.032   9.594  1.00  0.00     0.031 C 
ATOM     36  C   UNL     1       9.624  -0.670  11.224  1.00  0.00     0.029 A 
ATOM     37  C   UNL     1       9.082   0.419  10.558  1.00  0.00     0.049 A 
ATOM     38  H   UNL     1       7.912   0.444   8.805  1.00  0.00     0.167 HD
ATOM     39  C   UNL     1       8.693   2.845  10.146  1.00  0.00     0.074 A 
ATOM     40  C   UNL     1       8.748   4.242  10.533  1.00  0.00     0.031 C 
ATOM     41  C   UNL     1       9.158   1.820  10.905  1.00  0.00     0.034 A 
BRANCH  28  42
ATOM     42  C   UNL     1       8.050  -3.819   8.510  1.00  0.00     0.023 A 
ATOM     43  C   UNL     1       8.683  -4.506   7.456  1.00  0.00     0.031 A 
ATOM     44  C   UNL     1       7.499  -4.578   9.555  1.00  0.00     0.131 A 
ATOM     45  C   UNL     1       8.674  -5.910   7.431  1.00  0.00     0.055 A 
ATOM     46  C   UNL     1       7.557  -5.973   9.560  1.00  0.00     0.041 A 
ATOM     47  F   UNL     1       6.857  -3.977  10.570  1.00  0.00    -0.206 F 
ATOM     48  C   UNL     1       8.132  -6.648   8.486  1.00  0.00     0.022 A 
BRANCH  45  49
ATOM     49  S   UNL     1       9.236  -6.755   5.926  1.00  0.00     0.124 S 
ATOM     50  O   UNL     1       8.315  -6.222   4.925  1.00  0.00    -0.237 OA
ATOM     51  O   UNL     1      10.622  -6.318   5.816  1.00  0.00    -0.237 OA
ATOM     52  O   UNL     1       9.051  -8.171   6.239  1.00  0.00    -0.744 OA
ENDBRANCH  45  49
ENDBRANCH  28  42
BRANCH  29  53
ATOM     53  C   UNL     1       7.286   6.099   6.993  1.00  0.00     0.023 A 
ATOM     54  C   UNL     1       8.331   7.018   7.156  1.00  0.00     0.031 A 
ATOM     55  C   UNL     1       6.029   6.641   6.673  1.00  0.00     0.131 A 
ATOM     56  C   UNL     1       8.083   8.401   7.009  1.00  0.00     0.055 A 
ATOM     57  C   UNL     1       5.793   7.996   6.455  1.00  0.00     0.041 A 
ATOM     58  F   UNL     1       4.988   5.815   6.559  1.00  0.00    -0.206 F 
ATOM     59  C   UNL     1       6.827   8.892   6.641  1.00  0.00     0.022 A 
BRANCH  56  60
ATOM     60  S   UNL     1       9.380   9.596   7.440  1.00  0.00     0.124 S 
ATOM     61  O   UNL     1       9.959   9.001   8.639  1.00  0.00    -0.237 OA
ATOM     62  O   UNL     1      10.211   9.574   6.242  1.00  0.00    -0.237 OA
ATOM     63  O   UNL     1       8.633  10.833   7.662  1.00  0.00    -0.744 OA
ENDBRANCH  56  60
ENDBRANCH  29  53
BRANCH  41  64
ATOM     64  C   UNL     1       9.910   2.201  12.151  1.00  0.00     0.023 A 
ATOM     65  C   UNL     1       9.270   2.726  13.284  1.00  0.00     0.031 A 
ATOM     66  C   UNL     1      11.310   2.067  12.175  1.00  0.00     0.131 A 
ATOM     67  C   UNL     1      10.039   3.150  14.378  1.00  0.00     0.055 A 
ATOM     68  C   UNL     1      12.064   2.440  13.286  1.00  0.00     0.041 A 
ATOM     69  F   UNL     1      11.966   1.573  11.112  1.00  0.00    -0.206 F 
ATOM     70  C   UNL     1      11.429   2.998  14.391  1.00  0.00     0.022 A 
BRANCH  67  71
ATOM     71  S   UNL     1       9.207   3.993  15.752  1.00  0.00     0.124 S 
ATOM     72  O   UNL     1       8.585   5.129  15.079  1.00  0.00    -0.237 OA
ATOM     73  O   UNL     1       8.295   2.965  16.241  1.00  0.00    -0.237 OA
ATOM     74  O   UNL     1      10.301   4.333  16.659  1.00  0.00    -0.744 OA
ENDBRANCH  67  71
ENDBRANCH  41  64
ENDBRANCH  15  16
ENDBRANCH   8  10
ENDBRANCH   7   8
ENDBRANCH   6   7
ENDBRANCH   5   6
ENDBRANCH   4   5
ENDBRANCH   3   4
ENDBRANCH   2   3
ENDBRANCH   1   2
BRANCH   1  75
ATOM     75  C   UNL     1       4.098   3.553  -2.557  1.00  0.00     0.202 C 
BRANCH  75  76
ATOM     76  C   UNL     1       4.444   4.569  -1.464  1.00  0.00     0.261 C 
BRANCH  76  77
ATOM     77  O   UNL     1       3.914   4.262  -0.161  1.00  0.00    -0.460 OA
BRANCH  77  78
ATOM     78  C   UNL     1       3.009   5.158   0.294  1.00  0.00     0.338 C 
ATOM     79  O   UNL     1       2.533   6.107  -0.319  1.00  0.00    -0.246 OA
BRANCH  78  80
ATOM     80  C   UNL     1       2.680   4.938   1.709  1.00  0.00     0.066 A 
ATOM     81  C   UNL     1       3.101   5.904   2.621  1.00  0.00     0.059 A 
ATOM     82  C   UNL     1       1.780   3.953   2.104  1.00  0.00     0.059 A 
ATOM     83  C   UNL     1       2.568   5.925   3.910  1.00  0.00     0.169 A 
ATOM     84  C   UNL     1       1.256   3.999   3.400  1.00  0.00     0.169 A 
ATOM     85  F   UNL     1       2.992   6.916   4.702  1.00  0.00    -0.203 F 
ATOM     86  C   UNL     1       1.599   5.005   4.317  1.00  0.00     0.191 A 
ATOM     87  F   UNL     1       0.341   3.074   3.737  1.00  0.00    -0.203 F 
BRANCH  86  88
ATOM     88  O   UNL     1       0.884   4.982   5.486  1.00  0.00    -0.474 OA
BRANCH  88  89
ATOM     89  C   UNL     1       1.013   5.982   6.513  1.00  0.00     0.262 C 
BRANCH  89  90
ATOM     90  C   UNL     1       2.316   5.737   7.268  1.00  0.00     0.055 CG0
ATOM     91  G   UNL     1       2.394   6.232   8.704  1.00  0.00     0.000 G0
ENDBRANCH  89  90
BRANCH  89  92
ATOM     92  C   UNL     1       0.772   7.444   6.059  1.00  0.00     0.261 C 
ATOM     93  N   UNL     1       1.041   8.477   6.909  1.00  0.00    -0.353 N 
ATOM     94  O   UNL     1       0.300   7.730   4.955  1.00  0.00    -0.271 OA
ATOM     95  H   UNL     1       1.121   9.364   6.489  1.00  0.00     0.163 HD
BRANCH  93  96
ATOM     96  C   UNL     1       1.225   8.444   8.342  1.00  0.00     0.116 C 
BRANCH  96  97
ATOM     97  C   UNL     1       2.492   7.749   8.803  1.00  0.00     0.021 C 
BRANCH  97  98
ATOM     98  C   UNL     1       2.394   6.232   8.704  1.00  0.00     0.006 CG0
ATOM     99  G   UNL     1       2.316   5.737   7.268  1.00  0.00     0.000 G0
ENDBRANCH  97  98
ENDBRANCH  96  97
ENDBRANCH  93  96
ENDBRANCH  89  92
ENDBRANCH  88  89
ENDBRANCH  86  88
ENDBRANCH  78  80
ENDBRANCH  77  78
ENDBRANCH  76  77
ENDBRANCH  75  76
ENDBRANCH   1  75
TORSDOF 22
