REMARK SMILES O=C(/C=C\c1ccc([N+](=O)[O-])cc1)OCCOCCOCCOC(=O)c1ccc(-c2c3nc(c(-c4cc(S(=O)(=O)[O-])ccc4F)c4ccc([nH]4)c(-c4cc(S(=O)(=O)[O-])ccc4F)c4nc(c(-c5cc(S(=O)(=O)[O-])ccc5F)c5ccc2[nH]5)C=C4)C=C3)cc1
REMARK SMILES IDX 19 1 18 2 17 3 16 4 15 5 14 6 2 7 1 8 3 9 4 10 5 11 6 12
REMARK SMILES IDX 13 13 7 14 12 15 8 16 9 17 10 18 11 19 20 20 21 21 22 22
REMARK SMILES IDX 23 23 24 24 25 25 26 26 27 27 88 28 28 29 87 30 29 31 30 32
REMARK SMILES IDX 31 33 81 34 32 35 86 36 80 37 82 38 33 39 85 40 79 41 78 42
REMARK SMILES IDX 34 44 66 45 46 46 65 47 47 48 50 49 64 50 83 51 48 52 49 53
REMARK SMILES IDX 63 55 84 56 51 57 35 58 36 59 44 60 37 61 43 62 45 63 42 64
REMARK SMILES IDX 38 65 39 66 40 67 41 68 67 69 68 70 76 71 69 72 75 73 77 74
REMARK SMILES IDX 74 75 70 76 71 77 72 78 73 79 52 80 53 81 61 82 54 83 60 84
REMARK SMILES IDX 62 85 59 86 55 87 56 88 57 89 58 90
REMARK H PARENT 82 43 50 54
REMARK Flexibility Score: inf
ROOT
ATOM      1  C   UNL     1       1.312  -0.931  -3.024  1.00  0.00     0.188 C 
ENDROOT
BRANCH   1   2
ATOM      2  C   UNL     1       1.132   0.191  -1.985  1.00  0.00     0.188 C 
BRANCH   2   3
ATOM      3  O   UNL     1       2.309   0.929  -1.662  1.00  0.00    -0.376 OA
BRANCH   3   4
ATOM      4  C   UNL     1       3.360   0.195  -1.033  1.00  0.00     0.202 C 
BRANCH   4   5
ATOM      5  C   UNL     1       2.930  -0.778   0.078  1.00  0.00     0.261 C 
BRANCH   5   6
ATOM      6  O   UNL     1       2.365  -0.140   1.225  1.00  0.00    -0.460 OA
BRANCH   6   7
ATOM      7  C   UNL     1       3.027   0.653   2.085  1.00  0.00     0.330 C 
ATOM      8  O   UNL     1       2.446   1.095   3.074  1.00  0.00    -0.247 OA
BRANCH   7   9
ATOM      9  C   UNL     1       4.371   1.189   1.785  1.00  0.00     0.094 C 
ATOM     10  C   UNL     1       5.628   0.777   1.528  1.00  0.00     0.015 C 
BRANCH  10  11
ATOM     11  C   UNL     1       6.361  -0.496   1.395  1.00  0.00    -0.025 A 
ATOM     12  C   UNL     1       7.457  -0.697   2.250  1.00  0.00     0.015 A 
ATOM     13  C   UNL     1       6.196  -1.403   0.342  1.00  0.00     0.015 A 
ATOM     14  C   UNL     1       8.318  -1.793   2.093  1.00  0.00     0.086 A 
ATOM     15  C   UNL     1       7.002  -2.542   0.209  1.00  0.00     0.086 A 
ATOM     16  C   UNL     1       8.070  -2.728   1.085  1.00  0.00     0.269 A 
BRANCH  16  17
ATOM     17  N   UNL     1       8.958  -3.882   0.912  1.00  0.00     0.062 N 
ATOM     18  O   UNL     1       9.990  -3.925   1.597  1.00  0.00    -0.258 OA
ATOM     19  O   UNL     1       8.627  -4.748   0.088  1.00  0.00    -0.258 OA
ENDBRANCH  16  17
ENDBRANCH  10  11
ENDBRANCH   7   9
ENDBRANCH   6   7
ENDBRANCH   5   6
ENDBRANCH   4   5
ENDBRANCH   3   4
ENDBRANCH   2   3
ENDBRANCH   1   2
BRANCH   1  20
ATOM     20  O   UNL     1       2.482  -1.709  -2.766  1.00  0.00    -0.376 OA
BRANCH  20  21
ATOM     21  C   UNL     1       3.228  -2.085  -3.919  1.00  0.00     0.202 C 
BRANCH  21  22
ATOM     22  C   UNL     1       4.045  -0.995  -4.652  1.00  0.00     0.261 C 
BRANCH  22  23
ATOM     23  O   UNL     1       3.621   0.361  -4.464  1.00  0.00    -0.460 OA
BRANCH  23  24
ATOM     24  C   UNL     1       2.813   0.869  -5.426  1.00  0.00     0.338 C 
ATOM     25  O   UNL     1       2.367   0.274  -6.389  1.00  0.00    -0.246 OA
BRANCH  24  26
ATOM     26  C   UNL     1       2.429   2.243  -5.049  1.00  0.00     0.060 A 
ATOM     27  C   UNL     1       1.109   2.483  -4.654  1.00  0.00     0.016 A 
ATOM     28  C   UNL     1       3.342   3.295  -5.155  1.00  0.00     0.016 A 
ATOM     29  C   UNL     1       0.698   3.777  -4.343  1.00  0.00     0.010 A 
ATOM     30  C   UNL     1       2.917   4.601  -4.885  1.00  0.00     0.010 A 
ATOM     31  C   UNL     1       1.588   4.847  -4.496  1.00  0.00    -0.014 A 
BRANCH  31  32
ATOM     32  C   UNL     1       1.060   6.231  -4.464  1.00  0.00     0.031 A 
ATOM     33  C   UNL     1       0.523   6.809  -5.745  1.00  0.00     0.074 A 
ATOM     34  C   UNL     1       1.028   6.941  -3.323  1.00  0.00     0.049 A 
ATOM     35  N   UNL     1       0.027   7.994  -5.981  1.00  0.00    -0.248 NA
ATOM     36  C   UNL     1       0.547   5.919  -6.918  1.00  0.00     0.031 C 
ATOM     37  C   UNL     1       1.461   6.454  -2.014  1.00  0.00     0.029 A 
ATOM     38  N   UNL     1       0.613   8.227  -3.083  1.00  0.00    -0.354 N 
ATOM     39  C   UNL     1      -0.333   7.990  -7.325  1.00  0.00     0.074 A 
ATOM     40  C   UNL     1       0.033   6.696  -7.858  1.00  0.00     0.031 C 
ATOM     41  C   UNL     1       1.308   7.439  -1.111  1.00  0.00     0.029 A 
ATOM     42  C   UNL     1       0.798   8.634  -1.782  1.00  0.00     0.049 A 
ATOM     43  H   UNL     1       0.220   8.804  -3.777  1.00  0.00     0.167 HD
ATOM     44  C   UNL     1      -0.915   8.978  -8.046  1.00  0.00     0.034 A 
ATOM     45  C   UNL     1       0.602   9.841  -1.213  1.00  0.00     0.034 A 
ATOM     46  C   UNL     1      -1.228  10.277  -7.507  1.00  0.00     0.049 A 
ATOM     47  C   UNL     1       0.059  10.966  -2.067  1.00  0.00     0.074 A 
ATOM     48  C   UNL     1      -1.799  11.363  -8.146  1.00  0.00     0.029 A 
ATOM     49  N   UNL     1      -0.974  10.674  -6.199  1.00  0.00    -0.354 N 
ATOM     50  N   UNL     1      -0.283  10.951  -3.337  1.00  0.00    -0.248 NA
ATOM     51  C   UNL     1      -0.131  12.267  -1.412  1.00  0.00     0.031 C 
ATOM     52  C   UNL     1      -1.820  12.436  -7.249  1.00  0.00     0.029 A 
ATOM     53  C   UNL     1      -1.343  11.998  -6.023  1.00  0.00     0.049 A 
ATOM     54  H   UNL     1      -0.587  10.099  -5.500  1.00  0.00     0.167 HD
ATOM     55  C   UNL     1      -0.764  12.228  -3.617  1.00  0.00     0.074 A 
ATOM     56  C   UNL     1      -0.676  12.983  -2.384  1.00  0.00     0.031 C 
ATOM     57  C   UNL     1      -1.242  12.733  -4.784  1.00  0.00     0.034 A 
BRANCH  44  58
ATOM     58  C   UNL     1      -1.178   8.703  -9.506  1.00  0.00     0.023 A 
ATOM     59  C   UNL     1      -2.089   7.715  -9.921  1.00  0.00     0.031 A 
ATOM     60  C   UNL     1      -0.474   9.409 -10.497  1.00  0.00     0.131 A 
ATOM     61  C   UNL     1      -2.224   7.417 -11.286  1.00  0.00     0.055 A 
ATOM     62  C   UNL     1      -0.670   9.160 -11.857  1.00  0.00     0.041 A 
ATOM     63  F   UNL     1       0.430  10.341 -10.160  1.00  0.00    -0.206 F 
ATOM     64  C   UNL     1      -1.539   8.150 -12.258  1.00  0.00     0.022 A 
BRANCH  61  65
ATOM     65  S   UNL     1      -3.204   5.968 -11.767  1.00  0.00     0.124 S 
ATOM     66  O   UNL     1      -2.498   4.891 -11.075  1.00  0.00    -0.237 OA
ATOM     67  O   UNL     1      -4.528   6.296 -11.252  1.00  0.00    -0.237 OA
ATOM     68  O   UNL     1      -3.088   5.944 -13.223  1.00  0.00    -0.744 OA
ENDBRANCH  61  65
ENDBRANCH  44  58
BRANCH  45  69
ATOM     69  C   UNL     1       0.962  10.081   0.217  1.00  0.00     0.023 A 
ATOM     70  C   UNL     1      -0.004  10.467   1.160  1.00  0.00     0.031 A 
ATOM     71  C   UNL     1       2.300  10.000   0.644  1.00  0.00     0.131 A 
ATOM     72  C   UNL     1       0.388  10.811   2.464  1.00  0.00     0.055 A 
ATOM     73  C   UNL     1       2.677  10.287   1.958  1.00  0.00     0.041 A 
ATOM     74  F   UNL     1       3.268   9.643  -0.215  1.00  0.00    -0.206 F 
ATOM     75  C   UNL     1       1.719  10.710   2.873  1.00  0.00     0.022 A 
BRANCH  72  76
ATOM     76  S   UNL     1      -0.856  11.497   3.594  1.00  0.00     0.124 S 
ATOM     77  O   UNL     1      -1.329  12.656   2.845  1.00  0.00    -0.237 OA
ATOM     78  O   UNL     1      -1.795  10.388   3.721  1.00  0.00    -0.237 OA
ATOM     79  O   UNL     1      -0.088  11.804   4.799  1.00  0.00    -0.744 OA
ENDBRANCH  72  76
ENDBRANCH  45  69
BRANCH  57  80
ATOM     80  C   UNL     1      -1.758  14.152  -4.761  1.00  0.00     0.023 A 
ATOM     81  C   UNL     1      -0.907  15.251  -4.556  1.00  0.00     0.031 A 
ATOM     82  C   UNL     1      -3.129  14.404  -4.954  1.00  0.00     0.131 A 
ATOM     83  C   UNL     1      -1.442  16.546  -4.493  1.00  0.00     0.055 A 
ATOM     84  C   UNL     1      -3.646  15.699  -4.954  1.00  0.00     0.041 A 
ATOM     85  F   UNL     1      -3.989  13.392  -5.155  1.00  0.00    -0.206 F 
ATOM     86  C   UNL     1      -2.803  16.779  -4.709  1.00  0.00     0.022 A 
BRANCH  83  87
ATOM     87  S   UNL     1      -0.349  17.920  -4.038  1.00  0.00     0.124 S 
ATOM     88  O   UNL     1       0.144  17.496  -2.732  1.00  0.00    -0.237 OA
ATOM     89  O   UNL     1       0.630  17.913  -5.121  1.00  0.00    -0.237 OA
ATOM     90  O   UNL     1      -1.242  19.077  -4.019  1.00  0.00    -0.744 OA
ENDBRANCH  83  87
ENDBRANCH  57  80
ENDBRANCH  31  32
ENDBRANCH  24  26
ENDBRANCH  23  24
ENDBRANCH  22  23
ENDBRANCH  21  22
ENDBRANCH  20  21
ENDBRANCH   1  20
TORSDOF 22
