REMARK SMILES O=C(Cc1ccccc1C(=O)OCCOCCOCCOC(=O)c1ccc(-c2c3nc(c(-c4cc(S(=O)(=O)[O-])ccc4F)c4ccc([nH]4)c(-c4cc(S(=O)(=O)[O-])ccc4F)c4nc(c(-c5cc(S(=O)(=O)[O-])ccc5F)c5ccc2[nH]5)C=C4)C=C3)cc1)Nc1cccc(OC[C@@H]2CCCO2)c1
REMARK SMILES IDX 15 1 14 2 13 3 12 4 10 5 11 6 9 7 4 8 5 9 6 10 8 11 7 12
REMARK SMILES IDX 3 13 2 14 1 15 87 16 88 18 89 19 100 20 90 21 92 22 91 23
REMARK SMILES IDX 93 24 94 25 95 26 96 27 99 28 97 29 98 30 16 31 17 32 18 33
REMARK SMILES IDX 19 34 20 35 21 36 22 37 23 38 24 39 25 40 86 41 26 42 85 43
REMARK SMILES IDX 27 44 28 45 29 46 79 47 30 48 84 49 78 50 80 51 31 52 83 53
REMARK SMILES IDX 77 54 76 55 32 57 64 58 44 59 63 60 45 61 48 62 62 63 81 64
REMARK SMILES IDX 46 65 47 66 61 68 82 69 49 70 33 71 34 72 42 73 35 74 41 75
REMARK SMILES IDX 43 76 40 77 36 78 37 79 38 80 39 81 65 82 66 83 74 84 67 85
REMARK SMILES IDX 73 86 75 87 72 88 68 89 69 90 70 91 71 92 50 93 51 94 59 95
REMARK SMILES IDX 52 96 58 97 60 98 57 99 53 100 54 101 55 102 56 103
REMARK H PARENT 87 17 80 56 48 67
REMARK Flexibility Score: inf
ROOT
ATOM      1  O   UNL     1      -0.488   3.592  -2.560  1.00  0.00    -0.376 OA
ENDROOT
BRANCH   1   2
ATOM      2  C   UNL     1      -0.539   2.261  -3.062  1.00  0.00     0.202 C 
BRANCH   2   3
ATOM      3  C   UNL     1       0.728   1.782  -3.763  1.00  0.00     0.261 C 
BRANCH   3   4
ATOM      4  O   UNL     1       1.812   1.636  -2.826  1.00  0.00    -0.460 OA
BRANCH   4   5
ATOM      5  C   UNL     1       2.892   2.409  -3.070  1.00  0.00     0.338 C 
ATOM      6  O   UNL     1       3.042   3.142  -4.035  1.00  0.00    -0.246 OA
BRANCH   5   7
ATOM      7  C   UNL     1       3.872   2.380  -1.948  1.00  0.00     0.063 A 
ATOM      8  C   UNL     1       4.310   1.237  -1.245  1.00  0.00    -0.024 A 
ATOM      9  C   UNL     1       5.433   1.375  -0.399  1.00  0.00     0.005 A 
ATOM     10  C   UNL     1       6.031   2.613  -0.170  1.00  0.00     0.000 A 
ATOM     11  C   UNL     1       4.472   3.628  -1.687  1.00  0.00     0.016 A 
ATOM     12  C   UNL     1       5.532   3.747  -0.792  1.00  0.00     0.001 A 
BRANCH   8  13
ATOM     13  C   UNL     1       3.710  -0.145  -1.367  1.00  0.00     0.136 C 
BRANCH  13  14
ATOM     14  C   UNL     1       2.798  -0.633  -0.235  1.00  0.00     0.228 C 
ATOM     15  O   UNL     1       1.904  -1.432  -0.519  1.00  0.00    -0.274 OA
ATOM     16  N   UNL     1       3.120  -0.231   1.052  1.00  0.00    -0.326 N 
ATOM     17  H   UNL     1       3.842   0.434   1.133  1.00  0.00     0.169 HD
BRANCH  16  18
ATOM     18  C   UNL     1       2.528  -0.665   2.268  1.00  0.00     0.044 A 
ATOM     19  C   UNL     1       2.851   0.036   3.437  1.00  0.00     0.026 A 
ATOM     20  C   UNL     1       1.629  -1.734   2.355  1.00  0.00     0.072 A 
ATOM     21  C   UNL     1       2.232  -0.282   4.649  1.00  0.00     0.006 A 
ATOM     22  C   UNL     1       0.956  -2.016   3.545  1.00  0.00     0.121 A 
ATOM     23  C   UNL     1       1.273  -1.291   4.694  1.00  0.00     0.046 A 
BRANCH  22  24
ATOM     24  O   UNL     1      -0.040  -2.936   3.711  1.00  0.00    -0.491 OA
BRANCH  24  25
ATOM     25  C   UNL     1      -0.579  -3.622   2.579  1.00  0.00     0.261 C 
BRANCH  25  26
ATOM     26  C   UNL     1      -1.621  -2.851   1.736  1.00  0.00     0.156 C 
ATOM     27  C   UNL     1      -1.160  -2.512   0.323  1.00  0.00     0.038 C 
ATOM     28  O   UNL     1      -2.067  -1.641   2.358  1.00  0.00    -0.375 OA
ATOM     29  C   UNL     1      -1.468  -1.047   0.158  1.00  0.00     0.031 C 
ATOM     30  C   UNL     1      -1.602  -0.540   1.573  1.00  0.00     0.161 C 
ENDBRANCH  25  26
ENDBRANCH  24  25
ENDBRANCH  22  24
ENDBRANCH  16  18
ENDBRANCH  13  14
ENDBRANCH   8  13
ENDBRANCH   5   7
ENDBRANCH   4   5
ENDBRANCH   3   4
ENDBRANCH   2   3
ENDBRANCH   1   2
BRANCH   1  31
ATOM     31  C   UNL     1       0.285   3.857  -1.390  1.00  0.00     0.188 C 
BRANCH  31  32
ATOM     32  C   UNL     1       0.378   2.768  -0.311  1.00  0.00     0.188 C 
BRANCH  32  33
ATOM     33  O   UNL     1      -0.788   2.011  -0.013  1.00  0.00    -0.376 OA
BRANCH  33  34
ATOM     34  C   UNL     1      -2.051   2.661   0.020  1.00  0.00     0.202 C 
BRANCH  34  35
ATOM     35  C   UNL     1      -2.437   3.155   1.407  1.00  0.00     0.261 C 
BRANCH  35  36
ATOM     36  O   UNL     1      -1.782   4.397   1.665  1.00  0.00    -0.460 OA
BRANCH  36  37
ATOM     37  C   UNL     1      -0.643   4.323   2.388  1.00  0.00     0.338 C 
ATOM     38  O   UNL     1      -0.164   3.344   2.937  1.00  0.00    -0.246 OA
BRANCH  37  39
ATOM     39  C   UNL     1       0.051   5.611   2.231  1.00  0.00     0.060 A 
ATOM     40  C   UNL     1       1.442   5.610   2.073  1.00  0.00     0.016 A 
ATOM     41  C   UNL     1      -0.676   6.805   2.225  1.00  0.00     0.016 A 
ATOM     42  C   UNL     1       2.120   6.818   1.955  1.00  0.00     0.010 A 
ATOM     43  C   UNL     1      -0.000   8.010   2.102  1.00  0.00     0.010 A 
ATOM     44  C   UNL     1       1.401   8.018   2.012  1.00  0.00    -0.014 A 
BRANCH  44  45
ATOM     45  C   UNL     1       2.106   9.300   2.192  1.00  0.00     0.031 A 
ATOM     46  C   UNL     1       2.143   9.887   3.573  1.00  0.00     0.074 A 
ATOM     47  C   UNL     1       2.660   9.928   1.143  1.00  0.00     0.049 A 
ATOM     48  N   UNL     1       2.579  11.051   3.969  1.00  0.00    -0.248 NA
ATOM     49  C   UNL     1       1.589   9.049   4.650  1.00  0.00     0.031 C 
ATOM     50  C   UNL     1       2.696   9.414  -0.226  1.00  0.00     0.029 A 
ATOM     51  N   UNL     1       3.280  11.145   1.065  1.00  0.00    -0.354 N 
ATOM     52  C   UNL     1       2.340  11.093   5.339  1.00  0.00     0.074 A 
ATOM     53  C   UNL     1       1.679   9.857   5.693  1.00  0.00     0.031 C 
ATOM     54  C   UNL     1       3.299  10.321  -1.013  1.00  0.00     0.029 A 
ATOM     55  C   UNL     1       3.643  11.494  -0.213  1.00  0.00     0.049 A 
ATOM     56  H   UNL     1       3.450  11.716   1.850  1.00  0.00     0.167 HD
ATOM     57  C   UNL     1       2.655  12.075   6.216  1.00  0.00     0.034 A 
ATOM     58  C   UNL     1       4.161  12.647  -0.678  1.00  0.00     0.034 A 
ATOM     59  C   UNL     1       3.299  13.303   5.822  1.00  0.00     0.049 A 
ATOM     60  C   UNL     1       4.432  13.761   0.305  1.00  0.00     0.074 A 
ATOM     61  C   UNL     1       3.684  14.368   6.614  1.00  0.00     0.029 A 
ATOM     62  N   UNL     1       3.639  13.635   4.514  1.00  0.00    -0.354 N 
ATOM     63  N   UNL     1       4.218  13.791   1.603  1.00  0.00    -0.248 NA
ATOM     64  C   UNL     1       5.022  14.990  -0.236  1.00  0.00     0.031 C 
ATOM     65  C   UNL     1       4.179  15.375   5.778  1.00  0.00     0.029 A 
ATOM     66  C   UNL     1       4.197  14.902   4.475  1.00  0.00     0.049 A 
ATOM     67  H   UNL     1       3.502  13.054   3.731  1.00  0.00     0.167 HD
ATOM     68  C   UNL     1       4.687  15.029   2.037  1.00  0.00     0.074 A 
ATOM     69  C   UNL     1       5.202  15.707   0.864  1.00  0.00     0.031 C 
ATOM     70  C   UNL     1       4.700  15.558   3.288  1.00  0.00     0.034 A 
BRANCH  57  71
ATOM     71  C   UNL     1       2.255  11.874   7.658  1.00  0.00     0.023 A 
ATOM     72  C   UNL     1       2.758  10.808   8.425  1.00  0.00     0.031 A 
ATOM     73  C   UNL     1       1.321  12.733   8.262  1.00  0.00     0.131 A 
ATOM     74  C   UNL     1       2.267  10.582   9.720  1.00  0.00     0.055 A 
ATOM     75  C   UNL     1       0.904  12.556   9.583  1.00  0.00     0.041 A 
ATOM     76  F   UNL     1       0.781  13.750   7.573  1.00  0.00    -0.206 F 
ATOM     77  C   UNL     1       1.364  11.466  10.315  1.00  0.00     0.022 A 
BRANCH  74  78
ATOM     78  S   UNL     1       2.702   9.031  10.553  1.00  0.00     0.124 S 
ATOM     79  O   UNL     1       2.200   8.037   9.606  1.00  0.00    -0.237 OA
ATOM     80  O   UNL     1       4.152   9.129  10.665  1.00  0.00    -0.237 OA
ATOM     81  O   UNL     1       1.970   9.102  11.816  1.00  0.00    -0.744 OA
ENDBRANCH  74  78
ENDBRANCH  57  71
BRANCH  58  82
ATOM     82  C   UNL     1       4.433  12.820  -2.133  1.00  0.00     0.023 A 
ATOM     83  C   UNL     1       5.738  13.032  -2.602  1.00  0.00     0.031 A 
ATOM     84  C   UNL     1       3.387  12.818  -3.074  1.00  0.00     0.131 A 
ATOM     85  C   UNL     1       5.960  13.282  -3.965  1.00  0.00     0.055 A 
ATOM     86  C   UNL     1       3.620  13.006  -4.437  1.00  0.00     0.041 A 
ATOM     87  F   UNL     1       2.119  12.620  -2.679  1.00  0.00    -0.206 F 
ATOM     88  C   UNL     1       4.912  13.255  -4.888  1.00  0.00     0.022 A 
BRANCH  85  89
ATOM     89  S   UNL     1       7.631  13.739  -4.498  1.00  0.00     0.124 S 
ATOM     90  O   UNL     1       7.888  14.922  -3.685  1.00  0.00    -0.237 OA
ATOM     91  O   UNL     1       8.396  12.546  -4.154  1.00  0.00    -0.237 OA
ATOM     92  O   UNL     1       7.476  13.986  -5.930  1.00  0.00    -0.744 OA
ENDBRANCH  85  89
ENDBRANCH  58  82
BRANCH  70  93
ATOM     93  C   UNL     1       5.350  16.910   3.457  1.00  0.00     0.023 A 
ATOM     94  C   UNL     1       4.820  18.070   2.867  1.00  0.00     0.031 A 
ATOM     95  C   UNL     1       6.525  17.034   4.221  1.00  0.00     0.131 A 
ATOM     96  C   UNL     1       5.499  19.291   2.998  1.00  0.00     0.055 A 
ATOM     97  C   UNL     1       7.154  18.264   4.410  1.00  0.00     0.041 A 
ATOM     98  F   UNL     1       7.078  15.958   4.804  1.00  0.00    -0.206 F 
ATOM     99  C   UNL     1       6.650  19.400   3.784  1.00  0.00     0.022 A 
BRANCH  96 100
ATOM    100  S   UNL     1       4.922  20.714   2.033  1.00  0.00     0.124 S 
ATOM    101  O   UNL     1       4.987  20.200   0.669  1.00  0.00    -0.237 OA
ATOM    102  O   UNL     1       3.583  20.932   2.569  1.00  0.00    -0.237 OA
ATOM    103  O   UNL     1       5.894  21.759   2.349  1.00  0.00    -0.744 OA
ENDBRANCH  96 100
ENDBRANCH  70  93
ENDBRANCH  44  45
ENDBRANCH  37  39
ENDBRANCH  36  37
ENDBRANCH  35  36
ENDBRANCH  34  35
ENDBRANCH  33  34
ENDBRANCH  32  33
ENDBRANCH  31  32
ENDBRANCH   1  31
TORSDOF 26
