REMARK SMILES CCOc1cnc(C(=O)c2[nH]c3cc(Cl)ccc3c2CC(=O)OCCOCCOCCOC(=O)c2ccc(-c3c4nc(c(-c5cc(S(=O)(=O)[O-])ccc5F)c5ccc([nH]5)c(-c5cc(S(=O)(=O)[O-])ccc5F)c5nc(c(-c6cc(S(=O)(=O)[O-])ccc6F)c6ccc3[nH]6)C=C5)C=C4)cc2)cc1CC
REMARK SMILES IDX 27 1 26 2 25 3 24 4 23 5 21 6 22 7 20 8 19 9 10 10 11 11
REMARK SMILES IDX 12 12 18 14 13 15 17 16 14 17 16 18 15 19 8 20 9 21 7 22
REMARK SMILES IDX 4 23 5 24 99 25 6 26 98 27 3 28 2 29 1 30 100 31 101 32
REMARK SMILES IDX 28 33 29 34 30 35 31 36 32 37 33 38 34 39 35 40 36 41 97 42
REMARK SMILES IDX 37 43 96 44 38 45 39 46 40 47 90 48 41 49 95 50 89 51 91 52
REMARK SMILES IDX 42 53 94 54 88 55 87 56 43 58 75 59 55 60 74 61 56 62 59 63
REMARK SMILES IDX 73 64 92 65 57 66 58 67 72 69 93 70 60 71 44 72 45 73 53 74
REMARK SMILES IDX 46 75 52 76 54 77 51 78 47 79 48 80 49 81 50 82 76 83 77 84
REMARK SMILES IDX 85 85 78 86 84 87 86 88 83 89 79 90 80 91 81 92 82 93 61 94
REMARK SMILES IDX 62 95 70 96 63 97 69 98 71 99 68 100 64 101 65 102 66 103
REMARK SMILES IDX 67 104
REMARK H PARENT 11 13 91 57 59 68
REMARK Flexibility Score: inf
ROOT
ATOM      1  C   UNL     1       8.408   5.828  -0.316  1.00  0.00     0.188 C 
ENDROOT
BRANCH   1   2
ATOM      2  O   UNL     1       9.552   6.674  -0.280  1.00  0.00    -0.376 OA
BRANCH   2   3
ATOM      3  C   UNL     1      10.803   6.105  -0.638  1.00  0.00     0.202 C 
BRANCH   3   4
ATOM      4  C   UNL     1      11.293   4.965   0.255  1.00  0.00     0.261 C 
BRANCH   4   5
ATOM      5  O   UNL     1      10.495   3.764   0.122  1.00  0.00    -0.463 OA
BRANCH   5   6
ATOM      6  C   UNL     1      10.262   3.094   1.279  1.00  0.00     0.310 C 
ATOM      7  O   UNL     1      10.749   3.435   2.358  1.00  0.00    -0.252 OA
BRANCH   6   8
ATOM      8  C   UNL     1       9.379   1.865   1.198  1.00  0.00     0.161 C 
BRANCH   8   9
ATOM      9  C   UNL     1       8.855   1.353  -0.126  1.00  0.00     0.000 A 
ATOM     10  C   UNL     1       7.563   1.508  -0.645  1.00  0.00     0.093 A 
ATOM     11  N   UNL     1       7.544   0.896  -1.877  1.00  0.00    -0.351 N 
ATOM     12  C   UNL     1       8.621   0.058  -2.000  1.00  0.00     0.048 A 
ATOM     13  H   UNL     1       6.857   1.039  -2.568  1.00  0.00     0.167 HD
ATOM     14  C   UNL     1       9.480   0.346  -0.939  1.00  0.00     0.004 A 
ATOM     15  C   UNL     1       8.874  -0.941  -2.946  1.00  0.00     0.047 A 
ATOM     16  C   UNL     1      10.663  -0.412  -0.817  1.00  0.00     0.012 A 
ATOM     17  C   UNL     1      10.025  -1.708  -2.766  1.00  0.00     0.043 A 
ATOM     18  C   UNL     1      10.911  -1.453  -1.723  1.00  0.00     0.021 A 
ATOM     19  Cl  UNL     1      10.336  -3.020  -3.840  1.00  0.00    -0.084 Cl
BRANCH  10  20
ATOM     20  C   UNL     1       6.427   2.196  -0.058  1.00  0.00     0.227 C 
ATOM     21  O   UNL     1       6.580   3.055   0.809  1.00  0.00    -0.285 OA
BRANCH  20  22
ATOM     22  C   UNL     1       5.033   1.850  -0.497  1.00  0.00     0.113 A 
ATOM     23  C   UNL     1       2.364   1.406  -0.908  1.00  0.00     0.140 A 
ATOM     24  C   UNL     1       2.911   2.672  -0.887  1.00  0.00     0.158 A 
ATOM     25  C   UNL     1       3.230   0.313  -0.908  1.00  0.00    -0.002 A 
ATOM     26  N   UNL     1       4.227   2.912  -0.706  1.00  0.00    -0.249 NA
ATOM     27  C   UNL     1       4.590   0.539  -0.634  1.00  0.00     0.040 A 
BRANCH  23  28
ATOM     28  O   UNL     1       1.014   1.242  -0.972  1.00  0.00    -0.492 OA
BRANCH  28  29
ATOM     29  C   UNL     1       0.423   1.268   0.345  1.00  0.00     0.226 C 
ATOM     30  C   UNL     1       0.106  -0.139   0.823  1.00  0.00     0.049 C 
ENDBRANCH  28  29
ENDBRANCH  23  28
BRANCH  25  31
ATOM     31  C   UNL     1       2.739  -1.060  -1.285  1.00  0.00     0.036 C 
ATOM     32  C   UNL     1       3.151  -1.384  -2.716  1.00  0.00     0.009 C 
ENDBRANCH  25  31
ENDBRANCH  20  22
ENDBRANCH  10  20
ENDBRANCH   8   9
ENDBRANCH   6   8
ENDBRANCH   5   6
ENDBRANCH   4   5
ENDBRANCH   3   4
ENDBRANCH   2   3
ENDBRANCH   1   2
BRANCH   1  33
ATOM     33  C   UNL     1       8.224   4.894  -1.530  1.00  0.00     0.188 C 
BRANCH  33  34
ATOM     34  O   UNL     1       8.766   5.284  -2.787  1.00  0.00    -0.376 OA
BRANCH  34  35
ATOM     35  C   UNL     1       8.417   6.577  -3.265  1.00  0.00     0.202 C 
BRANCH  35  36
ATOM     36  C   UNL     1       6.925   6.770  -3.511  1.00  0.00     0.261 C 
BRANCH  36  37
ATOM     37  O   UNL     1       6.215   6.876  -2.264  1.00  0.00    -0.460 OA
BRANCH  37  38
ATOM     38  C   UNL     1       4.945   6.411  -2.312  1.00  0.00     0.338 C 
ATOM     39  O   UNL     1       4.364   5.995  -3.301  1.00  0.00    -0.246 OA
BRANCH  38  40
ATOM     40  C   UNL     1       4.299   6.472  -0.987  1.00  0.00     0.060 A 
ATOM     41  C   UNL     1       4.733   5.645   0.042  1.00  0.00     0.016 A 
ATOM     42  C   UNL     1       3.094   7.155  -0.856  1.00  0.00     0.016 A 
ATOM     43  C   UNL     1       3.882   5.356   1.113  1.00  0.00     0.010 A 
ATOM     44  C   UNL     1       2.293   6.949   0.276  1.00  0.00     0.010 A 
ATOM     45  C   UNL     1       2.635   5.980   1.236  1.00  0.00    -0.014 A 
BRANCH  45  46
ATOM     46  C   UNL     1       1.651   5.556   2.283  1.00  0.00     0.031 A 
ATOM     47  C   UNL     1       0.255   5.116   1.887  1.00  0.00     0.074 A 
ATOM     48  C   UNL     1       1.997   5.524   3.588  1.00  0.00     0.049 A 
ATOM     49  N   UNL     1      -0.786   4.865   2.641  1.00  0.00    -0.248 NA
ATOM     50  C   UNL     1      -0.000   4.914   0.451  1.00  0.00     0.031 C 
ATOM     51  C   UNL     1       3.331   5.808   4.122  1.00  0.00     0.029 A 
ATOM     52  N   UNL     1       1.248   5.252   4.710  1.00  0.00    -0.354 N 
ATOM     53  C   UNL     1      -1.815   4.497   1.777  1.00  0.00     0.074 A 
ATOM     54  C   UNL     1      -1.279   4.568   0.436  1.00  0.00     0.031 C 
ATOM     55  C   UNL     1       3.308   5.689   5.457  1.00  0.00     0.029 A 
ATOM     56  C   UNL     1       1.938   5.447   5.887  1.00  0.00     0.049 A 
ATOM     57  H   UNL     1       0.313   4.948   4.676  1.00  0.00     0.167 HD
ATOM     58  C   UNL     1      -3.093   4.145   2.068  1.00  0.00     0.034 A 
ATOM     59  C   UNL     1       1.512   5.517   7.165  1.00  0.00     0.034 A 
ATOM     60  C   UNL     1      -3.638   4.140   3.403  1.00  0.00     0.049 A 
ATOM     61  C   UNL     1       0.044   5.336   7.449  1.00  0.00     0.074 A 
ATOM     62  C   UNL     1      -4.933   3.863   3.806  1.00  0.00     0.029 A 
ATOM     63  N   UNL     1      -2.927   4.459   4.552  1.00  0.00    -0.354 N 
ATOM     64  N   UNL     1      -0.929   5.043   6.617  1.00  0.00    -0.248 NA
ATOM     65  C   UNL     1      -0.385   5.512   8.842  1.00  0.00     0.031 C 
ATOM     66  C   UNL     1      -5.026   4.103   5.182  1.00  0.00     0.029 A 
ATOM     67  C   UNL     1      -3.768   4.439   5.655  1.00  0.00     0.049 A 
ATOM     68  H   UNL     1      -1.965   4.668   4.580  1.00  0.00     0.167 HD
ATOM     69  C   UNL     1      -2.083   4.981   7.393  1.00  0.00     0.074 A 
ATOM     70  C   UNL     1      -1.680   5.247   8.759  1.00  0.00     0.031 C 
ATOM     71  C   UNL     1      -3.360   4.725   7.010  1.00  0.00     0.034 A 
BRANCH  58  72
ATOM     72  C   UNL     1      -4.013   3.836   0.910  1.00  0.00     0.023 A 
ATOM     73  C   UNL     1      -3.854   2.690   0.111  1.00  0.00     0.031 A 
ATOM     74  C   UNL     1      -5.062   4.719   0.594  1.00  0.00     0.131 A 
ATOM     75  C   UNL     1      -4.701   2.483  -0.991  1.00  0.00     0.055 A 
ATOM     76  C   UNL     1      -5.938   4.476  -0.465  1.00  0.00     0.041 A 
ATOM     77  F   UNL     1      -5.247   5.841   1.308  1.00  0.00    -0.206 F 
ATOM     78  C   UNL     1      -5.754   3.357  -1.272  1.00  0.00     0.022 A 
BRANCH  75  79
ATOM     79  S   UNL     1      -4.343   1.110  -2.123  1.00  0.00     0.124 S 
ATOM     80  O   UNL     1      -2.995   1.445  -2.575  1.00  0.00    -0.237 OA
ATOM     81  O   UNL     1      -4.451  -0.054  -1.250  1.00  0.00    -0.237 OA
ATOM     82  O   UNL     1      -5.383   1.224  -3.143  1.00  0.00    -0.744 OA
ENDBRANCH  75  79
ENDBRANCH  58  72
BRANCH  59  83
ATOM     83  C   UNL     1       2.462   5.895   8.255  1.00  0.00     0.023 A 
ATOM     84  C   UNL     1       2.708   5.044   9.342  1.00  0.00     0.031 A 
ATOM     85  C   UNL     1       3.107   7.148   8.242  1.00  0.00     0.131 A 
ATOM     86  C   UNL     1       3.550   5.468  10.384  1.00  0.00     0.055 A 
ATOM     87  C   UNL     1       3.995   7.536   9.245  1.00  0.00     0.041 A 
ATOM     88  F   UNL     1       2.894   8.014   7.238  1.00  0.00    -0.206 F 
ATOM     89  C   UNL     1       4.212   6.697  10.332  1.00  0.00     0.022 A 
BRANCH  86  90
ATOM     90  S   UNL     1       3.695   4.428  11.864  1.00  0.00     0.124 S 
ATOM     91  O   UNL     1       2.304   4.324  12.291  1.00  0.00    -0.237 OA
ATOM     92  O   UNL     1       4.292   3.211  11.322  1.00  0.00    -0.237 OA
ATOM     93  O   UNL     1       4.562   5.207  12.745  1.00  0.00    -0.744 OA
ENDBRANCH  86  90
ENDBRANCH  59  83
BRANCH  71  94
ATOM     94  C   UNL     1      -4.403   4.678   8.100  1.00  0.00     0.023 A 
ATOM     95  C   UNL     1      -4.761   5.825   8.830  1.00  0.00     0.031 A 
ATOM     96  C   UNL     1      -5.027   3.462   8.429  1.00  0.00     0.131 A 
ATOM     97  C   UNL     1      -5.670   5.718   9.893  1.00  0.00     0.055 A 
ATOM     98  C   UNL     1      -5.979   3.375   9.444  1.00  0.00     0.041 A 
ATOM     99  F   UNL     1      -4.719   2.335   7.766  1.00  0.00    -0.206 F 
ATOM    100  C   UNL     1      -6.295   4.505  10.194  1.00  0.00     0.022 A 
BRANCH  97 101
ATOM    101  S   UNL     1      -5.949   7.167  10.948  1.00  0.00     0.124 S 
ATOM    102  O   UNL     1      -4.604   7.447  11.439  1.00  0.00    -0.237 OA
ATOM    103  O   UNL     1      -6.500   8.137  10.008  1.00  0.00    -0.237 OA
ATOM    104  O   UNL     1      -6.889   6.681  11.957  1.00  0.00    -0.744 OA
ENDBRANCH  97 101
ENDBRANCH  71  94
ENDBRANCH  45  46
ENDBRANCH  38  40
ENDBRANCH  37  38
ENDBRANCH  36  37
ENDBRANCH  35  36
ENDBRANCH  34  35
ENDBRANCH  33  34
ENDBRANCH   1  33
TORSDOF 26
