REMARK SMILES C/C=C/C[C@@H](C(=O)OCCOCCOCCOC(=O)c1ccc(-c2c3nc(c(-c4cc(S(=O)(=O)[O-])ccc4F)c4ccc([nH]4)c(-c4cc(S(=O)(=O)[O-])ccc4F)c4nc(c(-c5cc(S(=O)(=O)[O-])ccc5F)c5ccc2[nH]5)C=C4)C=C3)cc1)c1cccc(Cl)c1
REMARK SMILES IDX 13 1 12 2 11 3 10 4 9 5 8 6 6 7 7 8 5 9 4 10 3 11 1 12 2 13
REMARK SMILES IDX 83 14 84 15 89 16 85 17 87 18 86 19 88 20 14 21 15 22 16 23
REMARK SMILES IDX 17 24 18 25 19 26 20 27 21 28 82 29 22 30 81 31 23 32 24 33
REMARK SMILES IDX 25 34 75 35 26 36 80 37 74 38 76 39 27 40 79 41 73 42 72 43
REMARK SMILES IDX 28 45 60 46 40 47 59 48 41 49 44 50 58 51 77 52 42 53 43 54
REMARK SMILES IDX 57 56 78 57 45 58 29 59 30 60 38 61 31 62 37 63 39 64 36 65
REMARK SMILES IDX 32 66 33 67 34 68 35 69 61 70 62 71 70 72 63 73 69 74 71 75
REMARK SMILES IDX 68 76 64 77 65 78 66 79 67 80 46 81 47 82 55 83 48 84 54 85
REMARK SMILES IDX 56 86 53 87 49 88 50 89 51 90 52 91
REMARK H PARENT 76 44 44 55
REMARK Flexibility Score: inf
ROOT
ATOM      1  C   UNL     1      -2.882   2.152   3.473  1.00  0.00     0.188 C 
ENDROOT
BRANCH   1   2
ATOM      2  C   UNL     1      -2.812   3.111   4.670  1.00  0.00     0.188 C 
BRANCH   2   3
ATOM      3  O   UNL     1      -2.673   4.505   4.415  1.00  0.00    -0.376 OA
BRANCH   3   4
ATOM      4  C   UNL     1      -1.692   4.911   3.465  1.00  0.00     0.202 C 
BRANCH   4   5
ATOM      5  C   UNL     1      -0.268   4.340   3.600  1.00  0.00     0.261 C 
BRANCH   5   6
ATOM      6  O   UNL     1      -0.200   2.897   3.684  1.00  0.00    -0.463 OA
BRANCH   6   7
ATOM      7  C   UNL     1       0.701   2.372   4.556  1.00  0.00     0.313 C 
ATOM      8  O   UNL     1       1.482   3.064   5.205  1.00  0.00    -0.252 OA
BRANCH   7   9
ATOM      9  C   UNL     1       0.620   0.842   4.741  1.00  0.00     0.133 C 
BRANCH   9  10
ATOM     10  C   UNL     1       0.141  -0.024   3.540  1.00  0.00     0.047 C 
BRANCH  10  11
ATOM     11  C   UNL     1       0.446   0.397   2.128  1.00  0.00    -0.030 C 
ATOM     12  C   UNL     1       1.275  -0.056  -0.194  1.00  0.00     0.035 C 
ATOM     13  C   UNL     1       1.070  -0.399   1.245  1.00  0.00    -0.035 C 
ENDBRANCH  10  11
ENDBRANCH   9  10
BRANCH   9  14
ATOM     14  C   UNL     1      -0.069   0.396   6.057  1.00  0.00    -0.032 A 
ATOM     15  C   UNL     1      -0.487   1.297   7.052  1.00  0.00     0.005 A 
ATOM     16  C   UNL     1      -0.243  -0.978   6.332  1.00  0.00     0.025 A 
ATOM     17  C   UNL     1      -1.078   0.850   8.244  1.00  0.00     0.002 A 
ATOM     18  C   UNL     1      -0.829  -1.421   7.524  1.00  0.00     0.041 A 
ATOM     19  C   UNL     1      -1.251  -0.511   8.481  1.00  0.00     0.020 A 
ATOM     20  Cl  UNL     1      -1.010  -3.109   7.801  1.00  0.00    -0.084 Cl
ENDBRANCH   9  14
ENDBRANCH   7   9
ENDBRANCH   6   7
ENDBRANCH   5   6
ENDBRANCH   4   5
ENDBRANCH   3   4
ENDBRANCH   2   3
ENDBRANCH   1   2
BRANCH   1  21
ATOM     21  O   UNL     1      -2.807   2.792   2.216  1.00  0.00    -0.376 OA
BRANCH  21  22
ATOM     22  C   UNL     1      -3.777   2.442   1.244  1.00  0.00     0.202 C 
BRANCH  22  23
ATOM     23  C   UNL     1      -5.228   2.837   1.572  1.00  0.00     0.261 C 
BRANCH  23  24
ATOM     24  O   UNL     1      -5.748   2.358   2.826  1.00  0.00    -0.460 OA
BRANCH  24  25
ATOM     25  C   UNL     1      -5.899   1.017   2.953  1.00  0.00     0.338 C 
ATOM     26  O   UNL     1      -5.702   0.186   2.079  1.00  0.00    -0.246 OA
BRANCH  25  27
ATOM     27  C   UNL     1      -6.058   0.706   4.397  1.00  0.00     0.060 A 
ATOM     28  C   UNL     1      -5.189  -0.226   4.986  1.00  0.00     0.016 A 
ATOM     29  C   UNL     1      -7.024   1.348   5.175  1.00  0.00     0.016 A 
ATOM     30  C   UNL     1      -5.320  -0.558   6.337  1.00  0.00     0.010 A 
ATOM     31  C   UNL     1      -7.168   0.999   6.524  1.00  0.00     0.010 A 
ATOM     32  C   UNL     1      -6.347   0.011   7.101  1.00  0.00    -0.014 A 
BRANCH  32  33
ATOM     33  C   UNL     1      -6.718  -0.605   8.405  1.00  0.00     0.031 A 
ATOM     34  C   UNL     1      -7.885  -1.562   8.424  1.00  0.00     0.074 A 
ATOM     35  C   UNL     1      -6.028  -0.367   9.536  1.00  0.00     0.049 A 
ATOM     36  N   UNL     1      -8.429  -2.197   9.430  1.00  0.00    -0.248 NA
ATOM     37  C   UNL     1      -8.529  -1.827   7.127  1.00  0.00     0.031 C 
ATOM     38  C   UNL     1      -4.857   0.500   9.647  1.00  0.00     0.029 A 
ATOM     39  N   UNL     1      -6.221  -0.834  10.815  1.00  0.00    -0.354 N 
ATOM     40  C   UNL     1      -9.483  -2.928   8.890  1.00  0.00     0.074 A 
ATOM     41  C   UNL     1      -9.525  -2.624   7.476  1.00  0.00     0.031 C 
ATOM     42  C   UNL     1      -4.441   0.510  10.927  1.00  0.00     0.029 A 
ATOM     43  C   UNL     1      -5.336  -0.319  11.735  1.00  0.00     0.049 A 
ATOM     44  H   UNL     1      -6.928  -1.477  11.050  1.00  0.00     0.167 HD
ATOM     45  C   UNL     1     -10.333  -3.782   9.511  1.00  0.00     0.034 A 
ATOM     46  C   UNL     1      -5.273  -0.479  13.075  1.00  0.00     0.034 A 
ATOM     47  C   UNL     1     -10.286  -4.077  10.922  1.00  0.00     0.049 A 
ATOM     48  C   UNL     1      -6.278  -1.384  13.758  1.00  0.00     0.074 A 
ATOM     49  C   UNL     1     -11.091  -4.938  11.647  1.00  0.00     0.029 A 
ATOM     50  N   UNL     1      -9.395  -3.513  11.826  1.00  0.00    -0.354 N 
ATOM     51  N   UNL     1      -7.263  -2.078  13.234  1.00  0.00    -0.248 NA
ATOM     52  C   UNL     1      -6.149  -1.538  15.214  1.00  0.00     0.031 C 
ATOM     53  C   UNL     1     -10.744  -4.832  12.998  1.00  0.00     0.029 A 
ATOM     54  C   UNL     1      -9.654  -3.983  13.105  1.00  0.00     0.049 A 
ATOM     55  H   UNL     1      -8.684  -2.874  11.593  1.00  0.00     0.167 HD
ATOM     56  C   UNL     1      -7.838  -2.782  14.292  1.00  0.00     0.074 A 
ATOM     57  C   UNL     1      -7.080  -2.442  15.476  1.00  0.00     0.031 C 
ATOM     58  C   UNL     1      -8.894  -3.638  14.285  1.00  0.00     0.034 A 
BRANCH  45  59
ATOM     59  C   UNL     1     -11.424  -4.410   8.676  1.00  0.00     0.023 A 
ATOM     60  C   UNL     1     -11.141  -5.289   7.615  1.00  0.00     0.031 A 
ATOM     61  C   UNL     1     -12.773  -4.111   8.940  1.00  0.00     0.131 A 
ATOM     62  C   UNL     1     -12.186  -5.786   6.821  1.00  0.00     0.055 A 
ATOM     63  C   UNL     1     -13.812  -4.675   8.199  1.00  0.00     0.041 A 
ATOM     64  F   UNL     1     -13.103  -3.256   9.921  1.00  0.00    -0.206 F 
ATOM     65  C   UNL     1     -13.521  -5.508   7.124  1.00  0.00     0.022 A 
BRANCH  62  66
ATOM     66  S   UNL     1     -11.772  -6.691   5.304  1.00  0.00     0.124 S 
ATOM     67  O   UNL     1     -10.988  -5.699   4.574  1.00  0.00    -0.237 OA
ATOM     68  O   UNL     1     -11.034  -7.841   5.814  1.00  0.00    -0.237 OA
ATOM     69  O   UNL     1     -13.077  -6.996   4.720  1.00  0.00    -0.744 OA
ENDBRANCH  62  66
ENDBRANCH  45  59
BRANCH  46  70
ATOM     70  C   UNL     1      -4.257   0.259  13.887  1.00  0.00     0.023 A 
ATOM     71  C   UNL     1      -3.304  -0.421  14.664  1.00  0.00     0.031 A 
ATOM     72  C   UNL     1      -4.287   1.663  13.969  1.00  0.00     0.131 A 
ATOM     73  C   UNL     1      -2.466   0.297  15.533  1.00  0.00     0.055 A 
ATOM     74  C   UNL     1      -3.408   2.377  14.785  1.00  0.00     0.041 A 
ATOM     75  F   UNL     1      -5.182   2.366  13.256  1.00  0.00    -0.206 F 
ATOM     76  C   UNL     1      -2.501   1.692  15.587  1.00  0.00     0.022 A 
BRANCH  73  77
ATOM     77  S   UNL     1      -1.407  -0.625  16.684  1.00  0.00     0.124 S 
ATOM     78  O   UNL     1      -2.387  -1.425  17.410  1.00  0.00    -0.237 OA
ATOM     79  O   UNL     1      -0.533  -1.354  15.770  1.00  0.00    -0.237 OA
ATOM     80  O   UNL     1      -0.755   0.425  17.463  1.00  0.00    -0.744 OA
ENDBRANCH  73  77
ENDBRANCH  46  70
BRANCH  58  81
ATOM     81  C   UNL     1      -9.244  -4.322  15.589  1.00  0.00     0.023 A 
ATOM     82  C   UNL     1      -9.665  -3.604  16.723  1.00  0.00     0.031 A 
ATOM     83  C   UNL     1      -9.120  -5.719  15.708  1.00  0.00     0.131 A 
ATOM     84  C   UNL     1      -9.865  -4.271  17.942  1.00  0.00     0.055 A 
ATOM     85  C   UNL     1      -9.398  -6.387  16.901  1.00  0.00     0.041 A 
ATOM     86  F   UNL     1      -8.721  -6.462  14.663  1.00  0.00    -0.206 F 
ATOM     87  C   UNL     1      -9.753  -5.661  18.033  1.00  0.00     0.022 A 
BRANCH  84  88
ATOM     88  S   UNL     1     -10.135  -3.285  19.441  1.00  0.00     0.124 S 
ATOM     89  O   UNL     1      -8.976  -2.399  19.433  1.00  0.00    -0.237 OA
ATOM     90  O   UNL     1     -11.422  -2.654  19.170  1.00  0.00    -0.237 OA
ATOM     91  O   UNL     1     -10.147  -4.282  20.510  1.00  0.00    -0.744 OA
ENDBRANCH  84  88
ENDBRANCH  58  81
ENDBRANCH  32  33
ENDBRANCH  25  27
ENDBRANCH  24  25
ENDBRANCH  23  24
ENDBRANCH  22  23
ENDBRANCH  21  22
ENDBRANCH   1  21
TORSDOF 23
