REMARK SMILES CCOC(=O)c1c(NC(=O)[C@@H]2[C@@H]3CC[C@@H](C3)[C@@H]2C(=O)OCCOCCOCCOC(=O)c2ccc(-c3c4nc(c(-c5cc(S(=O)(=O)[O-])ccc5F)c5ccc([nH]5)c(-c5cc(S(=O)(=O)[O-])ccc5F)c5nc(c(-c6cc(S(=O)(=O)[O-])ccc6F)c6ccc3[nH]6)C=C5)C=C4)cc2)sc2c1CCCC2
REMARK SMILES IDX 24 1 23 2 22 3 21 4 20 5 18 6 19 7 17 8 11 9 12 10 13 11
REMARK SMILES IDX 16 12 15 13 14 14 9 15 8 16 10 18 7 19 6 20 97 21 95 22
REMARK SMILES IDX 96 23 98 24 101 25 99 26 100 27 4 28 5 29 3 30 2 31 1 32
REMARK SMILES IDX 25 33 26 34 27 35 28 36 29 37 30 38 31 39 32 40 33 41 94 42
REMARK SMILES IDX 34 43 93 44 35 45 36 46 37 47 87 48 38 49 92 50 86 51 88 52
REMARK SMILES IDX 39 53 91 54 85 55 84 56 40 58 72 59 52 60 71 61 53 62 56 63
REMARK SMILES IDX 70 64 89 65 54 66 55 67 69 69 90 70 57 71 41 72 42 73 50 74
REMARK SMILES IDX 43 75 49 76 51 77 48 78 44 79 45 80 46 81 47 82 73 83 74 84
REMARK SMILES IDX 82 85 75 86 81 87 83 88 80 89 76 90 77 91 78 92 79 93 58 94
REMARK SMILES IDX 59 95 67 96 60 97 66 98 68 99 65 100 61 101 62 102 63 103
REMARK SMILES IDX 64 104
REMARK H PARENT 8 17 88 57 56 68
REMARK Flexibility Score: inf
ROOT
ATOM      1  C   UNL     1       2.595  -1.772   4.720  1.00  0.00     0.188 C 
ENDROOT
BRANCH   1   2
ATOM      2  O   UNL     1       3.889  -2.327   4.958  1.00  0.00    -0.376 OA
BRANCH   2   3
ATOM      3  C   UNL     1       5.040  -1.547   4.665  1.00  0.00     0.202 C 
BRANCH   3   4
ATOM      4  C   UNL     1       5.473  -1.517   3.197  1.00  0.00     0.261 C 
BRANCH   4   5
ATOM      5  O   UNL     1       4.652  -0.691   2.343  1.00  0.00    -0.463 OA
BRANCH   5   6
ATOM      6  C   UNL     1       3.752  -1.355   1.580  1.00  0.00     0.310 C 
ATOM      7  O   UNL     1       3.534  -2.558   1.675  1.00  0.00    -0.252 OA
BRANCH   6   8
ATOM      8  C   UNL     1       3.179  -0.524   0.448  1.00  0.00     0.115 C 
ATOM      9  C   UNL     1       2.928   0.996   0.454  1.00  0.00     0.096 C 
ATOM     10  C   UNL     1       1.443   1.104   0.014  1.00  0.00     0.003 C 
ATOM     11  C   UNL     1       0.469   0.553   1.058  1.00  0.00     0.005 C 
ATOM     12  C   UNL     1       1.382  -0.009  -1.040  1.00  0.00     0.009 C 
ATOM     13  C   UNL     1       1.820  -1.087  -0.048  1.00  0.00     0.004 C 
ATOM     14  C   UNL     1       0.749  -0.950   1.044  1.00  0.00     0.005 C 
BRANCH   9  15
ATOM     15  C   UNL     1       3.340   1.826   1.637  1.00  0.00     0.229 C 
ATOM     16  N   UNL     1       4.616   2.249   1.822  1.00  0.00    -0.317 N 
ATOM     17  H   UNL     1       4.728   2.715   2.682  1.00  0.00     0.170 HD
ATOM     18  O   UNL     1       2.527   2.165   2.502  1.00  0.00    -0.274 OA
BRANCH  16  19
ATOM     19  C   UNL     1       5.793   2.192   1.112  1.00  0.00     0.110 A 
ATOM     20  C   UNL     1       6.307   1.785  -0.111  1.00  0.00     0.098 A 
ATOM     21  C   UNL     1       7.732   2.057  -0.187  1.00  0.00    -0.017 A 
ATOM     22  S   UNL     1       7.014   2.890   2.111  1.00  0.00    -0.122 S 
ATOM     23  C   UNL     1       8.209   2.688   0.939  1.00  0.00     0.011 A 
ATOM     24  C   UNL     1       8.608   1.800  -1.383  1.00  0.00     0.038 C 
ATOM     25  C   UNL     1       9.616   3.154   1.139  1.00  0.00     0.047 C 
ATOM     26  C   UNL     1      10.097   1.977  -1.056  1.00  0.00     0.005 C 
ATOM     27  C   UNL     1      10.345   3.233  -0.211  1.00  0.00     0.006 C 
BRANCH  20  28
ATOM     28  C   UNL     1       5.620   1.250  -1.271  1.00  0.00     0.341 C 
ATOM     29  O   UNL     1       4.987   1.962  -2.055  1.00  0.00    -0.246 OA
BRANCH  28  30
ATOM     30  O   UNL     1       5.883  -0.072  -1.456  1.00  0.00    -0.462 OA
BRANCH  30  31
ATOM     31  C   UNL     1       5.428  -0.657  -2.690  1.00  0.00     0.230 C 
ATOM     32  C   UNL     1       4.960  -2.080  -2.437  1.00  0.00     0.049 C 
ENDBRANCH  30  31
ENDBRANCH  28  30
ENDBRANCH  20  28
ENDBRANCH  16  19
ENDBRANCH   9  15
ENDBRANCH   6   8
ENDBRANCH   5   6
ENDBRANCH   4   5
ENDBRANCH   3   4
ENDBRANCH   2   3
ENDBRANCH   1   2
BRANCH   1  33
ATOM     33  C   UNL     1       2.455  -0.250   4.678  1.00  0.00     0.188 C 
BRANCH  33  34
ATOM     34  O   UNL     1       2.961   0.335   5.880  1.00  0.00    -0.376 OA
BRANCH  34  35
ATOM     35  C   UNL     1       2.138   1.380   6.395  1.00  0.00     0.202 C 
BRANCH  35  36
ATOM     36  C   UNL     1       1.148   0.784   7.402  1.00  0.00     0.261 C 
BRANCH  36  37
ATOM     37  O   UNL     1       0.171  -0.052   6.755  1.00  0.00    -0.460 OA
BRANCH  37  38
ATOM     38  C   UNL     1      -0.753   0.633   6.042  1.00  0.00     0.338 C 
ATOM     39  O   UNL     1      -0.900   1.847   6.033  1.00  0.00    -0.246 OA
BRANCH  38  40
ATOM     40  C   UNL     1      -1.429  -0.287   5.106  1.00  0.00     0.060 A 
ATOM     41  C   UNL     1      -1.646   0.169   3.803  1.00  0.00     0.016 A 
ATOM     42  C   UNL     1      -1.857  -1.564   5.485  1.00  0.00     0.016 A 
ATOM     43  C   UNL     1      -2.312  -0.638   2.882  1.00  0.00     0.010 A 
ATOM     44  C   UNL     1      -2.557  -2.360   4.569  1.00  0.00     0.010 A 
ATOM     45  C   UNL     1      -2.810  -1.888   3.271  1.00  0.00    -0.014 A 
BRANCH  45  46
ATOM     46  C   UNL     1      -3.793  -2.565   2.391  1.00  0.00     0.031 A 
ATOM     47  C   UNL     1      -5.206  -2.045   2.390  1.00  0.00     0.074 A 
ATOM     48  C   UNL     1      -3.449  -3.584   1.585  1.00  0.00     0.049 A 
ATOM     49  N   UNL     1      -6.240  -2.440   1.694  1.00  0.00    -0.248 NA
ATOM     50  C   UNL     1      -5.480  -0.912   3.289  1.00  0.00     0.031 C 
ATOM     51  C   UNL     1      -2.106  -4.143   1.448  1.00  0.00     0.029 A 
ATOM     52  N   UNL     1      -4.216  -4.335   0.727  1.00  0.00    -0.354 N 
ATOM     53  C   UNL     1      -7.275  -1.580   2.040  1.00  0.00     0.074 A 
ATOM     54  C   UNL     1      -6.752  -0.664   3.030  1.00  0.00     0.031 C 
ATOM     55  C   UNL     1      -2.149  -5.169   0.577  1.00  0.00     0.029 A 
ATOM     56  C   UNL     1      -3.525  -5.354   0.115  1.00  0.00     0.049 A 
ATOM     57  H   UNL     1      -5.171  -4.159   0.565  1.00  0.00     0.167 HD
ATOM     58  C   UNL     1      -8.550  -1.554   1.583  1.00  0.00     0.034 A 
ATOM     59  C   UNL     1      -3.964  -6.338  -0.697  1.00  0.00     0.034 A 
ATOM     60  C   UNL     1      -9.099  -2.530   0.678  1.00  0.00     0.049 A 
ATOM     61  C   UNL     1      -5.427  -6.385  -1.077  1.00  0.00     0.074 A 
ATOM     62  C   UNL     1     -10.395  -2.642   0.208  1.00  0.00     0.029 A 
ATOM     63  N   UNL     1      -8.385  -3.590   0.133  1.00  0.00    -0.354 N 
ATOM     64  N   UNL     1      -6.397  -5.563  -0.747  1.00  0.00    -0.248 NA
ATOM     65  C   UNL     1      -5.852  -7.495  -1.943  1.00  0.00     0.031 C 
ATOM     66  C   UNL     1     -10.481  -3.806  -0.566  1.00  0.00     0.029 A 
ATOM     67  C   UNL     1      -9.222  -4.381  -0.638  1.00  0.00     0.049 A 
ATOM     68  H   UNL     1      -7.425  -3.755   0.275  1.00  0.00     0.167 HD
ATOM     69  C   UNL     1      -7.539  -6.046  -1.383  1.00  0.00     0.074 A 
ATOM     70  C   UNL     1      -7.135  -7.221  -2.127  1.00  0.00     0.031 C 
ATOM     71  C   UNL     1      -8.808  -5.561  -1.360  1.00  0.00     0.034 A 
BRANCH  58  72
ATOM     72  C   UNL     1      -9.438  -0.475   2.146  1.00  0.00     0.023 A 
ATOM     73  C   UNL     1      -9.204   0.883   1.866  1.00  0.00     0.031 A 
ATOM     74  C   UNL     1     -10.462  -0.800   3.052  1.00  0.00     0.131 A 
ATOM     75  C   UNL     1      -9.934   1.871   2.544  1.00  0.00     0.055 A 
ATOM     76  C   UNL     1     -11.232   0.186   3.670  1.00  0.00     0.041 A 
ATOM     77  F   UNL     1     -10.704  -2.079   3.379  1.00  0.00    -0.206 F 
ATOM     78  C   UNL     1     -10.959   1.530   3.431  1.00  0.00     0.022 A 
BRANCH  75  79
ATOM     79  S   UNL     1      -9.416   3.602   2.377  1.00  0.00     0.124 S 
ATOM     80  O   UNL     1      -8.021   3.538   2.805  1.00  0.00    -0.237 OA
ATOM     81  O   UNL     1      -9.640   3.861   0.959  1.00  0.00    -0.237 OA
ATOM     82  O   UNL     1     -10.308   4.315   3.290  1.00  0.00    -0.744 OA
ENDBRANCH  75  79
ENDBRANCH  58  72
BRANCH  59  83
ATOM     83  C   UNL     1      -3.037  -7.415  -1.152  1.00  0.00     0.023 A 
ATOM     84  C   UNL     1      -2.733  -7.598  -2.510  1.00  0.00     0.031 A 
ATOM     85  C   UNL     1      -2.510  -8.336  -0.227  1.00  0.00     0.131 A 
ATOM     86  C   UNL     1      -1.963  -8.703  -2.911  1.00  0.00     0.055 A 
ATOM     87  C   UNL     1      -1.707  -9.405  -0.625  1.00  0.00     0.041 A 
ATOM     88  F   UNL     1      -2.778  -8.211   1.082  1.00  0.00    -0.206 F 
ATOM     89  C   UNL     1      -1.440  -9.601  -1.976  1.00  0.00     0.022 A 
BRANCH  86  90
ATOM     90  S   UNL     1      -1.722  -9.002  -4.684  1.00  0.00     0.124 S 
ATOM     91  O   UNL     1      -3.095  -9.171  -5.147  1.00  0.00    -0.237 OA
ATOM     92  O   UNL     1      -1.048  -7.780  -5.110  1.00  0.00    -0.237 OA
ATOM     93  O   UNL     1      -0.898 -10.209  -4.718  1.00  0.00    -0.744 OA
ENDBRANCH  86  90
ENDBRANCH  59  83
BRANCH  71  94
ATOM     94  C   UNL     1      -9.838  -6.282  -2.195  1.00  0.00     0.023 A 
ATOM     95  C   UNL     1     -10.280  -7.577  -1.874  1.00  0.00     0.031 A 
ATOM     96  C   UNL     1     -10.384  -5.659  -3.332  1.00  0.00     0.131 A 
ATOM     97  C   UNL     1     -11.207  -8.226  -2.706  1.00  0.00     0.055 A 
ATOM     98  C   UNL     1     -11.342  -6.289  -4.127  1.00  0.00     0.041 A 
ATOM     99  F   UNL     1      -9.997  -4.423  -3.685  1.00  0.00    -0.206 F 
ATOM    100  C   UNL     1     -11.750  -7.584  -3.822  1.00  0.00     0.022 A 
BRANCH  97 101
ATOM    101  S   UNL     1     -11.638  -9.954  -2.356  1.00  0.00     0.124 S 
ATOM    102  O   UNL     1     -10.333 -10.606  -2.385  1.00  0.00    -0.237 OA
ATOM    103  O   UNL     1     -12.275  -9.857  -1.047  1.00  0.00    -0.237 OA
ATOM    104  O   UNL     1     -12.534 -10.313  -3.454  1.00  0.00    -0.744 OA
ENDBRANCH  97 101
ENDBRANCH  71  94
ENDBRANCH  45  46
ENDBRANCH  38  40
ENDBRANCH  37  38
ENDBRANCH  36  37
ENDBRANCH  35  36
ENDBRANCH  34  35
ENDBRANCH  33  34
ENDBRANCH   1  33
TORSDOF 25
