REMARK SMILES O=C(C[C@@H]1CSCC[NH2+]1)NC[C@H]1CC[C@@H](C(=O)OCCOCCOCCOC(=O)c2ccc(-c3c4nc(c(-c5cc(S(=O)(=O)[O-])ccc5F)c5ccc([nH]5)c(-c5cc(S(=O)(=O)[O-])ccc5F)c5nc(c(-c6cc(S(=O)(=O)[O-])ccc6F)c6ccc3[nH]6)C=C5)C=C4)cc2)O1
REMARK SMILES IDX 22 1 21 2 20 3 19 4 18 5 16 6 17 7 15 8 12 9 13 10 93 11
REMARK SMILES IDX 14 12 11 13 10 14 1 15 2 16 3 18 4 19 5 20 9 21 6 22 8 23
REMARK SMILES IDX 7 26 23 27 24 28 25 29 26 30 27 31 28 32 29 33 30 34 31 35
REMARK SMILES IDX 92 36 32 37 91 38 33 39 34 40 35 41 85 42 36 43 90 44 84 45
REMARK SMILES IDX 86 46 37 47 89 48 83 49 82 50 38 52 70 53 50 54 69 55 51 56
REMARK SMILES IDX 54 57 68 58 87 59 52 60 53 61 67 63 88 64 55 65 39 66 40 67
REMARK SMILES IDX 48 68 41 69 47 70 49 71 46 72 42 73 43 74 44 75 45 76 71 77
REMARK SMILES IDX 72 78 80 79 73 80 79 81 81 82 78 83 74 84 75 85 76 86 77 87
REMARK SMILES IDX 56 88 57 89 65 90 58 91 64 92 66 93 63 94 59 95 60 96 61 97
REMARK SMILES IDX 62 98
REMARK H PARENT 10 17 9 24 9 25 86 51 54 62
REMARK Flexibility Score: inf
ROOT
ATOM      1  C   UNL     1       5.439  -5.945   3.991  1.00  0.00     0.188 C 
ENDROOT
BRANCH   1   2
ATOM      2  O   UNL     1       5.565  -6.976   4.970  1.00  0.00    -0.376 OA
BRANCH   2   3
ATOM      3  C   UNL     1       4.948  -8.232   4.724  1.00  0.00     0.202 C 
BRANCH   3   4
ATOM      4  C   UNL     1       3.423  -8.232   4.619  1.00  0.00     0.261 C 
BRANCH   4   5
ATOM      5  O   UNL     1       2.939  -7.343   3.596  1.00  0.00    -0.461 OA
BRANCH   5   6
ATOM      6  C   UNL     1       1.977  -6.465   3.980  1.00  0.00     0.335 C 
ATOM      7  O   UNL     1       1.410  -6.494   5.068  1.00  0.00    -0.249 OA
BRANCH   6   8
ATOM      8  C   UNL     1       1.658  -5.404   2.915  1.00  0.00     0.228 C 
ATOM      9  C   UNL     1       2.030  -3.630   1.513  1.00  0.00     0.138 C 
ATOM     10  C   UNL     1       1.143  -4.635   0.764  1.00  0.00     0.037 C 
ATOM     11  O   UNL     1       2.624  -4.389   2.606  1.00  0.00    -0.361 OA
ATOM     12  C   UNL     1       1.339  -5.935   1.533  1.00  0.00     0.047 C 
BRANCH   9  13
ATOM     13  C   UNL     1       3.081  -2.842   0.708  1.00  0.00     0.147 C 
BRANCH  13  14
ATOM     14  N   UNL     1       3.373  -3.358  -0.622  1.00  0.00    -0.353 N 
ATOM     15  O   UNL     1       3.622  -1.300  -1.586  1.00  0.00    -0.275 OA
ATOM     16  C   UNL     1       3.617  -2.524  -1.689  1.00  0.00     0.226 C 
ATOM     17  H   UNL     1       3.398  -4.332  -0.762  1.00  0.00     0.163 HD
BRANCH  16  18
ATOM     18  C   UNL     1       3.798  -3.191  -3.043  1.00  0.00     0.165 C 
BRANCH  18  19
ATOM     19  C   UNL     1       5.106  -3.933  -3.386  1.00  0.00     0.201 C 
ATOM     20  C   UNL     1       5.121  -5.411  -2.958  1.00  0.00     0.135 C 
ATOM     21  N   UNL     1       6.371  -3.240  -3.103  1.00  0.00    -0.342 N 
ATOM     22  S   UNL     1       5.339  -5.627  -1.183  1.00  0.00    -0.150 SA
ATOM     23  C   UNL     1       6.763  -3.220  -1.692  1.00  0.00     0.271 C 
ATOM     24  H   UNL     1       6.280  -2.275  -3.420  1.00  0.00     0.346 HD
ATOM     25  H   UNL     1       7.098  -3.761  -3.594  1.00  0.00     0.346 HD
ATOM     26  C   UNL     1       6.830  -4.585  -1.002  1.00  0.00     0.131 C 
ENDBRANCH  18  19
ENDBRANCH  16  18
ENDBRANCH  13  14
ENDBRANCH   9  13
ENDBRANCH   6   8
ENDBRANCH   5   6
ENDBRANCH   4   5
ENDBRANCH   3   4
ENDBRANCH   2   3
ENDBRANCH   1   2
BRANCH   1  27
ATOM     27  C   UNL     1       5.472  -6.323   2.496  1.00  0.00     0.188 C 
BRANCH  27  28
ATOM     28  O   UNL     1       6.208  -7.513   2.229  1.00  0.00    -0.376 OA
BRANCH  28  29
ATOM     29  C   UNL     1       7.392  -7.355   1.463  1.00  0.00     0.202 C 
BRANCH  29  30
ATOM     30  C   UNL     1       8.518  -6.659   2.218  1.00  0.00     0.261 C 
BRANCH  30  31
ATOM     31  O   UNL     1       8.134  -5.323   2.594  1.00  0.00    -0.460 OA
BRANCH  31  32
ATOM     32  C   UNL     1       8.807  -4.291   2.054  1.00  0.00     0.338 C 
ATOM     33  O   UNL     1       9.720  -4.353   1.242  1.00  0.00    -0.246 OA
BRANCH  32  34
ATOM     34  C   UNL     1       8.290  -3.034   2.633  1.00  0.00     0.060 A 
ATOM     35  C   UNL     1       6.931  -2.698   2.563  1.00  0.00     0.016 A 
ATOM     36  C   UNL     1       9.197  -2.153   3.219  1.00  0.00     0.016 A 
ATOM     37  C   UNL     1       6.483  -1.470   3.059  1.00  0.00     0.010 A 
ATOM     38  C   UNL     1       8.742  -0.942   3.745  1.00  0.00     0.010 A 
ATOM     39  C   UNL     1       7.386  -0.579   3.651  1.00  0.00    -0.014 A 
BRANCH  39  40
ATOM     40  C   UNL     1       6.965   0.775   4.098  1.00  0.00     0.031 A 
ATOM     41  C   UNL     1       7.477   1.977   3.353  1.00  0.00     0.074 A 
ATOM     42  C   UNL     1       6.171   0.939   5.172  1.00  0.00     0.049 A 
ATOM     43  N   UNL     1       7.473   3.237   3.699  1.00  0.00    -0.248 NA
ATOM     44  C   UNL     1       8.092   1.711   2.044  1.00  0.00     0.031 C 
ATOM     45  C   UNL     1       5.545  -0.139   5.938  1.00  0.00     0.029 A 
ATOM     46  N   UNL     1       5.777   2.083   5.824  1.00  0.00    -0.354 N 
ATOM     47  C   UNL     1       8.113   3.915   2.666  1.00  0.00     0.074 A 
ATOM     48  C   UNL     1       8.506   2.919   1.691  1.00  0.00     0.031 C 
ATOM     49  C   UNL     1       4.866   0.393   6.968  1.00  0.00     0.029 A 
ATOM     50  C   UNL     1       5.068   1.840   6.978  1.00  0.00     0.049 A 
ATOM     51  H   UNL     1       5.982   2.989   5.497  1.00  0.00     0.167 HD
ATOM     52  C   UNL     1       8.351   5.245   2.548  1.00  0.00     0.034 A 
ATOM     53  C   UNL     1       4.680   2.677   7.962  1.00  0.00     0.034 A 
ATOM     54  C   UNL     1       7.948   6.222   3.531  1.00  0.00     0.049 A 
ATOM     55  C   UNL     1       5.030   4.142   7.856  1.00  0.00     0.074 A 
ATOM     56  C   UNL     1       8.157   7.591   3.528  1.00  0.00     0.029 A 
ATOM     57  N   UNL     1       7.248   5.933   4.696  1.00  0.00    -0.354 N 
ATOM     58  N   UNL     1       5.698   4.767   6.913  1.00  0.00    -0.248 NA
ATOM     59  C   UNL     1       4.578   5.012   8.950  1.00  0.00     0.031 C 
ATOM     60  C   UNL     1       7.634   8.119   4.715  1.00  0.00     0.029 A 
ATOM     61  C   UNL     1       7.034   7.093   5.427  1.00  0.00     0.049 A 
ATOM     62  H   UNL     1       6.947   5.035   4.964  1.00  0.00     0.167 HD
ATOM     63  C   UNL     1       5.729   6.107   7.295  1.00  0.00     0.074 A 
ATOM     64  C   UNL     1       4.994   6.200   8.539  1.00  0.00     0.031 C 
ATOM     65  C   UNL     1       6.312   7.165   6.675  1.00  0.00     0.034 A 
BRANCH  52  66
ATOM     66  C   UNL     1       9.140   5.701   1.344  1.00  0.00     0.023 A 
ATOM     67  C   UNL     1       8.641   5.575   0.035  1.00  0.00     0.031 A 
ATOM     68  C   UNL     1      10.430   6.238   1.508  1.00  0.00     0.131 A 
ATOM     69  C   UNL     1       9.453   5.917  -1.058  1.00  0.00     0.055 A 
ATOM     70  C   UNL     1      11.202   6.648   0.419  1.00  0.00     0.041 A 
ATOM     71  F   UNL     1      10.970   6.360   2.731  1.00  0.00    -0.206 F 
ATOM     72  C   UNL     1      10.720   6.475  -0.875  1.00  0.00     0.022 A 
BRANCH  69  73
ATOM     73  S   UNL     1       8.883   5.498  -2.729  1.00  0.00     0.124 S 
ATOM     74  O   UNL     1       8.752   4.045  -2.640  1.00  0.00    -0.237 OA
ATOM     75  O   UNL     1       7.637   6.247  -2.836  1.00  0.00    -0.237 OA
ATOM     76  O   UNL     1       9.968   5.966  -3.589  1.00  0.00    -0.744 OA
ENDBRANCH  69  73
ENDBRANCH  52  66
BRANCH  53  77
ATOM     77  C   UNL     1       3.995   2.149   9.178  1.00  0.00     0.023 A 
ATOM     78  C   UNL     1       2.687   2.537   9.505  1.00  0.00     0.031 A 
ATOM     79  C   UNL     1       4.668   1.289  10.066  1.00  0.00     0.131 A 
ATOM     80  C   UNL     1       2.107   2.102  10.708  1.00  0.00     0.055 A 
ATOM     81  C   UNL     1       4.068   0.814  11.232  1.00  0.00     0.041 A 
ATOM     82  F   UNL     1       5.924   0.892   9.806  1.00  0.00    -0.206 F 
ATOM     83  C   UNL     1       2.784   1.231  11.566  1.00  0.00     0.022 A 
BRANCH  80  84
ATOM     84  S   UNL     1       0.486   2.764  11.182  1.00  0.00     0.124 S 
ATOM     85  O   UNL     1       0.745   4.200  11.200  1.00  0.00    -0.237 OA
ATOM     86  O   UNL     1      -0.366   2.280  10.101  1.00  0.00    -0.237 OA
ATOM     87  O   UNL     1       0.239   2.157  12.488  1.00  0.00    -0.744 OA
ENDBRANCH  80  84
ENDBRANCH  53  77
BRANCH  65  88
ATOM     88  C   UNL     1       6.131   8.518   7.321  1.00  0.00     0.023 A 
ATOM     89  C   UNL     1       6.721   8.832   8.558  1.00  0.00     0.031 A 
ATOM     90  C   UNL     1       5.334   9.496   6.700  1.00  0.00     0.131 A 
ATOM     91  C   UNL     1       6.458  10.070   9.163  1.00  0.00     0.055 A 
ATOM     92  C   UNL     1       5.123  10.748   7.279  1.00  0.00     0.041 A 
ATOM     93  F   UNL     1       4.745   9.249   5.519  1.00  0.00    -0.206 F 
ATOM     94  C   UNL     1       5.674  11.035   8.525  1.00  0.00     0.022 A 
BRANCH  91  95
ATOM     95  S   UNL     1       7.075  10.370  10.843  1.00  0.00     0.124 S 
ATOM     96  O   UNL     1       6.464   9.275  11.590  1.00  0.00    -0.237 OA
ATOM     97  O   UNL     1       8.521  10.290  10.663  1.00  0.00    -0.237 OA
ATOM     98  O   UNL     1       6.564  11.701  11.164  1.00  0.00    -0.744 OA
ENDBRANCH  91  95
ENDBRANCH  65  88
ENDBRANCH  39  40
ENDBRANCH  32  34
ENDBRANCH  31  32
ENDBRANCH  30  31
ENDBRANCH  29  30
ENDBRANCH  28  29
ENDBRANCH  27  28
ENDBRANCH   1  27
TORSDOF 24
