REMARK SMILES CC[C@@H](C)[C@H](NC(=O)[C@@H](C)N1C(=O)N2CCC3=c4cc(OC)ccc4=N[C@@H]3[C@@]2(C)C1=O)C(=O)OCCOCCOCCOC(=O)c1ccc(-c2c3nc(c(-c4cc(S(=O)(=O)[O-])ccc4F)c4ccc([nH]4)c(-c4cc(S(=O)(=O)[O-])ccc4F)c4nc(c(-c5cc(S(=O)(=O)[O-])ccc5F)c5ccc2[nH]5)C=C4)C=C3)cc1
REMARK SMILES IDX 38 1 37 2 36 3 35 4 34 5 32 6 33 7 5 8 3 9 4 10 2 11 1 12
REMARK SMILES IDX 6 13 7 14 8 16 9 17 10 18 11 19 12 20 30 21 14 22 13 23
REMARK SMILES IDX 28 24 31 25 15 26 27 27 29 28 16 29 17 30 26 31 18 32 25 33
REMARK SMILES IDX 19 34 24 35 20 36 23 37 21 38 22 39 39 40 40 41 41 42 42 43
REMARK SMILES IDX 43 44 44 45 45 46 46 47 47 48 108 49 48 50 107 51 49 52
REMARK SMILES IDX 50 53 51 54 101 55 52 56 106 57 100 58 102 59 53 60 105 61
REMARK SMILES IDX 99 62 98 63 54 65 86 66 66 67 85 68 67 69 70 70 84 71 103 72
REMARK SMILES IDX 68 73 69 74 83 76 104 77 71 78 55 79 56 80 64 81 57 82 63 83
REMARK SMILES IDX 65 84 62 85 58 86 59 87 60 88 61 89 87 90 88 91 96 92 89 93
REMARK SMILES IDX 95 94 97 95 94 96 90 97 91 98 92 99 93 100 72 101 73 102
REMARK SMILES IDX 81 103 74 104 80 105 82 106 79 107 75 108 76 109 77 110
REMARK SMILES IDX 78 111
REMARK H PARENT 6 15 102 64 70 75
REMARK Flexibility Score: inf
ROOT
ATOM      1  C   UNL     1       2.423   2.745  -3.488  1.00  0.00     0.188 C 
ENDROOT
BRANCH   1   2
ATOM      2  O   UNL     1       2.854   2.405  -4.839  1.00  0.00    -0.376 OA
BRANCH   2   3
ATOM      3  C   UNL     1       3.073   3.222  -6.003  1.00  0.00     0.202 C 
BRANCH   3   4
ATOM      4  C   UNL     1       3.011   2.293  -7.281  1.00  0.00     0.261 C 
BRANCH   4   5
ATOM      5  O   UNL     1       3.029   0.905  -6.913  1.00  0.00    -0.462 OA
BRANCH   5   6
ATOM      6  C   UNL     1       4.147   0.596  -6.217  1.00  0.00     0.328 C 
ATOM      7  O   UNL     1       5.272   0.924  -6.581  1.00  0.00    -0.250 OA
BRANCH   6   8
ATOM      8  C   UNL     1       3.839  -0.118  -4.878  1.00  0.00     0.195 C 
BRANCH   8   9
ATOM      9  C   UNL     1       4.083  -1.619  -4.753  1.00  0.00     0.019 C 
ATOM     10  C   UNL     1       4.934  -1.877  -3.493  1.00  0.00     0.010 C 
BRANCH   9  11
ATOM     11  C   UNL     1       4.702  -2.219  -6.019  1.00  0.00     0.002 C 
ATOM     12  C   UNL     1       5.016  -3.695  -5.870  1.00  0.00     0.004 C 
ENDBRANCH   9  11
ENDBRANCH   8   9
BRANCH   8  13
ATOM     13  N   UNL     1       2.639   0.297  -4.095  1.00  0.00    -0.341 N 
ATOM     14  C   UNL     1       1.345   0.594  -4.599  1.00  0.00     0.243 C 
ATOM     15  H   UNL     1       2.758   0.374  -3.121  1.00  0.00     0.164 HD
ATOM     16  O   UNL     1       0.803  -0.329  -5.232  1.00  0.00    -0.273 OA
BRANCH  14  17
ATOM     17  C   UNL     1       0.460   2.301  -4.486  1.00  0.00     0.181 C 
ATOM     18  C   UNL     1       0.137   2.383  -6.075  1.00  0.00     0.042 C 
BRANCH  17  19
ATOM     19  N   UNL     1      -0.102   3.628  -3.058  1.00  0.00    -0.250 N 
ATOM     20  C   UNL     1      -1.540   4.405  -2.491  1.00  0.00     0.328 C 
ATOM     21  C   UNL     1       0.638   4.096  -2.039  1.00  0.00     0.259 C 
ATOM     22  N   UNL     1      -1.468   5.167  -1.113  1.00  0.00    -0.307 N 
ATOM     23  O   UNL     1      -2.652   4.558  -3.011  1.00  0.00    -0.248 OA
ATOM     24  C   UNL     1      -0.241   4.716  -1.117  1.00  0.00     0.147 C 
ATOM     25  O   UNL     1       1.796   4.044  -1.632  1.00  0.00    -0.271 OA
ATOM     26  C   UNL     1      -1.094   5.503   0.617  1.00  0.00     0.127 C 
ATOM     27  C   UNL     1      -1.107   3.401  -0.197  1.00  0.00     0.168 C 
ATOM     28  C   UNL     1       0.185   6.280  -1.418  1.00  0.00     0.048 C 
ATOM     29  C   UNL     1       0.117   4.278   1.305  1.00  0.00     0.055 C 
ATOM     30  C   UNL     1      -0.258   2.860   0.842  1.00  0.00    -0.032 C 
ATOM     31  N   UNL     1      -1.994   2.402  -0.810  1.00  0.00    -0.274 NA
ATOM     32  C   UNL     1      -0.252   1.540   0.563  1.00  0.00     0.005 A 
ATOM     33  C   UNL     1      -1.566   1.382  -0.151  1.00  0.00     0.066 A 
ATOM     34  C   UNL     1       0.597   0.356   0.432  1.00  0.00     0.056 A 
ATOM     35  C   UNL     1      -2.243   0.087  -0.106  1.00  0.00     0.032 A 
ATOM     36  C   UNL     1       0.017  -0.758  -0.108  1.00  0.00     0.119 A 
ATOM     37  C   UNL     1      -1.422  -0.959  -0.030  1.00  0.00     0.048 A 
BRANCH  36  38
ATOM     38  O   UNL     1       0.697  -1.643  -0.941  1.00  0.00    -0.497 OA
ATOM     39  C   UNL     1      -0.043  -2.000  -2.142  1.00  0.00     0.278 C 
ENDBRANCH  36  38
ENDBRANCH  17  19
ENDBRANCH  14  17
ENDBRANCH   8  13
ENDBRANCH   6   8
ENDBRANCH   5   6
ENDBRANCH   4   5
ENDBRANCH   3   4
ENDBRANCH   2   3
ENDBRANCH   1   2
BRANCH   1  40
ATOM     40  C   UNL     1       1.124   1.736  -2.463  1.00  0.00     0.188 C 
BRANCH  40  41
ATOM     41  O   UNL     1      -0.630   1.613  -2.739  1.00  0.00    -0.376 OA
BRANCH  41  42
ATOM     42  C   UNL     1      -1.742   2.478  -3.913  1.00  0.00     0.202 C 
BRANCH  42  43
ATOM     43  C   UNL     1      -1.302   4.082  -4.950  1.00  0.00     0.261 C 
BRANCH  43  44
ATOM     44  O   UNL     1       0.290   4.785  -4.897  1.00  0.00    -0.460 OA
BRANCH  44  45
ATOM     45  C   UNL     1       0.777   6.103  -4.829  1.00  0.00     0.338 C 
ATOM     46  O   UNL     1       0.030   7.034  -5.113  1.00  0.00    -0.246 OA
BRANCH  45  47
ATOM     47  C   UNL     1       2.322   6.492  -4.344  1.00  0.00     0.060 A 
ATOM     48  C   UNL     1       2.883   7.748  -4.647  1.00  0.00     0.016 A 
ATOM     49  C   UNL     1       3.194   5.799  -3.488  1.00  0.00     0.016 A 
ATOM     50  C   UNL     1       4.215   8.169  -4.215  1.00  0.00     0.010 A 
ATOM     51  C   UNL     1       4.489   6.180  -3.030  1.00  0.00     0.010 A 
ATOM     52  C   UNL     1       5.059   7.361  -3.433  1.00  0.00    -0.014 A 
BRANCH  52  53
ATOM     53  C   UNL     1       6.489   7.650  -3.064  1.00  0.00     0.031 A 
ATOM     54  C   UNL     1       7.609   6.990  -3.844  1.00  0.00     0.074 A 
ATOM     55  C   UNL     1       6.834   8.383  -1.981  1.00  0.00     0.049 A 
ATOM     56  N   UNL     1       8.858   7.354  -3.970  1.00  0.00    -0.248 NA
ATOM     57  C   UNL     1       7.285   5.743  -4.562  1.00  0.00     0.031 C 
ATOM     58  C   UNL     1       5.902   8.847  -0.956  1.00  0.00     0.029 A 
ATOM     59  N   UNL     1       8.055   8.870  -1.557  1.00  0.00    -0.354 N 
ATOM     60  C   UNL     1       9.433   6.455  -4.866  1.00  0.00     0.074 A 
ATOM     61  C   UNL     1       8.436   5.453  -5.157  1.00  0.00     0.031 C 
ATOM     62  C   UNL     1       6.565   9.611  -0.068  1.00  0.00     0.029 A 
ATOM     63  C   UNL     1       7.965   9.727  -0.477  1.00  0.00     0.049 A 
ATOM     64  H   UNL     1       8.908   8.630  -1.985  1.00  0.00     0.167 HD
ATOM     65  C   UNL     1      10.665   6.505  -5.429  1.00  0.00     0.034 A 
ATOM     66  C   UNL     1       8.879  10.567   0.066  1.00  0.00     0.034 A 
ATOM     67  C   UNL     1      11.652   7.480  -5.044  1.00  0.00     0.049 A 
ATOM     68  C   UNL     1      10.221  10.700  -0.624  1.00  0.00     0.074 A 
ATOM     69  C   UNL     1      12.908   7.696  -5.578  1.00  0.00     0.029 A 
ATOM     70  N   UNL     1      11.495   8.386  -4.004  1.00  0.00    -0.354 N 
ATOM     71  N   UNL     1      10.676  10.039  -1.665  1.00  0.00    -0.248 NA
ATOM     72  C   UNL     1      11.156  11.715  -0.114  1.00  0.00     0.031 C 
ATOM     73  C   UNL     1      13.534   8.686  -4.818  1.00  0.00     0.029 A 
ATOM     74  C   UNL     1      12.639   9.146  -3.862  1.00  0.00     0.049 A 
ATOM     75  H   UNL     1      10.686   8.474  -3.450  1.00  0.00     0.167 HD
ATOM     76  C   UNL     1      11.934  10.568  -1.945  1.00  0.00     0.074 A 
ATOM     77  C   UNL     1      12.153  11.632  -0.986  1.00  0.00     0.031 C 
ATOM     78  C   UNL     1      12.829  10.205  -2.899  1.00  0.00     0.034 A 
BRANCH  65  79
ATOM     79  C   UNL     1      11.004   5.565  -6.567  1.00  0.00     0.023 A 
ATOM     80  C   UNL     1      12.115   4.702  -6.494  1.00  0.00     0.031 A 
ATOM     81  C   UNL     1      10.331   5.668  -7.800  1.00  0.00     0.131 A 
ATOM     82  C   UNL     1      12.543   4.015  -7.641  1.00  0.00     0.055 A 
ATOM     83  C   UNL     1      10.738   4.952  -8.928  1.00  0.00     0.041 A 
ATOM     84  F   UNL     1       9.273   6.485  -7.933  1.00  0.00    -0.206 F 
ATOM     85  C   UNL     1      11.858   4.131  -8.854  1.00  0.00     0.022 A 
BRANCH  82  86
ATOM     86  S   UNL     1      14.044   2.994  -7.622  1.00  0.00     0.124 S 
ATOM     87  O   UNL     1      13.550   1.719  -8.139  1.00  0.00    -0.237 OA
ATOM     88  O   UNL     1      14.925   3.731  -8.522  1.00  0.00    -0.237 OA
ATOM     89  O   UNL     1      14.439   2.979  -6.218  1.00  0.00    -0.744 OA
ENDBRANCH  82  86
ENDBRANCH  65  79
BRANCH  66  90
ATOM     90  C   UNL     1       8.479  11.448   1.213  1.00  0.00     0.023 A 
ATOM     91  C   UNL     1       8.066  10.891   2.437  1.00  0.00     0.031 A 
ATOM     92  C   UNL     1       8.378  12.845   1.070  1.00  0.00     0.131 A 
ATOM     93  C   UNL     1       7.503  11.708   3.431  1.00  0.00     0.055 A 
ATOM     94  C   UNL     1       7.888  13.666   2.092  1.00  0.00     0.041 A 
ATOM     95  F   UNL     1       8.740  13.437  -0.079  1.00  0.00    -0.206 F 
ATOM     96  C   UNL     1       7.425  13.094   3.272  1.00  0.00     0.022 A 
BRANCH  93  97
ATOM     97  S   UNL     1       6.696  10.975   4.884  1.00  0.00     0.124 S 
ATOM     98  O   UNL     1       7.543  11.447   5.974  1.00  0.00    -0.237 OA
ATOM     99  O   UNL     1       5.361  11.567   4.820  1.00  0.00    -0.237 OA
ATOM    100  O   UNL     1       6.746   9.542   4.617  1.00  0.00    -0.744 OA
ENDBRANCH  93  97
ENDBRANCH  66  90
BRANCH  78 101
ATOM    101  C   UNL     1      14.153  10.927  -2.963  1.00  0.00     0.023 A 
ATOM    102  C   UNL     1      14.517  11.619  -4.134  1.00  0.00     0.031 A 
ATOM    103  C   UNL     1      15.121  10.757  -1.959  1.00  0.00     0.131 A 
ATOM    104  C   UNL     1      15.833  12.064  -4.296  1.00  0.00     0.055 A 
ATOM    105  C   UNL     1      16.416  11.254  -2.102  1.00  0.00     0.041 A 
ATOM    106  F   UNL     1      14.826  10.086  -0.834  1.00  0.00    -0.206 F 
ATOM    107  C   UNL     1      16.782  11.894  -3.283  1.00  0.00     0.022 A 
BRANCH 104 108
ATOM    108  S   UNL     1      16.393  12.768  -5.872  1.00  0.00     0.124 S 
ATOM    109  O   UNL     1      16.815  14.108  -5.469  1.00  0.00    -0.237 OA
ATOM    110  O   UNL     1      17.473  11.860  -6.247  1.00  0.00    -0.237 OA
ATOM    111  O   UNL     1      15.208  12.719  -6.721  1.00  0.00    -0.744 OA
ENDBRANCH 104 108
ENDBRANCH  78 101
ENDBRANCH  52  53
ENDBRANCH  45  47
ENDBRANCH  44  45
ENDBRANCH  43  44
ENDBRANCH  42  43
ENDBRANCH  41  42
ENDBRANCH  40  41
ENDBRANCH   1  40
TORSDOF 26
