REMARK SMILES COc1ncccc1Cn1ccc(C(=O)OCCOCCOCCOC(=O)c2ccc(-c3c4nc(c(-c5cc(S(=O)(=O)[O-])ccc5F)c5ccc([nH]5)c(-c5cc(S(=O)(=O)[O-])ccc5F)c5nc(c(-c6cc(S(=O)(=O)[O-])ccc6F)c6ccc3[nH]6)C=C5)C=C4)cc2)n1
REMARK SMILES IDX 20 1 19 2 18 3 17 4 16 5 14 6 15 7 13 8 10 9 11 10 91 11
REMARK SMILES IDX 12 12 9 13 8 14 3 15 4 16 5 17 7 18 6 19 2 20 1 21 21 22
REMARK SMILES IDX 22 23 23 24 24 25 25 26 26 27 27 28 28 29 29 30 90 31 30 32
REMARK SMILES IDX 89 33 31 34 32 35 33 36 83 37 34 38 88 39 82 40 84 41 35 42
REMARK SMILES IDX 87 43 81 44 80 45 36 47 68 48 48 49 67 50 49 51 52 52 66 53
REMARK SMILES IDX 85 54 50 55 51 56 65 58 86 59 53 60 37 61 38 62 46 63 39 64
REMARK SMILES IDX 45 65 47 66 44 67 40 68 41 69 42 70 43 71 69 72 70 73 78 74
REMARK SMILES IDX 71 75 77 76 79 77 76 78 72 79 73 80 74 81 75 82 54 83 55 84
REMARK SMILES IDX 63 85 56 86 62 87 64 88 61 89 57 90 58 91 59 92 60 93
REMARK H PARENT 84 46 52 57
REMARK Flexibility Score: inf
ROOT
ATOM      1  C   UNL     1       2.788  -3.380   3.535  1.00  0.00     0.188 C 
ENDROOT
BRANCH   1   2
ATOM      2  O   UNL     1       3.478  -4.502   4.059  1.00  0.00    -0.376 OA
BRANCH   2   3
ATOM      3  C   UNL     1       4.895  -4.548   4.062  1.00  0.00     0.202 C 
BRANCH   3   4
ATOM      4  C   UNL     1       5.769  -3.991   2.917  1.00  0.00     0.261 C 
BRANCH   4   5
ATOM      5  O   UNL     1       5.306  -2.800   2.271  1.00  0.00    -0.458 OA
BRANCH   5   6
ATOM      6  C   UNL     1       4.872  -2.942   0.989  1.00  0.00     0.358 C 
ATOM      7  O   UNL     1       4.981  -3.988   0.343  1.00  0.00    -0.244 OA
BRANCH   6   8
ATOM      8  C   UNL     1       4.142  -1.780   0.448  1.00  0.00     0.170 A 
ATOM      9  N   UNL     1       3.418   0.205   0.057  1.00  0.00    -0.267 N 
ATOM     10  C   UNL     1       2.809  -0.593  -0.876  1.00  0.00     0.110 A 
ATOM     11  N   UNL     1       4.264  -0.497   0.859  1.00  0.00    -0.165 NA
ATOM     12  C   UNL     1       3.203  -1.875  -0.612  1.00  0.00     0.057 A 
BRANCH   9  13
ATOM     13  C   UNL     1       3.506   1.668  -0.013  1.00  0.00     0.185 C 
BRANCH  13  14
ATOM     14  C   UNL     1       2.396   2.478   0.611  1.00  0.00     0.036 A 
ATOM     15  C   UNL     1       1.042   2.327   0.321  1.00  0.00     0.218 A 
ATOM     16  N   UNL     1       0.071   3.187   0.714  1.00  0.00    -0.222 NA
ATOM     17  C   UNL     1       0.439   4.232   1.476  1.00  0.00     0.115 A 
ATOM     18  C   UNL     1       2.728   3.580   1.419  1.00  0.00     0.013 A 
ATOM     19  C   UNL     1       1.743   4.464   1.861  1.00  0.00     0.021 A 
BRANCH  15  20
ATOM     20  O   UNL     1       0.627   1.330  -0.520  1.00  0.00    -0.481 OA
ATOM     21  C   UNL     1      -0.324   0.502   0.153  1.00  0.00     0.280 C 
ENDBRANCH  15  20
ENDBRANCH  13  14
ENDBRANCH   9  13
ENDBRANCH   6   8
ENDBRANCH   5   6
ENDBRANCH   4   5
ENDBRANCH   3   4
ENDBRANCH   2   3
ENDBRANCH   1   2
BRANCH   1  22
ATOM     22  C   UNL     1       3.092  -1.953   4.033  1.00  0.00     0.188 C 
BRANCH  22  23
ATOM     23  O   UNL     1       4.393  -1.731   4.527  1.00  0.00    -0.376 OA
BRANCH  23  24
ATOM     24  C   UNL     1       4.716  -1.769   5.902  1.00  0.00     0.202 C 
BRANCH  24  25
ATOM     25  C   UNL     1       3.867  -2.391   7.011  1.00  0.00     0.261 C 
BRANCH  25  26
ATOM     26  O   UNL     1       2.613  -2.933   6.653  1.00  0.00    -0.460 OA
BRANCH  26  27
ATOM     27  C   UNL     1       1.595  -2.067   6.815  1.00  0.00     0.338 C 
ATOM     28  O   UNL     1       1.679  -0.838   6.839  1.00  0.00    -0.246 OA
BRANCH  27  29
ATOM     29  C   UNL     1       0.360  -2.807   7.056  1.00  0.00     0.060 A 
ATOM     30  C   UNL     1      -0.840  -2.100   6.968  1.00  0.00     0.016 A 
ATOM     31  C   UNL     1       0.421  -4.104   7.590  1.00  0.00     0.016 A 
ATOM     32  C   UNL     1      -1.964  -2.636   7.558  1.00  0.00     0.010 A 
ATOM     33  C   UNL     1      -0.701  -4.633   8.189  1.00  0.00     0.010 A 
ATOM     34  C   UNL     1      -1.862  -3.863   8.224  1.00  0.00    -0.014 A 
BRANCH  34  35
ATOM     35  C   UNL     1      -3.035  -4.338   8.931  1.00  0.00     0.031 A 
ATOM     36  C   UNL     1      -4.082  -4.887   8.053  1.00  0.00     0.074 A 
ATOM     37  C   UNL     1      -3.113  -4.366  10.275  1.00  0.00     0.049 A 
ATOM     38  N   UNL     1      -5.272  -4.430   7.856  1.00  0.00    -0.248 NA
ATOM     39  C   UNL     1      -3.716  -6.017   7.183  1.00  0.00     0.031 C 
ATOM     40  C   UNL     1      -2.001  -4.139  11.204  1.00  0.00     0.029 A 
ATOM     41  N   UNL     1      -4.149  -4.716  11.095  1.00  0.00    -0.354 N 
ATOM     42  C   UNL     1      -5.893  -5.386   7.063  1.00  0.00     0.074 A 
ATOM     43  C   UNL     1      -4.846  -6.191   6.500  1.00  0.00     0.031 C 
ATOM     44  C   UNL     1      -2.361  -4.565  12.432  1.00  0.00     0.029 A 
ATOM     45  C   UNL     1      -3.759  -4.965  12.404  1.00  0.00     0.049 A 
ATOM     46  H   UNL     1      -5.082  -4.784  10.787  1.00  0.00     0.167 HD
ATOM     47  C   UNL     1      -7.217  -5.645   7.227  1.00  0.00     0.034 A 
ATOM     48  C   UNL     1      -4.495  -5.514  13.401  1.00  0.00     0.034 A 
ATOM     49  C   UNL     1      -7.884  -4.561   7.909  1.00  0.00     0.049 A 
ATOM     50  C   UNL     1      -5.930  -5.298  13.110  1.00  0.00     0.074 A 
ATOM     51  C   UNL     1      -8.357  -3.309   7.589  1.00  0.00     0.029 A 
ATOM     52  N   UNL     1      -7.862  -4.648   9.276  1.00  0.00    -0.354 N 
ATOM     53  N   UNL     1      -6.479  -4.116  13.050  1.00  0.00    -0.248 NA
ATOM     54  C   UNL     1      -6.738  -6.381  12.557  1.00  0.00     0.031 C 
ATOM     55  C   UNL     1      -8.502  -2.601   8.821  1.00  0.00     0.029 A 
ATOM     56  C   UNL     1      -8.126  -3.437   9.868  1.00  0.00     0.049 A 
ATOM     57  H   UNL     1      -7.680  -5.477   9.774  1.00  0.00     0.167 HD
ATOM     58  C   UNL     1      -7.475  -4.239  12.105  1.00  0.00     0.074 A 
ATOM     59  C   UNL     1      -7.703  -5.670  11.967  1.00  0.00     0.031 C 
ATOM     60  C   UNL     1      -7.777  -3.211  11.261  1.00  0.00     0.034 A 
BRANCH  47  61
ATOM     61  C   UNL     1      -7.819  -7.040   7.216  1.00  0.00     0.023 A 
ATOM     62  C   UNL     1      -9.207  -7.134   7.437  1.00  0.00     0.031 A 
ATOM     63  C   UNL     1      -7.104  -8.258   7.304  1.00  0.00     0.131 A 
ATOM     64  C   UNL     1      -9.804  -8.354   7.800  1.00  0.00     0.055 A 
ATOM     65  C   UNL     1      -7.711  -9.479   7.611  1.00  0.00     0.041 A 
ATOM     66  F   UNL     1      -5.773  -8.334   7.194  1.00  0.00    -0.206 F 
ATOM     67  C   UNL     1      -9.064  -9.529   7.889  1.00  0.00     0.022 A 
BRANCH  64  68
ATOM     68  S   UNL     1     -11.544  -8.350   8.301  1.00  0.00     0.124 S 
ATOM     69  O   UNL     1     -11.554  -7.336   9.348  1.00  0.00    -0.237 OA
ATOM     70  O   UNL     1     -12.212  -7.997   7.052  1.00  0.00    -0.237 OA
ATOM     71  O   UNL     1     -11.766  -9.721   8.758  1.00  0.00    -0.744 OA
ENDBRANCH  64  68
ENDBRANCH  47  61
BRANCH  48  72
ATOM     72  C   UNL     1      -3.991  -6.401  14.479  1.00  0.00     0.023 A 
ATOM     73  C   UNL     1      -4.679  -6.579  15.692  1.00  0.00     0.031 A 
ATOM     74  C   UNL     1      -2.902  -7.267  14.227  1.00  0.00     0.131 A 
ATOM     75  C   UNL     1      -4.267  -7.583  16.596  1.00  0.00     0.055 A 
ATOM     76  C   UNL     1      -2.486  -8.243  15.132  1.00  0.00     0.041 A 
ATOM     77  F   UNL     1      -2.252  -7.244  13.052  1.00  0.00    -0.206 F 
ATOM     78  C   UNL     1      -3.175  -8.411  16.321  1.00  0.00     0.022 A 
BRANCH  75  79
ATOM     79  S   UNL     1      -5.231  -7.895  18.107  1.00  0.00     0.124 S 
ATOM     80  O   UNL     1      -4.957  -6.703  18.900  1.00  0.00    -0.237 OA
ATOM     81  O   UNL     1      -6.587  -8.034  17.588  1.00  0.00    -0.237 OA
ATOM     82  O   UNL     1      -4.648  -9.131  18.631  1.00  0.00    -0.744 OA
ENDBRANCH  75  79
ENDBRANCH  48  72
BRANCH  60  83
ATOM     83  C   UNL     1      -7.596  -1.803  11.770  1.00  0.00     0.023 A 
ATOM     84  C   UNL     1      -6.382  -1.256  12.237  1.00  0.00     0.031 A 
ATOM     85  C   UNL     1      -8.731  -0.971  11.779  1.00  0.00     0.131 A 
ATOM     86  C   UNL     1      -6.343   0.073  12.704  1.00  0.00     0.055 A 
ATOM     87  C   UNL     1      -8.685   0.349  12.224  1.00  0.00     0.041 A 
ATOM     88  F   UNL     1      -9.918  -1.430  11.347  1.00  0.00    -0.206 F 
ATOM     89  C   UNL     1      -7.490   0.874  12.697  1.00  0.00     0.022 A 
BRANCH  86  90
ATOM     90  S   UNL     1      -4.803   0.776  13.375  1.00  0.00     0.124 S 
ATOM     91  O   UNL     1      -4.265  -0.297  14.203  1.00  0.00    -0.237 OA
ATOM     92  O   UNL     1      -4.050   1.086  12.163  1.00  0.00    -0.237 OA
ATOM     93  O   UNL     1      -5.264   1.949  14.121  1.00  0.00    -0.744 OA
ENDBRANCH  86  90
ENDBRANCH  60  83
ENDBRANCH  34  35
ENDBRANCH  27  29
ENDBRANCH  26  27
ENDBRANCH  25  26
ENDBRANCH  24  25
ENDBRANCH  23  24
ENDBRANCH  22  23
ENDBRANCH   1  22
TORSDOF 23
