REMARK SMILES C[C@@H]1[C@@H](C(=O)OCCOCCOCCOC(=O)c2ccc(-c3c4nc(c(-c5cc(S(=O)(=O)[O-])ccc5F)c5ccc([nH]5)c(-c5cc(S(=O)(=O)[O-])ccc5F)c5nc(c(-c6cc(S(=O)(=O)[O-])ccc6F)c6ccc3[nH]6)C=C5)C=C4)cc2)CCN1C(=O)N1CC[N@H+]2CCCC[C@@H]2C1
REMARK SMILES IDX 11 1 10 2 9 3 8 4 7 5 6 6 4 7 5 8 3 9 1 10 2 11 83 12 81 13
REMARK SMILES IDX 82 14 84 15 85 16 86 17 87 18 95 19 88 20 94 21 89 22 93 23
REMARK SMILES IDX 90 24 92 26 91 27 12 28 13 29 14 30 15 31 16 32 17 33 18 34
REMARK SMILES IDX 19 35 80 36 20 37 79 38 21 39 22 40 23 41 73 42 24 43 78 44
REMARK SMILES IDX 72 45 74 46 25 47 77 48 71 49 70 50 26 52 58 53 38 54 57 55
REMARK SMILES IDX 39 56 42 57 56 58 75 59 40 60 41 61 55 63 76 64 43 65 27 66
REMARK SMILES IDX 28 67 36 68 29 69 35 70 37 71 34 72 30 73 31 74 32 75 33 76
REMARK SMILES IDX 59 77 60 78 68 79 61 80 67 81 69 82 66 83 62 84 63 85 64 86
REMARK SMILES IDX 65 87 44 88 45 89 53 90 46 91 52 92 54 93 51 94 47 95 48 96
REMARK SMILES IDX 49 97 50 98
REMARK H PARENT 89 25 74 51 42 62
REMARK Flexibility Score: inf
ROOT
ATOM      1  C   UNL     1       0.138   3.568  -2.384  1.00  0.00     0.188 C 
ENDROOT
BRANCH   1   2
ATOM      2  C   UNL     1       0.440   2.439  -3.392  1.00  0.00     0.188 C 
BRANCH   2   3
ATOM      3  O   UNL     1      -0.323   2.307  -4.580  1.00  0.00    -0.376 OA
BRANCH   3   4
ATOM      4  C   UNL     1      -1.740   2.276  -4.528  1.00  0.00     0.202 C 
BRANCH   4   5
ATOM      5  C   UNL     1      -2.478   1.363  -3.543  1.00  0.00     0.261 C 
BRANCH   5   6
ATOM      6  O   UNL     1      -1.998   1.436  -2.195  1.00  0.00    -0.463 OA
BRANCH   6   7
ATOM      7  C   UNL     1      -1.441   0.284  -1.723  1.00  0.00     0.311 C 
ATOM      8  O   UNL     1      -1.413  -0.772  -2.336  1.00  0.00    -0.252 OA
BRANCH   7   9
ATOM      9  C   UNL     1      -0.811   0.521  -0.363  1.00  0.00     0.123 C 
ATOM     10  C   UNL     1       1.396   0.232   0.786  1.00  0.00     0.032 C 
ATOM     11  C   UNL     1       0.386  -0.419  -0.168  1.00  0.00     0.098 C 
ATOM     12  N   UNL     1      -0.249  -1.638   0.364  1.00  0.00    -0.321 N 
ATOM     13  C   UNL     1      -1.743   0.163   0.783  1.00  0.00     0.039 C 
ATOM     14  C   UNL     1      -1.565  -1.341   0.914  1.00  0.00     0.122 C 
BRANCH  12  15
ATOM     15  C   UNL     1      -0.068  -2.903  -0.194  1.00  0.00     0.320 C 
ATOM     16  O   UNL     1      -0.976  -3.732  -0.243  1.00  0.00    -0.248 OA
BRANCH  15  17
ATOM     17  N   UNL     1       1.161  -3.143  -0.751  1.00  0.00    -0.313 N 
ATOM     18  C   UNL     1       1.300  -4.031  -1.901  1.00  0.00     0.183 C 
ATOM     19  C   UNL     1       2.385  -2.991   0.019  1.00  0.00     0.186 C 
ATOM     20  C   UNL     1       2.521  -3.638  -2.766  1.00  0.00     0.284 C 
ATOM     21  C   UNL     1       3.497  -2.437  -0.881  1.00  0.00     0.203 C 
ATOM     22  N   UNL     1       3.749  -3.409  -1.969  1.00  0.00    -0.330 N 
ATOM     23  C   UNL     1       4.750  -2.150  -0.044  1.00  0.00     0.067 C 
ATOM     24  C   UNL     1       4.862  -2.990  -2.822  1.00  0.00     0.262 C 
ATOM     25  H   UNL     1       4.016  -4.293  -1.537  1.00  0.00     0.348 HD
ATOM     26  C   UNL     1       5.905  -1.711  -0.928  1.00  0.00     0.012 C 
ATOM     27  C   UNL     1       6.131  -2.762  -2.002  1.00  0.00     0.062 C 
ENDBRANCH  15  17
ENDBRANCH  12  15
ENDBRANCH   7   9
ENDBRANCH   6   7
ENDBRANCH   5   6
ENDBRANCH   4   5
ENDBRANCH   3   4
ENDBRANCH   2   3
ENDBRANCH   1   2
BRANCH   1  28
ATOM     28  O   UNL     1      -1.021   4.332  -2.597  1.00  0.00    -0.376 OA
BRANCH  28  29
ATOM     29  C   UNL     1      -0.982   5.477  -3.430  1.00  0.00     0.202 C 
BRANCH  29  30
ATOM     30  C   UNL     1       0.241   6.001  -4.210  1.00  0.00     0.261 C 
BRANCH  30  31
ATOM     31  O   UNL     1       1.405   5.178  -4.306  1.00  0.00    -0.460 OA
BRANCH  31  32
ATOM     32  C   UNL     1       2.444   5.551  -3.513  1.00  0.00     0.338 C 
ATOM     33  O   UNL     1       2.451   6.447  -2.690  1.00  0.00    -0.246 OA
BRANCH  32  34
ATOM     34  C   UNL     1       3.542   4.579  -3.678  1.00  0.00     0.060 A 
ATOM     35  C   UNL     1       3.896   3.758  -2.599  1.00  0.00     0.016 A 
ATOM     36  C   UNL     1       4.248   4.518  -4.879  1.00  0.00     0.016 A 
ATOM     37  C   UNL     1       4.974   2.876  -2.719  1.00  0.00     0.010 A 
ATOM     38  C   UNL     1       5.343   3.656  -4.987  1.00  0.00     0.010 A 
ATOM     39  C   UNL     1       5.726   2.848  -3.903  1.00  0.00    -0.014 A 
BRANCH  39  40
ATOM     40  C   UNL     1       7.013   2.107  -3.958  1.00  0.00     0.031 A 
ATOM     41  C   UNL     1       8.268   2.824  -3.548  1.00  0.00     0.074 A 
ATOM     42  C   UNL     1       7.073   0.846  -4.420  1.00  0.00     0.049 A 
ATOM     43  N   UNL     1       9.501   2.392  -3.526  1.00  0.00    -0.248 NA
ATOM     44  C   UNL     1       8.111   4.231  -3.151  1.00  0.00     0.031 C 
ATOM     45  C   UNL     1       5.924   0.079  -4.890  1.00  0.00     0.029 A 
ATOM     46  N   UNL     1       8.133  -0.020  -4.554  1.00  0.00    -0.354 N 
ATOM     47  C   UNL     1      10.279   3.490  -3.178  1.00  0.00     0.074 A 
ATOM     48  C   UNL     1       9.370   4.601  -2.977  1.00  0.00     0.031 C 
ATOM     49  C   UNL     1       6.332  -1.163  -5.200  1.00  0.00     0.029 A 
ATOM     50  C   UNL     1       7.764  -1.292  -4.940  1.00  0.00     0.049 A 
ATOM     51  H   UNL     1       9.067   0.243  -4.390  1.00  0.00     0.167 HD
ATOM     52  C   UNL     1      11.628   3.570  -3.072  1.00  0.00     0.034 A 
ATOM     53  C   UNL     1       8.491  -2.431  -4.995  1.00  0.00     0.034 A 
ATOM     54  C   UNL     1      12.516   2.454  -3.289  1.00  0.00     0.049 A 
ATOM     55  C   UNL     1       9.979  -2.345  -4.724  1.00  0.00     0.074 A 
ATOM     56  C   UNL     1      13.899   2.427  -3.239  1.00  0.00     0.029 A 
ATOM     57  N   UNL     1      12.107   1.163  -3.599  1.00  0.00    -0.354 N 
ATOM     58  N   UNL     1      10.698  -1.306  -4.365  1.00  0.00    -0.248 NA
ATOM     59  C   UNL     1      10.754  -3.584  -4.883  1.00  0.00     0.031 C 
ATOM     60  C   UNL     1      14.327   1.139  -3.579  1.00  0.00     0.029 A 
ATOM     61  C   UNL     1      13.211   0.340  -3.763  1.00  0.00     0.049 A 
ATOM     62  H   UNL     1      11.170   0.875  -3.689  1.00  0.00     0.167 HD
ATOM     63  C   UNL     1      12.009  -1.768  -4.273  1.00  0.00     0.074 A 
ATOM     64  C   UNL     1      11.967  -3.192  -4.528  1.00  0.00     0.031 C 
ATOM     65  C   UNL     1      13.153  -1.075  -4.042  1.00  0.00     0.034 A 
BRANCH  52  66
ATOM     66  C   UNL     1      12.217   4.932  -2.803  1.00  0.00     0.023 A 
ATOM     67  C   UNL     1      11.973   5.626  -1.606  1.00  0.00     0.031 A 
ATOM     68  C   UNL     1      12.995   5.569  -3.787  1.00  0.00     0.131 A 
ATOM     69  C   UNL     1      12.436   6.942  -1.456  1.00  0.00     0.055 A 
ATOM     70  C   UNL     1      13.526   6.846  -3.596  1.00  0.00     0.041 A 
ATOM     71  F   UNL     1      13.237   4.968  -4.963  1.00  0.00    -0.206 F 
ATOM     72  C   UNL     1      13.234   7.547  -2.431  1.00  0.00     0.022 A 
BRANCH  69  73
ATOM     73  S   UNL     1      11.851   7.907  -0.036  1.00  0.00     0.124 S 
ATOM     74  O   UNL     1      10.406   7.901  -0.252  1.00  0.00    -0.237 OA
ATOM     75  O   UNL     1      12.330   7.124   1.097  1.00  0.00    -0.237 OA
ATOM     76  O   UNL     1      12.496   9.206  -0.215  1.00  0.00    -0.744 OA
ENDBRANCH  69  73
ENDBRANCH  52  66
BRANCH  53  77
ATOM     77  C   UNL     1       7.844  -3.770  -5.199  1.00  0.00     0.023 A 
ATOM     78  C   UNL     1       8.013  -4.783  -4.233  1.00  0.00     0.031 A 
ATOM     79  C   UNL     1       7.087  -4.089  -6.336  1.00  0.00     0.131 A 
ATOM     80  C   UNL     1       7.482  -6.066  -4.439  1.00  0.00     0.055 A 
ATOM     81  C   UNL     1       6.493  -5.345  -6.503  1.00  0.00     0.041 A 
ATOM     82  F   UNL     1       6.901  -3.182  -7.307  1.00  0.00    -0.206 F 
ATOM     83  C   UNL     1       6.700  -6.346  -5.558  1.00  0.00     0.022 A 
BRANCH  80  84
ATOM     84  S   UNL     1       7.944  -7.394  -3.291  1.00  0.00     0.124 S 
ATOM     85  O   UNL     1       9.400  -7.321  -3.325  1.00  0.00    -0.237 OA
ATOM     86  O   UNL     1       7.310  -6.961  -2.051  1.00  0.00    -0.237 OA
ATOM     87  O   UNL     1       7.367  -8.588  -3.906  1.00  0.00    -0.744 OA
ENDBRANCH  80  84
ENDBRANCH  53  77
BRANCH  65  88
ATOM     88  C   UNL     1      14.448  -1.850  -4.090  1.00  0.00     0.023 A 
ATOM     89  C   UNL     1      14.891  -2.456  -5.281  1.00  0.00     0.031 A 
ATOM     90  C   UNL     1      15.251  -1.985  -2.945  1.00  0.00     0.131 A 
ATOM     91  C   UNL     1      16.067  -3.220  -5.286  1.00  0.00     0.055 A 
ATOM     92  C   UNL     1      16.454  -2.695  -2.971  1.00  0.00     0.041 A 
ATOM     93  F   UNL     1      14.883  -1.425  -1.782  1.00  0.00    -0.206 F 
ATOM     94  C   UNL     1      16.860  -3.329  -4.142  1.00  0.00     0.022 A 
BRANCH  91  95
ATOM     95  S   UNL     1      16.500  -4.139  -6.789  1.00  0.00     0.124 S 
ATOM     96  O   UNL     1      15.336  -5.001  -6.965  1.00  0.00    -0.237 OA
ATOM     97  O   UNL     1      16.657  -3.072  -7.773  1.00  0.00    -0.237 OA
ATOM     98  O   UNL     1      17.735  -4.830  -6.423  1.00  0.00    -0.744 OA
ENDBRANCH  91  95
ENDBRANCH  65  88
ENDBRANCH  39  40
ENDBRANCH  32  34
ENDBRANCH  31  32
ENDBRANCH  30  31
ENDBRANCH  29  30
ENDBRANCH  28  29
ENDBRANCH   1  28
TORSDOF 22
