REMARK SMILES CC(C)n1c2c(c3ccccc31)[C@@H](c1ccccc1)N(CC(=O)OCCOCCOCCOC(=O)c1ccc(-c3c4nc(c(-c5cc(S(=O)(=O)[O-])ccc5F)c5ccc([nH]5)c(-c5cc(S(=O)(=O)[O-])ccc5F)c5nc(c(-c6cc(S(=O)(=O)[O-])ccc6F)c6ccc3[nH]6)C=C5)C=C4)cc1)C2=O
REMARK SMILES IDX 29 1 28 2 27 3 26 4 25 5 24 6 22 7 23 8 21 9 20 10 4 11 5 12
REMARK SMILES IDX 12 13 6 14 99 15 7 16 11 17 13 18 100 19 8 20 10 21 9 22
REMARK SMILES IDX 2 23 1 24 3 25 14 26 15 27 19 28 16 29 18 30 17 31 30 32
REMARK SMILES IDX 31 33 32 34 33 35 34 36 35 37 36 38 37 39 98 40 38 41 97 42
REMARK SMILES IDX 39 43 40 44 41 45 91 46 42 47 96 48 90 49 92 50 43 51 95 52
REMARK SMILES IDX 89 53 88 54 44 56 76 57 56 58 75 59 57 60 60 61 74 62 93 63
REMARK SMILES IDX 58 64 59 65 73 67 94 68 61 69 45 70 46 71 54 72 47 73 53 74
REMARK SMILES IDX 55 75 52 76 48 77 49 78 50 79 51 80 77 81 78 82 86 83 79 84
REMARK SMILES IDX 85 85 87 86 84 87 80 88 81 89 82 90 83 91 62 92 63 93 71 94
REMARK SMILES IDX 64 95 70 96 72 97 69 98 65 99 66 100 67 101 68 102
REMARK H PARENT 92 55 60 66
REMARK Flexibility Score: inf
ROOT
ATOM      1  C   UNL     1      -5.679  -3.589   2.451  1.00  0.00     0.188 C 
ENDROOT
BRANCH   1   2
ATOM      2  C   UNL     1      -6.442  -4.459   3.448  1.00  0.00     0.188 C 
BRANCH   2   3
ATOM      3  O   UNL     1      -6.295  -4.160   4.816  1.00  0.00    -0.376 OA
BRANCH   3   4
ATOM      4  C   UNL     1      -4.985  -4.236   5.361  1.00  0.00     0.202 C 
BRANCH   4   5
ATOM      5  C   UNL     1      -3.967  -5.213   4.742  1.00  0.00     0.261 C 
BRANCH   5   6
ATOM      6  O   UNL     1      -3.456  -4.800   3.434  1.00  0.00    -0.462 OA
BRANCH   6   7
ATOM      7  C   UNL     1      -3.214  -5.824   2.566  1.00  0.00     0.325 C 
ATOM      8  O   UNL     1      -3.272  -6.996   2.940  1.00  0.00    -0.250 OA
BRANCH   7   9
ATOM      9  C   UNL     1      -3.107  -5.486   1.023  1.00  0.00     0.243 C 
BRANCH   9  10
ATOM     10  N   UNL     1      -2.761  -4.276   0.317  1.00  0.00    -0.315 N 
ATOM     11  N   UNL     1      -0.856  -1.315   0.070  1.00  0.00    -0.334 N 
ATOM     12  C   UNL     1      -1.596  -2.449   0.003  1.00  0.00     0.114 A 
ATOM     13  C   UNL     1      -1.754  -0.238   0.031  1.00  0.00     0.049 A 
ATOM     14  C   UNL     1      -2.888  -2.146  -0.293  1.00  0.00     0.018 A 
ATOM     15  C   UNL     1      -1.442  -3.838   0.314  1.00  0.00     0.272 C 
ATOM     16  C   UNL     1      -3.049  -0.764  -0.180  1.00  0.00     0.006 A 
ATOM     17  C   UNL     1      -1.599   1.151   0.181  1.00  0.00     0.027 A 
ATOM     18  C   UNL     1      -3.706  -3.370  -0.400  1.00  0.00     0.150 C 
ATOM     19  O   UNL     1      -0.469  -4.457   0.649  1.00  0.00    -0.267 OA
ATOM     20  C   UNL     1      -4.176   0.081  -0.211  1.00  0.00     0.011 A 
ATOM     21  C   UNL     1      -2.734   1.976   0.127  1.00  0.00     0.002 A 
ATOM     22  C   UNL     1      -4.006   1.453  -0.062  1.00  0.00     0.001 A 
BRANCH  11  23
ATOM     23  C   UNL     1       0.601  -1.366   0.149  1.00  0.00     0.082 C 
ATOM     24  C   UNL     1       1.328  -0.069  -0.183  1.00  0.00     0.031 C 
ATOM     25  C   UNL     1       1.106  -1.893   1.497  1.00  0.00     0.031 C 
ENDBRANCH  11  23
BRANCH  18  26
ATOM     26  C   UNL     1      -3.971  -3.594  -1.908  1.00  0.00    -0.021 A 
ATOM     27  C   UNL     1      -4.095  -4.880  -2.463  1.00  0.00     0.006 A 
ATOM     28  C   UNL     1      -4.366  -2.522  -2.750  1.00  0.00     0.006 A 
ATOM     29  C   UNL     1      -4.713  -5.080  -3.719  1.00  0.00     0.000 A 
ATOM     30  C   UNL     1      -4.957  -2.717  -4.006  1.00  0.00     0.000 A 
ATOM     31  C   UNL     1      -5.178  -4.003  -4.469  1.00  0.00     0.000 A 
ENDBRANCH  18  26
ENDBRANCH   9  10
ENDBRANCH   7   9
ENDBRANCH   6   7
ENDBRANCH   5   6
ENDBRANCH   4   5
ENDBRANCH   3   4
ENDBRANCH   2   3
ENDBRANCH   1   2
BRANCH   1  32
ATOM     32  O   UNL     1      -4.982  -2.435   2.853  1.00  0.00    -0.376 OA
BRANCH  32  33
ATOM     33  C   UNL     1      -5.755  -1.389   3.415  1.00  0.00     0.202 C 
BRANCH  33  34
ATOM     34  C   UNL     1      -7.112  -0.991   2.776  1.00  0.00     0.261 C 
BRANCH  34  35
ATOM     35  O   UNL     1      -7.938  -2.094   2.321  1.00  0.00    -0.460 OA
BRANCH  35  36
ATOM     36  C   UNL     1      -8.308  -2.084   1.001  1.00  0.00     0.338 C 
ATOM     37  O   UNL     1      -8.346  -1.090   0.292  1.00  0.00    -0.246 OA
BRANCH  36  38
ATOM     38  C   UNL     1      -8.248  -3.490   0.453  1.00  0.00     0.060 A 
ATOM     39  C   UNL     1      -8.691  -4.633   1.127  1.00  0.00     0.016 A 
ATOM     40  C   UNL     1      -7.423  -3.679  -0.652  1.00  0.00     0.016 A 
ATOM     41  C   UNL     1      -8.136  -5.914   0.828  1.00  0.00     0.010 A 
ATOM     42  C   UNL     1      -6.919  -4.958  -0.946  1.00  0.00     0.010 A 
ATOM     43  C   UNL     1      -7.144  -6.086  -0.154  1.00  0.00    -0.014 A 
BRANCH  43  44
ATOM     44  C   UNL     1      -6.724  -7.439  -0.669  1.00  0.00     0.031 A 
ATOM     45  C   UNL     1      -7.822  -7.989  -1.470  1.00  0.00     0.074 A 
ATOM     46  C   UNL     1      -5.617  -8.241  -0.649  1.00  0.00     0.049 A 
ATOM     47  N   UNL     1      -8.722  -8.766  -0.977  1.00  0.00    -0.248 NA
ATOM     48  C   UNL     1      -8.091  -7.491  -2.816  1.00  0.00     0.031 C 
ATOM     49  C   UNL     1      -4.344  -8.030  -0.004  1.00  0.00     0.029 A 
ATOM     50  N   UNL     1      -5.380  -9.480  -1.226  1.00  0.00    -0.354 N 
ATOM     51  C   UNL     1      -9.553  -9.065  -2.031  1.00  0.00     0.074 A 
ATOM     52  C   UNL     1      -9.258  -8.092  -3.058  1.00  0.00     0.031 C 
ATOM     53  C   UNL     1      -3.375  -8.863  -0.449  1.00  0.00     0.029 A 
ATOM     54  C   UNL     1      -4.036  -9.900  -1.220  1.00  0.00     0.049 A 
ATOM     55  H   UNL     1      -6.101 -10.028  -1.614  1.00  0.00     0.167 HD
ATOM     56  C   UNL     1     -10.228 -10.244  -2.045  1.00  0.00     0.034 A 
ATOM     57  C   UNL     1      -3.465 -11.124  -1.429  1.00  0.00     0.034 A 
ATOM     58  C   UNL     1     -10.126 -10.922  -0.771  1.00  0.00     0.049 A 
ATOM     59  C   UNL     1      -4.499 -12.149  -1.231  1.00  0.00     0.074 A 
ATOM     60  C   UNL     1     -10.479 -10.618   0.529  1.00  0.00     0.029 A 
ATOM     61  N   UNL     1      -9.212 -11.945  -0.683  1.00  0.00    -0.354 N 
ATOM     62  N   UNL     1      -4.953 -12.503  -0.067  1.00  0.00    -0.248 NA
ATOM     63  C   UNL     1      -5.337 -12.469  -2.369  1.00  0.00     0.031 C 
ATOM     64  C   UNL     1      -9.450 -11.173   1.343  1.00  0.00     0.029 A 
ATOM     65  C   UNL     1      -8.555 -11.854   0.517  1.00  0.00     0.049 A 
ATOM     66  H   UNL     1      -9.055 -12.632  -1.370  1.00  0.00     0.167 HD
ATOM     67  C   UNL     1      -6.317 -12.592  -0.268  1.00  0.00     0.074 A 
ATOM     68  C   UNL     1      -6.482 -12.675  -1.719  1.00  0.00     0.031 C 
ATOM     69  C   UNL     1      -7.191 -12.299   0.737  1.00  0.00     0.034 A 
BRANCH  56  70
ATOM     70  C   UNL     1     -10.650 -10.934  -3.308  1.00  0.00     0.023 A 
ATOM     71  C   UNL     1     -10.149 -10.589  -4.577  1.00  0.00     0.031 A 
ATOM     72  C   UNL     1     -11.433 -12.099  -3.244  1.00  0.00     0.131 A 
ATOM     73  C   UNL     1     -10.457 -11.339  -5.714  1.00  0.00     0.055 A 
ATOM     74  C   UNL     1     -11.675 -12.896  -4.367  1.00  0.00     0.041 A 
ATOM     75  F   UNL     1     -11.941 -12.526  -2.078  1.00  0.00    -0.206 F 
ATOM     76  C   UNL     1     -11.192 -12.514  -5.613  1.00  0.00     0.022 A 
BRANCH  73  77
ATOM     77  S   UNL     1      -9.899 -10.789  -7.349  1.00  0.00     0.124 S 
ATOM     78  O   UNL     1      -9.130 -11.940  -7.807  1.00  0.00    -0.237 OA
ATOM     79  O   UNL     1     -11.171 -10.562  -8.030  1.00  0.00    -0.237 OA
ATOM     80  O   UNL     1      -9.130  -9.582  -7.059  1.00  0.00    -0.744 OA
ENDBRANCH  73  77
ENDBRANCH  56  70
BRANCH  57  81
ATOM     81  C   UNL     1      -2.248 -11.447  -2.227  1.00  0.00     0.023 A 
ATOM     82  C   UNL     1      -1.805 -10.544  -3.205  1.00  0.00     0.031 A 
ATOM     83  C   UNL     1      -1.732 -12.762  -2.286  1.00  0.00     0.131 A 
ATOM     84  C   UNL     1      -0.980 -10.983  -4.253  1.00  0.00     0.055 A 
ATOM     85  C   UNL     1      -0.878 -13.188  -3.314  1.00  0.00     0.041 A 
ATOM     86  F   UNL     1      -2.115 -13.688  -1.393  1.00  0.00    -0.206 F 
ATOM     87  C   UNL     1      -0.519 -12.300  -4.321  1.00  0.00     0.022 A 
BRANCH  84  88
ATOM     88  S   UNL     1      -0.599  -9.871  -5.635  1.00  0.00     0.124 S 
ATOM     89  O   UNL     1       0.842 -10.052  -5.791  1.00  0.00    -0.237 OA
ATOM     90  O   UNL     1      -1.422 -10.435  -6.699  1.00  0.00    -0.237 OA
ATOM     91  O   UNL     1      -1.010  -8.562  -5.139  1.00  0.00    -0.744 OA
ENDBRANCH  84  88
ENDBRANCH  57  81
BRANCH  69  92
ATOM     92  C   UNL     1      -6.675 -12.229   2.163  1.00  0.00     0.023 A 
ATOM     93  C   UNL     1      -7.414 -12.940   3.126  1.00  0.00     0.031 A 
ATOM     94  C   UNL     1      -5.652 -11.382   2.631  1.00  0.00     0.131 A 
ATOM     95  C   UNL     1      -7.176 -12.755   4.492  1.00  0.00     0.055 A 
ATOM     96  C   UNL     1      -5.364 -11.257   3.998  1.00  0.00     0.041 A 
ATOM     97  F   UNL     1      -4.954 -10.594   1.801  1.00  0.00    -0.206 F 
ATOM     98  C   UNL     1      -6.142 -11.929   4.937  1.00  0.00     0.022 A 
BRANCH  95  99
ATOM     99  S   UNL     1      -8.316 -13.456   5.711  1.00  0.00     0.124 S 
ATOM    100  O   UNL     1      -7.466 -14.409   6.420  1.00  0.00    -0.237 OA
ATOM    101  O   UNL     1      -8.713 -12.277   6.479  1.00  0.00    -0.237 OA
ATOM    102  O   UNL     1      -9.379 -14.048   4.903  1.00  0.00    -0.744 OA
ENDBRANCH  95  99
ENDBRANCH  69  92
ENDBRANCH  43  44
ENDBRANCH  36  38
ENDBRANCH  35  36
ENDBRANCH  34  35
ENDBRANCH  33  34
ENDBRANCH  32  33
ENDBRANCH   1  32
TORSDOF 23
