REMARK SMILES O=C(CS(=O)(=O)[C@@H]1CCOC2(CCCCC2)C1)OCCOCCOCCOC(=O)c1ccc(-c2c3nc(c(-c4cc(S(=O)(=O)[O-])ccc4F)c4ccc([nH]4)c(-c4cc(S(=O)(=O)[O-])ccc4F)c4nc(c(-c5cc(S(=O)(=O)[O-])ccc5F)c5ccc2[nH]5)C=C4)C=C3)cc1
REMARK SMILES IDX 23 1 22 2 21 3 20 4 19 5 18 6 2 7 1 8 3 9 4 10 5 11 6 12
REMARK SMILES IDX 7 13 8 14 17 15 9 16 11 17 10 18 12 19 16 20 13 21 15 22
REMARK SMILES IDX 14 23 24 24 25 25 26 26 27 27 28 28 29 29 30 30 31 31 92 32
REMARK SMILES IDX 32 33 91 34 33 35 34 36 35 37 85 38 36 39 90 40 84 41 86 42
REMARK SMILES IDX 37 43 89 44 83 45 82 46 38 48 70 49 50 50 69 51 51 52 54 53
REMARK SMILES IDX 68 54 87 55 52 56 53 57 67 59 88 60 55 61 39 62 40 63 48 64
REMARK SMILES IDX 41 65 47 66 49 67 46 68 42 69 43 70 44 71 45 72 71 73 72 74
REMARK SMILES IDX 80 75 73 76 79 77 81 78 78 79 74 80 75 81 76 82 77 83 56 84
REMARK SMILES IDX 57 85 65 86 58 87 64 88 66 89 63 90 59 91 60 92 61 93 62 94
REMARK H PARENT 86 47 54 58
REMARK Flexibility Score: inf
ROOT
ATOM      1  C   UNL     1       2.482   0.394   2.830  1.00  0.00     0.188 C 
ENDROOT
BRANCH   1   2
ATOM      2  C   UNL     1       3.435  -0.479   1.992  1.00  0.00     0.188 C 
BRANCH   2   3
ATOM      3  O   UNL     1       4.797  -0.117   2.120  1.00  0.00    -0.376 OA
BRANCH   3   4
ATOM      4  C   UNL     1       5.546   0.197   0.965  1.00  0.00     0.202 C 
BRANCH   4   5
ATOM      5  C   UNL     1       5.096   1.438   0.180  1.00  0.00     0.261 C 
BRANCH   5   6
ATOM      6  O   UNL     1       3.688   1.556  -0.112  1.00  0.00    -0.462 OA
BRANCH   6   7
ATOM      7  C   UNL     1       3.059   0.953  -1.148  1.00  0.00     0.321 C 
ATOM      8  O   UNL     1       2.008   1.416  -1.581  1.00  0.00    -0.251 OA
BRANCH   7   9
ATOM      9  C   UNL     1       3.519  -0.401  -1.534  1.00  0.00     0.259 C 
BRANCH   9  10
ATOM     10  S   UNL     1       4.065  -0.532  -3.188  1.00  0.00     0.164 S 
ATOM     11  O   UNL     1       4.414   0.804  -3.635  1.00  0.00    -0.228 OA
ATOM     12  O   UNL     1       5.115  -1.538  -3.162  1.00  0.00    -0.228 OA
BRANCH  10  13
ATOM     13  C   UNL     1       2.736  -1.156  -4.231  1.00  0.00     0.114 C 
ATOM     14  C   UNL     1       1.347  -0.632  -3.903  1.00  0.00     0.048 C 
ATOM     15  C   UNL     1       2.739  -2.675  -4.463  1.00  0.00     0.055 C 
ATOM     16  C   UNL     1       0.595  -1.490  -2.903  1.00  0.00     0.162 C 
ATOM     17  C   UNL     1       1.870  -3.492  -3.493  1.00  0.00     0.069 C 
ATOM     18  O   UNL     1       0.609  -2.847  -3.289  1.00  0.00    -0.375 OA
ATOM     19  C   UNL     1       2.608  -3.819  -2.181  1.00  0.00     0.035 C 
ATOM     20  C   UNL     1       1.500  -4.854  -4.132  1.00  0.00     0.035 C 
ATOM     21  C   UNL     1       1.719  -4.578  -1.206  1.00  0.00     0.003 C 
ATOM     22  C   UNL     1       0.593  -5.676  -3.209  1.00  0.00     0.003 C 
ATOM     23  C   UNL     1       1.220  -5.869  -1.838  1.00  0.00     0.000 C 
ENDBRANCH  10  13
ENDBRANCH   9  10
ENDBRANCH   7   9
ENDBRANCH   6   7
ENDBRANCH   5   6
ENDBRANCH   4   5
ENDBRANCH   3   4
ENDBRANCH   2   3
ENDBRANCH   1   2
BRANCH   1  24
ATOM     24  O   UNL     1       3.003   1.435   3.646  1.00  0.00    -0.376 OA
BRANCH  24  25
ATOM     25  C   UNL     1       4.210   1.228   4.365  1.00  0.00     0.202 C 
BRANCH  25  26
ATOM     26  C   UNL     1       4.344   0.017   5.305  1.00  0.00     0.261 C 
BRANCH  26  27
ATOM     27  O   UNL     1       4.027  -1.278   4.753  1.00  0.00    -0.460 OA
BRANCH  27  28
ATOM     28  C   UNL     1       2.881  -1.837   5.220  1.00  0.00     0.338 C 
ATOM     29  O   UNL     1       2.088  -1.326   5.992  1.00  0.00    -0.246 OA
BRANCH  28  30
ATOM     30  C   UNL     1       2.619  -3.151   4.587  1.00  0.00     0.060 A 
ATOM     31  C   UNL     1       1.428  -3.319   3.869  1.00  0.00     0.016 A 
ATOM     32  C   UNL     1       3.443  -4.251   4.839  1.00  0.00     0.016 A 
ATOM     33  C   UNL     1       1.032  -4.594   3.448  1.00  0.00     0.010 A 
ATOM     34  C   UNL     1       3.034  -5.532   4.433  1.00  0.00     0.010 A 
ATOM     35  C   UNL     1       1.807  -5.719   3.772  1.00  0.00    -0.014 A 
BRANCH  35  36
ATOM     36  C   UNL     1       1.246  -7.086   3.572  1.00  0.00     0.031 A 
ATOM     37  C   UNL     1       0.519  -7.754   4.703  1.00  0.00     0.074 A 
ATOM     38  C   UNL     1       1.399  -7.753   2.414  1.00  0.00     0.049 A 
ATOM     39  N   UNL     1      -0.016  -8.946   4.752  1.00  0.00    -0.248 NA
ATOM     40  C   UNL     1       0.440  -6.999   5.960  1.00  0.00     0.031 C 
ATOM     41  C   UNL     1       2.188  -7.272   1.293  1.00  0.00     0.029 A 
ATOM     42  N   UNL     1       0.910  -8.967   1.986  1.00  0.00    -0.354 N 
ATOM     43  C   UNL     1      -0.438  -9.117   6.064  1.00  0.00     0.074 A 
ATOM     44  C   UNL     1      -0.106  -7.894   6.769  1.00  0.00     0.031 C 
ATOM     45  C   UNL     1       2.080  -8.151   0.284  1.00  0.00     0.029 A 
ATOM     46  C   UNL     1       1.205  -9.249   0.669  1.00  0.00     0.049 A 
ATOM     47  H   UNL     1       0.398  -9.576   2.565  1.00  0.00     0.167 HD
ATOM     48  C   UNL     1      -1.014 -10.206   6.632  1.00  0.00     0.034 A 
ATOM     49  C   UNL     1       0.808 -10.260  -0.136  1.00  0.00     0.034 A 
ATOM     50  C   UNL     1      -1.327 -11.422   5.919  1.00  0.00     0.049 A 
ATOM     51  C   UNL     1       0.041 -11.403   0.486  1.00  0.00     0.074 A 
ATOM     52  C   UNL     1      -1.911 -12.580   6.405  1.00  0.00     0.029 A 
ATOM     53  N   UNL     1      -1.078 -11.646   4.570  1.00  0.00    -0.354 N 
ATOM     54  N   UNL     1      -0.353 -11.549   1.730  1.00  0.00    -0.248 NA
ATOM     55  C   UNL     1      -0.281 -12.544  -0.384  1.00  0.00     0.031 C 
ATOM     56  C   UNL     1      -1.960 -13.521   5.369  1.00  0.00     0.029 A 
ATOM     57  C   UNL     1      -1.480 -12.927   4.214  1.00  0.00     0.049 A 
ATOM     58  H   UNL     1      -0.675 -10.991   3.956  1.00  0.00     0.167 HD
ATOM     59  C   UNL     1      -0.933 -12.812   1.798  1.00  0.00     0.074 A 
ATOM     60  C   UNL     1      -0.907 -13.355   0.456  1.00  0.00     0.031 C 
ATOM     61  C   UNL     1      -1.411 -13.477   2.880  1.00  0.00     0.034 A 
BRANCH  48  62
ATOM     62  C   UNL     1      -1.257 -10.148   8.120  1.00  0.00     0.023 A 
ATOM     63  C   UNL     1      -2.145  -9.221   8.692  1.00  0.00     0.031 A 
ATOM     64  C   UNL     1      -0.539 -10.993   8.985  1.00  0.00     0.131 A 
ATOM     65  C   UNL     1      -2.226  -9.102  10.087  1.00  0.00     0.055 A 
ATOM     66  C   UNL     1      -0.691 -10.930  10.371  1.00  0.00     0.041 A 
ATOM     67  F   UNL     1       0.343 -11.881   8.499  1.00  0.00    -0.206 F 
ATOM     68  C   UNL     1      -1.526  -9.967  10.931  1.00  0.00     0.022 A 
BRANCH  65  69
ATOM     69  S   UNL     1      -3.133  -7.693  10.781  1.00  0.00     0.124 S 
ATOM     70  O   UNL     1      -2.398  -6.564  10.216  1.00  0.00    -0.237 OA
ATOM     71  O   UNL     1      -4.481  -7.901  10.265  1.00  0.00    -0.237 OA
ATOM     72  O   UNL     1      -2.982  -7.866  12.224  1.00  0.00    -0.744 OA
ENDBRANCH  65  69
ENDBRANCH  48  62
BRANCH  49  73
ATOM     73  C   UNL     1       1.118 -10.270  -1.604  1.00  0.00     0.023 A 
ATOM     74  C   UNL     1       0.083 -10.327  -2.558  1.00  0.00     0.031 A 
ATOM     75  C   UNL     1       2.438 -10.275  -2.087  1.00  0.00     0.131 A 
ATOM     76  C   UNL     1       0.384 -10.421  -3.929  1.00  0.00     0.055 A 
ATOM     77  C   UNL     1       2.731 -10.287  -3.453  1.00  0.00     0.041 A 
ATOM     78  F   UNL     1       3.475 -10.259  -1.234  1.00  0.00    -0.206 F 
ATOM     79  C   UNL     1       1.702 -10.373  -4.383  1.00  0.00     0.022 A 
BRANCH  76  80
ATOM     80  S   UNL     1      -0.964 -10.730  -5.108  1.00  0.00     0.124 S 
ATOM     81  O   UNL     1      -1.528 -11.973  -4.594  1.00  0.00    -0.237 OA
ATOM     82  O   UNL     1      -1.786  -9.536  -4.950  1.00  0.00    -0.237 OA
ATOM     83  O   UNL     1      -0.273 -10.843  -6.391  1.00  0.00    -0.744 OA
ENDBRANCH  76  80
ENDBRANCH  49  73
BRANCH  61  84
ATOM     84  C   UNL     1      -1.927 -14.877   2.645  1.00  0.00     0.023 A 
ATOM     85  C   UNL     1      -1.068 -15.920   2.254  1.00  0.00     0.031 A 
ATOM     86  C   UNL     1      -3.294 -15.167   2.792  1.00  0.00     0.131 A 
ATOM     87  C   UNL     1      -1.592 -17.190   1.966  1.00  0.00     0.055 A 
ATOM     88  C   UNL     1      -3.802 -16.447   2.561  1.00  0.00     0.041 A 
ATOM     89  F   UNL     1      -4.161 -14.210   3.161  1.00  0.00    -0.206 F 
ATOM     90  C   UNL     1      -2.952 -17.463   2.132  1.00  0.00     0.022 A 
BRANCH  87  91
ATOM     91  S   UNL     1      -0.488 -18.457   1.282  1.00  0.00     0.124 S 
ATOM     92  O   UNL     1      -0.007 -17.815   0.062  1.00  0.00    -0.237 OA
ATOM     93  O   UNL     1       0.496 -18.623   2.346  1.00  0.00    -0.237 OA
ATOM     94  O   UNL     1      -1.371 -19.604   1.071  1.00  0.00    -0.744 OA
ENDBRANCH  87  91
ENDBRANCH  61  84
ENDBRANCH  35  36
ENDBRANCH  28  30
ENDBRANCH  27  28
ENDBRANCH  26  27
ENDBRANCH  25  26
ENDBRANCH  24  25
ENDBRANCH   1  24
TORSDOF 22
