REMARK SMILES CCCc1cc2c(cc1Cl)C=C(C(=O)OCCOCCOCCOC(=O)c1ccc(-c3c4nc(c(-c5cc(S(=O)(=O)[O-])ccc5F)c5ccc([nH]5)c(-c5cc(S(=O)(=O)[O-])ccc5F)c5nc(c(-c6cc(S(=O)(=O)[O-])ccc6F)c6ccc3[nH]6)C=C5)C=C4)cc1)[C@@H](C(F)(F)F)O2
REMARK SMILES IDX 20 1 19 2 18 3 17 4 16 5 15 6 13 7 14 8 12 9 4 10 5 11 9 12
REMARK SMILES IDX 6 13 8 14 10 15 7 16 95 17 11 18 90 19 3 20 2 21 1 22 91 23
REMARK SMILES IDX 92 24 93 25 94 26 21 27 22 28 23 29 24 30 25 31 26 32 27 33
REMARK SMILES IDX 28 34 89 35 29 36 88 37 30 38 31 39 32 40 82 41 33 42 87 43
REMARK SMILES IDX 81 44 83 45 34 46 86 47 80 48 79 49 35 51 67 52 47 53 66 54
REMARK SMILES IDX 48 55 51 56 65 57 84 58 49 59 50 60 64 62 85 63 52 64 36 65
REMARK SMILES IDX 37 66 45 67 38 68 44 69 46 70 43 71 39 72 40 73 41 74 42 75
REMARK SMILES IDX 68 76 69 77 77 78 70 79 76 80 78 81 75 82 71 83 72 84 73 85
REMARK SMILES IDX 74 86 53 87 54 88 62 89 55 90 61 91 63 92 60 93 56 94 57 95
REMARK SMILES IDX 58 96 59 97
REMARK H PARENT 83 50 51 61
REMARK Flexibility Score: inf
ROOT
ATOM      1  C   UNL     1      -3.580   7.813   0.750  1.00  0.00     0.188 C 
ENDROOT
BRANCH   1   2
ATOM      2  C   UNL     1      -2.654   9.027   0.514  1.00  0.00     0.188 C 
BRANCH   2   3
ATOM      3  O   UNL     1      -3.235  10.021  -0.298  1.00  0.00    -0.376 OA
BRANCH   3   4
ATOM      4  C   UNL     1      -2.898  10.128  -1.666  1.00  0.00     0.202 C 
BRANCH   4   5
ATOM      5  C   UNL     1      -2.589   8.926  -2.577  1.00  0.00     0.261 C 
BRANCH   5   6
ATOM      6  O   UNL     1      -2.341   7.671  -1.942  1.00  0.00    -0.460 OA
BRANCH   6   7
ATOM      7  C   UNL     1      -1.046   7.305  -1.820  1.00  0.00     0.338 C 
ATOM      8  O   UNL     1      -0.070   7.942  -2.179  1.00  0.00    -0.246 OA
BRANCH   7   9
ATOM      9  C   UNL     1      -0.983   6.038  -1.065  1.00  0.00     0.087 C 
ATOM     10  C   UNL     1       0.438   2.159   1.777  1.00  0.00    -0.026 A 
ATOM     11  C   UNL     1      -0.612   2.386   0.873  1.00  0.00     0.052 A 
ATOM     12  C   UNL     1       1.172   3.275   2.218  1.00  0.00     0.045 A 
ATOM     13  C   UNL     1      -0.810   3.643   0.298  1.00  0.00     0.128 A 
ATOM     14  C   UNL     1       0.960   4.541   1.659  1.00  0.00     0.032 A 
ATOM     15  Cl  UNL     1       2.379   3.148   3.448  1.00  0.00    -0.084 Cl
ATOM     16  C   UNL     1       0.005   4.713   0.655  1.00  0.00     0.019 A 
ATOM     17  O   UNL     1      -1.814   3.722  -0.624  1.00  0.00    -0.475 OA
ATOM     18  C   UNL     1      -0.107   5.975  -0.055  1.00  0.00     0.027 C 
ATOM     19  C   UNL     1      -1.911   4.914  -1.448  1.00  0.00     0.316 C 
BRANCH  10  20
ATOM     20  C   UNL     1       0.767   0.759   2.258  1.00  0.00     0.037 C 
BRANCH  20  21
ATOM     21  C   UNL     1       0.419  -0.407   1.317  1.00  0.00     0.001 C 
ATOM     22  C   UNL     1       1.128  -0.339  -0.033  1.00  0.00     0.004 C 
ENDBRANCH  20  21
ENDBRANCH  10  20
BRANCH  19  23
ATOM     23  C   UNL     1      -1.758   4.501  -2.919  1.00  0.00     0.430 C 
ATOM     24  F   UNL     1      -2.588   3.475  -3.231  1.00  0.00    -0.167 F 
ATOM     25  F   UNL     1      -2.071   5.516  -3.760  1.00  0.00    -0.167 F 
ATOM     26  F   UNL     1      -0.499   4.105  -3.213  1.00  0.00    -0.167 F 
ENDBRANCH  19  23
ENDBRANCH   7   9
ENDBRANCH   6   7
ENDBRANCH   5   6
ENDBRANCH   4   5
ENDBRANCH   3   4
ENDBRANCH   2   3
ENDBRANCH   1   2
BRANCH   1  27
ATOM     27  O   UNL     1      -4.887   7.804   0.184  1.00  0.00    -0.376 OA
BRANCH  27  28
ATOM     28  C   UNL     1      -5.726   8.941   0.369  1.00  0.00     0.202 C 
BRANCH  28  29
ATOM     29  C   UNL     1      -6.008   9.447   1.791  1.00  0.00     0.261 C 
BRANCH  29  30
ATOM     30  O   UNL     1      -4.833   9.747   2.560  1.00  0.00    -0.460 OA
BRANCH  30  31
ATOM     31  C   UNL     1      -4.623   8.953   3.642  1.00  0.00     0.338 C 
ATOM     32  O   UNL     1      -5.337   8.048   4.037  1.00  0.00    -0.246 OA
BRANCH  31  33
ATOM     33  C   UNL     1      -3.264   9.205   4.167  1.00  0.00     0.060 A 
ATOM     34  C   UNL     1      -2.855  10.489   4.530  1.00  0.00     0.016 A 
ATOM     35  C   UNL     1      -2.387   8.118   4.295  1.00  0.00     0.016 A 
ATOM     36  C   UNL     1      -1.570  10.678   5.048  1.00  0.00     0.010 A 
ATOM     37  C   UNL     1      -1.098   8.312   4.796  1.00  0.00     0.010 A 
ATOM     38  C   UNL     1      -0.688   9.591   5.196  1.00  0.00    -0.014 A 
BRANCH  38  39
ATOM     39  C   UNL     1       0.581   9.767   5.945  1.00  0.00     0.031 A 
ATOM     40  C   UNL     1       1.901   9.925   5.257  1.00  0.00     0.074 A 
ATOM     41  C   UNL     1       0.516   9.769   7.290  1.00  0.00     0.049 A 
ATOM     42  N   UNL     1       3.065  10.209   5.781  1.00  0.00    -0.248 NA
ATOM     43  C   UNL     1       1.924   9.735   3.800  1.00  0.00     0.031 C 
ATOM     44  C   UNL     1      -0.712   9.569   8.060  1.00  0.00     0.029 A 
ATOM     45  N   UNL     1       1.486   9.945   8.244  1.00  0.00    -0.354 N 
ATOM     46  C   UNL     1       3.960  10.263   4.720  1.00  0.00     0.074 A 
ATOM     47  C   UNL     1       3.211   9.926   3.527  1.00  0.00     0.031 C 
ATOM     48  C   UNL     1      -0.427   9.656   9.367  1.00  0.00     0.029 A 
ATOM     49  C   UNL     1       1.005   9.898   9.531  1.00  0.00     0.049 A 
ATOM     50  H   UNL     1       2.435  10.091   8.027  1.00  0.00     0.167 HD
ATOM     51  C   UNL     1       5.276  10.587   4.748  1.00  0.00     0.034 A 
ATOM     52  C   UNL     1       1.637  10.046  10.713  1.00  0.00     0.034 A 
ATOM     53  C   UNL     1       6.004  10.901   5.955  1.00  0.00     0.049 A 
ATOM     54  C   UNL     1       3.104  10.389  10.717  1.00  0.00     0.074 A 
ATOM     55  C   UNL     1       7.323  11.302   6.076  1.00  0.00     0.029 A 
ATOM     56  N   UNL     1       5.492  10.836   7.244  1.00  0.00    -0.354 N 
ATOM     57  N   UNL     1       3.909  10.574   9.697  1.00  0.00    -0.248 NA
ATOM     58  C   UNL     1       3.747  10.567  12.026  1.00  0.00     0.031 C 
ATOM     59  C   UNL     1       7.629  11.408   7.433  1.00  0.00     0.029 A 
ATOM     60  C   UNL     1       6.480  11.154   8.165  1.00  0.00     0.049 A 
ATOM     61  H   UNL     1       4.564  10.600   7.472  1.00  0.00     0.167 HD
ATOM     62  C   UNL     1       5.144  10.917  10.239  1.00  0.00     0.074 A 
ATOM     63  C   UNL     1       4.973  10.937  11.677  1.00  0.00     0.031 C 
ATOM     64  C   UNL     1       6.311  11.185   9.600  1.00  0.00     0.034 A 
BRANCH  51  65
ATOM     65  C   UNL     1       6.035  10.668   3.445  1.00  0.00     0.023 A 
ATOM     66  C   UNL     1       7.150   9.838   3.218  1.00  0.00     0.031 A 
ATOM     67  C   UNL     1       5.761  11.682   2.509  1.00  0.00     0.131 A 
ATOM     68  C   UNL     1       7.972  10.064   2.106  1.00  0.00     0.055 A 
ATOM     69  C   UNL     1       6.561  11.877   1.382  1.00  0.00     0.041 A 
ATOM     70  F   UNL     1       4.715  12.507   2.684  1.00  0.00    -0.206 F 
ATOM     71  C   UNL     1       7.681  11.075   1.185  1.00  0.00     0.022 A 
BRANCH  68  72
ATOM     72  S   UNL     1       9.496   9.112   1.853  1.00  0.00     0.124 S 
ATOM     73  O   UNL     1       9.253   8.502   0.548  1.00  0.00    -0.237 OA
ATOM     74  O   UNL     1      10.516  10.157   1.873  1.00  0.00    -0.237 OA
ATOM     75  O   UNL     1       9.520   8.183   2.977  1.00  0.00    -0.744 OA
ENDBRANCH  68  72
ENDBRANCH  51  65
BRANCH  52  76
ATOM     76  C   UNL     1       0.840   9.955  11.970  1.00  0.00     0.023 A 
ATOM     77  C   UNL     1       0.170   8.767  12.315  1.00  0.00     0.031 A 
ATOM     78  C   UNL     1       0.632  11.089  12.772  1.00  0.00     0.131 A 
ATOM     79  C   UNL     1      -0.729   8.761  13.389  1.00  0.00     0.055 A 
ATOM     80  C   UNL     1      -0.209  11.059  13.886  1.00  0.00     0.041 A 
ATOM     81  F   UNL     1       1.234  12.250  12.471  1.00  0.00    -0.206 F 
ATOM     82  C   UNL     1      -0.909   9.895  14.188  1.00  0.00     0.022 A 
BRANCH  79  83
ATOM     83  S   UNL     1      -1.800   7.329  13.697  1.00  0.00     0.124 S 
ATOM     84  O   UNL     1      -1.408   6.941  15.048  1.00  0.00    -0.237 OA
ATOM     85  O   UNL     1      -3.130   7.920  13.570  1.00  0.00    -0.237 OA
ATOM     86  O   UNL     1      -1.435   6.392  12.639  1.00  0.00    -0.744 OA
ENDBRANCH  79  83
ENDBRANCH  52  76
BRANCH  64  87
ATOM     87  C   UNL     1       7.529  11.531  10.426  1.00  0.00     0.023 A 
ATOM     88  C   UNL     1       8.154  12.784  10.272  1.00  0.00     0.031 A 
ATOM     89  C   UNL     1       8.155  10.575  11.245  1.00  0.00     0.131 A 
ATOM     90  C   UNL     1       9.388  13.030  10.889  1.00  0.00     0.055 A 
ATOM     91  C   UNL     1       9.359  10.844  11.899  1.00  0.00     0.041 A 
ATOM     92  F   UNL     1       7.607   9.361  11.417  1.00  0.00    -0.206 F 
ATOM     93  C   UNL     1       9.988  12.070  11.710  1.00  0.00     0.022 A 
BRANCH  90  94
ATOM     94  S   UNL     1      10.303  14.566  10.578  1.00  0.00     0.124 S 
ATOM     95  O   UNL     1      10.398  15.139  11.919  1.00  0.00    -0.237 OA
ATOM     96  O   UNL     1      11.559  14.069  10.023  1.00  0.00    -0.237 OA
ATOM     97  O   UNL     1       9.453  15.301   9.647  1.00  0.00    -0.744 OA
ENDBRANCH  90  94
ENDBRANCH  64  87
ENDBRANCH  38  39
ENDBRANCH  31  33
ENDBRANCH  30  31
ENDBRANCH  29  30
ENDBRANCH  28  29
ENDBRANCH  27  28
ENDBRANCH   1  27
TORSDOF 23
