REMARK SMILES CN1C(=O)C(=Cc2ccc(OCc3cccc(C(=O)OCCOCCOCCOC(=O)c4ccc(-c5c6nc(c(-c7cc(S(=O)(=O)[O-])ccc7F)c7ccc([nH]7)c(-c7cc(S(=O)(=O)[O-])ccc7F)c7nc(c(-c8cc(S(=O)(=O)[O-])ccc8F)c8ccc5[nH]8)C=C7)C=C6)cc4)c3)c(Cl)c2)C(=O)N(C)C1=S
REMARK SMILES IDX 24 1 23 2 22 3 21 4 20 5 18 6 19 7 17 8 13 9 14 10 95 11
REMARK SMILES IDX 15 12 16 13 12 14 11 15 10 16 7 17 8 18 98 19 9 20 96 21
REMARK SMILES IDX 97 22 6 23 1 24 2 25 3 26 103 27 4 28 5 29 101 30 104 31
REMARK SMILES IDX 99 32 102 33 100 34 25 35 26 36 27 37 28 38 29 39 30 40
REMARK SMILES IDX 31 41 32 42 33 43 94 44 34 45 93 46 35 47 36 48 37 49 87 50
REMARK SMILES IDX 38 51 92 52 86 53 88 54 39 55 91 56 85 57 84 58 40 60 72 61
REMARK SMILES IDX 52 62 71 63 53 64 56 65 70 66 89 67 54 68 55 69 69 71 90 72
REMARK SMILES IDX 57 73 41 74 42 75 50 76 43 77 49 78 51 79 48 80 44 81 45 82
REMARK SMILES IDX 46 83 47 84 73 85 74 86 82 87 75 88 81 89 83 90 80 91 76 92
REMARK SMILES IDX 77 93 78 94 79 95 58 96 59 97 67 98 60 99 66 100 68 101
REMARK SMILES IDX 65 102 61 103 62 104 63 105 64 106
REMARK H PARENT 88 59 56 70
REMARK Flexibility Score: inf
ROOT
ATOM      1  C   UNL     1       4.316  13.559  -1.137  1.00  0.00     0.188 C 
ENDROOT
BRANCH   1   2
ATOM      2  O   UNL     1       3.685  14.815  -1.334  1.00  0.00    -0.376 OA
BRANCH   2   3
ATOM      3  C   UNL     1       2.287  14.929  -1.093  1.00  0.00     0.202 C 
BRANCH   3   4
ATOM      4  C   UNL     1       1.362  14.022  -1.901  1.00  0.00     0.261 C 
BRANCH   4   5
ATOM      5  O   UNL     1       1.511  12.657  -1.480  1.00  0.00    -0.460 OA
BRANCH   5   6
ATOM      6  C   UNL     1       1.599  11.747  -2.480  1.00  0.00     0.338 C 
ATOM      7  O   UNL     1       1.404  11.937  -3.668  1.00  0.00    -0.246 OA
BRANCH   6   8
ATOM      8  C   UNL     1       2.177  10.511  -1.921  1.00  0.00     0.060 A 
ATOM      9  C   UNL     1       2.226   8.755  -0.246  1.00  0.00    -0.010 A 
ATOM     10  C   UNL     1       3.423   8.285  -0.809  1.00  0.00     0.007 A 
ATOM     11  C   UNL     1       1.633   9.908  -0.783  1.00  0.00     0.023 A 
ATOM     12  C   UNL     1       3.957   8.884  -1.952  1.00  0.00     0.001 A 
ATOM     13  C   UNL     1       3.324   9.985  -2.522  1.00  0.00     0.016 A 
BRANCH   9  14
ATOM     14  C   UNL     1       1.558   8.062   0.924  1.00  0.00     0.265 C 
BRANCH  14  15
ATOM     15  O   UNL     1       1.696   6.640   1.022  1.00  0.00    -0.487 OA
BRANCH  15  16
ATOM     16  C   UNL     1       1.542   5.838  -0.074  1.00  0.00     0.138 A 
ATOM     17  C   UNL     1       1.599   3.971  -2.180  1.00  0.00    -0.023 A 
ATOM     18  C   UNL     1       2.425   3.799  -1.066  1.00  0.00     0.012 A 
ATOM     19  C   UNL     1       0.741   5.070  -2.236  1.00  0.00     0.032 A 
ATOM     20  C   UNL     1       2.387   4.721  -0.023  1.00  0.00     0.048 A 
ATOM     21  C   UNL     1       0.686   5.988  -1.175  1.00  0.00     0.083 A 
ATOM     22  Cl  UNL     1      -0.550   7.190  -1.282  1.00  0.00    -0.080 Cl
BRANCH  17  23
ATOM     23  C   UNL     1       1.580   2.945  -3.227  1.00  0.00     0.027 C 
ATOM     24  C   UNL     1       0.364  -0.173   0.046  1.00  0.00     0.156 C 
ATOM     25  N   UNL     1       0.660   0.055  -1.370  1.00  0.00    -0.288 N 
ATOM     26  C   UNL     1       0.356   1.333  -1.816  1.00  0.00     0.265 C 
ATOM     27  C   UNL     1       1.131  -0.984  -2.200  1.00  0.00     0.185 C 
ATOM     28  O   UNL     1      -0.442   2.084  -1.261  1.00  0.00    -0.268 OA
ATOM     29  C   UNL     1       1.059   1.716  -3.045  1.00  0.00     0.106 C 
ATOM     30  N   UNL     1       1.399  -0.618  -3.540  1.00  0.00    -0.288 N 
ATOM     31  S   UNL     1       1.324  -2.566  -1.617  1.00  0.00    -0.040 S 
ATOM     32  C   UNL     1       1.324   0.683  -4.051  1.00  0.00     0.265 C 
ATOM     33  C   UNL     1       1.843  -1.585  -4.548  1.00  0.00     0.156 C 
ATOM     34  O   UNL     1       1.506   0.972  -5.231  1.00  0.00    -0.268 OA
ENDBRANCH  17  23
ENDBRANCH  15  16
ENDBRANCH  14  15
ENDBRANCH   9  14
ENDBRANCH   6   8
ENDBRANCH   5   6
ENDBRANCH   4   5
ENDBRANCH   3   4
ENDBRANCH   2   3
ENDBRANCH   1   2
BRANCH   1  35
ATOM     35  C   UNL     1       4.169  12.823   0.213  1.00  0.00     0.188 C 
BRANCH  35  36
ATOM     36  O   UNL     1       3.708  13.491   1.377  1.00  0.00    -0.376 OA
BRANCH  36  37
ATOM     37  C   UNL     1       4.238  14.761   1.721  1.00  0.00     0.202 C 
BRANCH  37  38
ATOM     38  C   UNL     1       5.740  14.910   1.957  1.00  0.00     0.261 C 
BRANCH  38  39
ATOM     39  O   UNL     1       6.545  14.473   0.856  1.00  0.00    -0.460 OA
BRANCH  39  40
ATOM     40  C   UNL     1       7.340  13.406   1.119  1.00  0.00     0.338 C 
ATOM     41  O   UNL     1       7.438  12.800   2.171  1.00  0.00    -0.246 OA
BRANCH  40  42
ATOM     42  C   UNL     1       7.990  12.967  -0.128  1.00  0.00     0.060 A 
ATOM     43  C   UNL     1       7.800  11.644  -0.544  1.00  0.00     0.016 A 
ATOM     44  C   UNL     1       8.818  13.831  -0.847  1.00  0.00     0.016 A 
ATOM     45  C   UNL     1       8.463  11.170  -1.675  1.00  0.00     0.010 A 
ATOM     46  C   UNL     1       9.495  13.349  -1.969  1.00  0.00     0.010 A 
ATOM     47  C   UNL     1       9.339  12.011  -2.374  1.00  0.00    -0.014 A 
BRANCH  47  48
ATOM     48  C   UNL     1      10.210  11.458  -3.437  1.00  0.00     0.031 A 
ATOM     49  C   UNL     1      11.605  11.030  -3.078  1.00  0.00     0.074 A 
ATOM     50  C   UNL     1       9.768  11.349  -4.702  1.00  0.00     0.049 A 
ATOM     51  N   UNL     1      12.566  10.595  -3.851  1.00  0.00    -0.248 NA
ATOM     52  C   UNL     1      11.963  11.110  -1.653  1.00  0.00     0.031 C 
ATOM     53  C   UNL     1       8.423  11.693  -5.158  1.00  0.00     0.029 A 
ATOM     54  N   UNL     1      10.414  10.931  -5.838  1.00  0.00    -0.354 N 
ATOM     55  C   UNL     1      13.643  10.345  -3.008  1.00  0.00     0.074 A 
ATOM     56  C   UNL     1      13.225  10.711  -1.671  1.00  0.00     0.031 C 
ATOM     57  C   UNL     1       8.350  11.492  -6.486  1.00  0.00     0.029 A 
ATOM     58  C   UNL     1       9.652  11.044  -6.977  1.00  0.00     0.049 A 
ATOM     59  H   UNL     1      11.336  10.584  -5.838  1.00  0.00     0.167 HD
ATOM     60  C   UNL     1      14.866   9.851  -3.321  1.00  0.00     0.034 A 
ATOM     61  C   UNL     1       9.982  10.842  -8.268  1.00  0.00     0.034 A 
ATOM     62  C   UNL     1      15.279   9.520  -4.663  1.00  0.00     0.049 A 
ATOM     63  C   UNL     1      11.386  10.398  -8.607  1.00  0.00     0.074 A 
ATOM     64  C   UNL     1      16.489   9.004  -5.092  1.00  0.00     0.029 A 
ATOM     65  N   UNL     1      14.498   9.694  -5.799  1.00  0.00    -0.354 N 
ATOM     66  N   UNL     1      12.393  10.152  -7.802  1.00  0.00    -0.248 NA
ATOM     67  C   UNL     1      11.694  10.204 -10.031  1.00  0.00     0.031 C 
ATOM     68  C   UNL     1      16.465   8.930  -6.489  1.00  0.00     0.029 A 
ATOM     69  C   UNL     1      15.213   9.331  -6.930  1.00  0.00     0.049 A 
ATOM     70  H   UNL     1      13.572  10.027  -5.801  1.00  0.00     0.167 HD
ATOM     71  C   UNL     1      13.445   9.748  -8.621  1.00  0.00     0.074 A 
ATOM     72  C   UNL     1      12.946   9.775  -9.981  1.00  0.00     0.031 C 
ATOM     73  C   UNL     1      14.707   9.379  -8.281  1.00  0.00     0.034 A 
BRANCH  60  74
ATOM     74  C   UNL     1      15.854   9.699  -2.192  1.00  0.00     0.023 A 
ATOM     75  C   UNL     1      15.637   8.793  -1.139  1.00  0.00     0.031 A 
ATOM     76  C   UNL     1      17.007  10.502  -2.145  1.00  0.00     0.131 A 
ATOM     77  C   UNL     1      16.520   8.762  -0.050  1.00  0.00     0.055 A 
ATOM     78  C   UNL     1      17.922  10.413  -1.094  1.00  0.00     0.041 A 
ATOM     79  F   UNL     1      17.254  11.401  -3.110  1.00  0.00    -0.206 F 
ATOM     80  C   UNL     1      17.673   9.550  -0.030  1.00  0.00     0.022 A 
BRANCH  77  81
ATOM     81  S   UNL     1      16.065   7.781   1.407  1.00  0.00     0.124 S 
ATOM     82  O   UNL     1      14.782   8.375   1.775  1.00  0.00    -0.237 OA
ATOM     83  O   UNL     1      16.011   6.426   0.870  1.00  0.00    -0.237 OA
ATOM     84  O   UNL     1      17.154   8.037   2.347  1.00  0.00    -0.744 OA
ENDBRANCH  77  81
ENDBRANCH  60  74
BRANCH  61  85
ATOM     85  C   UNL     1       8.993  11.107  -9.351  1.00  0.00     0.023 A 
ATOM     86  C   UNL     1       8.521  10.072 -10.172  1.00  0.00     0.031 A 
ATOM     87  C   UNL     1       8.550  12.416  -9.615  1.00  0.00     0.131 A 
ATOM     88  C   UNL     1       7.669  10.368 -11.248  1.00  0.00     0.055 A 
ATOM     89  C   UNL     1       7.664  12.698 -10.655  1.00  0.00     0.041 A 
ATOM     90  F   UNL     1       8.974  13.442  -8.860  1.00  0.00    -0.206 F 
ATOM     91  C   UNL     1       7.227  11.672 -11.487  1.00  0.00     0.022 A 
BRANCH  88  92
ATOM     92  S   UNL     1       7.207   9.030 -12.382  1.00  0.00     0.124 S 
ATOM     93  O   UNL     1       8.510   8.596 -12.875  1.00  0.00    -0.237 OA
ATOM     94  O   UNL     1       6.516   8.103 -11.492  1.00  0.00    -0.237 OA
ATOM     95  O   UNL     1       6.357   9.697 -13.367  1.00  0.00    -0.744 OA
ENDBRANCH  88  92
ENDBRANCH  61  85
BRANCH  73  96
ATOM     96  C   UNL     1      15.618   8.933  -9.399  1.00  0.00     0.023 A 
ATOM     97  C   UNL     1      16.101   9.832 -10.366  1.00  0.00     0.031 A 
ATOM     98  C   UNL     1      16.007   7.585  -9.495  1.00  0.00     0.131 A 
ATOM     99  C   UNL     1      16.909   9.363 -11.413  1.00  0.00     0.055 A 
ATOM    100  C   UNL     1      16.854   7.134 -10.508  1.00  0.00     0.041 A 
ATOM    101  F   UNL     1      15.574   6.684  -8.599  1.00  0.00    -0.206 F 
ATOM    102  C   UNL     1      17.301   8.024 -11.481  1.00  0.00     0.022 A 
BRANCH  99 103
ATOM    103  S   UNL     1      17.387  10.515 -12.731  1.00  0.00     0.124 S 
ATOM    104  O   UNL     1      16.090  10.924 -13.261  1.00  0.00    -0.237 OA
ATOM    105  O   UNL     1      18.128  11.537 -12.000  1.00  0.00    -0.237 OA
ATOM    106  O   UNL     1      18.193   9.692 -13.631  1.00  0.00    -0.744 OA
ENDBRANCH  99 103
ENDBRANCH  73  96
ENDBRANCH  47  48
ENDBRANCH  40  42
ENDBRANCH  39  40
ENDBRANCH  38  39
ENDBRANCH  37  38
ENDBRANCH  36  37
ENDBRANCH  35  36
ENDBRANCH   1  35
TORSDOF 24
