REMARK SMILES Cc1cccc2c1[C@H]1c3c(C)cccc3[C@H](CC(=O)OCCOCCOCCOC(=O)c3ccc(-c4c5nc(c(-c6cc(S(=O)(=O)[O-])ccc6F)c6ccc([nH]6)c(-c6cc(S(=O)(=O)[O-])ccc6F)c6nc(c(-c7cc(S(=O)(=O)[O-])ccc7F)c7ccc4[nH]7)C=C6)C=C5)cc3)C[C@H]1CC2
REMARK SMILES IDX 25 1 24 2 23 3 22 4 21 5 20 6 18 7 19 8 17 9 16 10 1 11 2 12
REMARK SMILES IDX 3 13 7 14 4 15 6 16 8 17 5 18 98 19 9 20 96 21 97 22 10 23
REMARK SMILES IDX 15 24 95 25 12 26 11 27 14 28 13 29 26 30 27 31 28 32 29 33
REMARK SMILES IDX 30 34 31 35 32 36 33 37 94 38 34 39 93 40 35 41 36 42 37 43
REMARK SMILES IDX 87 44 38 45 92 46 86 47 88 48 39 49 91 50 85 51 84 52 40 54
REMARK SMILES IDX 72 55 52 56 71 57 53 58 56 59 70 60 89 61 54 62 55 63 69 65
REMARK SMILES IDX 90 66 57 67 41 68 42 69 50 70 43 71 49 72 51 73 48 74 44 75
REMARK SMILES IDX 45 76 46 77 47 78 73 79 74 80 82 81 75 82 81 83 83 84 80 85
REMARK SMILES IDX 76 86 77 87 78 88 79 89 58 90 59 91 67 92 60 93 66 94 68 95
REMARK SMILES IDX 65 96 61 97 62 98 63 99 64 100
REMARK H PARENT 88 53 56 64
REMARK Flexibility Score: inf
ROOT
ATOM      1  C   UNL     1       6.703   0.636   3.259  1.00  0.00     0.188 C 
ENDROOT
BRANCH   1   2
ATOM      2  C   UNL     1       7.283   1.976   3.712  1.00  0.00     0.188 C 
BRANCH   2   3
ATOM      3  O   UNL     1       8.592   1.966   4.256  1.00  0.00    -0.376 OA
BRANCH   3   4
ATOM      4  C   UNL     1       8.879   1.008   5.274  1.00  0.00     0.202 C 
BRANCH   4   5
ATOM      5  C   UNL     1       7.845   0.832   6.406  1.00  0.00     0.261 C 
BRANCH   5   6
ATOM      6  O   UNL     1       6.547   0.317   5.978  1.00  0.00    -0.463 OA
BRANCH   6   7
ATOM      7  C   UNL     1       5.472   0.869   6.590  1.00  0.00     0.306 C 
ATOM      8  O   UNL     1       5.573   1.575   7.594  1.00  0.00    -0.252 OA
BRANCH   7   9
ATOM      9  C   UNL     1       4.143   0.792   5.830  1.00  0.00     0.131 C 
BRANCH   9  10
ATOM     10  C   UNL     1       3.278  -0.461   5.430  1.00  0.00     0.031 C 
ATOM     11  C   UNL     1       1.294  -0.345  -0.111  1.00  0.00     0.044 C 
ATOM     12  C   UNL     1       0.646  -1.545   0.532  1.00  0.00    -0.047 A 
ATOM     13  C   UNL     1      -0.341  -2.224  -0.204  1.00  0.00     0.004 A 
ATOM     14  C   UNL     1       1.003  -2.013   1.827  1.00  0.00    -0.034 A 
ATOM     15  C   UNL     1      -0.927  -3.384   0.291  1.00  0.00     0.001 A 
ATOM     16  C   UNL     1       0.514  -3.271   2.247  1.00  0.00    -0.044 A 
ATOM     17  C   UNL     1       1.866  -1.189   2.790  1.00  0.00     0.053 C 
ATOM     18  C   UNL     1      -0.469  -3.928   1.486  1.00  0.00     0.004 A 
ATOM     19  C   UNL     1       1.128  -4.014   3.410  1.00  0.00     0.036 C 
ATOM     20  C   UNL     1       1.157  -0.278   3.833  1.00  0.00    -0.034 A 
ATOM     21  C   UNL     1       2.845  -2.156   3.504  1.00  0.00     0.002 C 
ATOM     22  C   UNL     1       2.062  -3.199   4.309  1.00  0.00     0.009 C 
ATOM     23  C   UNL     1      -0.124   0.331   3.634  1.00  0.00    -0.047 A 
ATOM     24  C   UNL     1       1.847   0.032   5.056  1.00  0.00    -0.040 A 
ATOM     25  C   UNL     1       3.866  -1.340   4.316  1.00  0.00     0.013 C 
ATOM     26  C   UNL     1      -0.632   1.246   4.580  1.00  0.00     0.004 A 
ATOM     27  C   UNL     1      -1.066   0.092   2.483  1.00  0.00     0.044 C 
ATOM     28  C   UNL     1       1.206   0.838   6.026  1.00  0.00     0.004 A 
ATOM     29  C   UNL     1       0.015   1.488   5.771  1.00  0.00     0.001 A 
ENDBRANCH   9  10
ENDBRANCH   7   9
ENDBRANCH   6   7
ENDBRANCH   5   6
ENDBRANCH   4   5
ENDBRANCH   3   4
ENDBRANCH   2   3
ENDBRANCH   1   2
BRANCH   1  30
ATOM     30  O   UNL     1       7.508  -0.489   3.549  1.00  0.00    -0.376 OA
BRANCH  30  31
ATOM     31  C   UNL     1       7.414  -1.624   2.707  1.00  0.00     0.202 C 
BRANCH  31  32
ATOM     32  C   UNL     1       8.047  -1.394   1.328  1.00  0.00     0.261 C 
BRANCH  32  33
ATOM     33  O   UNL     1       7.393  -0.410   0.504  1.00  0.00    -0.460 OA
BRANCH  33  34
ATOM     34  C   UNL     1       6.071  -0.576   0.263  1.00  0.00     0.338 C 
ATOM     35  O   UNL     1       5.390  -1.552   0.541  1.00  0.00    -0.246 OA
BRANCH  34  36
ATOM     36  C   UNL     1       5.525   0.743  -0.132  1.00  0.00     0.060 A 
ATOM     37  C   UNL     1       4.461   1.279   0.610  1.00  0.00     0.016 A 
ATOM     38  C   UNL     1       6.104   1.481  -1.162  1.00  0.00     0.016 A 
ATOM     39  C   UNL     1       3.937   2.531   0.293  1.00  0.00     0.010 A 
ATOM     40  C   UNL     1       5.573   2.729  -1.488  1.00  0.00     0.010 A 
ATOM     41  C   UNL     1       4.468   3.243  -0.786  1.00  0.00    -0.014 A 
BRANCH  41  42
ATOM     42  C   UNL     1       3.772   4.441  -1.304  1.00  0.00     0.031 A 
ATOM     43  C   UNL     1       2.839   4.272  -2.466  1.00  0.00     0.074 A 
ATOM     44  C   UNL     1       3.988   5.660  -0.780  1.00  0.00     0.049 A 
ATOM     45  N   UNL     1       2.176   5.179  -3.131  1.00  0.00    -0.248 NA
ATOM     46  C   UNL     1       2.634   2.896  -2.948  1.00  0.00     0.031 C 
ATOM     47  C   UNL     1       4.851   5.942   0.362  1.00  0.00     0.029 A 
ATOM     48  N   UNL     1       3.512   6.889  -1.163  1.00  0.00    -0.354 N 
ATOM     49  C   UNL     1       1.494   4.490  -4.125  1.00  0.00     0.074 A 
ATOM     50  C   UNL     1       1.837   3.092  -3.987  1.00  0.00     0.031 C 
ATOM     51  C   UNL     1       4.862   7.269   0.576  1.00  0.00     0.029 A 
ATOM     52  C   UNL     1       4.034   7.931  -0.435  1.00  0.00     0.049 A 
ATOM     53  H   UNL     1       2.859   7.013  -1.889  1.00  0.00     0.167 HD
ATOM     54  C   UNL     1       0.659   4.982  -5.067  1.00  0.00     0.034 A 
ATOM     55  C   UNL     1       3.883   9.264  -0.580  1.00  0.00     0.034 A 
ATOM     56  C   UNL     1       0.323   6.375  -5.194  1.00  0.00     0.049 A 
ATOM     57  C   UNL     1       2.975   9.799  -1.658  1.00  0.00     0.074 A 
ATOM     58  C   UNL     1      -0.568   6.957  -6.078  1.00  0.00     0.029 A 
ATOM     59  N   UNL     1       0.870   7.403  -4.440  1.00  0.00    -0.354 N 
ATOM     60  N   UNL     1       2.267   9.134  -2.541  1.00  0.00    -0.248 NA
ATOM     61  C   UNL     1       2.835  11.259  -1.759  1.00  0.00     0.031 C 
ATOM     62  C   UNL     1      -0.501   8.341  -5.914  1.00  0.00     0.029 A 
ATOM     63  C   UNL     1       0.369   8.620  -4.871  1.00  0.00     0.049 A 
ATOM     64  H   UNL     1       1.517   7.285  -3.708  1.00  0.00     0.167 HD
ATOM     65  C   UNL     1       1.583  10.091  -3.287  1.00  0.00     0.074 A 
ATOM     66  C   UNL     1       1.950  11.381  -2.742  1.00  0.00     0.031 C 
ATOM     67  C   UNL     1       0.728   9.909  -4.326  1.00  0.00     0.034 A 
BRANCH  54  68
ATOM     68  C   UNL     1       0.056   4.024  -6.059  1.00  0.00     0.023 A 
ATOM     69  C   UNL     1       0.372   4.154  -7.423  1.00  0.00     0.031 A 
ATOM     70  C   UNL     1      -0.903   3.069  -5.681  1.00  0.00     0.131 A 
ATOM     71  C   UNL     1      -0.293   3.365  -8.367  1.00  0.00     0.055 A 
ATOM     72  C   UNL     1      -1.534   2.256  -6.623  1.00  0.00     0.041 A 
ATOM     73  F   UNL     1      -1.230   2.904  -4.389  1.00  0.00    -0.206 F 
ATOM     74  C   UNL     1      -1.239   2.412  -7.974  1.00  0.00     0.022 A 
BRANCH  71  75
ATOM     75  S   UNL     1       0.006   3.583 -10.141  1.00  0.00     0.124 S 
ATOM     76  O   UNL     1       0.395   2.234 -10.548  1.00  0.00    -0.237 OA
ATOM     77  O   UNL     1      -1.301   4.027 -10.617  1.00  0.00    -0.237 OA
ATOM     78  O   UNL     1       1.072   4.578 -10.198  1.00  0.00    -0.744 OA
ENDBRANCH  71  75
ENDBRANCH  54  68
BRANCH  55  79
ATOM     79  C   UNL     1       4.593  10.164   0.370  1.00  0.00     0.023 A 
ATOM     80  C   UNL     1       5.998  10.225   0.389  1.00  0.00     0.031 A 
ATOM     81  C   UNL     1       3.883  10.859   1.362  1.00  0.00     0.131 A 
ATOM     82  C   UNL     1       6.649  10.897   1.431  1.00  0.00     0.055 A 
ATOM     83  C   UNL     1       4.536  11.579   2.363  1.00  0.00     0.041 A 
ATOM     84  F   UNL     1       2.542  10.826   1.380  1.00  0.00    -0.206 F 
ATOM     85  C   UNL     1       5.927  11.584   2.412  1.00  0.00     0.022 A 
BRANCH  82  86
ATOM     86  S   UNL     1       8.452  10.807   1.606  1.00  0.00     0.124 S 
ATOM     87  O   UNL     1       8.817  12.210   1.782  1.00  0.00    -0.237 OA
ATOM     88  O   UNL     1       8.588   9.967   2.793  1.00  0.00    -0.237 OA
ATOM     89  O   UNL     1       8.890  10.198   0.355  1.00  0.00    -0.744 OA
ENDBRANCH  82  86
ENDBRANCH  55  79
BRANCH  67  90
ATOM     90  C   UNL     1       0.100  11.117  -4.979  1.00  0.00     0.023 A 
ATOM     91  C   UNL     1      -1.299  11.283  -4.949  1.00  0.00     0.031 A 
ATOM     92  C   UNL     1       0.856  11.998  -5.771  1.00  0.00     0.131 A 
ATOM     93  C   UNL     1      -1.903  12.271  -5.736  1.00  0.00     0.055 A 
ATOM     94  C   UNL     1       0.253  13.013  -6.516  1.00  0.00     0.041 A 
ATOM     95  F   UNL     1       2.191  11.876  -5.841  1.00  0.00    -0.206 F 
ATOM     96  C   UNL     1      -1.134  13.143  -6.513  1.00  0.00     0.022 A 
BRANCH  93  97
ATOM     97  S   UNL     1      -3.709  12.413  -5.838  1.00  0.00     0.124 S 
ATOM     98  O   UNL     1      -3.927  13.805  -5.450  1.00  0.00    -0.237 OA
ATOM     99  O   UNL     1      -3.961  12.111  -7.244  1.00  0.00    -0.237 OA
ATOM    100  O   UNL     1      -4.195  11.422  -4.884  1.00  0.00    -0.744 OA
ENDBRANCH  93  97
ENDBRANCH  67  90
ENDBRANCH  41  42
ENDBRANCH  34  36
ENDBRANCH  33  34
ENDBRANCH  32  33
ENDBRANCH  31  32
ENDBRANCH  30  31
ENDBRANCH   1  30
TORSDOF 21
