REMARK SMILES CCCCCCNC(=O)Oc1cccc(-c2ccc([C@@H](C)C(=O)OCCOCCOCCOC(=O)c3ccc(-c4c5nc(c(-c6cc(S(=O)(=O)[O-])ccc6F)c6ccc([nH]6)c(-c6cc(S(=O)(=O)[O-])ccc6F)c6nc(c(-c7cc(S(=O)(=O)[O-])ccc7F)c7ccc4[nH]7)C=C6)C=C5)cc3)cc2[N+](=O)[O-])c1
REMARK SMILES IDX 25 1 24 2 22 3 23 4 20 5 21 6 19 7 16 8 17 9 100 10 18 11
REMARK SMILES IDX 99 12 15 13 11 14 12 15 104 16 13 17 14 18 10 19 8 20 7 21
REMARK SMILES IDX 9 23 6 24 5 25 4 26 3 27 2 28 1 29 101 30 102 31 103 32
REMARK SMILES IDX 26 33 27 34 28 35 29 36 30 37 31 38 32 39 33 40 34 41 35 42
REMARK SMILES IDX 36 43 37 44 98 45 38 46 97 47 39 48 40 49 41 50 91 51 42 52
REMARK SMILES IDX 96 53 90 54 92 55 43 56 95 57 89 58 88 59 44 61 76 62 56 63
REMARK SMILES IDX 75 64 57 65 60 66 74 67 93 68 58 69 59 70 73 72 94 73 61 74
REMARK SMILES IDX 45 75 46 76 54 77 47 78 53 79 55 80 52 81 48 82 49 83 50 84
REMARK SMILES IDX 51 85 77 86 78 87 86 88 79 89 85 90 87 91 84 92 80 93 81 94
REMARK SMILES IDX 82 95 83 96 62 97 63 98 71 99 64 100 70 101 72 102 69 103
REMARK SMILES IDX 65 104 66 105 67 106 68 107
REMARK H PARENT 7 22 92 60 60 71
REMARK Flexibility Score: inf
ROOT
ATOM      1  C   UNL     1      -3.114  10.067  12.835  1.00  0.00     0.261 C 
ENDROOT
BRANCH   1   2
ATOM      2  O   UNL     1      -3.944   9.519  11.784  1.00  0.00    -0.463 OA
BRANCH   2   3
ATOM      3  C   UNL     1      -4.766  10.394  11.153  1.00  0.00     0.313 C 
ATOM      4  O   UNL     1      -4.882  11.570  11.494  1.00  0.00    -0.252 OA
BRANCH   3   5
ATOM      5  C   UNL     1      -5.546   9.851   9.951  1.00  0.00     0.126 C 
ATOM      6  C   UNL     1      -7.028  10.169  10.160  1.00  0.00     0.025 C 
BRANCH   5   7
ATOM      7  C   UNL     1      -5.393   8.406   9.472  1.00  0.00    -0.027 A 
ATOM      8  C   UNL     1      -5.180   5.713   8.430  1.00  0.00     0.060 A 
ATOM      9  C   UNL     1      -5.396   5.982   9.800  1.00  0.00     0.016 A 
ATOM     10  C   UNL     1      -5.066   6.839   7.597  1.00  0.00     0.277 A 
ATOM     11  C   UNL     1      -5.515   7.293  10.310  1.00  0.00     0.006 A 
ATOM     12  C   UNL     1      -5.168   8.158   8.102  1.00  0.00     0.091 A 
BRANCH   8  13
ATOM     13  C   UNL     1      -5.173   4.306   7.959  1.00  0.00    -0.008 A 
ATOM     14  C   UNL     1      -4.204   2.431   6.752  1.00  0.00     0.133 A 
ATOM     15  C   UNL     1      -5.348   1.663   6.964  1.00  0.00     0.047 A 
ATOM     16  C   UNL     1      -4.097   3.737   7.249  1.00  0.00     0.056 A 
ATOM     17  C   UNL     1      -6.404   2.200   7.688  1.00  0.00     0.004 A 
ATOM     18  C   UNL     1      -6.318   3.509   8.171  1.00  0.00     0.009 A 
BRANCH  14  19
ATOM     19  O   UNL     1      -3.260   1.881   5.861  1.00  0.00    -0.410 OA
BRANCH  19  20
ATOM     20  C   UNL     1      -1.914   1.855   6.180  1.00  0.00     0.412 C 
ATOM     21  N   UNL     1      -1.130   1.357   5.176  1.00  0.00    -0.321 N 
ATOM     22  H   UNL     1      -0.158   1.360   5.333  1.00  0.00     0.167 HD
ATOM     23  O   UNL     1      -1.429   2.196   7.261  1.00  0.00    -0.224 OA
BRANCH  21  24
ATOM     24  C   UNL     1      -1.580   0.823   3.901  1.00  0.00     0.119 C 
BRANCH  24  25
ATOM     25  C   UNL     1      -0.963   1.542   2.701  1.00  0.00     0.021 C 
BRANCH  25  26
ATOM     26  C   UNL     1       0.563   1.436   2.589  1.00  0.00     0.002 C 
BRANCH  26  27
ATOM     27  C   UNL     1       1.125   0.015   2.470  1.00  0.00    -0.000 C 
BRANCH  27  28
ATOM     28  C   UNL     1       0.648  -0.788   1.257  1.00  0.00    -0.003 C 
ATOM     29  C   UNL     1       1.056  -0.174  -0.074  1.00  0.00     0.004 C 
ENDBRANCH  27  28
ENDBRANCH  26  27
ENDBRANCH  25  26
ENDBRANCH  24  25
ENDBRANCH  21  24
ENDBRANCH  19  20
ENDBRANCH  14  19
ENDBRANCH   8  13
BRANCH  10  30
ATOM     30  N   UNL     1      -4.894   6.709   6.152  1.00  0.00     0.063 N 
ATOM     31  O   UNL     1      -4.034   7.431   5.630  1.00  0.00    -0.258 OA
ATOM     32  O   UNL     1      -5.658   5.951   5.542  1.00  0.00    -0.258 OA
ENDBRANCH  10  30
ENDBRANCH   5   7
ENDBRANCH   3   5
ENDBRANCH   2   3
ENDBRANCH   1   2
BRANCH   1  33
ATOM     33  C   UNL     1      -1.619   9.742  12.713  1.00  0.00     0.202 C 
BRANCH  33  34
ATOM     34  O   UNL     1      -0.940  10.184  11.544  1.00  0.00    -0.376 OA
BRANCH  34  35
ATOM     35  C   UNL     1      -1.423   9.786  10.266  1.00  0.00     0.188 C 
BRANCH  35  36
ATOM     36  C   UNL     1      -1.973   8.365  10.087  1.00  0.00     0.188 C 
BRANCH  36  37
ATOM     37  O   UNL     1      -1.681   7.490  11.157  1.00  0.00    -0.376 OA
BRANCH  37  38
ATOM     38  C   UNL     1      -1.153   6.223  10.809  1.00  0.00     0.202 C 
BRANCH  38  39
ATOM     39  C   UNL     1       0.312   6.280  10.361  1.00  0.00     0.261 C 
BRANCH  39  40
ATOM     40  O   UNL     1       0.598   7.169   9.267  1.00  0.00    -0.460 OA
BRANCH  40  41
ATOM     41  C   UNL     1       0.053   6.876   8.066  1.00  0.00     0.338 C 
ATOM     42  O   UNL     1      -0.667   5.919   7.803  1.00  0.00    -0.246 OA
BRANCH  41  43
ATOM     43  C   UNL     1       0.257   8.049   7.189  1.00  0.00     0.060 A 
ATOM     44  C   UNL     1      -0.851   8.657   6.581  1.00  0.00     0.016 A 
ATOM     45  C   UNL     1       1.537   8.570   6.999  1.00  0.00     0.016 A 
ATOM     46  C   UNL     1      -0.681   9.778   5.764  1.00  0.00     0.010 A 
ATOM     47  C   UNL     1       1.708   9.676   6.165  1.00  0.00     0.010 A 
ATOM     48  C   UNL     1       0.606  10.272   5.524  1.00  0.00    -0.014 A 
BRANCH  48  49
ATOM     49  C   UNL     1       0.868  11.256   4.445  1.00  0.00     0.031 A 
ATOM     50  C   UNL     1       1.338  10.720   3.121  1.00  0.00     0.074 A 
ATOM     51  C   UNL     1       0.759  12.582   4.641  1.00  0.00     0.049 A 
ATOM     52  N   UNL     1       1.887  11.347   2.116  1.00  0.00    -0.248 NA
ATOM     53  C   UNL     1       1.180   9.271   2.920  1.00  0.00     0.031 C 
ATOM     54  C   UNL     1       0.237  13.221   5.847  1.00  0.00     0.029 A 
ATOM     55  N   UNL     1       1.117  13.634   3.831  1.00  0.00    -0.354 N 
ATOM     56  C   UNL     1       2.154  10.368   1.165  1.00  0.00     0.074 A 
ATOM     57  C   UNL     1       1.733   9.104   1.729  1.00  0.00     0.031 C 
ATOM     58  C   UNL     1       0.346  14.556   5.713  1.00  0.00     0.029 A 
ATOM     59  C   UNL     1       1.002  14.862   4.442  1.00  0.00     0.049 A 
ATOM     60  H   UNL     1       1.425  13.519   2.903  1.00  0.00     0.167 HD
ATOM     61  C   UNL     1       2.699  10.514  -0.066  1.00  0.00     0.034 A 
ATOM     62  C   UNL     1       1.432  16.079   4.043  1.00  0.00     0.034 A 
ATOM     63  C   UNL     1       3.132  11.779  -0.600  1.00  0.00     0.049 A 
ATOM     64  C   UNL     1       2.155  16.205   2.716  1.00  0.00     0.074 A 
ATOM     65  C   UNL     1       3.733  12.040  -1.819  1.00  0.00     0.029 A 
ATOM     66  N   UNL     1       3.013  12.998   0.054  1.00  0.00    -0.354 N 
ATOM     67  N   UNL     1       2.448  15.270   1.841  1.00  0.00    -0.248 NA
ATOM     68  C   UNL     1       2.610  17.548   2.323  1.00  0.00     0.031 C 
ATOM     69  C   UNL     1       4.035  13.404  -1.874  1.00  0.00     0.029 A 
ATOM     70  C   UNL     1       3.543  14.009  -0.729  1.00  0.00     0.049 A 
ATOM     71  H   UNL     1       2.610  13.124   0.944  1.00  0.00     0.167 HD
ATOM     72  C   UNL     1       3.070  15.922   0.777  1.00  0.00     0.074 A 
ATOM     73  C   UNL     1       3.115  17.327   1.118  1.00  0.00     0.031 C 
ATOM     74  C   UNL     1       3.552  15.410  -0.383  1.00  0.00     0.034 A 
BRANCH  61  75
ATOM     75  C   UNL     1       2.901   9.266  -0.887  1.00  0.00     0.023 A 
ATOM     76  C   UNL     1       1.815   8.500  -1.342  1.00  0.00     0.031 A 
ATOM     77  C   UNL     1       4.199   8.827  -1.205  1.00  0.00     0.131 A 
ATOM     78  C   UNL     1       2.046   7.306  -2.040  1.00  0.00     0.055 A 
ATOM     79  C   UNL     1       4.420   7.681  -1.969  1.00  0.00     0.041 A 
ATOM     80  F   UNL     1       5.275   9.503  -0.772  1.00  0.00    -0.206 F 
ATOM     81  C   UNL     1       3.340   6.906  -2.381  1.00  0.00     0.022 A 
BRANCH  78  82
ATOM     82  S   UNL     1       0.638   6.217  -2.387  1.00  0.00     0.124 S 
ATOM     83  O   UNL     1       0.170   5.902  -1.040  1.00  0.00    -0.237 OA
ATOM     84  O   UNL     1      -0.234   7.071  -3.184  1.00  0.00    -0.237 OA
ATOM     85  O   UNL     1       1.240   5.096  -3.106  1.00  0.00    -0.744 OA
ENDBRANCH  78  82
ENDBRANCH  61  75
BRANCH  62  86
ATOM     86  C   UNL     1       1.274  17.277   4.925  1.00  0.00     0.023 A 
ATOM     87  C   UNL     1       0.562  18.408   4.492  1.00  0.00     0.031 A 
ATOM     88  C   UNL     1       1.922  17.350   6.172  1.00  0.00     0.131 A 
ATOM     89  C   UNL     1       0.576  19.583   5.261  1.00  0.00     0.055 A 
ATOM     90  C   UNL     1       1.872  18.497   6.967  1.00  0.00     0.041 A 
ATOM     91  F   UNL     1       2.629  16.306   6.634  1.00  0.00    -0.206 F 
ATOM     92  C   UNL     1       1.212  19.630   6.503  1.00  0.00     0.022 A 
BRANCH  89  93
ATOM     93  S   UNL     1      -0.127  21.095   4.545  1.00  0.00     0.124 S 
ATOM     94  O   UNL     1       0.622  21.206   3.298  1.00  0.00    -0.237 OA
ATOM     95  O   UNL     1      -1.537  20.743   4.418  1.00  0.00    -0.237 OA
ATOM     96  O   UNL     1       0.173  22.117   5.546  1.00  0.00    -0.744 OA
ENDBRANCH  89  93
ENDBRANCH  62  86
BRANCH  74  97
ATOM     97  C   UNL     1       4.075  16.376  -1.418  1.00  0.00     0.023 A 
ATOM     98  C   UNL     1       5.273  17.089  -1.245  1.00  0.00     0.031 A 
ATOM     99  C   UNL     1       3.375  16.538  -2.628  1.00  0.00     0.131 A 
ATOM    100  C   UNL     1       5.720  17.954  -2.257  1.00  0.00     0.055 A 
ATOM    101  C   UNL     1       3.851  17.358  -3.651  1.00  0.00     0.041 A 
ATOM    102  F   UNL     1       2.225  15.878  -2.845  1.00  0.00    -0.206 F 
ATOM    103  C   UNL     1       5.027  18.077  -3.466  1.00  0.00     0.022 A 
BRANCH 100 104
ATOM    104  S   UNL     1       7.203  18.957  -1.963  1.00  0.00     0.124 S 
ATOM    105  O   UNL     1       6.803  19.762  -0.814  1.00  0.00    -0.237 OA
ATOM    106  O   UNL     1       8.222  17.944  -1.708  1.00  0.00    -0.237 OA
ATOM    107  O   UNL     1       7.370  19.699  -3.212  1.00  0.00    -0.744 OA
ENDBRANCH 100 104
ENDBRANCH  74  97
ENDBRANCH  48  49
ENDBRANCH  41  43
ENDBRANCH  40  41
ENDBRANCH  39  40
ENDBRANCH  38  39
ENDBRANCH  37  38
ENDBRANCH  36  37
ENDBRANCH  35  36
ENDBRANCH  34  35
ENDBRANCH  33  34
ENDBRANCH   1  33
TORSDOF 30
