REMARK SMILES CC(C)(O)C#Cc1ccc(C(=O)N[C@@H](CC2=c3ccccc3=NC2)C(=O)OCCOCCOCCOC(=O)c2ccc(-c3c4nc(c(-c5cc(S(=O)(=O)[O-])ccc5F)c5ccc([nH]5)c(-c5cc(S(=O)(=O)[O-])ccc5F)c5nc(c(-c6cc(S(=O)(=O)[O-])ccc6F)c6ccc3[nH]6)C=C5)C=C4)cc2)s1
REMARK SMILES IDX 31 1 30 2 29 3 28 4 27 5 25 6 26 7 14 8 13 9 11 10 12 11
REMARK SMILES IDX 10 13 7 14 8 15 102 16 9 17 6 18 5 19 2 20 1 21 3 22 4 23
REMARK SMILES IDX 15 25 16 26 17 27 24 28 18 29 22 30 23 31 19 32 21 33 20 34
REMARK SMILES IDX 32 35 33 36 34 37 35 38 36 39 37 40 38 41 39 42 40 43 101 44
REMARK SMILES IDX 41 45 100 46 42 47 43 48 44 49 94 50 45 51 99 52 93 53 95 54
REMARK SMILES IDX 46 55 98 56 92 57 91 58 47 60 79 61 59 62 78 63 60 64 63 65
REMARK SMILES IDX 77 66 96 67 61 68 62 69 76 71 97 72 64 73 48 74 49 75 57 76
REMARK SMILES IDX 50 77 56 78 58 79 55 80 51 81 52 82 53 83 54 84 80 85 81 86
REMARK SMILES IDX 89 87 82 88 88 89 90 90 87 91 83 92 84 93 85 94 86 95 65 96
REMARK SMILES IDX 66 97 74 98 67 99 73 100 75 101 72 102 68 103 69 104 70 105
REMARK SMILES IDX 71 106
REMARK H PARENT 13 12 4 24 95 59 63 70
REMARK Flexibility Score: inf
ROOT
ATOM      1  C   UNL     1       5.860  -5.241  -5.445  1.00  0.00     0.188 C 
ENDROOT
BRANCH   1   2
ATOM      2  O   UNL     1       6.642  -6.370  -5.134  1.00  0.00    -0.376 OA
BRANCH   2   3
ATOM      3  C   UNL     1       6.215  -7.623  -5.617  1.00  0.00     0.202 C 
BRANCH   3   4
ATOM      4  C   UNL     1       4.795  -7.839  -6.170  1.00  0.00     0.261 C 
BRANCH   4   5
ATOM      5  O   UNL     1       4.187  -6.749  -6.937  1.00  0.00    -0.462 OA
BRANCH   5   6
ATOM      6  C   UNL     1       2.990  -6.322  -6.449  1.00  0.00     0.329 C 
ATOM      7  O   UNL     1       2.464  -6.980  -5.549  1.00  0.00    -0.250 OA
BRANCH   6   8
ATOM      8  C   UNL     1       2.182  -5.099  -7.160  1.00  0.00     0.196 C 
BRANCH   8   9
ATOM      9  N   UNL     1       2.520  -3.920  -8.003  1.00  0.00    -0.338 N 
ATOM     10  C   UNL     1       2.020  -2.577  -8.084  1.00  0.00     0.262 C 
ATOM     11  O   UNL     1       2.615  -1.955  -8.981  1.00  0.00    -0.268 OA
ATOM     12  H   UNL     1       3.245  -4.100  -8.645  1.00  0.00     0.164 HD
BRANCH  10  13
ATOM     13  C   UNL     1       1.107  -1.810  -7.132  1.00  0.00     0.093 A 
ATOM     14  C   UNL     1      -0.260  -1.155  -4.923  1.00  0.00     0.078 A 
ATOM     15  C   UNL     1       0.136  -0.041  -5.712  1.00  0.00     0.030 A 
ATOM     16  S   UNL     1      -0.444  -2.200  -6.530  1.00  0.00    -0.121 S 
ATOM     17  C   UNL     1       1.045  -0.430  -6.874  1.00  0.00     0.027 A 
BRANCH  14  18
ATOM     18  C   UNL     1      -0.227  -1.592  -3.202  1.00  0.00    -0.053 C 
ATOM     19  C   UNL     1       0.253  -1.917  -2.020  1.00  0.00    -0.063 C 
BRANCH  19  20
ATOM     20  C   UNL     1       1.325  -1.758  -0.480  1.00  0.00     0.120 C 
ATOM     21  C   UNL     1       2.319  -0.506  -0.136  1.00  0.00     0.056 C 
ATOM     22  C   UNL     1       2.141  -3.023  -0.254  1.00  0.00     0.056 C 
BRANCH  20  23
ATOM     23  O   UNL     1       0.686  -1.476   0.825  1.00  0.00    -0.378 OA
ATOM     24  H   UNL     1       1.367  -1.424   1.514  1.00  0.00     0.212 HD
ENDBRANCH  20  23
ENDBRANCH  19  20
ENDBRANCH  14  18
ENDBRANCH  10  13
ENDBRANCH   8   9
BRANCH   8  25
ATOM     25  C   UNL     1       0.983  -5.851  -7.783  1.00  0.00     0.070 C 
BRANCH  25  26
ATOM     26  C   UNL     1       1.399  -6.934  -8.716  1.00  0.00    -0.037 C 
ATOM     27  C   UNL     1       1.907  -6.789  -9.927  1.00  0.00     0.001 A 
ATOM     28  C   UNL     1       1.362  -8.383  -8.312  1.00  0.00     0.174 C 
ATOM     29  C   UNL     1       2.185  -5.672 -10.760  1.00  0.00     0.010 A 
ATOM     30  C   UNL     1       2.259  -8.165 -10.287  1.00  0.00     0.065 A 
ATOM     31  N   UNL     1       1.979  -9.116  -9.446  1.00  0.00    -0.280 NA
ATOM     32  C   UNL     1       2.845  -5.889 -11.905  1.00  0.00     0.001 A 
ATOM     33  C   UNL     1       2.945  -8.329 -11.582  1.00  0.00     0.028 A 
ATOM     34  C   UNL     1       3.225  -7.234 -12.310  1.00  0.00     0.002 A 
ENDBRANCH  25  26
ENDBRANCH   8  25
ENDBRANCH   6   8
ENDBRANCH   5   6
ENDBRANCH   4   5
ENDBRANCH   3   4
ENDBRANCH   2   3
ENDBRANCH   1   2
BRANCH   1  35
ATOM     35  C   UNL     1       5.856  -4.733  -6.909  1.00  0.00     0.188 C 
BRANCH  35  36
ATOM     36  O   UNL     1       6.666  -5.394  -7.857  1.00  0.00    -0.376 OA
BRANCH  36  37
ATOM     37  C   UNL     1       8.059  -5.381  -7.574  1.00  0.00     0.202 C 
BRANCH  37  38
ATOM     38  C   UNL     1       8.721  -4.078  -7.045  1.00  0.00     0.261 C 
BRANCH  38  39
ATOM     39  O   UNL     1       8.081  -3.487  -5.877  1.00  0.00    -0.460 OA
BRANCH  39  40
ATOM     40  C   UNL     1       7.737  -2.149  -5.954  1.00  0.00     0.338 C 
ATOM     41  O   UNL     1       8.199  -1.358  -6.715  1.00  0.00    -0.246 OA
BRANCH  40  42
ATOM     42  C   UNL     1       6.408  -1.959  -5.234  1.00  0.00     0.060 A 
ATOM     43  C   UNL     1       6.098  -2.360  -3.925  1.00  0.00     0.016 A 
ATOM     44  C   UNL     1       5.348  -1.609  -6.056  1.00  0.00     0.016 A 
ATOM     45  C   UNL     1       4.737  -2.596  -3.520  1.00  0.00     0.010 A 
ATOM     46  C   UNL     1       4.032  -1.863  -5.638  1.00  0.00     0.010 A 
ATOM     47  C   UNL     1       3.666  -2.451  -4.414  1.00  0.00    -0.014 A 
BRANCH  47  48
ATOM     48  C   UNL     1       2.176  -2.411  -4.037  1.00  0.00     0.031 A 
ATOM     49  C   UNL     1       2.053  -0.683  -3.508  1.00  0.00     0.074 A 
ATOM     50  C   UNL     1       1.125  -3.530  -4.160  1.00  0.00     0.049 A 
ATOM     51  N   UNL     1       1.642  -0.337  -2.319  1.00  0.00    -0.248 NA
ATOM     52  C   UNL     1       2.258   0.657  -4.113  1.00  0.00     0.031 C 
ATOM     53  C   UNL     1       1.173  -4.991  -4.357  1.00  0.00     0.029 A 
ATOM     54  N   UNL     1      -0.413  -3.606  -4.240  1.00  0.00    -0.354 N 
ATOM     55  C   UNL     1       0.695   0.691  -2.346  1.00  0.00     0.074 A 
ATOM     56  C   UNL     1       1.432   1.471  -3.361  1.00  0.00     0.031 C 
ATOM     57  C   UNL     1       0.029  -5.523  -4.948  1.00  0.00     0.029 A 
ATOM     58  C   UNL     1      -1.034  -4.541  -5.139  1.00  0.00     0.049 A 
ATOM     59  H   UNL     1      -0.967  -3.018  -3.678  1.00  0.00     0.167 HD
ATOM     60  C   UNL     1      -0.637   0.683  -1.753  1.00  0.00     0.034 A 
ATOM     61  C   UNL     1      -2.365  -4.609  -5.630  1.00  0.00     0.034 A 
ATOM     62  C   UNL     1      -1.542  -0.490  -0.975  1.00  0.00     0.049 A 
ATOM     63  C   UNL     1      -3.285  -4.029  -4.620  1.00  0.00     0.074 A 
ATOM     64  C   UNL     1      -1.492  -1.456   0.055  1.00  0.00     0.029 A 
ATOM     65  N   UNL     1      -2.726  -1.077  -1.558  1.00  0.00    -0.354 N 
ATOM     66  N   UNL     1      -3.679  -4.680  -3.569  1.00  0.00    -0.248 NA
ATOM     67  C   UNL     1      -3.865  -2.687  -4.740  1.00  0.00     0.031 C 
ATOM     68  C   UNL     1      -2.738  -2.028   0.412  1.00  0.00     0.029 A 
ATOM     69  C   UNL     1      -3.061  -2.333  -0.889  1.00  0.00     0.049 A 
ATOM     70  H   UNL     1      -3.237  -0.685  -2.302  1.00  0.00     0.167 HD
ATOM     71  C   UNL     1      -3.904  -3.670  -2.697  1.00  0.00     0.074 A 
ATOM     72  C   UNL     1      -4.335  -2.545  -3.498  1.00  0.00     0.031 C 
ATOM     73  C   UNL     1      -3.263  -3.660  -1.507  1.00  0.00     0.034 A 
BRANCH  60  74
ATOM     74  C   UNL     1      -1.484   1.894  -1.918  1.00  0.00     0.023 A 
ATOM     75  C   UNL     1      -1.599   2.590  -3.115  1.00  0.00     0.031 A 
ATOM     76  C   UNL     1      -2.315   2.266  -0.839  1.00  0.00     0.131 A 
ATOM     77  C   UNL     1      -2.495   3.654  -3.197  1.00  0.00     0.055 A 
ATOM     78  C   UNL     1      -3.276   3.256  -0.959  1.00  0.00     0.041 A 
ATOM     79  F   UNL     1      -2.222   1.660   0.357  1.00  0.00    -0.206 F 
ATOM     80  C   UNL     1      -3.361   3.968  -2.144  1.00  0.00     0.022 A 
BRANCH  77  81
ATOM     81  S   UNL     1      -2.498   4.719  -4.652  1.00  0.00     0.124 S 
ATOM     82  O   UNL     1      -3.851   4.527  -5.160  1.00  0.00    -0.237 OA
ATOM     83  O   UNL     1      -2.223   6.025  -4.057  1.00  0.00    -0.237 OA
ATOM     84  O   UNL     1      -1.419   4.175  -5.472  1.00  0.00    -0.744 OA
ENDBRANCH  77  81
ENDBRANCH  60  74
BRANCH  61  85
ATOM     85  C   UNL     1      -3.210  -4.683  -6.984  1.00  0.00     0.023 A 
ATOM     86  C   UNL     1      -2.916  -3.927  -8.144  1.00  0.00     0.031 A 
ATOM     87  C   UNL     1      -4.599  -5.061  -6.900  1.00  0.00     0.131 A 
ATOM     88  C   UNL     1      -3.943  -3.505  -9.054  1.00  0.00     0.055 A 
ATOM     89  C   UNL     1      -5.611  -4.636  -7.799  1.00  0.00     0.041 A 
ATOM     90  F   UNL     1      -5.042  -5.782  -5.858  1.00  0.00    -0.206 F 
ATOM     91  C   UNL     1      -5.287  -3.831  -8.873  1.00  0.00     0.022 A 
BRANCH  88  92
ATOM     92  S   UNL     1      -3.578  -2.441 -10.495  1.00  0.00     0.124 S 
ATOM     93  O   UNL     1      -4.324  -3.097 -11.569  1.00  0.00    -0.237 OA
ATOM     94  O   UNL     1      -4.115  -1.154 -10.066  1.00  0.00    -0.237 OA
ATOM     95  O   UNL     1      -2.126  -2.530 -10.609  1.00  0.00    -0.744 OA
ENDBRANCH  88  92
ENDBRANCH  61  85
BRANCH  73  96
ATOM     96  C   UNL     1      -2.538  -5.034  -1.014  1.00  0.00     0.023 A 
ATOM     97  C   UNL     1      -2.468  -5.420   0.340  1.00  0.00     0.031 A 
ATOM     98  C   UNL     1      -1.856  -5.972  -1.856  1.00  0.00     0.131 A 
ATOM     99  C   UNL     1      -1.709  -6.560   0.770  1.00  0.00     0.055 A 
ATOM    100  C   UNL     1      -1.130  -7.105  -1.444  1.00  0.00     0.041 A 
ATOM    101  F   UNL     1      -1.838  -5.880  -3.175  1.00  0.00    -0.206 F 
ATOM    102  C   UNL     1      -1.031  -7.397  -0.113  1.00  0.00     0.022 A 
BRANCH  99 103
ATOM    103  S   UNL     1      -1.462  -6.929   2.530  1.00  0.00     0.124 S 
ATOM    104  O   UNL     1      -2.355  -8.066   2.735  1.00  0.00    -0.237 OA
ATOM    105  O   UNL     1      -0.034  -7.240   2.592  1.00  0.00    -0.237 OA
ATOM    106  O   UNL     1      -1.848  -5.685   3.184  1.00  0.00    -0.744 OA
ENDBRANCH  99 103
ENDBRANCH  73  96
ENDBRANCH  47  48
ENDBRANCH  40  42
ENDBRANCH  39  40
ENDBRANCH  38  39
ENDBRANCH  37  38
ENDBRANCH  36  37
ENDBRANCH  35  36
ENDBRANCH   1  35
TORSDOF 27
