REMARK SMILES CC(C)(C)C[N@H+]1[C@@H](C(=O)OCCOCCOCCOC(=O)c2ccc(-c3c4nc(c(-c5cc(S(=O)(=O)[O-])ccc5F)c5ccc([nH]5)c(-c5cc(S(=O)(=O)[O-])ccc5F)c5nc(c(-c6cc(S(=O)(=O)[O-])ccc6F)c6ccc3[nH]6)C=C5)C=C4)cc2)CC[C@H]2CCCC[C@@H]21
REMARK SMILES IDX 15 1 14 2 13 3 12 4 11 5 10 6 8 7 9 8 7 9 6 10 92 11 85 13
REMARK SMILES IDX 87 14 91 15 86 16 88 17 90 18 89 19 5 20 2 21 1 22 3 23 4 24
REMARK SMILES IDX 16 25 17 26 18 27 19 28 20 29 21 30 22 31 23 32 84 33 24 34
REMARK SMILES IDX 83 35 25 36 26 37 27 38 77 39 28 40 82 41 76 42 78 43 29 44
REMARK SMILES IDX 81 45 75 46 74 47 30 49 62 50 42 51 61 52 43 53 46 54 60 55
REMARK SMILES IDX 79 56 44 57 45 58 59 60 80 61 47 62 31 63 32 64 40 65 33 66
REMARK SMILES IDX 39 67 41 68 38 69 34 70 35 71 36 72 37 73 63 74 64 75 72 76
REMARK SMILES IDX 65 77 71 78 73 79 70 80 66 81 67 82 68 83 69 84 48 85 49 86
REMARK SMILES IDX 57 87 50 88 56 89 58 90 55 91 51 92 52 93 53 94 54 95
REMARK H PARENT 6 12 78 48 46 59
REMARK Flexibility Score: inf
ROOT
ATOM      1  C   UNL     1      -0.754  -3.568  -2.491  1.00  0.00     0.188 C 
ENDROOT
BRANCH   1   2
ATOM      2  C   UNL     1      -1.372  -3.178  -1.113  1.00  0.00     0.188 C 
BRANCH   2   3
ATOM      3  O   UNL     1      -2.741  -2.751  -1.105  1.00  0.00    -0.376 OA
BRANCH   3   4
ATOM      4  C   UNL     1      -3.020  -1.357  -1.372  1.00  0.00     0.202 C 
BRANCH   4   5
ATOM      5  C   UNL     1      -2.824  -0.362  -0.185  1.00  0.00     0.261 C 
BRANCH   5   6
ATOM      6  O   UNL     1      -1.998   0.801  -0.528  1.00  0.00    -0.459 OA
BRANCH   6   7
ATOM      7  C   UNL     1      -1.665   1.643   0.502  1.00  0.00     0.364 C 
ATOM      8  O   UNL     1      -2.239   1.586   1.590  1.00  0.00    -0.245 OA
BRANCH   7   9
ATOM      9  C   UNL     1      -0.542   2.707   0.228  1.00  0.00     0.295 C 
ATOM     10  N   UNL     1       0.349   2.546  -0.961  1.00  0.00    -0.320 N 
ATOM     11  C   UNL     1       1.030   3.837  -1.268  1.00  0.00     0.187 C 
ATOM     12  H   UNL     1      -0.293   2.225  -1.686  1.00  0.00     0.349 HD
ATOM     13  C   UNL     1       0.310   3.020   1.489  1.00  0.00     0.078 C 
ATOM     14  C   UNL     1       1.184   4.791  -0.062  1.00  0.00     0.048 C 
ATOM     15  C   UNL     1       0.357   4.611  -2.409  1.00  0.00     0.065 C 
ATOM     16  C   UNL     1       1.473   4.006   1.213  1.00  0.00     0.016 C 
ATOM     17  C   UNL     1       2.231   5.842  -0.440  1.00  0.00     0.010 C 
ATOM     18  C   UNL     1       1.240   5.802  -2.815  1.00  0.00     0.006 C 
ATOM     19  C   UNL     1       1.713   6.660  -1.632  1.00  0.00     0.001 C 
BRANCH  10  20
ATOM     20  C   UNL     1       1.440   1.534  -0.845  1.00  0.00     0.269 C 
BRANCH  20  21
ATOM     21  C   UNL     1       1.045   0.061  -0.815  1.00  0.00     0.011 C 
ATOM     22  C   UNL     1       0.658  -0.431   0.590  1.00  0.00     0.017 C 
ATOM     23  C   UNL     1       2.262  -0.797  -1.122  1.00  0.00     0.017 C 
ATOM     24  C   UNL     1       0.107  -0.140  -2.004  1.00  0.00     0.017 C 
ENDBRANCH  20  21
ENDBRANCH  10  20
ENDBRANCH   7   9
ENDBRANCH   6   7
ENDBRANCH   5   6
ENDBRANCH   4   5
ENDBRANCH   3   4
ENDBRANCH   2   3
ENDBRANCH   1   2
BRANCH   1  25
ATOM     25  O   UNL     1      -0.736  -2.471  -3.392  1.00  0.00    -0.376 OA
BRANCH  25  26
ATOM     26  C   UNL     1      -0.173  -2.634  -4.690  1.00  0.00     0.202 C 
BRANCH  26  27
ATOM     27  C   UNL     1       1.154  -3.389  -4.860  1.00  0.00     0.261 C 
BRANCH  27  28
ATOM     28  O   UNL     1       2.149  -3.097  -3.866  1.00  0.00    -0.460 OA
BRANCH  28  29
ATOM     29  C   UNL     1       3.179  -2.276  -4.197  1.00  0.00     0.338 C 
ATOM     30  O   UNL     1       3.259  -1.587  -5.201  1.00  0.00    -0.246 OA
BRANCH  29  31
ATOM     31  C   UNL     1       4.174  -2.291  -3.079  1.00  0.00     0.060 A 
ATOM     32  C   UNL     1       4.876  -1.119  -2.758  1.00  0.00     0.016 A 
ATOM     33  C   UNL     1       4.304  -3.417  -2.252  1.00  0.00     0.016 A 
ATOM     34  C   UNL     1       5.605  -1.042  -1.560  1.00  0.00     0.010 A 
ATOM     35  C   UNL     1       5.073  -3.354  -1.083  1.00  0.00     0.010 A 
ATOM     36  C   UNL     1       5.715  -2.163  -0.715  1.00  0.00    -0.014 A 
BRANCH  36  37
ATOM     37  C   UNL     1       6.715  -2.174   0.389  1.00  0.00     0.031 A 
ATOM     38  C   UNL     1       8.155  -2.342  -0.012  1.00  0.00     0.074 A 
ATOM     39  C   UNL     1       6.395  -2.085   1.696  1.00  0.00     0.049 A 
ATOM     40  N   UNL     1       9.232  -2.358   0.728  1.00  0.00    -0.248 NA
ATOM     41  C   UNL     1       8.405  -2.514  -1.452  1.00  0.00     0.031 C 
ATOM     42  C   UNL     1       5.050  -1.915   2.243  1.00  0.00     0.029 A 
ATOM     43  N   UNL     1       7.200  -2.138   2.814  1.00  0.00    -0.354 N 
ATOM     44  C   UNL     1      10.290  -2.487  -0.162  1.00  0.00     0.074 A 
ATOM     45  C   UNL     1       9.722  -2.598  -1.488  1.00  0.00     0.031 C 
ATOM     46  C   UNL     1       5.123  -1.894   3.590  1.00  0.00     0.029 A 
ATOM     47  C   UNL     1       6.516  -2.068   4.007  1.00  0.00     0.049 A 
ATOM     48  H   UNL     1       8.180  -2.218   2.763  1.00  0.00     0.167 HD
ATOM     49  C   UNL     1      11.619  -2.507   0.089  1.00  0.00     0.034 A 
ATOM     50  C   UNL     1       6.962  -2.152   5.282  1.00  0.00     0.034 A 
ATOM     51  C   UNL     1      12.191  -2.511   1.406  1.00  0.00     0.049 A 
ATOM     52  C   UNL     1       8.446  -2.334   5.544  1.00  0.00     0.074 A 
ATOM     53  C   UNL     1      13.526  -2.571   1.764  1.00  0.00     0.029 A 
ATOM     54  N   UNL     1      11.461  -2.500   2.586  1.00  0.00    -0.354 N 
ATOM     55  N   UNL     1       9.441  -2.388   4.688  1.00  0.00    -0.248 NA
ATOM     56  C   UNL     1       8.865  -2.463   6.949  1.00  0.00     0.031 C 
ATOM     57  C   UNL     1      13.599  -2.672   3.157  1.00  0.00     0.029 A 
ATOM     58  C   UNL     1      12.315  -2.593   3.672  1.00  0.00     0.049 A 
ATOM     59  H   UNL     1      10.480  -2.435   2.642  1.00  0.00     0.167 HD
ATOM     60  C   UNL     1      10.600  -2.512   5.457  1.00  0.00     0.074 A 
ATOM     61  C   UNL     1      10.184  -2.522   6.841  1.00  0.00     0.031 C 
ATOM     62  C   UNL     1      11.894  -2.601   5.053  1.00  0.00     0.034 A 
BRANCH  49  63
ATOM     63  C   UNL     1      12.519  -2.597  -1.113  1.00  0.00     0.023 A 
ATOM     64  C   UNL     1      12.578  -1.550  -2.050  1.00  0.00     0.031 A 
ATOM     65  C   UNL     1      13.248  -3.768  -1.374  1.00  0.00     0.131 A 
ATOM     66  C   UNL     1      13.287  -1.726  -3.245  1.00  0.00     0.055 A 
ATOM     67  C   UNL     1      14.017  -3.905  -2.530  1.00  0.00     0.041 A 
ATOM     68  F   UNL     1      13.194  -4.809  -0.529  1.00  0.00    -0.206 F 
ATOM     69  C   UNL     1      14.026  -2.888  -3.481  1.00  0.00     0.022 A 
BRANCH  66  70
ATOM     70  S   UNL     1      13.095  -0.485  -4.553  1.00  0.00     0.124 S 
ATOM     71  O   UNL     1      11.656  -0.536  -4.800  1.00  0.00    -0.237 OA
ATOM     72  O   UNL     1      13.590   0.728  -3.913  1.00  0.00    -0.237 OA
ATOM     73  O   UNL     1      13.925  -1.002  -5.639  1.00  0.00    -0.744 OA
ENDBRANCH  66  70
ENDBRANCH  49  63
BRANCH  50  74
ATOM     74  C   UNL     1       6.016  -2.123   6.442  1.00  0.00     0.023 A 
ATOM     75  C   UNL     1       6.096  -1.119   7.423  1.00  0.00     0.031 A 
ATOM     76  C   UNL     1       5.108  -3.175   6.655  1.00  0.00     0.131 A 
ATOM     77  C   UNL     1       5.335  -1.224   8.600  1.00  0.00     0.055 A 
ATOM     78  C   UNL     1       4.313  -3.245   7.801  1.00  0.00     0.041 A 
ATOM     79  F   UNL     1       4.997  -4.168   5.758  1.00  0.00    -0.206 F 
ATOM     80  C   UNL     1       4.436  -2.275   8.791  1.00  0.00     0.022 A 
BRANCH  77  81
ATOM     81  S   UNL     1       5.620  -0.026   9.935  1.00  0.00     0.124 S 
ATOM     82  O   UNL     1       7.032  -0.241  10.229  1.00  0.00    -0.237 OA
ATOM     83  O   UNL     1       5.284   1.237   9.286  1.00  0.00    -0.237 OA
ATOM     84  O   UNL     1       4.692  -0.453  10.980  1.00  0.00    -0.744 OA
ENDBRANCH  77  81
ENDBRANCH  50  74
BRANCH  62  85
ATOM     85  C   UNL     1      12.964  -2.653   6.118  1.00  0.00     0.023 A 
ATOM     86  C   UNL     1      13.114  -3.756   6.977  1.00  0.00     0.031 A 
ATOM     87  C   UNL     1      13.870  -1.584   6.253  1.00  0.00     0.131 A 
ATOM     88  C   UNL     1      14.121  -3.748   7.957  1.00  0.00     0.055 A 
ATOM     89  C   UNL     1      14.902  -1.606   7.192  1.00  0.00     0.041 A 
ATOM     90  F   UNL     1      13.777  -0.505   5.459  1.00  0.00    -0.206 F 
ATOM     91  C   UNL     1      15.026  -2.688   8.058  1.00  0.00     0.022 A 
BRANCH  88  92
ATOM     92  S   UNL     1      14.197  -5.116   9.147  1.00  0.00     0.124 S 
ATOM     93  O   UNL     1      12.879  -5.053   9.770  1.00  0.00    -0.237 OA
ATOM     94  O   UNL     1      14.440  -6.268   8.284  1.00  0.00    -0.237 OA
ATOM     95  O   UNL     1      15.313  -4.752  10.018  1.00  0.00    -0.744 OA
ENDBRANCH  88  92
ENDBRANCH  62  85
ENDBRANCH  36  37
ENDBRANCH  29  31
ENDBRANCH  28  29
ENDBRANCH  27  28
ENDBRANCH  26  27
ENDBRANCH  25  26
ENDBRANCH   1  25
TORSDOF 22
