REMARK SMILES CC1(C)S[C@@H](c2cccc3c2sc2ccccc23)[NH2+][C@@H]1C(=O)OCCOCCOCCOC(=O)c1ccc(-c2c3nc(c(-c4cc(S(=O)(=O)[O-])ccc4F)c4ccc([nH]4)c(-c4cc(S(=O)(=O)[O-])ccc4F)c4nc(c(-c5cc(S(=O)(=O)[O-])ccc5F)c5ccc2[nH]5)C=C4)C=C3)cc1
REMARK SMILES IDX 28 1 27 2 26 3 25 4 24 5 23 6 21 7 22 8 20 9 1 10 2 11 3 12
REMARK SMILES IDX 4 13 5 14 19 15 6 18 7 19 11 20 8 21 10 22 12 23 9 24 18 25
REMARK SMILES IDX 13 26 17 27 14 28 16 29 15 30 29 31 30 32 31 33 32 34 33 35
REMARK SMILES IDX 34 36 35 37 36 38 97 39 37 40 96 41 38 42 39 43 40 44 90 45
REMARK SMILES IDX 41 46 95 47 89 48 91 49 42 50 94 51 88 52 87 53 43 55 75 56
REMARK SMILES IDX 55 57 74 58 56 59 59 60 73 61 92 62 57 63 58 64 72 66 93 67
REMARK SMILES IDX 60 68 44 69 45 70 53 71 46 72 52 73 54 74 51 75 47 76 48 77
REMARK SMILES IDX 49 78 50 79 76 80 77 81 85 82 78 83 84 84 86 85 83 86 79 87
REMARK SMILES IDX 80 88 81 89 82 90 61 91 62 92 70 93 63 94 69 95 71 96 68 97
REMARK SMILES IDX 64 98 65 99 66 100 67 101
REMARK H PARENT 19 16 19 17 91 54 59 65
REMARK Flexibility Score: inf
ROOT
ATOM      1  C   UNL     1       0.198   3.648  -2.675  1.00  0.00     0.188 C 
ENDROOT
BRANCH   1   2
ATOM      2  C   UNL     1       0.966   2.607  -3.526  1.00  0.00     0.188 C 
BRANCH   2   3
ATOM      3  O   UNL     1       0.420   2.413  -4.819  1.00  0.00    -0.376 OA
BRANCH   3   4
ATOM      4  C   UNL     1      -0.302   1.212  -5.049  1.00  0.00     0.202 C 
BRANCH   4   5
ATOM      5  C   UNL     1      -1.511   0.933  -4.146  1.00  0.00     0.261 C 
BRANCH   5   6
ATOM      6  O   UNL     1      -1.240   1.061  -2.744  1.00  0.00    -0.459 OA
BRANCH   6   7
ATOM      7  C   UNL     1      -0.568   0.049  -2.120  1.00  0.00     0.366 C 
ATOM      8  O   UNL     1      -0.277  -1.009  -2.654  1.00  0.00    -0.245 OA
BRANCH   7   9
ATOM      9  C   UNL     1      -0.248   0.497  -0.664  1.00  0.00     0.310 C 
ATOM     10  C   UNL     1       1.304   0.529   1.350  1.00  0.00     0.030 C 
ATOM     11  C   UNL     1       0.820  -0.285   0.128  1.00  0.00     0.079 C 
ATOM     12  C   UNL     1       2.050  -0.681  -0.687  1.00  0.00     0.030 C 
ATOM     13  S   UNL     1      -0.126  -1.705   0.771  1.00  0.00    -0.081 SA
ATOM     14  C   UNL     1      -1.742  -0.933   0.430  1.00  0.00     0.276 C 
ATOM     15  N   UNL     1      -1.512   0.480   0.115  1.00  0.00    -0.319 N 
ATOM     16  H   UNL     1      -1.413   1.027   0.971  1.00  0.00     0.348 HD
ATOM     17  H   UNL     1      -2.288   0.890  -0.404  1.00  0.00     0.348 HD
BRANCH  14  18
ATOM     18  C   UNL     1      -2.773  -1.076   1.526  1.00  0.00     0.038 A 
ATOM     19  C   UNL     1      -2.437  -0.867   2.881  1.00  0.00     0.012 A 
ATOM     20  C   UNL     1      -4.137  -1.368   1.239  1.00  0.00     0.046 A 
ATOM     21  C   UNL     1      -3.368  -1.023   3.896  1.00  0.00     0.001 A 
ATOM     22  C   UNL     1      -5.086  -1.569   2.244  1.00  0.00     0.001 A 
ATOM     23  S   UNL     1      -4.868  -1.505  -0.318  1.00  0.00    -0.135 S 
ATOM     24  C   UNL     1      -4.674  -1.398   3.590  1.00  0.00     0.010 A 
ATOM     25  C   UNL     1      -6.376  -1.968   1.707  1.00  0.00     0.000 A 
ATOM     26  C   UNL     1      -6.392  -1.940   0.314  1.00  0.00     0.036 A 
ATOM     27  C   UNL     1      -7.567  -2.362   2.369  1.00  0.00     0.010 A 
ATOM     28  C   UNL     1      -7.549  -2.253  -0.426  1.00  0.00     0.019 A 
ATOM     29  C   UNL     1      -8.710  -2.707   1.641  1.00  0.00     0.001 A 
ATOM     30  C   UNL     1      -8.702  -2.643   0.256  1.00  0.00     0.002 A 
ENDBRANCH  14  18
ENDBRANCH   7   9
ENDBRANCH   6   7
ENDBRANCH   5   6
ENDBRANCH   4   5
ENDBRANCH   3   4
ENDBRANCH   2   3
ENDBRANCH   1   2
BRANCH   1  31
ATOM     31  O   UNL     1      -0.853   4.405  -3.256  1.00  0.00    -0.376 OA
BRANCH  31  32
ATOM     32  C   UNL     1      -0.664   4.959  -4.548  1.00  0.00     0.202 C 
BRANCH  32  33
ATOM     33  C   UNL     1       0.577   5.825  -4.822  1.00  0.00     0.261 C 
BRANCH  33  34
ATOM     34  O   UNL     1       1.844   5.256  -4.440  1.00  0.00    -0.460 OA
BRANCH  34  35
ATOM     35  C   UNL     1       2.467   5.848  -3.389  1.00  0.00     0.338 C 
ATOM     36  O   UNL     1       2.068   6.813  -2.753  1.00  0.00    -0.246 OA
BRANCH  35  37
ATOM     37  C   UNL     1       3.641   5.048  -2.972  1.00  0.00     0.060 A 
ATOM     38  C   UNL     1       3.662   4.501  -1.679  1.00  0.00     0.016 A 
ATOM     39  C   UNL     1       4.739   4.887  -3.817  1.00  0.00     0.016 A 
ATOM     40  C   UNL     1       4.788   3.811  -1.220  1.00  0.00     0.010 A 
ATOM     41  C   UNL     1       5.877   4.219  -3.345  1.00  0.00     0.010 A 
ATOM     42  C   UNL     1       5.920   3.701  -2.037  1.00  0.00    -0.014 A 
BRANCH  42  43
ATOM     43  C   UNL     1       7.210   3.221  -1.471  1.00  0.00     0.031 A 
ATOM     44  C   UNL     1       8.221   4.245  -1.026  1.00  0.00     0.074 A 
ATOM     45  C   UNL     1       7.488   1.910  -1.357  1.00  0.00     0.049 A 
ATOM     46  N   UNL     1       9.450   4.077  -0.610  1.00  0.00    -0.248 NA
ATOM     47  C   UNL     1       7.782   5.648  -1.064  1.00  0.00     0.031 C 
ATOM     48  C   UNL     1       6.575   0.819  -1.695  1.00  0.00     0.029 A 
ATOM     49  N   UNL     1       8.632   1.273  -0.939  1.00  0.00    -0.354 N 
ATOM     50  C   UNL     1       9.938   5.354  -0.347  1.00  0.00     0.074 A 
ATOM     51  C   UNL     1       8.879   6.283  -0.682  1.00  0.00     0.031 C 
ATOM     52  C   UNL     1       7.204  -0.352  -1.492  1.00  0.00     0.029 A 
ATOM     53  C   UNL     1       8.576  -0.097  -1.054  1.00  0.00     0.049 A 
ATOM     54  H   UNL     1       9.418   1.753  -0.589  1.00  0.00     0.167 HD
ATOM     55  C   UNL     1      11.154   5.717   0.131  1.00  0.00     0.034 A 
ATOM     56  C   UNL     1       9.533  -1.031  -0.866  1.00  0.00     0.034 A 
ATOM     57  C   UNL     1      12.207   4.782   0.443  1.00  0.00     0.049 A 
ATOM     58  C   UNL     1      10.917  -0.597  -0.436  1.00  0.00     0.074 A 
ATOM     59  C   UNL     1      13.471   5.045   0.943  1.00  0.00     0.029 A 
ATOM     60  N   UNL     1      12.129   3.407   0.270  1.00  0.00    -0.354 N 
ATOM     61  N   UNL     1      11.367   0.613  -0.189  1.00  0.00    -0.248 NA
ATOM     62  C   UNL     1      11.921  -1.655  -0.257  1.00  0.00     0.031 C 
ATOM     63  C   UNL     1      14.182   3.841   0.995  1.00  0.00     0.029 A 
ATOM     64  C   UNL     1      13.333   2.813   0.616  1.00  0.00     0.049 A 
ATOM     65  H   UNL     1      11.334   2.923  -0.052  1.00  0.00     0.167 HD
ATOM     66  C   UNL     1      12.693   0.452   0.210  1.00  0.00     0.074 A 
ATOM     67  C   UNL     1      12.967  -0.969   0.180  1.00  0.00     0.031 C 
ATOM     68  C   UNL     1      13.601   1.394   0.578  1.00  0.00     0.034 A 
BRANCH  55  69
ATOM     69  C   UNL     1      11.424   7.195   0.285  1.00  0.00     0.023 A 
ATOM     70  C   UNL     1      10.695   7.992   1.184  1.00  0.00     0.031 A 
ATOM     71  C   UNL     1      12.406   7.822  -0.503  1.00  0.00     0.131 A 
ATOM     72  C   UNL     1      10.909   9.379   1.222  1.00  0.00     0.055 A 
ATOM     73  C   UNL     1      12.671   9.188  -0.401  1.00  0.00     0.041 A 
ATOM     74  F   UNL     1      13.117   7.117  -1.397  1.00  0.00    -0.206 F 
ATOM     75  C   UNL     1      11.910   9.978   0.455  1.00  0.00     0.022 A 
BRANCH  72  76
ATOM     76  S   UNL     1       9.759  10.406   2.177  1.00  0.00     0.124 S 
ATOM     77  O   UNL     1       8.479  10.071   1.557  1.00  0.00    -0.237 OA
ATOM     78  O   UNL     1       9.957   9.920   3.537  1.00  0.00    -0.237 OA
ATOM     79  O   UNL     1      10.227  11.768   1.926  1.00  0.00    -0.744 OA
ENDBRANCH  72  76
ENDBRANCH  55  69
BRANCH  56  80
ATOM     80  C   UNL     1       9.248  -2.473  -1.133  1.00  0.00     0.023 A 
ATOM     81  C   UNL     1       9.333  -3.432  -0.111  1.00  0.00     0.031 A 
ATOM     82  C   UNL     1       8.957  -2.923  -2.433  1.00  0.00     0.131 A 
ATOM     83  C   UNL     1       9.179  -4.794  -0.414  1.00  0.00     0.055 A 
ATOM     84  C   UNL     1       8.746  -4.273  -2.719  1.00  0.00     0.041 A 
ATOM     85  F   UNL     1       8.872  -2.051  -3.451  1.00  0.00    -0.206 F 
ATOM     86  C   UNL     1       8.870  -5.220  -1.708  1.00  0.00     0.022 A 
BRANCH  83  87
ATOM     87  S   UNL     1       9.485  -6.015   0.893  1.00  0.00     0.124 S 
ATOM     88  O   UNL     1      10.866  -5.719   1.257  1.00  0.00    -0.237 OA
ATOM     89  O   UNL     1       8.471  -5.661   1.881  1.00  0.00    -0.237 OA
ATOM     90  O   UNL     1       9.276  -7.295   0.219  1.00  0.00    -0.744 OA
ENDBRANCH  83  87
ENDBRANCH  56  80
BRANCH  68  91
ATOM     91  C   UNL     1      14.959   0.912   1.035  1.00  0.00     0.023 A 
ATOM     92  C   UNL     1      15.862   0.281   0.161  1.00  0.00     0.031 A 
ATOM     93  C   UNL     1      15.355   1.093   2.373  1.00  0.00     0.131 A 
ATOM     94  C   UNL     1      17.092  -0.190   0.646  1.00  0.00     0.055 A 
ATOM     95  C   UNL     1      16.605   0.679   2.835  1.00  0.00     0.041 A 
ATOM     96  F   UNL     1      14.534   1.687   3.255  1.00  0.00    -0.206 F 
ATOM     97  C   UNL     1      17.477   0.022   1.973  1.00  0.00     0.022 A 
BRANCH  94  98
ATOM     98  S   UNL     1      18.152  -1.165  -0.458  1.00  0.00     0.124 S 
ATOM     99  O   UNL     1      17.275  -2.275  -0.818  1.00  0.00    -0.237 OA
ATOM    100  O   UNL     1      18.450  -0.216  -1.525  1.00  0.00    -0.237 OA
ATOM    101  O   UNL     1      19.290  -1.524   0.387  1.00  0.00    -0.744 OA
ENDBRANCH  94  98
ENDBRANCH  68  91
ENDBRANCH  42  43
ENDBRANCH  35  37
ENDBRANCH  34  35
ENDBRANCH  33  34
ENDBRANCH  32  33
ENDBRANCH  31  32
ENDBRANCH   1  31
TORSDOF 21
