REMARK SMILES COc1ccccc1N1C(=O)[C@@H]2[C@@H](C1=O)[C@@](Cc1ccccc1)(C(=O)OCCOCCOCCOC(=O)c1ccc(-c3c4nc(c(-c5cc(S(=O)(=O)[O-])ccc5F)c5ccc([nH]5)c(-c5cc(S(=O)(=O)[O-])ccc5F)c5nc(c(-c6cc(S(=O)(=O)[O-])ccc6F)c6ccc3[nH]6)C=C5)C=C4)cc1)[NH2+][C@H]2c1ccc(C)cc1
REMARK SMILES IDX 31 1 30 2 29 3 28 4 27 5 26 6 24 7 25 8 16 9 9 10 10 11
REMARK SMILES IDX 14 12 11 13 12 14 13 15 15 16 102 17 101 18 8 21 3 22 4 23
REMARK SMILES IDX 5 24 7 25 6 26 2 27 1 28 103 29 104 30 109 31 105 32 108 33
REMARK SMILES IDX 106 34 107 35 17 36 18 37 19 38 23 39 20 40 22 41 21 42
REMARK SMILES IDX 32 43 33 44 34 45 35 46 36 47 37 48 38 49 39 50 100 51 40 52
REMARK SMILES IDX 99 53 41 54 42 55 43 56 93 57 44 58 98 59 92 60 94 61 45 62
REMARK SMILES IDX 97 63 91 64 90 65 46 67 78 68 58 69 77 70 59 71 62 72 76 73
REMARK SMILES IDX 95 74 60 75 61 76 75 78 96 79 63 80 47 81 48 82 56 83 49 84
REMARK SMILES IDX 55 85 57 86 54 87 50 88 51 89 52 90 53 91 79 92 80 93 88 94
REMARK SMILES IDX 81 95 87 96 89 97 86 98 82 99 83 100 84 101 85 102 64 103
REMARK SMILES IDX 65 104 73 105 66 106 72 107 74 108 71 109 67 110 68 111
REMARK SMILES IDX 69 112 70 113
REMARK H PARENT 101 19 101 20 94 66 62 77
REMARK Flexibility Score: inf
ROOT
ATOM      1  C   UNL     1       9.234   2.964   0.953  1.00  0.00     0.188 C 
ENDROOT
BRANCH   1   2
ATOM      2  C   UNL     1       8.032   3.397   1.778  1.00  0.00     0.188 C 
BRANCH   2   3
ATOM      3  O   UNL     1       8.005   2.967   3.133  1.00  0.00    -0.376 OA
BRANCH   3   4
ATOM      4  C   UNL     1       8.301   1.605   3.401  1.00  0.00     0.202 C 
BRANCH   4   5
ATOM      5  C   UNL     1       7.249   0.548   3.037  1.00  0.00     0.261 C 
BRANCH   5   6
ATOM      6  O   UNL     1       6.693   0.646   1.716  1.00  0.00    -0.459 OA
BRANCH   6   7
ATOM      7  C   UNL     1       5.589   1.453   1.663  1.00  0.00     0.369 C 
ATOM      8  O   UNL     1       5.183   2.058   2.643  1.00  0.00    -0.245 OA
BRANCH   7   9
ATOM      9  C   UNL     1       4.954   1.499   0.246  1.00  0.00     0.211 C 
ATOM     10  N   UNL     1       3.011  -1.644   0.315  1.00  0.00    -0.246 N 
ATOM     11  C   UNL     1       3.942  -1.851  -0.698  1.00  0.00     0.244 C 
ATOM     12  C   UNL     1       3.286  -0.463   0.993  1.00  0.00     0.245 C 
ATOM     13  O   UNL     1       4.007  -2.749  -1.521  1.00  0.00    -0.273 OA
ATOM     14  C   UNL     1       4.953  -0.764  -0.488  1.00  0.00     0.162 C 
ATOM     15  C   UNL     1       4.028   0.346  -0.009  1.00  0.00     0.172 C 
ATOM     16  O   UNL     1       3.095  -0.191   2.161  1.00  0.00    -0.273 OA
ATOM     17  C   UNL     1       5.744  -0.042  -1.536  1.00  0.00     0.228 C 
ATOM     18  N   UNL     1       6.009   1.272  -0.859  1.00  0.00    -0.324 N 
ATOM     19  H   UNL     1       6.941   1.259  -0.442  1.00  0.00     0.347 HD
ATOM     20  H   UNL     1       5.955   2.026  -1.543  1.00  0.00     0.347 HD
BRANCH  10  21
ATOM     21  C   UNL     1       2.037  -2.554   0.761  1.00  0.00     0.094 A 
ATOM     22  C   UNL     1       0.798  -2.106   1.258  1.00  0.00     0.143 A 
ATOM     23  C   UNL     1      -0.082  -3.000   1.868  1.00  0.00     0.048 A 
ATOM     24  C   UNL     1       0.246  -4.351   1.957  1.00  0.00     0.004 A 
ATOM     25  C   UNL     1       2.332  -3.923   0.807  1.00  0.00     0.031 A 
ATOM     26  C   UNL     1       1.447  -4.813   1.421  1.00  0.00     0.002 A 
BRANCH  22  27
ATOM     27  O   UNL     1       0.386  -0.797   1.224  1.00  0.00    -0.495 OA
ATOM     28  C   UNL     1       0.141  -0.321  -0.100  1.00  0.00     0.278 C 
ENDBRANCH  22  27
ENDBRANCH  10  21
BRANCH  17  29
ATOM     29  C   UNL     1       7.037  -0.687  -1.994  1.00  0.00     0.010 A 
ATOM     30  C   UNL     1       7.920  -1.314  -1.101  1.00  0.00     0.010 A 
ATOM     31  C   UNL     1       7.438  -0.572  -3.335  1.00  0.00     0.010 A 
ATOM     32  C   UNL     1       9.163  -1.791  -1.528  1.00  0.00     0.004 A 
ATOM     33  C   UNL     1       8.691  -1.033  -3.759  1.00  0.00     0.004 A 
ATOM     34  C   UNL     1       9.570  -1.633  -2.854  1.00  0.00    -0.051 A 
ATOM     35  C   UNL     1      10.973  -1.976  -3.256  1.00  0.00     0.044 C 
ENDBRANCH  17  29
BRANCH   9  36
ATOM     36  C   UNL     1       4.304   2.885  -0.073  1.00  0.00     0.117 C 
BRANCH  36  37
ATOM     37  C   UNL     1       3.221   3.552   0.764  1.00  0.00    -0.041 A 
ATOM     38  C   UNL     1       2.777   4.823   0.349  1.00  0.00     0.004 A 
ATOM     39  C   UNL     1       2.705   3.065   1.967  1.00  0.00     0.004 A 
ATOM     40  C   UNL     1       1.934   5.600   1.151  1.00  0.00     0.000 A 
ATOM     41  C   UNL     1       1.896   3.853   2.792  1.00  0.00     0.000 A 
ATOM     42  C   UNL     1       1.520   5.127   2.391  1.00  0.00     0.000 A 
ENDBRANCH  36  37
ENDBRANCH   9  36
ENDBRANCH   7   9
ENDBRANCH   6   7
ENDBRANCH   5   6
ENDBRANCH   4   5
ENDBRANCH   3   4
ENDBRANCH   2   3
ENDBRANCH   1   2
BRANCH   1  43
ATOM     43  O   UNL     1       9.277   1.583   0.604  1.00  0.00    -0.376 OA
BRANCH  43  44
ATOM     44  C   UNL     1      10.581   0.995   0.552  1.00  0.00     0.202 C 
BRANCH  44  45
ATOM     45  C   UNL     1      11.790   1.743  -0.055  1.00  0.00     0.261 C 
BRANCH  45  46
ATOM     46  O   UNL     1      11.541   3.067  -0.527  1.00  0.00    -0.460 OA
BRANCH  46  47
ATOM     47  C   UNL     1      10.922   3.159  -1.731  1.00  0.00     0.338 C 
ATOM     48  O   UNL     1      10.728   2.244  -2.510  1.00  0.00    -0.246 OA
BRANCH  47  49
ATOM     49  C   UNL     1      10.323   4.520  -1.830  1.00  0.00     0.060 A 
ATOM     50  C   UNL     1       9.062   4.643  -2.431  1.00  0.00     0.016 A 
ATOM     51  C   UNL     1      10.916   5.637  -1.226  1.00  0.00     0.016 A 
ATOM     52  C   UNL     1       8.420   5.885  -2.474  1.00  0.00     0.010 A 
ATOM     53  C   UNL     1      10.276   6.880  -1.275  1.00  0.00     0.010 A 
ATOM     54  C   UNL     1       9.041   7.019  -1.933  1.00  0.00    -0.014 A 
BRANCH  54  55
ATOM     55  C   UNL     1       8.539   8.378  -2.273  1.00  0.00     0.031 A 
ATOM     56  C   UNL     1       9.196   9.090  -3.428  1.00  0.00     0.074 A 
ATOM     57  C   UNL     1       7.529   8.968  -1.608  1.00  0.00     0.049 A 
ATOM     58  N   UNL     1       9.003  10.300  -3.883  1.00  0.00    -0.248 NA
ATOM     59  C   UNL     1      10.217   8.325  -4.164  1.00  0.00     0.031 C 
ATOM     60  C   UNL     1       6.771   8.374  -0.508  1.00  0.00     0.029 A 
ATOM     61  N   UNL     1       6.971  10.216  -1.762  1.00  0.00    -0.354 N 
ATOM     62  C   UNL     1       9.874  10.441  -4.959  1.00  0.00     0.074 A 
ATOM     63  C   UNL     1      10.626   9.209  -5.059  1.00  0.00     0.031 C 
ATOM     64  C   UNL     1       5.857   9.264  -0.078  1.00  0.00     0.029 A 
ATOM     65  C   UNL     1       5.988  10.505  -0.843  1.00  0.00     0.049 A 
ATOM     66  H   UNL     1       7.251  10.846  -2.466  1.00  0.00     0.167 HD
ATOM     67  C   UNL     1      10.027  11.494  -5.797  1.00  0.00     0.034 A 
ATOM     68  C   UNL     1       5.299  11.647  -0.628  1.00  0.00     0.034 A 
ATOM     69  C   UNL     1       9.290  12.726  -5.685  1.00  0.00     0.049 A 
ATOM     70  C   UNL     1       5.566  12.851  -1.509  1.00  0.00     0.074 A 
ATOM     71  C   UNL     1       9.377  13.855  -6.479  1.00  0.00     0.029 A 
ATOM     72  N   UNL     1       8.337  12.996  -4.712  1.00  0.00    -0.354 N 
ATOM     73  N   UNL     1       6.393  12.971  -2.523  1.00  0.00    -0.248 NA
ATOM     74  C   UNL     1       4.801  14.073  -1.218  1.00  0.00     0.031 C 
ATOM     75  C   UNL     1       8.530  14.832  -5.946  1.00  0.00     0.029 A 
ATOM     76  C   UNL     1       7.852  14.285  -4.869  1.00  0.00     0.049 A 
ATOM     77  H   UNL     1       8.048  12.365  -4.014  1.00  0.00     0.167 HD
ATOM     78  C   UNL     1       6.214  14.267  -3.010  1.00  0.00     0.074 A 
ATOM     79  C   UNL     1       5.195  14.883  -2.189  1.00  0.00     0.031 C 
ATOM     80  C   UNL     1       6.832  14.890  -4.046  1.00  0.00     0.034 A 
BRANCH  67  81
ATOM     81  C   UNL     1      11.071  11.368  -6.877  1.00  0.00     0.023 A 
ATOM     82  C   UNL     1      10.947  10.431  -7.918  1.00  0.00     0.031 A 
ATOM     83  C   UNL     1      12.217  12.181  -6.853  1.00  0.00     0.131 A 
ATOM     84  C   UNL     1      11.979  10.289  -8.857  1.00  0.00     0.055 A 
ATOM     85  C   UNL     1      13.205  12.088  -7.834  1.00  0.00     0.041 A 
ATOM     86  F   UNL     1      12.401  13.073  -5.866  1.00  0.00    -0.206 F 
ATOM     87  C   UNL     1      13.095  11.130  -8.837  1.00  0.00     0.022 A 
BRANCH  84  88
ATOM     88  S   UNL     1      11.905   8.906 -10.027  1.00  0.00     0.124 S 
ATOM     89  O   UNL     1      11.892   7.757  -9.125  1.00  0.00    -0.237 OA
ATOM     90  O   UNL     1      10.664   9.167 -10.746  1.00  0.00    -0.237 OA
ATOM     91  O   UNL     1      13.127   9.057 -10.814  1.00  0.00    -0.744 OA
ENDBRANCH  84  88
ENDBRANCH  67  81
BRANCH  68  92
ATOM     92  C   UNL     1       4.324  11.756   0.500  1.00  0.00     0.023 A 
ATOM     93  C   UNL     1       2.968  12.046   0.269  1.00  0.00     0.031 A 
ATOM     94  C   UNL     1       4.758  11.677   1.836  1.00  0.00     0.131 A 
ATOM     95  C   UNL     1       2.112  12.311   1.351  1.00  0.00     0.055 A 
ATOM     96  C   UNL     1       3.888  11.879   2.910  1.00  0.00     0.041 A 
ATOM     97  F   UNL     1       6.044  11.416   2.118  1.00  0.00    -0.206 F 
ATOM     98  C   UNL     1       2.560  12.216   2.670  1.00  0.00     0.022 A 
BRANCH  95  99
ATOM     99  S   UNL     1       0.432  12.903   1.006  1.00  0.00     0.124 S 
ATOM    100  O   UNL     1       0.696  14.094   0.206  1.00  0.00    -0.237 OA
ATOM    101  O   UNL     1      -0.148  11.769   0.295  1.00  0.00    -0.237 OA
ATOM    102  O   UNL     1      -0.121  13.153   2.335  1.00  0.00    -0.744 OA
ENDBRANCH  95  99
ENDBRANCH  68  92
BRANCH  80 103
ATOM    103  C   UNL     1       6.378  16.290  -4.391  1.00  0.00     0.023 A 
ATOM    104  C   UNL     1       6.587  17.378  -3.525  1.00  0.00     0.031 A 
ATOM    105  C   UNL     1       5.727  16.537  -5.614  1.00  0.00     0.131 A 
ATOM    106  C   UNL     1       6.105  18.650  -3.870  1.00  0.00     0.055 A 
ATOM    107  C   UNL     1       5.304  17.815  -5.979  1.00  0.00     0.041 A 
ATOM    108  F   UNL     1       5.500  15.537  -6.481  1.00  0.00    -0.206 F 
ATOM    109  C   UNL     1       5.480  18.879  -5.099  1.00  0.00     0.022 A 
BRANCH 106 110
ATOM    110  S   UNL     1       6.228  19.991  -2.655  1.00  0.00     0.124 S 
ATOM    111  O   UNL     1       5.491  19.443  -1.521  1.00  0.00    -0.237 OA
ATOM    112  O   UNL     1       7.671  20.119  -2.476  1.00  0.00    -0.237 OA
ATOM    113  O   UNL     1       5.586  21.122  -3.324  1.00  0.00    -0.744 OA
ENDBRANCH 106 110
ENDBRANCH  80 103
ENDBRANCH  54  55
ENDBRANCH  47  49
ENDBRANCH  46  47
ENDBRANCH  45  46
ENDBRANCH  44  45
ENDBRANCH  43  44
ENDBRANCH   1  43
TORSDOF 25
