REMARK SMILES Cc1cccc(C(=O)Nc2cc(C(=O)OCCOCCOCCOC(=O)c3ccc(-c4c5nc(c(-c6cc(S(=O)(=O)[O-])ccc6F)c6ccc([nH]6)c(-c6cc(S(=O)(=O)[O-])ccc6F)c6nc(c(-c7cc(S(=O)(=O)[O-])ccc7F)c7ccc4[nH]7)C=C6)C=C5)cc3)ccc2N2CC[NH+](CC(=O)NC(C)(C)C)CC2)c1
REMARK SMILES IDX 19 1 18 2 17 3 16 4 15 5 13 6 14 7 12 8 10 9 11 10 92 11
REMARK SMILES IDX 91 12 90 13 9 14 7 15 8 16 6 18 1 19 2 20 3 21 107 22 4 23
REMARK SMILES IDX 5 24 93 25 94 26 106 27 95 28 105 29 96 30 97 32 98 33 99 34
REMARK SMILES IDX 100 35 101 37 102 38 103 39 104 40 20 41 21 42 22 43 23 44
REMARK SMILES IDX 24 45 25 46 26 47 27 48 28 49 89 50 29 51 88 52 30 53 31 54
REMARK SMILES IDX 32 55 82 56 33 57 87 58 81 59 83 60 34 61 86 62 80 63 79 64
REMARK SMILES IDX 35 66 67 67 47 68 66 69 48 70 51 71 65 72 84 73 49 74 50 75
REMARK SMILES IDX 64 77 85 78 52 79 36 80 37 81 45 82 38 83 44 84 46 85 43 86
REMARK SMILES IDX 39 87 40 88 41 89 42 90 68 91 69 92 77 93 70 94 76 95 78 96
REMARK SMILES IDX 75 97 71 98 72 99 73 100 74 101 53 102 54 103 62 104 55 105
REMARK SMILES IDX 61 106 63 107 60 108 56 109 57 110 58 111 59 112
REMARK H PARENT 9 17 96 31 100 36 83 65 51 76
REMARK Flexibility Score: inf
ROOT
ATOM      1  C   UNL     1       5.083   0.979  -5.755  1.00  0.00     0.188 C 
ENDROOT
BRANCH   1   2
ATOM      2  O   UNL     1       4.056   0.144  -5.166  1.00  0.00    -0.376 OA
BRANCH   2   3
ATOM      3  C   UNL     1       2.676   0.100  -5.534  1.00  0.00     0.202 C 
BRANCH   3   4
ATOM      4  C   UNL     1       1.382   0.438  -4.494  1.00  0.00     0.261 C 
BRANCH   4   5
ATOM      5  O   UNL     1       1.069   1.661  -3.515  1.00  0.00    -0.460 OA
BRANCH   5   6
ATOM      6  C   UNL     1       1.488   2.137  -2.272  1.00  0.00     0.338 C 
ATOM      7  O   UNL     1       2.204   1.677  -1.387  1.00  0.00    -0.246 OA
BRANCH   6   8
ATOM      8  C   UNL     1       1.044   3.443  -1.842  1.00  0.00     0.062 A 
ATOM      9  C   UNL     1      -0.744   4.423  -0.708  1.00  0.00     0.065 A 
ATOM     10  C   UNL     1      -0.302   3.522  -1.653  1.00  0.00     0.044 A 
ATOM     11  C   UNL     1       0.096   5.411  -0.090  1.00  0.00     0.061 A 
ATOM     12  C   UNL     1       1.462   5.322  -0.331  1.00  0.00     0.029 A 
ATOM     13  C   UNL     1       1.934   4.292  -1.136  1.00  0.00     0.018 A 
BRANCH   9  14
ATOM     14  N   UNL     1      -2.055   4.224  -0.276  1.00  0.00    -0.320 N 
ATOM     15  C   UNL     1      -2.606   3.055   0.227  1.00  0.00     0.255 C 
ATOM     16  O   UNL     1      -3.823   3.050   0.439  1.00  0.00    -0.269 OA
ATOM     17  H   UNL     1      -2.658   5.000  -0.336  1.00  0.00     0.170 HD
BRANCH  15  18
ATOM     18  C   UNL     1      -1.804   1.837   0.651  1.00  0.00     0.040 A 
ATOM     19  C   UNL     1       1.517   0.616   2.187  1.00  0.00     0.044 C 
ATOM     20  C   UNL     1       0.100   0.654   1.675  1.00  0.00    -0.050 A 
ATOM     21  C   UNL     1      -0.632  -0.535   1.653  1.00  0.00     0.003 A 
ATOM     22  C   UNL     1      -0.494   1.838   1.178  1.00  0.00     0.017 A 
ATOM     23  C   UNL     1      -1.932  -0.546   1.156  1.00  0.00     0.001 A 
ATOM     24  C   UNL     1      -2.505   0.623   0.649  1.00  0.00     0.014 A 
ENDBRANCH  15  18
ENDBRANCH   9  14
BRANCH  11  25
ATOM     25  N   UNL     1      -0.395   6.287   0.863  1.00  0.00    -0.359 N 
ATOM     26  C   UNL     1       0.235   7.553   1.282  1.00  0.00     0.178 C 
ATOM     27  C   UNL     1      -1.048   5.652   1.992  1.00  0.00     0.178 C 
ATOM     28  C   UNL     1      -0.820   8.450   2.038  1.00  0.00     0.284 C 
ATOM     29  C   UNL     1      -2.261   6.513   2.328  1.00  0.00     0.284 C 
ATOM     30  N   UNL     1      -1.875   7.813   2.879  1.00  0.00    -0.324 N 
ATOM     31  H   UNL     1      -2.663   8.459   2.821  1.00  0.00     0.348 HD
BRANCH  30  32
ATOM     32  C   UNL     1      -1.633   7.758   4.335  1.00  0.00     0.363 C 
BRANCH  32  33
ATOM     33  C   UNL     1      -0.455   6.908   4.795  1.00  0.00     0.275 C 
ATOM     34  O   UNL     1       0.691   7.369   4.703  1.00  0.00    -0.268 OA
ATOM     35  N   UNL     1      -0.562   5.660   5.330  1.00  0.00    -0.347 N 
ATOM     36  H   UNL     1       0.302   5.388   5.716  1.00  0.00     0.164 HD
BRANCH  35  37
ATOM     37  C   UNL     1      -1.566   4.571   5.521  1.00  0.00     0.032 C 
ATOM     38  C   UNL     1      -1.514   3.553   4.365  1.00  0.00     0.034 C 
ATOM     39  C   UNL     1      -1.141   3.800   6.789  1.00  0.00     0.034 C 
ATOM     40  C   UNL     1      -3.011   5.031   5.736  1.00  0.00     0.034 C 
ENDBRANCH  35  37
ENDBRANCH  32  33
ENDBRANCH  30  32
ENDBRANCH  11  25
ENDBRANCH   6   8
ENDBRANCH   5   6
ENDBRANCH   4   5
ENDBRANCH   3   4
ENDBRANCH   2   3
ENDBRANCH   1   2
BRANCH   1  41
ATOM     41  C   UNL     1       4.854   2.112  -6.785  1.00  0.00     0.188 C 
BRANCH  41  42
ATOM     42  O   UNL     1       3.523   2.606  -6.823  1.00  0.00    -0.376 OA
BRANCH  42  43
ATOM     43  C   UNL     1       3.288   3.695  -7.710  1.00  0.00     0.202 C 
BRANCH  43  44
ATOM     44  C   UNL     1       3.926   5.054  -7.332  1.00  0.00     0.261 C 
BRANCH  44  45
ATOM     45  O   UNL     1       3.341   5.681  -6.163  1.00  0.00    -0.460 OA
BRANCH  45  46
ATOM     46  C   UNL     1       4.179   5.911  -5.076  1.00  0.00     0.338 C 
ATOM     47  O   UNL     1       4.709   6.955  -4.870  1.00  0.00    -0.246 OA
BRANCH  46  48
ATOM     48  C   UNL     1       4.152   4.730  -4.140  1.00  0.00     0.060 A 
ATOM     49  C   UNL     1       5.070   4.371  -3.153  1.00  0.00     0.016 A 
ATOM     50  C   UNL     1       3.180   3.826  -4.359  1.00  0.00     0.016 A 
ATOM     51  C   UNL     1       5.047   3.047  -2.511  1.00  0.00     0.010 A 
ATOM     52  C   UNL     1       3.398   2.525  -3.908  1.00  0.00     0.010 A 
ATOM     53  C   UNL     1       4.207   1.997  -2.906  1.00  0.00    -0.014 A 
BRANCH  53  54
ATOM     54  C   UNL     1       4.207   0.395  -2.470  1.00  0.00     0.031 A 
ATOM     55  C   UNL     1       3.013  -0.755  -2.158  1.00  0.00     0.074 A 
ATOM     56  C   UNL     1       5.452  -0.134  -2.407  1.00  0.00     0.049 A 
ATOM     57  N   UNL     1       3.175  -2.072  -2.255  1.00  0.00    -0.248 NA
ATOM     58  C   UNL     1       1.568  -0.594  -1.784  1.00  0.00     0.031 C 
ATOM     59  C   UNL     1       5.879  -1.497  -2.099  1.00  0.00     0.029 A 
ATOM     60  N   UNL     1       6.641   0.590  -2.366  1.00  0.00    -0.354 N 
ATOM     61  C   UNL     1       1.971  -2.710  -1.931  1.00  0.00     0.074 A 
ATOM     62  C   UNL     1       0.983  -1.730  -2.153  1.00  0.00     0.031 C 
ATOM     63  C   UNL     1       7.103  -1.450  -1.552  1.00  0.00     0.029 A 
ATOM     64  C   UNL     1       7.476  -0.054  -1.450  1.00  0.00     0.049 A 
ATOM     65  H   UNL     1       6.852   1.400  -2.883  1.00  0.00     0.167 HD
ATOM     66  C   UNL     1       1.750  -3.653  -0.958  1.00  0.00     0.034 A 
ATOM     67  C   UNL     1       7.809   0.599  -0.304  1.00  0.00     0.034 A 
ATOM     68  C   UNL     1       2.912  -3.811  -0.124  1.00  0.00     0.049 A 
ATOM     69  C   UNL     1       7.202  -0.073   0.901  1.00  0.00     0.074 A 
ATOM     70  C   UNL     1       4.072  -4.540  -0.261  1.00  0.00     0.029 A 
ATOM     71  N   UNL     1       3.123  -2.887   0.896  1.00  0.00    -0.354 N 
ATOM     72  N   UNL     1       6.121  -0.813   0.903  1.00  0.00    -0.248 NA
ATOM     73  C   UNL     1       7.852  -0.002   2.199  1.00  0.00     0.031 C 
ATOM     74  C   UNL     1       5.013  -4.007   0.657  1.00  0.00     0.029 A 
ATOM     75  C   UNL     1       4.412  -2.988   1.383  1.00  0.00     0.049 A 
ATOM     76  H   UNL     1       2.447  -2.250   1.225  1.00  0.00     0.167 HD
ATOM     77  C   UNL     1       5.936  -1.327   2.166  1.00  0.00     0.074 A 
ATOM     78  C   UNL     1       7.060  -0.802   2.925  1.00  0.00     0.031 C 
ATOM     79  C   UNL     1       4.913  -2.179   2.496  1.00  0.00     0.034 A 
BRANCH  66  80
ATOM     80  C   UNL     1       0.403  -4.361  -0.710  1.00  0.00     0.023 A 
ATOM     81  C   UNL     1       0.387  -5.756  -0.504  1.00  0.00     0.031 A 
ATOM     82  C   UNL     1      -0.881  -3.763  -0.716  1.00  0.00     0.131 A 
ATOM     83  C   UNL     1      -0.835  -6.475  -0.418  1.00  0.00     0.055 A 
ATOM     84  C   UNL     1      -2.088  -4.479  -0.720  1.00  0.00     0.041 A 
ATOM     85  F   UNL     1      -1.042  -2.438  -0.657  1.00  0.00    -0.206 F 
ATOM     86  C   UNL     1      -2.069  -5.850  -0.584  1.00  0.00     0.022 A 
BRANCH  83  87
ATOM     87  S   UNL     1      -0.828  -8.262  -0.094  1.00  0.00     0.124 S 
ATOM     88  O   UNL     1       0.252  -8.740  -0.949  1.00  0.00    -0.237 OA
ATOM     89  O   UNL     1      -0.586  -8.304   1.344  1.00  0.00    -0.237 OA
ATOM     90  O   UNL     1      -2.167  -8.686  -0.506  1.00  0.00    -0.744 OA
ENDBRANCH  83  87
ENDBRANCH  66  80
BRANCH  67  91
ATOM     91  C   UNL     1       8.090   2.063  -0.473  1.00  0.00     0.023 A 
ATOM     92  C   UNL     1       8.832   2.438  -1.622  1.00  0.00     0.031 A 
ATOM     93  C   UNL     1       7.456   3.088   0.240  1.00  0.00     0.131 A 
ATOM     94  C   UNL     1       8.753   3.734  -2.143  1.00  0.00     0.055 A 
ATOM     95  C   UNL     1       7.473   4.417  -0.224  1.00  0.00     0.041 A 
ATOM     96  F   UNL     1       6.701   2.814   1.314  1.00  0.00    -0.206 F 
ATOM     97  C   UNL     1       8.093   4.738  -1.437  1.00  0.00     0.022 A 
BRANCH  94  98
ATOM     98  S   UNL     1       9.218   4.012  -3.886  1.00  0.00     0.124 S 
ATOM     99  O   UNL     1      10.461   4.763  -3.755  1.00  0.00    -0.237 OA
ATOM    100  O   UNL     1       9.347   2.660  -4.426  1.00  0.00    -0.237 OA
ATOM    101  O   UNL     1       8.078   4.759  -4.412  1.00  0.00    -0.744 OA
ENDBRANCH  94  98
ENDBRANCH  67  91
BRANCH  79 102
ATOM    102  C   UNL     1       4.493  -2.512   3.923  1.00  0.00     0.023 A 
ATOM    103  C   UNL     1       5.084  -1.927   5.051  1.00  0.00     0.031 A 
ATOM    104  C   UNL     1       3.454  -3.426   4.213  1.00  0.00     0.131 A 
ATOM    105  C   UNL     1       4.810  -2.369   6.356  1.00  0.00     0.055 A 
ATOM    106  C   UNL     1       3.114  -3.809   5.520  1.00  0.00     0.041 A 
ATOM    107  F   UNL     1       2.692  -3.960   3.248  1.00  0.00    -0.206 F 
ATOM    108  C   UNL     1       3.823  -3.311   6.603  1.00  0.00     0.022 A 
BRANCH 105 109
ATOM    109  S   UNL     1       5.855  -1.732   7.692  1.00  0.00     0.124 S 
ATOM    110  O   UNL     1       7.182  -2.180   7.277  1.00  0.00    -0.237 OA
ATOM    111  O   UNL     1       5.622  -0.293   7.609  1.00  0.00    -0.237 OA
ATOM    112  O   UNL     1       5.324  -2.382   8.887  1.00  0.00    -0.744 OA
ENDBRANCH 105 109
ENDBRANCH  79 102
ENDBRANCH  53  54
ENDBRANCH  46  48
ENDBRANCH  45  46
ENDBRANCH  44  45
ENDBRANCH  43  44
ENDBRANCH  42  43
ENDBRANCH  41  42
ENDBRANCH   1  41
TORSDOF 26
