REMARK SMILES Cc1cc(N2CCOC[C@H]2C(=O)OCCOCCOCCOC(=O)c2ccc(-c3c4nc(c(-c5cc(S(=O)(=O)[O-])ccc5F)c5ccc([nH]5)c(-c5cc(S(=O)(=O)[O-])ccc5F)c5nc(c(-c6cc(S(=O)(=O)[O-])ccc6F)c6ccc3[nH]6)C=C5)C=C4)cc2)ncc1[N+](=O)[O-]
REMARK SMILES IDX 18 1 17 2 16 3 15 4 14 5 13 6 11 7 12 8 10 9 5 10 6 11 7 12
REMARK SMILES IDX 9 13 8 14 4 15 1 16 2 17 3 18 90 19 89 20 88 21 91 22 92 23
REMARK SMILES IDX 93 24 19 25 20 26 21 27 22 28 23 29 24 30 25 31 26 32 87 33
REMARK SMILES IDX 27 34 86 35 28 36 29 37 30 38 80 39 31 40 85 41 79 42 81 43
REMARK SMILES IDX 32 44 84 45 78 46 77 47 33 49 65 50 45 51 64 52 46 53 49 54
REMARK SMILES IDX 63 55 82 56 47 57 48 58 62 60 83 61 50 62 34 63 35 64 43 65
REMARK SMILES IDX 36 66 42 67 44 68 41 69 37 70 38 71 39 72 40 73 66 74 67 75
REMARK SMILES IDX 75 76 68 77 74 78 76 79 73 80 69 81 70 82 71 83 72 84 51 85
REMARK SMILES IDX 52 86 60 87 53 88 59 89 61 90 58 91 54 92 55 93 56 94 57 95
REMARK H PARENT 81 48 49 59
REMARK Flexibility Score: inf
ROOT
ATOM      1  C   UNL     1      -0.349   3.943  -2.037  1.00  0.00     0.188 C 
ENDROOT
BRANCH   1   2
ATOM      2  C   UNL     1      -1.209   4.832  -1.118  1.00  0.00     0.188 C 
BRANCH   2   3
ATOM      3  O   UNL     1      -1.075   6.244  -1.256  1.00  0.00    -0.376 OA
BRANCH   3   4
ATOM      4  C   UNL     1       0.242   6.775  -1.349  1.00  0.00     0.202 C 
BRANCH   4   5
ATOM      5  C   UNL     1       1.060   6.665  -0.066  1.00  0.00     0.261 C 
BRANCH   5   6
ATOM      6  O   UNL     1       1.519   5.316   0.129  1.00  0.00    -0.462 OA
BRANCH   6   7
ATOM      7  C   UNL     1       1.302   4.755   1.348  1.00  0.00     0.331 C 
ATOM      8  O   UNL     1       0.734   5.327   2.274  1.00  0.00    -0.250 OA
BRANCH   7   9
ATOM      9  C   UNL     1       1.887   3.344   1.494  1.00  0.00     0.220 C 
ATOM     10  N   UNL     1       2.022   2.575   0.221  1.00  0.00    -0.339 N 
ATOM     11  C   UNL     1       3.205   2.901  -0.599  1.00  0.00     0.147 C 
ATOM     12  C   UNL     1       4.474   3.018   0.252  1.00  0.00     0.181 C 
ATOM     13  C   UNL     1       3.243   3.490   2.209  1.00  0.00     0.197 C 
ATOM     14  O   UNL     1       4.288   3.949   1.331  1.00  0.00    -0.377 OA
BRANCH  10  15
ATOM     15  C   UNL     1       1.707   1.218   0.284  1.00  0.00     0.130 A 
ATOM     16  C   UNL     1      -1.433  -0.926   0.144  1.00  0.00     0.052 C 
ATOM     17  C   UNL     1       0.015  -0.545   0.237  1.00  0.00     0.032 A 
ATOM     18  C   UNL     1       0.366   0.817   0.324  1.00  0.00     0.057 A 
ATOM     19  C   UNL     1       1.061  -1.466   0.202  1.00  0.00     0.290 A 
ATOM     20  C   UNL     1       2.367  -1.006   0.191  1.00  0.00     0.199 A 
ATOM     21  N   UNL     1       2.702   0.310   0.215  1.00  0.00    -0.232 NA
BRANCH  19  22
ATOM     22  N   UNL     1       0.858  -2.900   0.177  1.00  0.00     0.064 N 
ATOM     23  O   UNL     1       1.533  -3.546  -0.636  1.00  0.00    -0.258 OA
ATOM     24  O   UNL     1       0.071  -3.379   1.001  1.00  0.00    -0.258 OA
ENDBRANCH  19  22
ENDBRANCH  10  15
ENDBRANCH   7   9
ENDBRANCH   6   7
ENDBRANCH   5   6
ENDBRANCH   4   5
ENDBRANCH   3   4
ENDBRANCH   2   3
ENDBRANCH   1   2
BRANCH   1  25
ATOM     25  O   UNL     1      -0.099   4.418  -3.357  1.00  0.00    -0.376 OA
BRANCH  25  26
ATOM     26  C   UNL     1      -1.238   4.794  -4.127  1.00  0.00     0.202 C 
BRANCH  26  27
ATOM     27  C   UNL     1      -2.174   3.630  -4.425  1.00  0.00     0.261 C 
BRANCH  27  28
ATOM     28  O   UNL     1      -2.942   3.323  -3.249  1.00  0.00    -0.460 OA
BRANCH  28  29
ATOM     29  C   UNL     1      -3.582   2.140  -3.311  1.00  0.00     0.338 C 
ATOM     30  O   UNL     1      -3.613   1.382  -4.277  1.00  0.00    -0.246 OA
BRANCH  29  31
ATOM     31  C   UNL     1      -4.259   1.846  -2.037  1.00  0.00     0.060 A 
ATOM     32  C   UNL     1      -3.554   1.837  -0.831  1.00  0.00     0.016 A 
ATOM     33  C   UNL     1      -5.572   1.381  -2.078  1.00  0.00     0.016 A 
ATOM     34  C   UNL     1      -4.112   1.228   0.298  1.00  0.00     0.010 A 
ATOM     35  C   UNL     1      -6.148   0.825  -0.932  1.00  0.00     0.010 A 
ATOM     36  C   UNL     1      -5.391   0.656   0.242  1.00  0.00    -0.014 A 
BRANCH  36  37
ATOM     37  C   UNL     1      -5.867  -0.298   1.290  1.00  0.00     0.031 A 
ATOM     38  C   UNL     1      -6.209  -1.714   0.875  1.00  0.00     0.074 A 
ATOM     39  C   UNL     1      -5.954   0.029   2.594  1.00  0.00     0.049 A 
ATOM     40  N   UNL     1      -6.914  -2.621   1.499  1.00  0.00    -0.248 NA
ATOM     41  C   UNL     1      -5.697  -2.154  -0.434  1.00  0.00     0.031 C 
ATOM     42  C   UNL     1      -5.539   1.301   3.185  1.00  0.00     0.029 A 
ATOM     43  N   UNL     1      -6.417  -0.697   3.666  1.00  0.00    -0.354 N 
ATOM     44  C   UNL     1      -7.016  -3.697   0.619  1.00  0.00     0.074 A 
ATOM     45  C   UNL     1      -6.276  -3.338  -0.571  1.00  0.00     0.031 C 
ATOM     46  C   UNL     1      -5.732   1.251   4.513  1.00  0.00     0.029 A 
ATOM     47  C   UNL     1      -6.390  -0.006   4.857  1.00  0.00     0.049 A 
ATOM     48  H   UNL     1      -6.738  -1.625   3.589  1.00  0.00     0.167 HD
ATOM     49  C   UNL     1      -7.685  -4.865   0.785  1.00  0.00     0.034 A 
ATOM     50  C   UNL     1      -6.894  -0.321   6.069  1.00  0.00     0.034 A 
ATOM     51  C   UNL     1      -8.339  -5.244   2.014  1.00  0.00     0.049 A 
ATOM     52  C   UNL     1      -7.657  -1.615   6.231  1.00  0.00     0.074 A 
ATOM     53  C   UNL     1      -9.062  -6.393   2.291  1.00  0.00     0.029 A 
ATOM     54  N   UNL     1      -8.320  -4.498   3.184  1.00  0.00    -0.354 N 
ATOM     55  N   UNL     1      -7.892  -2.556   5.344  1.00  0.00    -0.248 NA
ATOM     56  C   UNL     1      -8.245  -1.876   7.552  1.00  0.00     0.031 C 
ATOM     57  C   UNL     1      -9.516  -6.319   3.613  1.00  0.00     0.029 A 
ATOM     58  C   UNL     1      -9.023  -5.156   4.181  1.00  0.00     0.049 A 
ATOM     59  H   UNL     1      -7.872  -3.628   3.290  1.00  0.00     0.167 HD
ATOM     60  C   UNL     1      -8.642  -3.524   6.009  1.00  0.00     0.074 A 
ATOM     61  C   UNL     1      -8.795  -3.068   7.374  1.00  0.00     0.031 C 
ATOM     62  C   UNL     1      -9.166  -4.684   5.535  1.00  0.00     0.034 A 
BRANCH  49  63
ATOM     63  C   UNL     1      -7.827  -5.770  -0.414  1.00  0.00     0.023 A 
ATOM     64  C   UNL     1      -6.744  -6.458  -0.985  1.00  0.00     0.031 A 
ATOM     65  C   UNL     1      -9.096  -5.932  -1.004  1.00  0.00     0.131 A 
ATOM     66  C   UNL     1      -6.943  -7.236  -2.139  1.00  0.00     0.055 A 
ATOM     67  C   UNL     1      -9.299  -6.761  -2.107  1.00  0.00     0.041 A 
ATOM     68  F   UNL     1     -10.163  -5.278  -0.516  1.00  0.00    -0.206 F 
ATOM     69  C   UNL     1      -8.216  -7.411  -2.688  1.00  0.00     0.022 A 
BRANCH  66  70
ATOM     70  S   UNL     1      -5.496  -7.929  -2.986  1.00  0.00     0.124 S 
ATOM     71  O   UNL     1      -4.752  -6.721  -3.334  1.00  0.00    -0.237 OA
ATOM     72  O   UNL     1      -4.902  -8.773  -1.956  1.00  0.00    -0.237 OA
ATOM     73  O   UNL     1      -6.074  -8.646  -4.121  1.00  0.00    -0.744 OA
ENDBRANCH  66  70
ENDBRANCH  49  63
BRANCH  50  74
ATOM     74  C   UNL     1      -6.789   0.635   7.213  1.00  0.00     0.023 A 
ATOM     75  C   UNL     1      -6.134   0.277   8.402  1.00  0.00     0.031 A 
ATOM     76  C   UNL     1      -7.412   1.896   7.162  1.00  0.00     0.131 A 
ATOM     77  C   UNL     1      -6.157   1.147   9.505  1.00  0.00     0.055 A 
ATOM     78  C   UNL     1      -7.374   2.785   8.237  1.00  0.00     0.041 A 
ATOM     79  F   UNL     1      -8.066   2.288   6.057  1.00  0.00    -0.206 F 
ATOM     80  C   UNL     1      -6.756   2.405   9.424  1.00  0.00     0.022 A 
BRANCH  77  81
ATOM     81  S   UNL     1      -5.486   0.565  11.087  1.00  0.00     0.124 S 
ATOM     82  O   UNL     1      -6.267  -0.645  11.314  1.00  0.00    -0.237 OA
ATOM     83  O   UNL     1      -4.077   0.369  10.763  1.00  0.00    -0.237 OA
ATOM     84  O   UNL     1      -5.766   1.670  12.002  1.00  0.00    -0.744 OA
ENDBRANCH  77  81
ENDBRANCH  50  74
BRANCH  62  85
ATOM     85  C   UNL     1      -9.904  -5.552   6.523  1.00  0.00     0.023 A 
ATOM     86  C   UNL     1     -11.132  -5.157   7.082  1.00  0.00     0.031 A 
ATOM     87  C   UNL     1      -9.351  -6.777   6.936  1.00  0.00     0.131 A 
ATOM     88  C   UNL     1     -11.736  -5.949   8.070  1.00  0.00     0.055 A 
ATOM     89  C   UNL     1      -9.984  -7.588   7.878  1.00  0.00     0.041 A 
ATOM     90  F   UNL     1      -8.181  -7.202   6.432  1.00  0.00    -0.206 F 
ATOM     91  C   UNL     1     -11.176  -7.167   8.463  1.00  0.00     0.022 A 
BRANCH  88  92
ATOM     92  S   UNL     1     -13.213  -5.315   8.912  1.00  0.00     0.124 S 
ATOM     93  O   UNL     1     -12.748  -4.028   9.418  1.00  0.00    -0.237 OA
ATOM     94  O   UNL     1     -14.189  -5.258   7.828  1.00  0.00    -0.237 OA
ATOM     95  O   UNL     1     -13.483  -6.322   9.936  1.00  0.00    -0.744 OA
ENDBRANCH  88  92
ENDBRANCH  62  85
ENDBRANCH  36  37
ENDBRANCH  29  31
ENDBRANCH  28  29
ENDBRANCH  27  28
ENDBRANCH  26  27
ENDBRANCH  25  26
ENDBRANCH   1  25
TORSDOF 22
