REMARK SMILES Cc1cc(C(=O)Nc2c(Cl)cc(Cl)cc2C(=O)OCCOCCOCCOC(=O)c2ccc(-c3c4nc(c(-c5cc(S(=O)(=O)[O-])ccc5F)c5ccc([nH]5)c(-c5cc(S(=O)(=O)[O-])ccc5F)c5nc(c(-c6cc(S(=O)(=O)[O-])ccc6F)c6ccc3[nH]6)C=C5)C=C4)cc2)c(C)s1
REMARK SMILES IDX 23 1 22 2 21 3 20 4 19 5 18 6 16 7 17 8 15 9 8 10 9 11 10 12
REMARK SMILES IDX 11 13 14 14 12 15 13 16 7 17 5 18 6 19 4 21 1 22 2 23 3 24
REMARK SMILES IDX 95 25 93 26 94 27 24 28 25 29 26 30 27 31 28 32 29 33 30 34
REMARK SMILES IDX 31 35 92 36 32 37 91 38 33 39 34 40 35 41 85 42 36 43 90 44
REMARK SMILES IDX 84 45 86 46 37 47 89 48 83 49 82 50 38 52 70 53 50 54 69 55
REMARK SMILES IDX 51 56 54 57 68 58 87 59 52 60 53 61 67 63 88 64 55 65 39 66
REMARK SMILES IDX 40 67 48 68 41 69 47 70 49 71 46 72 42 73 43 74 44 75 45 76
REMARK SMILES IDX 71 77 72 78 80 79 73 80 79 81 81 82 78 83 74 84 75 85 76 86
REMARK SMILES IDX 77 87 56 88 57 89 65 90 58 91 64 92 66 93 63 94 59 95 60 96
REMARK SMILES IDX 61 97 62 98
REMARK H PARENT 7 20 86 51 54 62
REMARK Flexibility Score: inf
ROOT
ATOM      1  C   UNL     1      -0.193  -4.481   3.348  1.00  0.00     0.188 C 
ENDROOT
BRANCH   1   2
ATOM      2  C   UNL     1      -0.754  -5.888   3.642  1.00  0.00     0.188 C 
BRANCH   2   3
ATOM      3  O   UNL     1       0.107  -6.905   4.137  1.00  0.00    -0.376 OA
BRANCH   3   4
ATOM      4  C   UNL     1       1.370  -7.138   3.527  1.00  0.00     0.202 C 
BRANCH   4   5
ATOM      5  C   UNL     1       1.497  -7.253   1.999  1.00  0.00     0.261 C 
BRANCH   5   6
ATOM      6  O   UNL     1       0.848  -6.215   1.242  1.00  0.00    -0.460 OA
BRANCH   6   7
ATOM      7  C   UNL     1      -0.215  -6.615   0.505  1.00  0.00     0.340 C 
ATOM      8  O   UNL     1      -0.597  -7.765   0.359  1.00  0.00    -0.246 OA
BRANCH   7   9
ATOM      9  C   UNL     1      -0.991  -5.470  -0.038  1.00  0.00     0.086 A 
ATOM     10  C   UNL     1      -0.440  -4.295  -0.588  1.00  0.00     0.075 A 
ATOM     11  C   UNL     1      -1.293  -3.504  -1.379  1.00  0.00     0.067 A 
ATOM     12  Cl  UNL     1      -0.683  -2.408  -2.575  1.00  0.00    -0.082 Cl
ATOM     13  C   UNL     1      -2.682  -3.652  -1.305  1.00  0.00     0.043 A 
ATOM     14  C   UNL     1      -2.388  -5.617   0.040  1.00  0.00     0.038 A 
ATOM     15  C   UNL     1      -3.222  -4.664  -0.525  1.00  0.00     0.043 A 
ATOM     16  Cl  UNL     1      -4.918  -4.761  -0.291  1.00  0.00    -0.084 Cl
BRANCH  10  17
ATOM     17  N   UNL     1       0.891  -3.941  -0.261  1.00  0.00    -0.320 N 
ATOM     18  C   UNL     1       1.510  -2.722  -0.012  1.00  0.00     0.256 C 
ATOM     19  O   UNL     1       2.734  -2.764   0.137  1.00  0.00    -0.269 OA
ATOM     20  H   UNL     1       1.499  -4.712  -0.196  1.00  0.00     0.170 HD
BRANCH  18  21
ATOM     21  C   UNL     1       0.758  -1.458   0.144  1.00  0.00     0.054 A 
ATOM     22  C   UNL     1      -2.538   0.413   0.314  1.00  0.00     0.056 C 
ATOM     23  C   UNL     1      -1.119  -0.042   0.310  1.00  0.00     0.003 A 
ATOM     24  C   UNL     1      -0.614  -1.298   0.568  1.00  0.00     0.029 A 
ATOM     25  S   UNL     1       0.132   1.052  -0.044  1.00  0.00    -0.145 S 
ATOM     26  C   UNL     1       1.321  -0.191  -0.021  1.00  0.00     0.014 A 
ATOM     27  C   UNL     1       2.740   0.240  -0.212  1.00  0.00     0.057 C 
ENDBRANCH  18  21
ENDBRANCH  10  17
ENDBRANCH   7   9
ENDBRANCH   6   7
ENDBRANCH   5   6
ENDBRANCH   4   5
ENDBRANCH   3   4
ENDBRANCH   2   3
ENDBRANCH   1   2
BRANCH   1  28
ATOM     28  O   UNL     1       1.205  -4.387   3.487  1.00  0.00    -0.376 OA
BRANCH  28  29
ATOM     29  C   UNL     1       1.727  -3.803   4.670  1.00  0.00     0.202 C 
BRANCH  29  30
ATOM     30  C   UNL     1       1.088  -3.976   6.066  1.00  0.00     0.261 C 
BRANCH  30  31
ATOM     31  O   UNL     1      -0.304  -4.309   6.149  1.00  0.00    -0.460 OA
BRANCH  31  32
ATOM     32  C   UNL     1      -1.182  -3.282   6.199  1.00  0.00     0.338 C 
ATOM     33  O   UNL     1      -0.916  -2.090   6.114  1.00  0.00    -0.246 OA
BRANCH  32  34
ATOM     34  C   UNL     1      -2.550  -3.839   6.172  1.00  0.00     0.060 A 
ATOM     35  C   UNL     1      -3.353  -3.623   5.043  1.00  0.00     0.016 A 
ATOM     36  C   UNL     1      -3.040  -4.569   7.257  1.00  0.00     0.016 A 
ATOM     37  C   UNL     1      -4.657  -4.123   5.004  1.00  0.00     0.010 A 
ATOM     38  C   UNL     1      -4.354  -5.050   7.224  1.00  0.00     0.010 A 
ATOM     39  C   UNL     1      -5.179  -4.809   6.110  1.00  0.00    -0.014 A 
BRANCH  39  40
ATOM     40  C   UNL     1      -6.630  -5.121   6.178  1.00  0.00     0.031 A 
ATOM     41  C   UNL     1      -7.525  -4.209   6.973  1.00  0.00     0.074 A 
ATOM     42  C   UNL     1      -7.149  -6.187   5.542  1.00  0.00     0.049 A 
ATOM     43  N   UNL     1      -8.804  -4.307   7.227  1.00  0.00    -0.248 NA
ATOM     44  C   UNL     1      -6.881  -3.028   7.567  1.00  0.00     0.031 C 
ATOM     45  C   UNL     1      -6.399  -7.113   4.696  1.00  0.00     0.029 A 
ATOM     46  N   UNL     1      -8.434  -6.672   5.515  1.00  0.00    -0.354 N 
ATOM     47  C   UNL     1      -9.117  -3.211   8.024  1.00  0.00     0.074 A 
ATOM     48  C   UNL     1      -7.884  -2.482   8.236  1.00  0.00     0.031 C 
ATOM     49  C   UNL     1      -7.239  -8.056   4.233  1.00  0.00     0.029 A 
ATOM     50  C   UNL     1      -8.574  -7.829   4.785  1.00  0.00     0.049 A 
ATOM     51  H   UNL     1      -9.185  -6.232   5.975  1.00  0.00     0.167 HD
ATOM     52  C   UNL     1     -10.322  -2.845   8.530  1.00  0.00     0.034 A 
ATOM     53  C   UNL     1      -9.649  -8.624   4.605  1.00  0.00     0.034 A 
ATOM     54  C   UNL     1     -11.540  -3.591   8.319  1.00  0.00     0.049 A 
ATOM     55  C   UNL     1     -10.957  -8.255   5.267  1.00  0.00     0.074 A 
ATOM     56  C   UNL     1     -12.818  -3.292   8.757  1.00  0.00     0.029 A 
ATOM     57  N   UNL     1     -11.629  -4.795   7.632  1.00  0.00    -0.354 N 
ATOM     58  N   UNL     1     -11.248  -7.207   6.004  1.00  0.00    -0.248 NA
ATOM     59  C   UNL     1     -12.083  -9.178   5.068  1.00  0.00     0.031 C 
ATOM     60  C   UNL     1     -13.658  -4.358   8.417  1.00  0.00     0.029 A 
ATOM     61  C   UNL     1     -12.929  -5.276   7.678  1.00  0.00     0.049 A 
ATOM     62  H   UNL     1     -10.878  -5.242   7.178  1.00  0.00     0.167 HD
ATOM     63  C   UNL     1     -12.600  -7.326   6.320  1.00  0.00     0.074 A 
ATOM     64  C   UNL     1     -13.067  -8.543   5.688  1.00  0.00     0.031 C 
ATOM     65  C   UNL     1     -13.387  -6.498   7.056  1.00  0.00     0.034 A 
BRANCH  52  66
ATOM     66  C   UNL     1     -10.358  -1.623   9.418  1.00  0.00     0.023 A 
ATOM     67  C   UNL     1     -10.001  -0.347   8.947  1.00  0.00     0.031 A 
ATOM     68  C   UNL     1     -10.713  -1.746  10.774  1.00  0.00     0.131 A 
ATOM     69  C   UNL     1      -9.922   0.733   9.841  1.00  0.00     0.055 A 
ATOM     70  C   UNL     1     -10.722  -0.649  11.637  1.00  0.00     0.041 A 
ATOM     71  F   UNL     1     -11.039  -2.941  11.290  1.00  0.00    -0.206 F 
ATOM     72  C   UNL     1     -10.307   0.597  11.176  1.00  0.00     0.022 A 
BRANCH  69  73
ATOM     73  S   UNL     1      -9.144   2.270   9.273  1.00  0.00     0.124 S 
ATOM     74  O   UNL     1      -7.837   1.792   8.827  1.00  0.00    -0.237 OA
ATOM     75  O   UNL     1     -10.053   2.715   8.224  1.00  0.00    -0.237 OA
ATOM     76  O   UNL     1      -9.117   3.104  10.473  1.00  0.00    -0.744 OA
ENDBRANCH  69  73
ENDBRANCH  52  66
BRANCH  53  77
ATOM     77  C   UNL     1      -9.545  -9.868   3.787  1.00  0.00     0.023 A 
ATOM     78  C   UNL     1     -10.301 -10.025   2.614  1.00  0.00     0.031 A 
ATOM     79  C   UNL     1      -8.734 -10.942   4.195  1.00  0.00     0.131 A 
ATOM     80  C   UNL     1     -10.266 -11.242   1.915  1.00  0.00     0.055 A 
ATOM     81  C   UNL     1      -8.658 -12.130   3.465  1.00  0.00     0.041 A 
ATOM     82  F   UNL     1      -7.997 -10.850   5.314  1.00  0.00    -0.206 F 
ATOM     83  C   UNL     1      -9.437 -12.289   2.323  1.00  0.00     0.022 A 
BRANCH  80  84
ATOM     84  S   UNL     1     -11.389 -11.467   0.508  1.00  0.00     0.124 S 
ATOM     85  O   UNL     1     -12.692 -11.290   1.138  1.00  0.00    -0.237 OA
ATOM     86  O   UNL     1     -10.961 -10.404  -0.395  1.00  0.00    -0.237 OA
ATOM     87  O   UNL     1     -11.094 -12.825   0.052  1.00  0.00    -0.744 OA
ENDBRANCH  80  84
ENDBRANCH  53  77
BRANCH  65  88
ATOM     88  C   UNL     1     -14.853  -6.853   7.171  1.00  0.00     0.023 A 
ATOM     89  C   UNL     1     -15.292  -8.013   7.832  1.00  0.00     0.031 A 
ATOM     90  C   UNL     1     -15.827  -6.013   6.599  1.00  0.00     0.131 A 
ATOM     91  C   UNL     1     -16.660  -8.331   7.856  1.00  0.00     0.055 A 
ATOM     92  C   UNL     1     -17.191  -6.298   6.687  1.00  0.00     0.041 A 
ATOM     93  F   UNL     1     -15.469  -4.893   5.950  1.00  0.00    -0.206 F 
ATOM     94  C   UNL     1     -17.613  -7.470   7.306  1.00  0.00     0.022 A 
BRANCH  91  95
ATOM     95  S   UNL     1     -17.172  -9.938   8.525  1.00  0.00     0.124 S 
ATOM     96  O   UNL     1     -16.424 -10.867   7.685  1.00  0.00    -0.237 OA
ATOM     97  O   UNL     1     -16.743  -9.848   9.916  1.00  0.00    -0.237 OA
ATOM     98  O   UNL     1     -18.620  -9.948   8.323  1.00  0.00    -0.744 OA
ENDBRANCH  91  95
ENDBRANCH  65  88
ENDBRANCH  39  40
ENDBRANCH  32  34
ENDBRANCH  31  32
ENDBRANCH  30  31
ENDBRANCH  29  30
ENDBRANCH  28  29
ENDBRANCH   1  28
TORSDOF 22
