REMARK SMILES Cc1cc([C@H](O)CC2(CC(=O)OCCOCCOCCOC(=O)c3ccc(-c4c5nc(c(-c6cc(S(=O)(=O)[O-])ccc6F)c6ccc([nH]6)c(-c6cc(S(=O)(=O)[O-])ccc6F)c6nc(c(-c7cc(S(=O)(=O)[O-])ccc7F)c7ccc4[nH]7)C=C6)C=C5)cc3)CCCC2)ccc1F
REMARK SMILES IDX 16 1 15 2 14 3 13 4 12 5 10 6 11 7 9 8 8 9 87 10 90 11 88 12
REMARK SMILES IDX 89 13 7 14 5 15 4 16 1 17 2 18 3 19 93 20 92 21 94 22 91 23
REMARK SMILES IDX 6 24 17 26 18 27 19 28 20 29 21 30 22 31 23 32 24 33 25 34
REMARK SMILES IDX 86 35 26 36 85 37 27 38 28 39 29 40 79 41 30 42 84 43 78 44
REMARK SMILES IDX 80 45 31 46 83 47 77 48 76 49 32 51 64 52 44 53 63 54 45 55
REMARK SMILES IDX 48 56 62 57 81 58 46 59 47 60 61 62 82 63 49 64 33 65 34 66
REMARK SMILES IDX 42 67 35 68 41 69 43 70 40 71 36 72 37 73 38 74 39 75 65 76
REMARK SMILES IDX 66 77 74 78 67 79 73 80 75 81 72 82 68 83 69 84 70 85 71 86
REMARK SMILES IDX 50 87 51 88 59 89 52 90 58 91 60 92 57 93 53 94 54 95 55 96
REMARK SMILES IDX 56 97
REMARK H PARENT 6 25 80 50 48 61
REMARK Flexibility Score: inf
ROOT
ATOM      1  C   UNL     1      -7.054   1.092   2.064  1.00  0.00     0.188 C 
ENDROOT
BRANCH   1   2
ATOM      2  O   UNL     1      -8.154   1.254   2.959  1.00  0.00    -0.376 OA
BRANCH   2   3
ATOM      3  C   UNL     1      -8.247   2.471   3.678  1.00  0.00     0.202 C 
BRANCH   3   4
ATOM      4  C   UNL     1      -7.038   2.887   4.535  1.00  0.00     0.261 C 
BRANCH   4   5
ATOM      5  O   UNL     1      -5.755   2.397   4.078  1.00  0.00    -0.463 OA
BRANCH   5   6
ATOM      6  C   UNL     1      -5.166   1.433   4.819  1.00  0.00     0.306 C 
ATOM      7  O   UNL     1      -5.598   1.065   5.909  1.00  0.00    -0.252 OA
BRANCH   6   8
ATOM      8  C   UNL     1      -3.962   0.732   4.180  1.00  0.00     0.129 C 
BRANCH   8   9
ATOM      9  C   UNL     1      -3.025   1.287   3.042  1.00  0.00    -0.016 C 
ATOM     10  C   UNL     1      -1.578   0.841   3.386  1.00  0.00     0.008 C 
ATOM     11  C   UNL     1      -2.849   2.814   3.046  1.00  0.00     0.008 C 
ATOM     12  C   UNL     1      -1.052   1.870   4.378  1.00  0.00     0.001 C 
ATOM     13  C   UNL     1      -1.906   3.120   4.196  1.00  0.00     0.001 C 
BRANCH   9  14
ATOM     14  C   UNL     1      -3.383   0.661   1.654  1.00  0.00     0.044 C 
BRANCH  14  15
ATOM     15  C   UNL     1      -2.811   1.365   0.396  1.00  0.00     0.145 C 
BRANCH  15  16
ATOM     16  C   UNL     1      -3.566   1.020  -0.854  1.00  0.00    -0.019 A 
ATOM     17  C   UNL     1      -4.703  -2.079  -2.676  1.00  0.00     0.047 C 
ATOM     18  C   UNL     1      -4.606  -0.639  -2.277  1.00  0.00    -0.015 A 
ATOM     19  C   UNL     1      -3.782  -0.316  -1.210  1.00  0.00     0.012 A 
ATOM     20  C   UNL     1      -5.245   0.422  -2.921  1.00  0.00     0.126 A 
ATOM     21  C   UNL     1      -4.953   1.754  -2.669  1.00  0.00     0.040 A 
ATOM     22  F   UNL     1      -6.263   0.213  -3.749  1.00  0.00    -0.207 F 
ATOM     23  C   UNL     1      -4.092   2.057  -1.639  1.00  0.00     0.009 A 
ENDBRANCH  15  16
BRANCH  15  24
ATOM     24  O   UNL     1      -1.432   1.093   0.221  1.00  0.00    -0.388 OA
ATOM     25  H   UNL     1      -1.307   0.145   0.062  1.00  0.00     0.211 HD
ENDBRANCH  15  24
ENDBRANCH  14  15
ENDBRANCH   9  14
ENDBRANCH   8   9
ENDBRANCH   6   8
ENDBRANCH   5   6
ENDBRANCH   4   5
ENDBRANCH   3   4
ENDBRANCH   2   3
ENDBRANCH   1   2
BRANCH   1  26
ATOM     26  C   UNL     1      -6.473   2.333   1.337  1.00  0.00     0.188 C 
BRANCH  26  27
ATOM     27  O   UNL     1      -7.430   3.372   1.228  1.00  0.00    -0.376 OA
BRANCH  27  28
ATOM     28  C   UNL     1      -7.598   3.973  -0.033  1.00  0.00     0.202 C 
BRANCH  28  29
ATOM     29  C   UNL     1      -8.460   3.218  -1.055  1.00  0.00     0.261 C 
BRANCH  29  30
ATOM     30  O   UNL     1      -9.136   2.029  -0.619  1.00  0.00    -0.460 OA
BRANCH  30  31
ATOM     31  C   UNL     1      -8.360   0.950  -0.790  1.00  0.00     0.338 C 
ATOM     32  O   UNL     1      -7.129   0.995  -0.952  1.00  0.00    -0.246 OA
BRANCH  31  33
ATOM     33  C   UNL     1      -9.015  -0.329  -1.051  1.00  0.00     0.060 A 
ATOM     34  C   UNL     1      -8.177  -1.436  -0.819  1.00  0.00     0.016 A 
ATOM     35  C   UNL     1      -9.800  -0.263  -2.201  1.00  0.00     0.016 A 
ATOM     36  C   UNL     1      -7.851  -2.254  -1.886  1.00  0.00     0.010 A 
ATOM     37  C   UNL     1      -9.444  -1.065  -3.271  1.00  0.00     0.010 A 
ATOM     38  C   UNL     1      -8.391  -1.980  -3.145  1.00  0.00    -0.014 A 
BRANCH  38  39
ATOM     39  C   UNL     1      -8.027  -2.744  -4.333  1.00  0.00     0.031 A 
ATOM     40  C   UNL     1      -8.264  -4.209  -4.281  1.00  0.00     0.074 A 
ATOM     41  C   UNL     1      -7.463  -2.202  -5.444  1.00  0.00     0.049 A 
ATOM     42  N   UNL     1      -7.663  -5.074  -5.028  1.00  0.00    -0.248 NA
ATOM     43  C   UNL     1      -9.120  -4.825  -3.259  1.00  0.00     0.031 C 
ATOM     44  C   UNL     1      -7.609  -2.720  -6.793  1.00  0.00     0.029 A 
ATOM     45  N   UNL     1      -6.535  -1.166  -5.607  1.00  0.00    -0.354 N 
ATOM     46  C   UNL     1      -8.325  -6.267  -4.833  1.00  0.00     0.074 A 
ATOM     47  C   UNL     1      -9.050  -6.114  -3.596  1.00  0.00     0.031 C 
ATOM     48  C   UNL     1      -6.682  -2.150  -7.580  1.00  0.00     0.029 A 
ATOM     49  C   UNL     1      -5.748  -1.418  -6.728  1.00  0.00     0.049 A 
ATOM     50  H   UNL     1      -6.451  -0.380  -5.019  1.00  0.00     0.167 HD
ATOM     51  C   UNL     1      -8.426  -7.159  -5.856  1.00  0.00     0.034 A 
ATOM     52  C   UNL     1      -4.382  -1.434  -6.845  1.00  0.00     0.034 A 
ATOM     53  C   UNL     1      -7.713  -6.686  -7.037  1.00  0.00     0.049 A 
ATOM     54  C   UNL     1      -3.891  -2.663  -7.593  1.00  0.00     0.074 A 
ATOM     55  C   UNL     1      -8.123  -5.951  -8.138  1.00  0.00     0.029 A 
ATOM     56  N   UNL     1      -6.331  -6.666  -7.055  1.00  0.00    -0.354 N 
ATOM     57  N   UNL     1      -4.641  -3.695  -7.829  1.00  0.00    -0.248 NA
ATOM     58  C   UNL     1      -2.494  -2.902  -7.955  1.00  0.00     0.031 C 
ATOM     59  C   UNL     1      -6.976  -5.549  -8.862  1.00  0.00     0.029 A 
ATOM     60  C   UNL     1      -5.866  -6.039  -8.201  1.00  0.00     0.049 A 
ATOM     61  H   UNL     1      -5.756  -7.045  -6.351  1.00  0.00     0.167 HD
ATOM     62  C   UNL     1      -3.873  -4.741  -8.253  1.00  0.00     0.074 A 
ATOM     63  C   UNL     1      -2.529  -4.201  -8.294  1.00  0.00     0.031 C 
ATOM     64  C   UNL     1      -4.431  -5.968  -8.454  1.00  0.00     0.034 A 
BRANCH  51  65
ATOM     65  C   UNL     1      -9.505  -8.224  -5.892  1.00  0.00     0.023 A 
ATOM     66  C   UNL     1     -10.040  -8.851  -4.745  1.00  0.00     0.031 A 
ATOM     67  C   UNL     1     -10.106  -8.585  -7.117  1.00  0.00     0.131 A 
ATOM     68  C   UNL     1     -11.195  -9.653  -4.824  1.00  0.00     0.055 A 
ATOM     69  C   UNL     1     -11.215  -9.431  -7.201  1.00  0.00     0.041 A 
ATOM     70  F   UNL     1      -9.679  -8.097  -8.289  1.00  0.00    -0.206 F 
ATOM     71  C   UNL     1     -11.787  -9.944  -6.050  1.00  0.00     0.022 A 
BRANCH  68  72
ATOM     72  S   UNL     1     -12.044 -10.240  -3.329  1.00  0.00     0.124 S 
ATOM     73  O   UNL     1     -13.417  -9.786  -3.551  1.00  0.00    -0.237 OA
ATOM     74  O   UNL     1     -11.849 -11.684  -3.400  1.00  0.00    -0.237 OA
ATOM     75  O   UNL     1     -11.347  -9.558  -2.241  1.00  0.00    -0.744 OA
ENDBRANCH  68  72
ENDBRANCH  51  65
BRANCH  52  76
ATOM     76  C   UNL     1      -3.431  -0.736  -5.918  1.00  0.00     0.023 A 
ATOM     77  C   UNL     1      -2.515  -1.459  -5.123  1.00  0.00     0.031 A 
ATOM     78  C   UNL     1      -3.383   0.664  -5.819  1.00  0.00     0.131 A 
ATOM     79  C   UNL     1      -1.654  -0.802  -4.220  1.00  0.00     0.055 A 
ATOM     80  C   UNL     1      -2.501   1.320  -4.944  1.00  0.00     0.041 A 
ATOM     81  F   UNL     1      -4.189   1.429  -6.573  1.00  0.00    -0.206 F 
ATOM     82  C   UNL     1      -1.643   0.587  -4.128  1.00  0.00     0.022 A 
BRANCH  79  83
ATOM     83  S   UNL     1      -0.530  -1.766  -3.158  1.00  0.00     0.124 S 
ATOM     84  O   UNL     1       0.563  -0.826  -2.906  1.00  0.00    -0.237 OA
ATOM     85  O   UNL     1      -1.362  -2.046  -1.988  1.00  0.00    -0.237 OA
ATOM     86  O   UNL     1      -0.191  -2.902  -3.995  1.00  0.00    -0.744 OA
ENDBRANCH  79  83
ENDBRANCH  52  76
BRANCH  64  87
ATOM     87  C   UNL     1      -3.703  -7.224  -8.852  1.00  0.00     0.023 A 
ATOM     88  C   UNL     1      -4.309  -8.472  -8.579  1.00  0.00     0.031 A 
ATOM     89  C   UNL     1      -2.492  -7.276  -9.556  1.00  0.00     0.131 A 
ATOM     90  C   UNL     1      -3.693  -9.681  -8.906  1.00  0.00     0.055 A 
ATOM     91  C   UNL     1      -1.846  -8.486  -9.840  1.00  0.00     0.041 A 
ATOM     92  F   UNL     1      -1.926  -6.173 -10.065  1.00  0.00    -0.206 F 
ATOM     93  C   UNL     1      -2.439  -9.697  -9.503  1.00  0.00     0.022 A 
BRANCH  90  94
ATOM     94  S   UNL     1      -4.540 -11.256  -8.613  1.00  0.00     0.124 S 
ATOM     95  O   UNL     1      -4.702 -11.761  -9.974  1.00  0.00    -0.237 OA
ATOM     96  O   UNL     1      -3.569 -11.972  -7.790  1.00  0.00    -0.237 OA
ATOM     97  O   UNL     1      -5.773 -10.871  -7.935  1.00  0.00    -0.744 OA
ENDBRANCH  90  94
ENDBRANCH  64  87
ENDBRANCH  38  39
ENDBRANCH  31  33
ENDBRANCH  30  31
ENDBRANCH  29  30
ENDBRANCH  28  29
ENDBRANCH  27  28
ENDBRANCH  26  27
ENDBRANCH   1  26
TORSDOF 25
