REMARK SMILES Cc1ccc(S(=O)(=O)n2cc(C(=O)C(=O)N[C@@H](Cc3cnc[nH]3)C(=O)OCCOCCOCCOC(=O)c3ccc(-c4c5nc(c(-c6cc(S(=O)(=O)[O-])ccc6F)c6ccc([nH]6)c(-c6cc(S(=O)(=O)[O-])ccc6F)c6nc(c(-c7cc(S(=O)(=O)[O-])ccc7F)c7ccc4[nH]7)C=C6)C=C5)cc3)c3ccccc32)cc1
REMARK SMILES IDX 30 1 29 2 28 3 27 4 26 5 24 6 25 7 17 8 16 9 14 10 15 11
REMARK SMILES IDX 12 13 13 14 11 15 9 16 10 17 106 18 101 19 105 20 102 21
REMARK SMILES IDX 104 22 103 23 6 24 7 25 8 26 5 27 1 28 2 29 3 30 108 31 4 32
REMARK SMILES IDX 107 33 18 34 19 35 20 36 23 37 21 38 22 39 31 41 32 42 33 43
REMARK SMILES IDX 34 44 35 45 36 46 37 47 38 48 39 49 100 50 40 51 99 52 41 53
REMARK SMILES IDX 42 54 43 55 93 56 44 57 98 58 92 59 94 60 45 61 97 62 91 63
REMARK SMILES IDX 90 64 46 66 78 67 58 68 77 69 59 70 62 71 76 72 95 73 60 74
REMARK SMILES IDX 61 75 75 77 96 78 63 79 47 80 48 81 56 82 49 83 55 84 57 85
REMARK SMILES IDX 54 86 50 87 51 88 52 89 53 90 79 91 80 92 88 93 81 94 87 95
REMARK SMILES IDX 89 96 86 97 82 98 83 99 84 100 85 101 64 102 65 103 73 104
REMARK SMILES IDX 66 105 72 106 74 107 71 108 67 109 68 110 69 111 70 112
REMARK H PARENT 16 12 23 40 94 65 62 76
REMARK Flexibility Score: inf
ROOT
ATOM      1  C   UNL     1      -2.796   7.750   6.039  1.00  0.00     0.188 C 
ENDROOT
BRANCH   1   2
ATOM      2  O   UNL     1      -3.463   8.021   7.264  1.00  0.00    -0.376 OA
BRANCH   2   3
ATOM      3  C   UNL     1      -4.835   8.266   7.033  1.00  0.00     0.202 C 
BRANCH   3   4
ATOM      4  C   UNL     1      -5.552   7.074   6.380  1.00  0.00     0.261 C 
BRANCH   4   5
ATOM      5  O   UNL     1      -5.521   6.925   4.759  1.00  0.00    -0.462 OA
BRANCH   5   6
ATOM      6  C   UNL     1      -6.158   6.911   3.487  1.00  0.00     0.329 C 
ATOM      7  O   UNL     1      -5.423   6.449   2.603  1.00  0.00    -0.250 OA
BRANCH   6   8
ATOM      8  C   UNL     1      -7.833   7.438   2.965  1.00  0.00     0.198 C 
BRANCH   8   9
ATOM      9  N   UNL     1      -8.389   6.228   2.155  1.00  0.00    -0.335 N 
ATOM     10  C   UNL     1      -7.859   5.275   1.241  1.00  0.00     0.293 C 
ATOM     11  O   UNL     1      -8.572   4.308   0.952  1.00  0.00    -0.265 OA
ATOM     12  H   UNL     1      -9.350   6.087   2.317  1.00  0.00     0.164 HD
BRANCH  10  13
ATOM     13  C   UNL     1      -6.481   5.347   0.524  1.00  0.00     0.252 C 
ATOM     14  O   UNL     1      -6.225   6.465   0.065  1.00  0.00    -0.283 OA
BRANCH  13  15
ATOM     15  C   UNL     1      -5.585   4.157   0.146  1.00  0.00     0.054 A 
ATOM     16  N   UNL     1      -4.418   2.197  -0.055  1.00  0.00    -0.240 N 
ATOM     17  C   UNL     1      -5.415   2.865   0.675  1.00  0.00     0.117 A 
ATOM     18  C   UNL     1      -4.051   2.937  -1.153  1.00  0.00     0.065 A 
ATOM     19  C   UNL     1      -4.668   4.186  -0.994  1.00  0.00     0.012 A 
ATOM     20  C   UNL     1      -3.219   2.641  -2.256  1.00  0.00     0.028 A 
ATOM     21  C   UNL     1      -4.356   5.186  -1.944  1.00  0.00     0.011 A 
ATOM     22  C   UNL     1      -2.947   3.654  -3.175  1.00  0.00     0.002 A 
ATOM     23  C   UNL     1      -3.494   4.917  -3.011  1.00  0.00     0.001 A 
BRANCH  16  24
ATOM     24  S   UNL     1      -3.887   0.561   0.202  1.00  0.00     0.268 S 
ATOM     25  O   UNL     1      -4.344  -0.151  -1.013  1.00  0.00    -0.201 OA
ATOM     26  O   UNL     1      -4.325   0.182   1.493  1.00  0.00    -0.201 OA
BRANCH  24  27
ATOM     27  C   UNL     1      -2.084   0.446   0.167  1.00  0.00     0.088 A 
ATOM     28  C   UNL     1       2.232  -0.021   0.016  1.00  0.00     0.044 C 
ATOM     29  C   UNL     1       0.735   0.138   0.057  1.00  0.00    -0.051 A 
ATOM     30  C   UNL     1      -0.101  -0.981  -0.022  1.00  0.00     0.005 A 
ATOM     31  C   UNL     1       0.146   1.402   0.200  1.00  0.00     0.005 A 
ATOM     32  C   UNL     1      -1.500  -0.830   0.024  1.00  0.00     0.022 A 
ATOM     33  C   UNL     1      -1.252   1.559   0.265  1.00  0.00     0.022 A 
ENDBRANCH  24  27
ENDBRANCH  16  24
ENDBRANCH  13  15
ENDBRANCH  10  13
ENDBRANCH   8   9
BRANCH   8  34
ATOM     34  C   UNL     1      -9.200   8.523   3.735  1.00  0.00     0.092 C 
BRANCH  34  35
ATOM     35  C   UNL     1     -10.025   8.602   5.429  1.00  0.00     0.037 A 
ATOM     36  C   UNL     1     -10.406   7.714   6.523  1.00  0.00     0.134 A 
ATOM     37  N   UNL     1     -10.289   9.802   6.107  1.00  0.00    -0.348 N 
ATOM     38  N   UNL     1     -10.796   8.306   7.683  1.00  0.00    -0.245 NA
ATOM     39  C   UNL     1     -10.764   9.569   7.385  1.00  0.00     0.196 A 
ATOM     40  H   UNL     1     -10.153  10.697   5.722  1.00  0.00     0.167 HD
ENDBRANCH  34  35
ENDBRANCH   8  34
ENDBRANCH   6   8
ENDBRANCH   5   6
ENDBRANCH   4   5
ENDBRANCH   3   4
ENDBRANCH   2   3
ENDBRANCH   1   2
BRANCH   1  41
ATOM     41  C   UNL     1      -2.620   6.261   5.756  1.00  0.00     0.188 C 
BRANCH  41  42
ATOM     42  O   UNL     1      -3.485   5.401   6.467  1.00  0.00    -0.376 OA
BRANCH  42  43
ATOM     43  C   UNL     1      -3.302   5.255   7.872  1.00  0.00     0.202 C 
BRANCH  43  44
ATOM     44  C   UNL     1      -2.824   3.828   8.043  1.00  0.00     0.261 C 
BRANCH  44  45
ATOM     45  O   UNL     1      -3.905   2.925   7.681  1.00  0.00    -0.460 OA
BRANCH  45  46
ATOM     46  C   UNL     1      -4.160   2.830   6.341  1.00  0.00     0.338 C 
ATOM     47  O   UNL     1      -3.328   2.555   5.491  1.00  0.00    -0.246 OA
BRANCH  46  48
ATOM     48  C   UNL     1      -5.559   3.306   6.051  1.00  0.00     0.060 A 
ATOM     49  C   UNL     1      -5.905   3.592   4.739  1.00  0.00     0.016 A 
ATOM     50  C   UNL     1      -6.441   3.717   7.064  1.00  0.00     0.016 A 
ATOM     51  C   UNL     1      -6.996   4.437   4.487  1.00  0.00     0.010 A 
ATOM     52  C   UNL     1      -7.466   4.650   6.799  1.00  0.00     0.010 A 
ATOM     53  C   UNL     1      -7.632   5.161   5.514  1.00  0.00    -0.014 A 
BRANCH  53  54
ATOM     54  C   UNL     1      -8.353   6.520   5.285  1.00  0.00     0.031 A 
ATOM     55  C   UNL     1      -9.953   6.095   4.557  1.00  0.00     0.074 A 
ATOM     56  C   UNL     1      -7.693   7.904   5.546  1.00  0.00     0.049 A 
ATOM     57  N   UNL     1     -10.818   6.848   3.876  1.00  0.00    -0.248 NA
ATOM     58  C   UNL     1     -10.635   4.815   4.838  1.00  0.00     0.031 C 
ATOM     59  C   UNL     1      -7.808   8.971   6.654  1.00  0.00     0.029 A 
ATOM     60  N   UNL     1      -6.837   8.796   4.700  1.00  0.00    -0.354 N 
ATOM     61  C   UNL     1     -12.097   6.563   4.358  1.00  0.00     0.074 A 
ATOM     62  C   UNL     1     -11.927   5.140   4.610  1.00  0.00     0.031 C 
ATOM     63  C   UNL     1      -7.482  10.230   6.215  1.00  0.00     0.029 A 
ATOM     64  C   UNL     1      -6.857  10.160   4.924  1.00  0.00     0.049 A 
ATOM     65  H   UNL     1      -6.266   8.415   3.994  1.00  0.00     0.167 HD
ATOM     66  C   UNL     1     -13.007   7.514   4.860  1.00  0.00     0.034 A 
ATOM     67  C   UNL     1      -6.449  11.117   4.041  1.00  0.00     0.034 A 
ATOM     68  C   UNL     1     -12.778   9.031   4.643  1.00  0.00     0.049 A 
ATOM     69  C   UNL     1      -7.696  11.784   3.417  1.00  0.00     0.074 A 
ATOM     70  C   UNL     1     -13.014  10.134   5.489  1.00  0.00     0.029 A 
ATOM     71  N   UNL     1     -12.132   9.634   3.545  1.00  0.00    -0.354 N 
ATOM     72  N   UNL     1      -8.936  11.599   3.823  1.00  0.00    -0.248 NA
ATOM     73  C   UNL     1      -7.627  12.625   2.216  1.00  0.00     0.031 C 
ATOM     74  C   UNL     1     -12.414  11.316   4.986  1.00  0.00     0.029 A 
ATOM     75  C   UNL     1     -11.789  10.986   3.805  1.00  0.00     0.049 A 
ATOM     76  H   UNL     1     -11.940   9.172   2.697  1.00  0.00     0.167 HD
ATOM     77  C   UNL     1      -9.805  12.094   2.858  1.00  0.00     0.074 A 
ATOM     78  C   UNL     1      -8.927  12.785   1.917  1.00  0.00     0.031 C 
ATOM     79  C   UNL     1     -11.167  11.886   2.835  1.00  0.00     0.034 A 
BRANCH  66  80
ATOM     80  C   UNL     1     -14.062   7.146   6.015  1.00  0.00     0.023 A 
ATOM     81  C   UNL     1     -14.957   8.143   6.503  1.00  0.00     0.031 A 
ATOM     82  C   UNL     1     -14.090   5.969   6.799  1.00  0.00     0.131 A 
ATOM     83  C   UNL     1     -15.614   8.043   7.755  1.00  0.00     0.055 A 
ATOM     84  C   UNL     1     -14.891   5.802   7.947  1.00  0.00     0.041 A 
ATOM     85  F   UNL     1     -13.323   4.904   6.555  1.00  0.00    -0.206 F 
ATOM     86  C   UNL     1     -15.624   6.854   8.460  1.00  0.00     0.022 A 
BRANCH  83  87
ATOM     87  S   UNL     1     -16.348   9.513   8.550  1.00  0.00     0.124 S 
ATOM     88  O   UNL     1     -15.195  10.097   9.231  1.00  0.00    -0.237 OA
ATOM     89  O   UNL     1     -16.878  10.273   7.425  1.00  0.00    -0.237 OA
ATOM     90  O   UNL     1     -17.361   8.938   9.436  1.00  0.00    -0.744 OA
ENDBRANCH  83  87
ENDBRANCH  66  80
BRANCH  67  91
ATOM     91  C   UNL     1      -5.178  10.768   3.262  1.00  0.00     0.023 A 
ATOM     92  C   UNL     1      -3.917  10.879   3.917  1.00  0.00     0.031 A 
ATOM     93  C   UNL     1      -5.167  10.100   2.025  1.00  0.00     0.131 A 
ATOM     94  C   UNL     1      -2.750  10.271   3.388  1.00  0.00     0.055 A 
ATOM     95  C   UNL     1      -4.016   9.455   1.526  1.00  0.00     0.041 A 
ATOM     96  F   UNL     1      -6.293   9.992   1.308  1.00  0.00    -0.206 F 
ATOM     97  C   UNL     1      -2.812   9.508   2.224  1.00  0.00     0.022 A 
BRANCH  94  98
ATOM     98  S   UNL     1      -1.152  10.299   4.284  1.00  0.00     0.124 S 
ATOM     99  O   UNL     1      -0.382  11.281   3.531  1.00  0.00    -0.237 OA
ATOM    100  O   UNL     1      -1.541  10.698   5.632  1.00  0.00    -0.237 OA
ATOM    101  O   UNL     1      -0.690   8.917   4.157  1.00  0.00    -0.744 OA
ENDBRANCH  94  98
ENDBRANCH  67  91
BRANCH  79 102
ATOM    102  C   UNL     1     -12.150  12.688   1.994  1.00  0.00     0.023 A 
ATOM    103  C   UNL     1     -11.851  13.934   1.434  1.00  0.00     0.031 A 
ATOM    104  C   UNL     1     -13.505  12.277   1.874  1.00  0.00     0.131 A 
ATOM    105  C   UNL     1     -12.806  14.631   0.675  1.00  0.00     0.055 A 
ATOM    106  C   UNL     1     -14.482  13.030   1.226  1.00  0.00     0.041 A 
ATOM    107  F   UNL     1     -13.948  11.119   2.384  1.00  0.00    -0.206 F 
ATOM    108  C   UNL     1     -14.127  14.201   0.584  1.00  0.00     0.022 A 
BRANCH 105 109
ATOM    109  S   UNL     1     -12.239  16.043  -0.302  1.00  0.00     0.124 S 
ATOM    110  O   UNL     1     -11.815  16.986   0.727  1.00  0.00    -0.237 OA
ATOM    111  O   UNL     1     -11.166  15.440  -1.090  1.00  0.00    -0.237 OA
ATOM    112  O   UNL     1     -13.423  16.432  -1.063  1.00  0.00    -0.744 OA
ENDBRANCH 105 109
ENDBRANCH  79 102
ENDBRANCH  53  54
ENDBRANCH  46  48
ENDBRANCH  45  46
ENDBRANCH  44  45
ENDBRANCH  43  44
ENDBRANCH  42  43
ENDBRANCH  41  42
ENDBRANCH   1  41
TORSDOF 27
