REMARK SMILES CC[C@@H](C(=O)Nc1ccc(OC(C)=O)cc1C(=O)OCCOCCOCCOC(=O)c1ccc(-c2c3nc(c(-c4cc(S(=O)(=O)[O-])ccc4F)c4ccc([nH]4)c(-c4cc(S(=O)(=O)[O-])ccc4F)c4nc(c(-c5cc(S(=O)(=O)[O-])ccc5F)c5ccc2[nH]5)C=C4)C=C3)cc1)c1ccccc1
REMARK SMILES IDX 23 1 22 2 21 3 20 4 19 5 17 6 18 7 16 8 7 9 8 10 9 11 15 12
REMARK SMILES IDX 10 13 6 14 4 15 5 16 3 18 2 19 1 20 94 21 95 22 99 23 96 24
REMARK SMILES IDX 98 25 97 26 11 27 12 28 13 29 14 30 24 31 25 32 26 33 27 34
REMARK SMILES IDX 28 35 29 36 30 37 31 38 32 39 93 40 33 41 92 42 34 43 35 44
REMARK SMILES IDX 36 45 86 46 37 47 91 48 85 49 87 50 38 51 90 52 84 53 83 54
REMARK SMILES IDX 39 56 71 57 51 58 70 59 52 60 55 61 69 62 88 63 53 64 54 65
REMARK SMILES IDX 68 67 89 68 56 69 40 70 41 71 49 72 42 73 48 74 50 75 47 76
REMARK SMILES IDX 43 77 44 78 45 79 46 80 72 81 73 82 81 83 74 84 80 85 82 86
REMARK SMILES IDX 79 87 75 88 76 89 77 90 78 91 57 92 58 93 66 94 59 95 65 96
REMARK SMILES IDX 67 97 64 98 60 99 61 100 62 101 63 102
REMARK H PARENT 6 17 87 55 55 66
REMARK Flexibility Score: inf
ROOT
ATOM      1  C   UNL     1      -2.385   1.342  -0.248  1.00  0.00     0.188 C 
ENDROOT
BRANCH   1   2
ATOM      2  O   UNL     1      -3.120   0.446  -1.066  1.00  0.00    -0.376 OA
BRANCH   2   3
ATOM      3  C   UNL     1      -2.338  -0.390  -1.899  1.00  0.00     0.202 C 
BRANCH   3   4
ATOM      4  C   UNL     1      -1.589  -1.505  -1.170  1.00  0.00     0.261 C 
BRANCH   4   5
ATOM      5  O   UNL     1      -0.631  -1.147  -0.155  1.00  0.00    -0.460 OA
BRANCH   5   6
ATOM      6  C   UNL     1       0.306  -0.218  -0.406  1.00  0.00     0.340 C 
ATOM      7  O   UNL     1       0.366   0.535  -1.364  1.00  0.00    -0.246 OA
BRANCH   6   8
ATOM      8  C   UNL     1       1.276  -0.135   0.699  1.00  0.00     0.087 A 
ATOM      9  C   UNL     1       1.950  -1.240   1.239  1.00  0.00     0.056 A 
ATOM     10  C   UNL     1       2.861  -1.033   2.286  1.00  0.00     0.031 A 
ATOM     11  C   UNL     1       3.247   0.262   2.638  1.00  0.00     0.049 A 
ATOM     12  C   UNL     1       1.597   1.162   1.124  1.00  0.00     0.065 A 
ATOM     13  C   UNL     1       2.652   1.349   2.002  1.00  0.00     0.131 A 
BRANCH   9  14
ATOM     14  N   UNL     1       1.796  -2.570   0.829  1.00  0.00    -0.325 N 
ATOM     15  C   UNL     1       1.323  -3.086  -0.341  1.00  0.00     0.231 C 
ATOM     16  O   UNL     1       0.469  -3.973  -0.195  1.00  0.00    -0.274 OA
ATOM     17  H   UNL     1       2.076  -3.242   1.493  1.00  0.00     0.169 HD
BRANCH  15  18
ATOM     18  C   UNL     1       2.063  -2.857  -1.723  1.00  0.00     0.108 C 
BRANCH  18  19
ATOM     19  C   UNL     1       2.407  -1.486  -2.349  1.00  0.00     0.015 C 
ATOM     20  C   UNL     1       3.472  -0.590  -1.740  1.00  0.00     0.005 C 
ENDBRANCH  18  19
BRANCH  18  21
ATOM     21  C   UNL     1       1.306  -3.696  -2.793  1.00  0.00    -0.036 A 
ATOM     22  C   UNL     1       0.477  -3.123  -3.778  1.00  0.00     0.004 A 
ATOM     23  C   UNL     1       1.358  -5.096  -2.712  1.00  0.00     0.004 A 
ATOM     24  C   UNL     1      -0.292  -3.920  -4.627  1.00  0.00     0.000 A 
ATOM     25  C   UNL     1       0.578  -5.892  -3.553  1.00  0.00     0.000 A 
ATOM     26  C   UNL     1      -0.248  -5.304  -4.507  1.00  0.00     0.000 A 
ENDBRANCH  18  21
ENDBRANCH  15  18
ENDBRANCH   9  14
BRANCH  13  27
ATOM     27  O   UNL     1       3.163   2.627   2.301  1.00  0.00    -0.427 OA
BRANCH  27  28
ATOM     28  C   UNL     1       3.756   3.474   1.354  1.00  0.00     0.308 C 
ATOM     29  C   UNL     1       3.113   3.529  -0.004  1.00  0.00     0.139 C 
ATOM     30  O   UNL     1       4.697   4.196   1.665  1.00  0.00    -0.252 OA
ENDBRANCH  27  28
ENDBRANCH  13  27
ENDBRANCH   6   8
ENDBRANCH   5   6
ENDBRANCH   4   5
ENDBRANCH   3   4
ENDBRANCH   2   3
ENDBRANCH   1   2
BRANCH   1  31
ATOM     31  C   UNL     1      -2.213   0.874   1.215  1.00  0.00     0.188 C 
BRANCH  31  32
ATOM     32  O   UNL     1      -3.062  -0.121   1.757  1.00  0.00    -0.376 OA
BRANCH  32  33
ATOM     33  C   UNL     1      -4.425  -0.110   1.377  1.00  0.00     0.202 C 
BRANCH  33  34
ATOM     34  C   UNL     1      -5.254   1.188   1.497  1.00  0.00     0.261 C 
BRANCH  34  35
ATOM     35  O   UNL     1      -4.615   2.432   1.139  1.00  0.00    -0.460 OA
BRANCH  35  36
ATOM     36  C   UNL     1      -4.093   3.173   2.160  1.00  0.00     0.338 C 
ATOM     37  O   UNL     1      -4.189   2.924   3.341  1.00  0.00    -0.246 OA
BRANCH  36  38
ATOM     38  C   UNL     1      -3.153   4.205   1.611  1.00  0.00     0.060 A 
ATOM     39  C   UNL     1      -1.817   4.210   2.057  1.00  0.00     0.016 A 
ATOM     40  C   UNL     1      -3.568   5.164   0.688  1.00  0.00     0.016 A 
ATOM     41  C   UNL     1      -0.909   5.176   1.610  1.00  0.00     0.010 A 
ATOM     42  C   UNL     1      -2.671   6.168   0.280  1.00  0.00     0.010 A 
ATOM     43  C   UNL     1      -1.349   6.203   0.769  1.00  0.00    -0.014 A 
BRANCH  43  44
ATOM     44  C   UNL     1      -0.546   7.455   0.663  1.00  0.00     0.031 A 
ATOM     45  C   UNL     1      -0.872   8.567   1.629  1.00  0.00     0.074 A 
ATOM     46  C   UNL     1       0.456   7.616  -0.221  1.00  0.00     0.049 A 
ATOM     47  N   UNL     1      -0.412   9.790   1.688  1.00  0.00    -0.248 NA
ATOM     48  C   UNL     1      -1.868   8.247   2.663  1.00  0.00     0.031 C 
ATOM     49  C   UNL     1       0.931   6.601  -1.157  1.00  0.00     0.029 A 
ATOM     50  N   UNL     1       1.254   8.707  -0.475  1.00  0.00    -0.354 N 
ATOM     51  C   UNL     1      -1.077  10.392   2.753  1.00  0.00     0.074 A 
ATOM     52  C   UNL     1      -1.994   9.407   3.285  1.00  0.00     0.031 C 
ATOM     53  C   UNL     1       1.938   7.119  -1.886  1.00  0.00     0.029 A 
ATOM     54  C   UNL     1       2.141   8.519  -1.511  1.00  0.00     0.049 A 
ATOM     55  H   UNL     1       1.196   9.546   0.037  1.00  0.00     0.167 HD
ATOM     56  C   UNL     1      -0.940  11.649   3.244  1.00  0.00     0.034 A 
ATOM     57  C   UNL     1       2.988   9.386  -2.109  1.00  0.00     0.034 A 
ATOM     58  C   UNL     1      -0.039  12.630   2.692  1.00  0.00     0.049 A 
ATOM     59  C   UNL     1       3.041  10.821  -1.626  1.00  0.00     0.074 A 
ATOM     60  C   UNL     1       0.172  13.934   3.103  1.00  0.00     0.029 A 
ATOM     61  N   UNL     1       0.791  12.421   1.598  1.00  0.00    -0.354 N 
ATOM     62  N   UNL     1       2.385  11.390  -0.640  1.00  0.00    -0.248 NA
ATOM     63  C   UNL     1       3.943  11.732  -2.346  1.00  0.00     0.031 C 
ATOM     64  C   UNL     1       1.061  14.538   2.209  1.00  0.00     0.029 A 
ATOM     65  C   UNL     1       1.484  13.584   1.296  1.00  0.00     0.049 A 
ATOM     66  H   UNL     1       0.875  11.571   1.108  1.00  0.00     0.167 HD
ATOM     67  C   UNL     1       2.823  12.714  -0.602  1.00  0.00     0.074 A 
ATOM     68  C   UNL     1       3.805  12.855  -1.657  1.00  0.00     0.031 C 
ATOM     69  C   UNL     1       2.453  13.721   0.233  1.00  0.00     0.034 A 
BRANCH  56  70
ATOM     70  C   UNL     1      -1.847  12.042   4.387  1.00  0.00     0.023 A 
ATOM     71  C   UNL     1      -1.806  11.384   5.629  1.00  0.00     0.031 A 
ATOM     72  C   UNL     1      -2.814  13.048   4.210  1.00  0.00     0.131 A 
ATOM     73  C   UNL     1      -2.771  11.672   6.606  1.00  0.00     0.055 A 
ATOM     74  C   UNL     1      -3.709  13.398   5.223  1.00  0.00     0.041 A 
ATOM     75  F   UNL     1      -2.923  13.694   3.038  1.00  0.00    -0.206 F 
ATOM     76  C   UNL     1      -3.705  12.694   6.423  1.00  0.00     0.022 A 
BRANCH  73  77
ATOM     77  S   UNL     1      -2.906  10.567   8.039  1.00  0.00     0.124 S 
ATOM     78  O   UNL     1      -3.122   9.274   7.394  1.00  0.00    -0.237 OA
ATOM     79  O   UNL     1      -1.617  10.746   8.697  1.00  0.00    -0.237 OA
ATOM     80  O   UNL     1      -4.059  11.091   8.768  1.00  0.00    -0.744 OA
ENDBRANCH  73  77
ENDBRANCH  56  70
BRANCH  57  81
ATOM     81  C   UNL     1       3.822   8.957  -3.274  1.00  0.00     0.023 A 
ATOM     82  C   UNL     1       5.226   8.993  -3.222  1.00  0.00     0.031 A 
ATOM     83  C   UNL     1       3.222   8.565  -4.485  1.00  0.00     0.131 A 
ATOM     84  C   UNL     1       5.979   8.682  -4.366  1.00  0.00     0.055 A 
ATOM     85  C   UNL     1       3.977   8.199  -5.602  1.00  0.00     0.041 A 
ATOM     86  F   UNL     1       1.885   8.527  -4.601  1.00  0.00    -0.206 F 
ATOM     87  C   UNL     1       5.364   8.267  -5.550  1.00  0.00     0.022 A 
BRANCH  84  88
ATOM     88  S   UNL     1       7.779   8.911  -4.318  1.00  0.00     0.124 S 
ATOM     89  O   UNL     1       7.889  10.336  -4.027  1.00  0.00    -0.237 OA
ATOM     90  O   UNL     1       8.173   8.003  -3.247  1.00  0.00    -0.237 OA
ATOM     91  O   UNL     1       8.209   8.513  -5.657  1.00  0.00    -0.744 OA
ENDBRANCH  84  88
ENDBRANCH  57  81
BRANCH  69  92
ATOM     92  C   UNL     1       3.152  15.053   0.074  1.00  0.00     0.023 A 
ATOM     93  C   UNL     1       3.008  15.841  -1.082  1.00  0.00     0.031 A 
ATOM     94  C   UNL     1       3.978  15.543   1.104  1.00  0.00     0.131 A 
ATOM     95  C   UNL     1       3.721  17.044  -1.204  1.00  0.00     0.055 A 
ATOM     96  C   UNL     1       4.631  16.773   1.005  1.00  0.00     0.041 A 
ATOM     97  F   UNL     1       4.159  14.835   2.230  1.00  0.00    -0.206 F 
ATOM     98  C   UNL     1       4.515  17.525  -0.159  1.00  0.00     0.022 A 
BRANCH  95  99
ATOM     99  S   UNL     1       3.680  17.927  -2.788  1.00  0.00     0.124 S 
ATOM    100  O   UNL     1       4.178  16.914  -3.713  1.00  0.00    -0.237 OA
ATOM    101  O   UNL     1       2.268  18.271  -2.919  1.00  0.00    -0.237 OA
ATOM    102  O   UNL     1       4.576  19.062  -2.572  1.00  0.00    -0.744 OA
ENDBRANCH  95  99
ENDBRANCH  69  92
ENDBRANCH  43  44
ENDBRANCH  36  38
ENDBRANCH  35  36
ENDBRANCH  34  35
ENDBRANCH  33  34
ENDBRANCH  32  33
ENDBRANCH  31  32
ENDBRANCH   1  31
TORSDOF 26
