REMARK SMILES CC(C)(C)c1ccc(C(=O)C[C@H](C(=O)OCCOCCOCCOC(=O)c2ccc(-c3c4nc(c(-c5cc(S(=O)(=O)[O-])ccc5F)c5ccc([nH]5)c(-c5cc(S(=O)(=O)[O-])ccc5F)c5nc(c(-c6cc(S(=O)(=O)[O-])ccc6F)c6ccc3[nH]6)C=C5)C=C4)cc2)[NH+]2CCCC2)cc1
REMARK SMILES IDX 19 1 18 2 17 3 16 4 15 5 13 6 14 7 12 8 11 9 9 10 10 11 8 12
REMARK SMILES IDX 5 13 6 14 96 15 7 16 95 17 2 18 1 19 3 20 4 21 90 22 91 23
REMARK SMILES IDX 94 24 92 26 93 27 20 28 21 29 22 30 23 31 24 32 25 33 26 34
REMARK SMILES IDX 27 35 28 36 89 37 29 38 88 39 30 40 31 41 32 42 82 43 33 44
REMARK SMILES IDX 87 45 81 46 83 47 34 48 86 49 80 50 79 51 35 53 67 54 47 55
REMARK SMILES IDX 66 56 48 57 51 58 65 59 84 60 49 61 50 62 64 64 85 65 52 66
REMARK SMILES IDX 36 67 37 68 45 69 38 70 44 71 46 72 43 73 39 74 40 75 41 76
REMARK SMILES IDX 42 77 68 78 69 79 77 80 70 81 76 82 78 83 75 84 71 85 72 86
REMARK SMILES IDX 73 87 74 88 53 89 54 90 62 91 55 92 61 93 63 94 60 95 56 96
REMARK SMILES IDX 57 97 58 98 59 99
REMARK H PARENT 90 25 83 52 51 63
REMARK Flexibility Score: inf
ROOT
ATOM      1  C   UNL     1       2.360   3.893   7.952  1.00  0.00     0.188 C 
ENDROOT
BRANCH   1   2
ATOM      2  O   UNL     1       1.253   3.083   8.326  1.00  0.00    -0.376 OA
BRANCH   2   3
ATOM      3  C   UNL     1       0.052   3.280   7.586  1.00  0.00     0.202 C 
BRANCH   3   4
ATOM      4  C   UNL     1       0.119   2.976   6.083  1.00  0.00     0.261 C 
BRANCH   4   5
ATOM      5  O   UNL     1       1.217   3.645   5.447  1.00  0.00    -0.459 OA
BRANCH   5   6
ATOM      6  C   UNL     1       0.999   4.825   4.809  1.00  0.00     0.365 C 
ATOM      7  O   UNL     1      -0.106   5.302   4.592  1.00  0.00    -0.245 OA
BRANCH   6   8
ATOM      8  C   UNL     1       2.365   5.425   4.385  1.00  0.00     0.302 C 
BRANCH   8   9
ATOM      9  C   UNL     1       2.573   5.118   2.896  1.00  0.00     0.158 C 
BRANCH   9  10
ATOM     10  C   UNL     1       3.037   3.670   2.724  1.00  0.00     0.169 C 
ATOM     11  O   UNL     1       2.233   2.793   2.405  1.00  0.00    -0.294 OA
BRANCH  10  12
ATOM     12  C   UNL     1       4.485   3.308   2.917  1.00  0.00     0.018 A 
ATOM     13  C   UNL     1       7.244   2.592   3.135  1.00  0.00    -0.043 A 
ATOM     14  C   UNL     1       6.286   1.685   2.649  1.00  0.00     0.005 A 
ATOM     15  C   UNL     1       6.776   3.852   3.536  1.00  0.00     0.005 A 
ATOM     16  C   UNL     1       4.928   2.035   2.546  1.00  0.00     0.012 A 
ATOM     17  C   UNL     1       5.423   4.199   3.436  1.00  0.00     0.012 A 
BRANCH  13  18
ATOM     18  C   UNL     1       8.752   2.277   3.160  1.00  0.00    -0.013 C 
ATOM     19  C   UNL     1       9.063   0.764   3.161  1.00  0.00     0.016 C 
ATOM     20  C   UNL     1       9.457   2.872   4.403  1.00  0.00     0.016 C 
ATOM     21  C   UNL     1       9.382   2.898   1.895  1.00  0.00     0.016 C 
ENDBRANCH  13  18
ENDBRANCH  10  12
ENDBRANCH   9  10
ENDBRANCH   8   9
BRANCH   8  22
ATOM     22  N   UNL     1       2.658   6.772   4.965  1.00  0.00    -0.323 N 
ATOM     23  C   UNL     1       1.539   7.692   5.186  1.00  0.00     0.263 C 
ATOM     24  C   UNL     1       3.619   7.601   4.223  1.00  0.00     0.263 C 
ATOM     25  H   UNL     1       3.024   6.425   5.852  1.00  0.00     0.348 HD
ATOM     26  C   UNL     1       1.364   8.386   3.853  1.00  0.00     0.067 C 
ATOM     27  C   UNL     1       2.786   8.506   3.322  1.00  0.00     0.067 C 
ENDBRANCH   8  22
ENDBRANCH   6   8
ENDBRANCH   5   6
ENDBRANCH   4   5
ENDBRANCH   3   4
ENDBRANCH   2   3
ENDBRANCH   1   2
BRANCH   1  28
ATOM     28  C   UNL     1       3.500   3.115   7.253  1.00  0.00     0.188 C 
BRANCH  28  29
ATOM     29  O   UNL     1       3.352   1.729   6.980  1.00  0.00    -0.376 OA
BRANCH  29  30
ATOM     30  C   UNL     1       2.930   0.876   8.036  1.00  0.00     0.202 C 
BRANCH  30  31
ATOM     31  C   UNL     1       3.665   0.919   9.387  1.00  0.00     0.261 C 
BRANCH  31  32
ATOM     32  O   UNL     1       3.847   2.229   9.956  1.00  0.00    -0.460 OA
BRANCH  32  33
ATOM     33  C   UNL     1       5.133   2.649  10.057  1.00  0.00     0.338 C 
ATOM     34  O   UNL     1       6.138   2.012   9.760  1.00  0.00    -0.246 OA
BRANCH  33  35
ATOM     35  C   UNL     1       5.180   4.083  10.405  1.00  0.00     0.060 A 
ATOM     36  C   UNL     1       5.731   4.979   9.476  1.00  0.00     0.016 A 
ATOM     37  C   UNL     1       4.761   4.537  11.656  1.00  0.00     0.016 A 
ATOM     38  C   UNL     1       5.884   6.327   9.803  1.00  0.00     0.010 A 
ATOM     39  C   UNL     1       4.942   5.885  11.993  1.00  0.00     0.010 A 
ATOM     40  C   UNL     1       5.531   6.780  11.079  1.00  0.00    -0.014 A 
BRANCH  40  41
ATOM     41  C   UNL     1       5.958   8.133  11.518  1.00  0.00     0.031 A 
ATOM     42  C   UNL     1       7.237   8.263  12.302  1.00  0.00     0.074 A 
ATOM     43  C   UNL     1       5.246   9.230  11.201  1.00  0.00     0.049 A 
ATOM     44  N   UNL     1       7.790   9.327  12.824  1.00  0.00    -0.248 NA
ATOM     45  C   UNL     1       7.989   7.019  12.525  1.00  0.00     0.031 C 
ATOM     46  C   UNL     1       4.022   9.241  10.403  1.00  0.00     0.029 A 
ATOM     47  N   UNL     1       5.451  10.549  11.523  1.00  0.00    -0.354 N 
ATOM     48  C   UNL     1       8.955   8.883  13.441  1.00  0.00     0.074 A 
ATOM     49  C   UNL     1       9.006   7.448  13.258  1.00  0.00     0.031 C 
ATOM     50  C   UNL     1       3.575  10.506  10.310  1.00  0.00     0.029 A 
ATOM     51  C   UNL     1       4.459  11.389  11.070  1.00  0.00     0.049 A 
ATOM     52  H   UNL     1       6.234  10.865  12.029  1.00  0.00     0.167 HD
ATOM     53  C   UNL     1       9.900   9.605  14.093  1.00  0.00     0.034 A 
ATOM     54  C   UNL     1       4.276  12.710  11.270  1.00  0.00     0.034 A 
ATOM     55  C   UNL     1       9.828  11.033  14.289  1.00  0.00     0.049 A 
ATOM     56  C   UNL     1       5.290  13.479  12.085  1.00  0.00     0.074 A 
ATOM     57  C   UNL     1      10.732  11.863  14.927  1.00  0.00     0.029 A 
ATOM     58  N   UNL     1       8.782  11.842  13.862  1.00  0.00    -0.354 N 
ATOM     59  N   UNL     1       6.393  13.051  12.656  1.00  0.00    -0.248 NA
ATOM     60  C   UNL     1       5.035  14.914  12.277  1.00  0.00     0.031 C 
ATOM     61  C   UNL     1      10.200  13.157  14.951  1.00  0.00     0.029 A 
ATOM     62  C   UNL     1       9.002  13.154  14.255  1.00  0.00     0.049 A 
ATOM     63  H   UNL     1       7.999  11.530  13.354  1.00  0.00     0.167 HD
ATOM     64  C   UNL     1       6.977  14.171  13.246  1.00  0.00     0.074 A 
ATOM     65  C   UNL     1       6.113  15.294  12.947  1.00  0.00     0.031 C 
ATOM     66  C   UNL     1       8.125  14.265  13.965  1.00  0.00     0.034 A 
BRANCH  53  67
ATOM     67  C   UNL     1      11.059   8.844  14.690  1.00  0.00     0.023 A 
ATOM     68  C   UNL     1      11.977   8.143  13.887  1.00  0.00     0.031 A 
ATOM     69  C   UNL     1      11.227   8.785  16.085  1.00  0.00     0.131 A 
ATOM     70  C   UNL     1      12.974   7.358  14.485  1.00  0.00     0.055 A 
ATOM     71  C   UNL     1      12.269   8.066  16.672  1.00  0.00     0.041 A 
ATOM     72  F   UNL     1      10.368   9.413  16.903  1.00  0.00    -0.206 F 
ATOM     73  C   UNL     1      13.142   7.333  15.872  1.00  0.00     0.022 A 
BRANCH  70  74
ATOM     74  S   UNL     1      13.957   6.254  13.433  1.00  0.00     0.124 S 
ATOM     75  O   UNL     1      12.919   5.426  12.824  1.00  0.00    -0.237 OA
ATOM     76  O   UNL     1      14.634   7.188  12.541  1.00  0.00    -0.237 OA
ATOM     77  O   UNL     1      14.823   5.557  14.382  1.00  0.00    -0.744 OA
ENDBRANCH  70  74
ENDBRANCH  53  67
BRANCH  54  78
ATOM     78  C   UNL     1       3.064  13.397  10.735  1.00  0.00     0.023 A 
ATOM     79  C   UNL     1       3.169  14.426   9.785  1.00  0.00     0.031 A 
ATOM     80  C   UNL     1       1.783  13.079  11.223  1.00  0.00     0.131 A 
ATOM     81  C   UNL     1       2.022  15.132   9.389  1.00  0.00     0.055 A 
ATOM     82  C   UNL     1       0.639  13.749  10.785  1.00  0.00     0.041 A 
ATOM     83  F   UNL     1       1.625  12.107  12.135  1.00  0.00    -0.206 F 
ATOM     84  C   UNL     1       0.757  14.793   9.873  1.00  0.00     0.022 A 
BRANCH  81  85
ATOM     85  S   UNL     1       2.220  16.564   8.292  1.00  0.00     0.124 S 
ATOM     86  O   UNL     1       3.107  17.417   9.075  1.00  0.00    -0.237 OA
ATOM     87  O   UNL     1       2.801  15.954   7.101  1.00  0.00    -0.237 OA
ATOM     88  O   UNL     1       0.855  17.061   8.132  1.00  0.00    -0.744 OA
ENDBRANCH  81  85
ENDBRANCH  54  78
BRANCH  66  89
ATOM     89  C   UNL     1       8.531  15.641  14.439  1.00  0.00     0.023 A 
ATOM     90  C   UNL     1       7.773  16.355  15.384  1.00  0.00     0.031 A 
ATOM     91  C   UNL     1       9.686  16.256  13.922  1.00  0.00     0.131 A 
ATOM     92  C   UNL     1       8.143  17.662  15.736  1.00  0.00     0.055 A 
ATOM     93  C   UNL     1      10.085  17.531  14.324  1.00  0.00     0.041 A 
ATOM     94  F   UNL     1      10.448  15.624  13.014  1.00  0.00    -0.206 F 
ATOM     95  C   UNL     1       9.304  18.248  15.226  1.00  0.00     0.022 A 
BRANCH  92  96
ATOM     96  S   UNL     1       7.030  18.629  16.794  1.00  0.00     0.124 S 
ATOM     97  O   UNL     1       5.789  18.608  16.028  1.00  0.00    -0.237 OA
ATOM     98  O   UNL     1       7.028  17.857  18.033  1.00  0.00    -0.237 OA
ATOM     99  O   UNL     1       7.685  19.933  16.879  1.00  0.00    -0.744 OA
ENDBRANCH  92  96
ENDBRANCH  66  89
ENDBRANCH  40  41
ENDBRANCH  33  35
ENDBRANCH  32  33
ENDBRANCH  31  32
ENDBRANCH  30  31
ENDBRANCH  29  30
ENDBRANCH  28  29
ENDBRANCH   1  28
TORSDOF 25
