REMARK SMILES CCOc1cc(NC(=O)c2c(C(=O)OCCOCCOCCOC(=O)c3ccc(-c4c5nc(c(-c6cc(S(=O)(=O)[O-])ccc6F)c6ccc([nH]6)c(-c6cc(S(=O)(=O)[O-])ccc6F)c6nc(c(-c7cc(S(=O)(=O)[O-])ccc7F)c7ccc4[nH]7)C=C6)C=C5)cc3)cnn2C)ccc1OC(F)F
REMARK SMILES IDX 18 1 17 2 16 3 15 4 14 5 12 6 13 7 11 8 10 9 91 10 89 11
REMARK SMILES IDX 90 12 92 13 8 14 7 15 9 17 6 18 4 19 5 20 95 21 94 22 93 23
REMARK SMILES IDX 3 24 2 25 1 26 96 27 97 28 98 29 99 30 19 31 20 32 21 33
REMARK SMILES IDX 22 34 23 35 24 36 25 37 26 38 27 39 88 40 28 41 87 42 29 43
REMARK SMILES IDX 30 44 31 45 81 46 32 47 86 48 80 49 82 50 33 51 85 52 79 53
REMARK SMILES IDX 78 54 34 56 66 57 46 58 65 59 47 60 50 61 64 62 83 63 48 64
REMARK SMILES IDX 49 65 63 67 84 68 51 69 35 70 36 71 44 72 37 73 43 74 45 75
REMARK SMILES IDX 42 76 38 77 39 78 40 79 41 80 67 81 68 82 76 83 69 84 75 85
REMARK SMILES IDX 77 86 74 87 70 88 71 89 72 90 73 91 52 92 53 93 61 94 54 95
REMARK SMILES IDX 60 96 62 97 59 98 55 99 56 100 57 101 58 102
REMARK H PARENT 7 16 82 55 50 66
REMARK Flexibility Score: inf
ROOT
ATOM      1  C   UNL     1       0.017  -4.545   7.084  1.00  0.00     0.188 C 
ENDROOT
BRANCH   1   2
ATOM      2  O   UNL     1       0.115  -5.327   8.272  1.00  0.00    -0.376 OA
BRANCH   2   3
ATOM      3  C   UNL     1       1.371  -5.836   8.688  1.00  0.00     0.202 C 
BRANCH   3   4
ATOM      4  C   UNL     1       2.048  -6.865   7.780  1.00  0.00     0.261 C 
BRANCH   4   5
ATOM      5  O   UNL     1       2.197  -6.420   6.423  1.00  0.00    -0.460 OA
BRANCH   5   6
ATOM      6  C   UNL     1       1.482  -7.122   5.494  1.00  0.00     0.342 C 
ATOM      7  O   UNL     1       0.811  -8.107   5.745  1.00  0.00    -0.246 OA
BRANCH   6   8
ATOM      8  C   UNL     1       1.494  -6.530   4.164  1.00  0.00     0.111 A 
ATOM      9  C   UNL     1       2.465  -5.779   3.496  1.00  0.00     0.140 A 
ATOM     10  N   UNL     1       2.008  -5.718   2.200  1.00  0.00    -0.262 N 
ATOM     11  C   UNL     1       0.436  -6.649   3.237  1.00  0.00     0.151 A 
ATOM     12  N   UNL     1       0.723  -6.086   2.065  1.00  0.00    -0.180 NA
ATOM     13  C   UNL     1       2.751  -5.453   0.989  1.00  0.00     0.174 C 
BRANCH   9  14
ATOM     14  C   UNL     1       3.770  -5.396   3.958  1.00  0.00     0.274 C 
ATOM     15  N   UNL     1       4.363  -4.197   3.643  1.00  0.00    -0.321 N 
ATOM     16  H   UNL     1       5.311  -4.188   3.909  1.00  0.00     0.170 HD
ATOM     17  O   UNL     1       4.460  -6.168   4.628  1.00  0.00    -0.267 OA
BRANCH  15  18
ATOM     18  C   UNL     1       3.991  -2.977   3.045  1.00  0.00     0.045 A 
ATOM     19  C   UNL     1       2.483  -1.313   2.079  1.00  0.00     0.163 A 
ATOM     20  C   UNL     1       2.704  -2.576   2.680  1.00  0.00     0.076 A 
ATOM     21  C   UNL     1       3.536  -0.404   1.926  1.00  0.00     0.168 A 
ATOM     22  C   UNL     1       4.817  -0.803   2.309  1.00  0.00     0.053 A 
ATOM     23  C   UNL     1       5.043  -2.073   2.843  1.00  0.00     0.030 A 
BRANCH  19  24
ATOM     24  O   UNL     1       1.209  -0.930   1.756  1.00  0.00    -0.490 OA
BRANCH  24  25
ATOM     25  C   UNL     1       0.565  -1.797   0.812  1.00  0.00     0.226 C 
ATOM     26  C   UNL     1      -0.376  -0.968  -0.049  1.00  0.00     0.049 C 
ENDBRANCH  24  25
ENDBRANCH  19  24
BRANCH  21  27
ATOM     27  O   UNL     1       3.495   0.894   1.505  1.00  0.00    -0.431 OA
BRANCH  27  28
ATOM     28  C   UNL     1       2.515   1.298   0.560  1.00  0.00     0.542 C 
ATOM     29  F   UNL     1       2.415   0.383  -0.432  1.00  0.00    -0.167 F 
ATOM     30  F   UNL     1       1.317   1.472   1.154  1.00  0.00    -0.167 F 
ENDBRANCH  27  28
ENDBRANCH  21  27
ENDBRANCH  15  18
ENDBRANCH   9  14
ENDBRANCH   6   8
ENDBRANCH   5   6
ENDBRANCH   4   5
ENDBRANCH   3   4
ENDBRANCH   2   3
ENDBRANCH   1   2
BRANCH   1  31
ATOM     31  C   UNL     1       1.165  -3.606   6.661  1.00  0.00     0.188 C 
BRANCH  31  32
ATOM     32  O   UNL     1       2.049  -3.242   7.712  1.00  0.00    -0.376 OA
BRANCH  32  33
ATOM     33  C   UNL     1       2.013  -1.878   8.106  1.00  0.00     0.202 C 
BRANCH  33  34
ATOM     34  C   UNL     1       0.804  -1.525   8.978  1.00  0.00     0.261 C 
BRANCH  34  35
ATOM     35  O   UNL     1      -0.470  -1.685   8.336  1.00  0.00    -0.460 OA
BRANCH  35  36
ATOM     36  C   UNL     1      -0.726  -0.877   7.280  1.00  0.00     0.338 C 
ATOM     37  O   UNL     1       0.009  -0.024   6.820  1.00  0.00    -0.246 OA
BRANCH  36  38
ATOM     38  C   UNL     1      -1.998  -1.321   6.675  1.00  0.00     0.060 A 
ATOM     39  C   UNL     1      -2.026  -1.670   5.320  1.00  0.00     0.016 A 
ATOM     40  C   UNL     1      -3.158  -1.398   7.452  1.00  0.00     0.016 A 
ATOM     41  C   UNL     1      -3.227  -2.080   4.733  1.00  0.00     0.010 A 
ATOM     42  C   UNL     1      -4.360  -1.791   6.859  1.00  0.00     0.010 A 
ATOM     43  C   UNL     1      -4.407  -2.112   5.492  1.00  0.00    -0.014 A 
BRANCH  43  44
ATOM     44  C   UNL     1      -5.721  -2.313   4.831  1.00  0.00     0.031 A 
ATOM     45  C   UNL     1      -6.512  -1.099   4.425  1.00  0.00     0.074 A 
ATOM     46  C   UNL     1      -6.214  -3.545   4.610  1.00  0.00     0.049 A 
ATOM     47  N   UNL     1      -7.700  -1.021   3.884  1.00  0.00    -0.248 NA
ATOM     48  C   UNL     1      -5.872   0.203   4.671  1.00  0.00     0.031 C 
ATOM     49  C   UNL     1      -5.536  -4.798   4.936  1.00  0.00     0.029 A 
ATOM     50  N   UNL     1      -7.412  -3.942   4.068  1.00  0.00    -0.354 N 
ATOM     51  C   UNL     1      -7.950   0.337   3.718  1.00  0.00     0.074 A 
ATOM     52  C   UNL     1      -6.806   1.044   4.253  1.00  0.00     0.031 C 
ATOM     53  C   UNL     1      -6.335  -5.826   4.596  1.00  0.00     0.029 A 
ATOM     54  C   UNL     1      -7.592  -5.306   4.061  1.00  0.00     0.049 A 
ATOM     55  H   UNL     1      -8.080  -3.309   3.717  1.00  0.00     0.167 HD
ATOM     56  C   UNL     1      -9.031   0.940   3.165  1.00  0.00     0.034 A 
ATOM     57  C   UNL     1      -8.657  -6.044   3.686  1.00  0.00     0.034 A 
ATOM     58  C   UNL     1     -10.180   0.228   2.661  1.00  0.00     0.049 A 
ATOM     59  C   UNL     1      -9.889  -5.347   3.155  1.00  0.00     0.074 A 
ATOM     60  C   UNL     1     -11.322   0.741   2.070  1.00  0.00     0.029 A 
ATOM     61  N   UNL     1     -10.344  -1.150   2.707  1.00  0.00    -0.354 N 
ATOM     62  N   UNL     1     -10.105  -4.063   2.983  1.00  0.00    -0.248 NA
ATOM     63  C   UNL     1     -11.018  -6.203   2.764  1.00  0.00     0.031 C 
ATOM     64  C   UNL     1     -12.201  -0.319   1.819  1.00  0.00     0.029 A 
ATOM     65  C   UNL     1     -11.580  -1.502   2.187  1.00  0.00     0.049 A 
ATOM     66  H   UNL     1      -9.678  -1.786   3.058  1.00  0.00     0.167 HD
ATOM     67  C   UNL     1     -11.382  -3.962   2.435  1.00  0.00     0.074 A 
ATOM     68  C   UNL     1     -11.884  -5.314   2.298  1.00  0.00     0.031 C 
ATOM     69  C   UNL     1     -12.074  -2.853   2.068  1.00  0.00     0.034 A 
BRANCH  56  70
ATOM     70  C   UNL     1      -9.033   2.448   3.131  1.00  0.00     0.023 A 
ATOM     71  C   UNL     1      -8.103   3.170   2.362  1.00  0.00     0.031 A 
ATOM     72  C   UNL     1      -9.950   3.173   3.912  1.00  0.00     0.131 A 
ATOM     73  C   UNL     1      -8.065   4.570   2.444  1.00  0.00     0.055 A 
ATOM     74  C   UNL     1      -9.955   4.569   3.932  1.00  0.00     0.041 A 
ATOM     75  F   UNL     1     -10.845   2.537   4.684  1.00  0.00    -0.206 F 
ATOM     76  C   UNL     1      -9.000   5.276   3.207  1.00  0.00     0.022 A 
BRANCH  73  77
ATOM     77  S   UNL     1      -6.693   5.451   1.649  1.00  0.00     0.124 S 
ATOM     78  O   UNL     1      -5.536   4.862   2.318  1.00  0.00    -0.237 OA
ATOM     79  O   UNL     1      -6.865   5.101   0.244  1.00  0.00    -0.237 OA
ATOM     80  O   UNL     1      -6.948   6.852   1.978  1.00  0.00    -0.744 OA
ENDBRANCH  73  77
ENDBRANCH  56  70
BRANCH  57  81
ATOM     81  C   UNL     1      -8.640  -7.528   3.834  1.00  0.00     0.023 A 
ATOM     82  C   UNL     1      -8.704  -8.372   2.714  1.00  0.00     0.031 A 
ATOM     83  C   UNL     1      -8.627  -8.123   5.109  1.00  0.00     0.131 A 
ATOM     84  C   UNL     1      -8.796  -9.762   2.890  1.00  0.00     0.055 A 
ATOM     85  C   UNL     1      -8.669  -9.508   5.277  1.00  0.00     0.041 A 
ATOM     86  F   UNL     1      -8.572  -7.361   6.212  1.00  0.00    -0.206 F 
ATOM     87  C   UNL     1      -8.767 -10.336   4.163  1.00  0.00     0.022 A 
BRANCH  84  88
ATOM     88  S   UNL     1      -9.038 -10.811   1.429  1.00  0.00     0.124 S 
ATOM     89  O   UNL     1     -10.290 -10.290   0.892  1.00  0.00    -0.237 OA
ATOM     90  O   UNL     1      -7.838 -10.527   0.649  1.00  0.00    -0.237 OA
ATOM     91  O   UNL     1      -9.111 -12.161   1.986  1.00  0.00    -0.744 OA
ENDBRANCH  84  88
ENDBRANCH  57  81
BRANCH  69  92
ATOM     92  C   UNL     1     -13.430  -3.064   1.437  1.00  0.00     0.023 A 
ATOM     93  C   UNL     1     -14.523  -3.555   2.172  1.00  0.00     0.031 A 
ATOM     94  C   UNL     1     -13.625  -2.771   0.076  1.00  0.00     0.131 A 
ATOM     95  C   UNL     1     -15.751  -3.782   1.530  1.00  0.00     0.055 A 
ATOM     96  C   UNL     1     -14.863  -2.949  -0.545  1.00  0.00     0.041 A 
ATOM     97  F   UNL     1     -12.616  -2.300  -0.673  1.00  0.00    -0.206 F 
ATOM     98  C   UNL     1     -15.931  -3.468   0.180  1.00  0.00     0.022 A 
BRANCH  95  99
ATOM     99  S   UNL     1     -17.094  -4.568   2.463  1.00  0.00     0.124 S 
ATOM    100  O   UNL     1     -16.488  -5.834   2.862  1.00  0.00    -0.237 OA
ATOM    101  O   UNL     1     -17.332  -3.608   3.536  1.00  0.00    -0.237 OA
ATOM    102  O   UNL     1     -18.174  -4.680   1.483  1.00  0.00    -0.744 OA
ENDBRANCH  95  99
ENDBRANCH  69  92
ENDBRANCH  43  44
ENDBRANCH  36  38
ENDBRANCH  35  36
ENDBRANCH  34  35
ENDBRANCH  33  34
ENDBRANCH  32  33
ENDBRANCH  31  32
ENDBRANCH   1  31
TORSDOF 26
