REMARK SMILES O=C(OCCOCCOCCOC(=O)c1cccc(N2C(=O)C[C@H]([NH+]3CCOCC3)C2=O)c1)c1ccc(-c2c3nc(c(-c4cc(S(=O)(=O)[O-])ccc4F)c4ccc([nH]4)c(-c4cc(S(=O)(=O)[O-])ccc4F)c4nc(c(-c5cc(S(=O)(=O)[O-])ccc5F)c5ccc2[nH]5)C=C4)C=C3)cc1
REMARK SMILES IDX 7 1 6 2 5 3 4 4 3 5 2 6 1 7 34 8 35 9 96 10 36 11 95 12
REMARK SMILES IDX 37 13 38 14 39 15 89 16 40 17 94 18 88 19 90 20 41 21 93 22
REMARK SMILES IDX 87 23 86 24 42 26 74 27 54 28 73 29 55 30 58 31 72 32 91 33
REMARK SMILES IDX 56 34 57 35 71 37 92 38 59 39 43 40 44 41 52 42 45 43 51 44
REMARK SMILES IDX 53 45 50 46 46 47 47 48 48 49 49 50 75 51 76 52 84 53 77 54
REMARK SMILES IDX 83 55 85 56 82 57 78 58 79 59 80 60 81 61 60 62 61 63 69 64
REMARK SMILES IDX 62 65 68 66 70 67 67 68 63 69 64 70 65 71 66 72 8 73 9 74
REMARK SMILES IDX 10 75 11 76 12 77 13 78 14 79 15 80 16 81 33 82 17 83 19 84
REMARK SMILES IDX 18 85 20 86 21 87 31 88 22 89 23 90 24 91 32 92 25 93 26 94
REMARK SMILES IDX 30 95 27 97 29 98 28 99
REMARK H PARENT 90 25 58 36 25 96
REMARK Flexibility Score: inf
ROOT
ATOM      1  C   UNL     1       2.590   1.734  -0.906  1.00  0.00     0.188 C 
ENDROOT
BRANCH   1   2
ATOM      2  O   UNL     1       3.901   1.646  -0.354  1.00  0.00    -0.376 OA
BRANCH   2   3
ATOM      3  C   UNL     1       4.797   0.773  -1.051  1.00  0.00     0.202 C 
BRANCH   3   4
ATOM      4  C   UNL     1       4.403  -0.715  -1.138  1.00  0.00     0.261 C 
BRANCH   4   5
ATOM      5  O   UNL     1       3.011  -0.993  -0.887  1.00  0.00    -0.460 OA
BRANCH   5   6
ATOM      6  C   UNL     1       2.397  -1.306   0.283  1.00  0.00     0.338 C 
ATOM      7  O   UNL     1       1.204  -1.606   0.262  1.00  0.00    -0.246 OA
BRANCH   6   8
ATOM      8  C   UNL     1       3.090  -1.283   1.602  1.00  0.00     0.060 A 
ATOM      9  C   UNL     1       4.156  -0.445   1.911  1.00  0.00     0.016 A 
ATOM     10  C   UNL     1       2.582  -2.099   2.625  1.00  0.00     0.016 A 
ATOM     11  C   UNL     1       4.808  -0.510   3.131  1.00  0.00     0.010 A 
ATOM     12  C   UNL     1       3.189  -2.123   3.887  1.00  0.00     0.010 A 
ATOM     13  C   UNL     1       4.343  -1.364   4.124  1.00  0.00    -0.014 A 
BRANCH  13  14
ATOM     14  C   UNL     1       5.201  -1.559   5.312  1.00  0.00     0.031 A 
ATOM     15  C   UNL     1       5.918  -2.872   5.460  1.00  0.00     0.074 A 
ATOM     16  C   UNL     1       5.451  -0.537   6.152  1.00  0.00     0.049 A 
ATOM     17  N   UNL     1       6.681  -3.296   6.431  1.00  0.00    -0.248 NA
ATOM     18  C   UNL     1       5.754  -3.836   4.358  1.00  0.00     0.031 C 
ATOM     19  C   UNL     1       4.881   0.811   6.054  1.00  0.00     0.029 A 
ATOM     20  N   UNL     1       6.264  -0.470   7.252  1.00  0.00    -0.354 N 
ATOM     21  C   UNL     1       7.072  -4.580   6.068  1.00  0.00     0.074 A 
ATOM     22  C   UNL     1       6.431  -4.879   4.807  1.00  0.00     0.031 C 
ATOM     23  C   UNL     1       5.351   1.558   7.069  1.00  0.00     0.029 A 
ATOM     24  C   UNL     1       6.212   0.741   7.904  1.00  0.00     0.049 A 
ATOM     25  H   UNL     1       6.833  -1.217   7.548  1.00  0.00     0.167 HD
ATOM     26  C   UNL     1       7.898  -5.427   6.727  1.00  0.00     0.034 A 
ATOM     27  C   UNL     1       6.763   1.111   9.072  1.00  0.00     0.034 A 
ATOM     28  C   UNL     1       8.521  -5.111   7.985  1.00  0.00     0.049 A 
ATOM     29  C   UNL     1       7.581   0.101   9.826  1.00  0.00     0.074 A 
ATOM     30  C   UNL     1       9.333  -5.904   8.775  1.00  0.00     0.029 A 
ATOM     31  N   UNL     1       8.396  -3.893   8.638  1.00  0.00    -0.354 N 
ATOM     32  N   UNL     1       7.896  -1.129   9.498  1.00  0.00    -0.248 NA
ATOM     33  C   UNL     1       8.118   0.546  11.117  1.00  0.00     0.031 C 
ATOM     34  C   UNL     1       9.646  -5.190   9.936  1.00  0.00     0.029 A 
ATOM     35  C   UNL     1       9.095  -3.926   9.832  1.00  0.00     0.049 A 
ATOM     36  H   UNL     1       7.886  -3.121   8.302  1.00  0.00     0.167 HD
ATOM     37  C   UNL     1       8.677  -1.594  10.548  1.00  0.00     0.074 A 
ATOM     38  C   UNL     1       8.834  -0.500  11.479  1.00  0.00     0.031 C 
ATOM     39  C   UNL     1       9.207  -2.824  10.746  1.00  0.00     0.034 A 
BRANCH  26  40
ATOM     40  C   UNL     1       8.102  -6.790   6.124  1.00  0.00     0.023 A 
ATOM     41  C   UNL     1       8.732  -6.961   4.880  1.00  0.00     0.031 A 
ATOM     42  C   UNL     1       7.599  -7.930   6.774  1.00  0.00     0.131 A 
ATOM     43  C   UNL     1       8.770  -8.231   4.288  1.00  0.00     0.055 A 
ATOM     44  C   UNL     1       7.720  -9.204   6.221  1.00  0.00     0.041 A 
ATOM     45  F   UNL     1       6.960  -7.820   7.950  1.00  0.00    -0.206 F 
ATOM     46  C   UNL     1       8.294  -9.358   4.962  1.00  0.00     0.022 A 
BRANCH  43  47
ATOM     47  S   UNL     1       9.301  -8.361   2.559  1.00  0.00     0.124 S 
ATOM     48  O   UNL     1       8.305  -7.534   1.883  1.00  0.00    -0.237 OA
ATOM     49  O   UNL     1      10.655  -7.821   2.601  1.00  0.00    -0.237 OA
ATOM     50  O   UNL     1       9.208  -9.793   2.279  1.00  0.00    -0.744 OA
ENDBRANCH  43  47
ENDBRANCH  26  40
BRANCH  27  51
ATOM     51  C   UNL     1       6.482   2.400   9.759  1.00  0.00     0.023 A 
ATOM     52  C   UNL     1       7.513   3.330   9.981  1.00  0.00     0.031 A 
ATOM     53  C   UNL     1       5.296   2.513  10.504  1.00  0.00     0.131 A 
ATOM     54  C   UNL     1       7.383   4.256  11.027  1.00  0.00     0.055 A 
ATOM     55  C   UNL     1       5.146   3.485  11.491  1.00  0.00     0.041 A 
ATOM     56  F   UNL     1       4.314   1.611  10.352  1.00  0.00    -0.206 F 
ATOM     57  C   UNL     1       6.204   4.343  11.778  1.00  0.00     0.022 A 
BRANCH  54  58
ATOM     58  S   UNL     1       8.747   5.399  11.405  1.00  0.00     0.124 S 
ATOM     59  O   UNL     1       9.490   4.659  12.415  1.00  0.00    -0.237 OA
ATOM     60  O   UNL     1       9.407   5.558  10.112  1.00  0.00    -0.237 OA
ATOM     61  O   UNL     1       8.043   6.592  11.879  1.00  0.00    -0.744 OA
ENDBRANCH  54  58
ENDBRANCH  27  51
BRANCH  39  62
ATOM     62  C   UNL     1      10.024  -2.984  11.996  1.00  0.00     0.023 A 
ATOM     63  C   UNL     1       9.437  -2.872  13.269  1.00  0.00     0.031 A 
ATOM     64  C   UNL     1      11.417  -3.122  11.908  1.00  0.00     0.131 A 
ATOM     65  C   UNL     1      10.256  -2.797  14.401  1.00  0.00     0.055 A 
ATOM     66  C   UNL     1      12.219  -3.136  13.047  1.00  0.00     0.041 A 
ATOM     67  F   UNL     1      12.022  -3.212  10.713  1.00  0.00    -0.206 F 
ATOM     68  C   UNL     1      11.641  -2.950  14.301  1.00  0.00     0.022 A 
BRANCH  65  69
ATOM     69  S   UNL     1       9.498  -2.339  15.983  1.00  0.00     0.124 S 
ATOM     70  O   UNL     1       8.972  -1.010  15.691  1.00  0.00    -0.237 OA
ATOM     71  O   UNL     1       8.504  -3.391  16.171  1.00  0.00    -0.237 OA
ATOM     72  O   UNL     1      10.619  -2.373  16.921  1.00  0.00    -0.744 OA
ENDBRANCH  65  69
ENDBRANCH  39  62
ENDBRANCH  13  14
ENDBRANCH   6   8
ENDBRANCH   5   6
ENDBRANCH   4   5
ENDBRANCH   3   4
ENDBRANCH   2   3
ENDBRANCH   1   2
BRANCH   1  73
ATOM     73  C   UNL     1       1.964   3.123  -0.811  1.00  0.00     0.188 C 
BRANCH  73  74
ATOM     74  O   UNL     1       2.647   4.198  -1.445  1.00  0.00    -0.376 OA
BRANCH  74  75
ATOM     75  C   UNL     1       4.028   4.369  -1.148  1.00  0.00     0.202 C 
BRANCH  75  76
ATOM     76  C   UNL     1       4.442   4.757   0.281  1.00  0.00     0.261 C 
BRANCH  76  77
ATOM     77  O   UNL     1       3.876   3.974   1.342  1.00  0.00    -0.460 OA
BRANCH  77  78
ATOM     78  C   UNL     1       2.808   4.555   1.938  1.00  0.00     0.338 C 
ATOM     79  O   UNL     1       2.236   5.577   1.604  1.00  0.00    -0.246 OA
BRANCH  78  80
ATOM     80  C   UNL     1       2.465   3.842   3.172  1.00  0.00     0.062 A 
ATOM     81  C   UNL     1       1.579   2.768   3.232  1.00  0.00     0.016 A 
ATOM     82  C   UNL     1       2.904   4.458   4.332  1.00  0.00     0.042 A 
ATOM     83  C   UNL     1       1.169   2.296   4.487  1.00  0.00     0.003 A 
ATOM     84  C   UNL     1       2.438   4.046   5.580  1.00  0.00     0.053 A 
ATOM     85  C   UNL     1       1.611   2.922   5.664  1.00  0.00     0.027 A 
BRANCH  84  86
ATOM     86  N   UNL     1       2.767   4.856   6.680  1.00  0.00    -0.245 N 
ATOM     87  C   UNL     1       2.713   6.228   6.617  1.00  0.00     0.240 C 
ATOM     88  C   UNL     1       3.116   4.431   7.936  1.00  0.00     0.292 C 
ATOM     89  O   UNL     1       2.351   6.936   5.685  1.00  0.00    -0.274 OA
ATOM     90  C   UNL     1       3.047   6.782   7.957  1.00  0.00     0.176 C 
ATOM     91  C   UNL     1       3.763   5.633   8.630  1.00  0.00     0.284 C 
ATOM     92  O   UNL     1       2.947   3.325   8.421  1.00  0.00    -0.267 OA
BRANCH  91  93
ATOM     93  N   UNL     1       5.232   5.631   8.550  1.00  0.00    -0.320 N 
ATOM     94  C   UNL     1       5.890   6.697   9.335  1.00  0.00     0.291 C 
ATOM     95  C   UNL     1       5.947   5.484   7.278  1.00  0.00     0.291 C 
ATOM     96  H   UNL     1       5.330   4.707   8.970  1.00  0.00     0.348 HD
ATOM     97  C   UNL     1       6.211   7.999   8.591  1.00  0.00     0.221 C 
ATOM     98  C   UNL     1       6.234   6.800   6.538  1.00  0.00     0.221 C 
ATOM     99  O   UNL     1       6.888   7.773   7.351  1.00  0.00    -0.370 OA
ENDBRANCH  91  93
ENDBRANCH  84  86
ENDBRANCH  78  80
ENDBRANCH  77  78
ENDBRANCH  76  77
ENDBRANCH  75  76
ENDBRANCH  74  75
ENDBRANCH  73  74
ENDBRANCH   1  73
TORSDOF 22
