REMARK SMILES Cc1ccc(O[C@H](C)C(=O)NNC(=O)[C@@H]2[C@@H](C(=O)OCCOCCOCCOC(=O)c3ccc(-c4c5nc(c(-c6cc(S(=O)(=O)[O-])ccc6F)c6ccc([nH]6)c(-c6cc(S(=O)(=O)[O-])ccc6F)c6nc(c(-c7cc(S(=O)(=O)[O-])ccc7F)c7ccc4[nH]7)C=C6)C=C5)cc3)[C@@H]3C=C[C@H]2C3)cc1C
REMARK SMILES IDX 23 1 22 2 21 3 20 4 19 5 17 6 18 7 16 8 15 9 97 10 94 11
REMARK SMILES IDX 96 12 98 13 95 14 13 15 12 16 14 18 11 19 9 20 10 21 7 23
REMARK SMILES IDX 8 24 6 25 5 26 1 27 2 28 3 29 100 30 4 31 99 32 101 33 24 34
REMARK SMILES IDX 25 35 26 36 27 37 28 38 29 39 30 40 31 41 32 42 93 43 33 44
REMARK SMILES IDX 92 45 34 46 35 47 36 48 86 49 37 50 91 51 85 52 87 53 38 54
REMARK SMILES IDX 90 55 84 56 83 57 39 59 71 60 51 61 70 62 52 63 55 64 69 65
REMARK SMILES IDX 88 66 53 67 54 68 68 70 89 71 56 72 40 73 41 74 49 75 42 76
REMARK SMILES IDX 48 77 50 78 47 79 43 80 44 81 45 82 46 83 72 84 73 85 81 86
REMARK SMILES IDX 74 87 80 88 82 89 79 90 75 91 76 92 77 93 78 94 57 95 58 96
REMARK SMILES IDX 66 97 59 98 65 99 67 100 64 101 60 102 61 103 62 104 63 105
REMARK H PARENT 12 17 11 22 87 58 55 69
REMARK Flexibility Score: inf
ROOT
ATOM      1  C   UNL     1       0.422   6.398  -3.822  1.00  0.00     0.188 C 
ENDROOT
BRANCH   1   2
ATOM      2  O   UNL     1       1.493   7.219  -3.377  1.00  0.00    -0.376 OA
BRANCH   2   3
ATOM      3  C   UNL     1       2.229   6.728  -2.259  1.00  0.00     0.202 C 
BRANCH   3   4
ATOM      4  C   UNL     1       1.451   6.498  -0.950  1.00  0.00     0.261 C 
BRANCH   4   5
ATOM      5  O   UNL     1       0.364   5.538  -1.013  1.00  0.00    -0.463 OA
BRANCH   5   6
ATOM      6  C   UNL     1      -0.861   6.025  -0.670  1.00  0.00     0.310 C 
ATOM      7  O   UNL     1      -1.065   7.196  -0.360  1.00  0.00    -0.252 OA
BRANCH   6   8
ATOM      8  C   UNL     1      -1.992   5.010  -0.655  1.00  0.00     0.119 C 
ATOM      9  C   UNL     1      -1.816   3.602  -1.347  1.00  0.00     0.102 C 
ATOM     10  C   UNL     1      -3.032   3.571  -2.314  1.00  0.00     0.025 C 
ATOM     11  C   UNL     1      -3.218   5.601  -1.410  1.00  0.00     0.027 C 
ATOM     12  C   UNL     1      -4.328   3.595  -1.538  1.00  0.00    -0.027 C 
ATOM     13  C   UNL     1      -3.056   5.015  -2.812  1.00  0.00     0.017 C 
ATOM     14  C   UNL     1      -4.436   4.813  -0.988  1.00  0.00    -0.027 C 
BRANCH   9  15
ATOM     15  C   UNL     1      -1.701   2.526  -0.260  1.00  0.00     0.242 C 
ATOM     16  N   UNL     1      -2.165   1.245  -0.399  1.00  0.00    -0.267 N 
ATOM     17  H   UNL     1      -1.927   0.612   0.316  1.00  0.00     0.191 HD
ATOM     18  O   UNL     1      -1.078   2.772   0.781  1.00  0.00    -0.273 OA
BRANCH  16  19
ATOM     19  N   UNL     1      -2.930   0.746  -1.437  1.00  0.00    -0.264 N 
ATOM     20  C   UNL     1      -3.956  -0.158  -1.282  1.00  0.00     0.279 C 
ATOM     21  O   UNL     1      -4.724  -0.354  -2.227  1.00  0.00    -0.269 OA
ATOM     22  H   UNL     1      -2.728   1.058  -2.348  1.00  0.00     0.191 HD
BRANCH  20  23
ATOM     23  C   UNL     1      -4.046  -1.011  -0.003  1.00  0.00     0.260 C 
ATOM     24  C   UNL     1      -2.818  -1.932   0.027  1.00  0.00     0.064 C 
BRANCH  23  25
ATOM     25  O   UNL     1      -4.144  -0.209   1.173  1.00  0.00    -0.481 OA
BRANCH  25  26
ATOM     26  C   UNL     1      -4.470  -0.821   2.356  1.00  0.00     0.120 A 
ATOM     27  C   UNL     1      -5.141  -2.484   6.301  1.00  0.00     0.044 C 
ATOM     28  C   UNL     1      -4.939  -1.863   4.946  1.00  0.00    -0.048 A 
ATOM     29  C   UNL     1      -4.984  -2.687   3.812  1.00  0.00     0.007 A 
ATOM     30  C   UNL     1      -4.705  -0.487   4.775  1.00  0.00    -0.045 A 
ATOM     31  C   UNL     1      -4.767  -2.169   2.532  1.00  0.00     0.047 A 
ATOM     32  C   UNL     1      -4.469   0.014   3.477  1.00  0.00     0.050 A 
ATOM     33  C   UNL     1      -4.699   0.492   5.918  1.00  0.00     0.045 C 
ENDBRANCH  25  26
ENDBRANCH  23  25
ENDBRANCH  20  23
ENDBRANCH  16  19
ENDBRANCH   9  15
ENDBRANCH   6   8
ENDBRANCH   5   6
ENDBRANCH   4   5
ENDBRANCH   3   4
ENDBRANCH   2   3
ENDBRANCH   1   2
BRANCH   1  34
ATOM     34  C   UNL     1       0.814   5.005  -4.319  1.00  0.00     0.188 C 
BRANCH  34  35
ATOM     35  O   UNL     1       1.688   4.282  -3.464  1.00  0.00    -0.376 OA
BRANCH  35  36
ATOM     36  C   UNL     1       2.090   2.981  -3.897  1.00  0.00     0.202 C 
BRANCH  36  37
ATOM     37  C   UNL     1       2.587   2.834  -5.350  1.00  0.00     0.261 C 
BRANCH  37  38
ATOM     38  O   UNL     1       1.653   3.203  -6.386  1.00  0.00    -0.460 OA
BRANCH  38  39
ATOM     39  C   UNL     1       0.400   2.691  -6.332  1.00  0.00     0.338 C 
ATOM     40  O   UNL     1       0.023   1.785  -5.607  1.00  0.00    -0.246 OA
BRANCH  39  41
ATOM     41  C   UNL     1      -0.513   3.600  -7.080  1.00  0.00     0.060 A 
ATOM     42  C   UNL     1      -1.793   3.829  -6.553  1.00  0.00     0.016 A 
ATOM     43  C   UNL     1      -0.111   4.276  -8.237  1.00  0.00     0.016 A 
ATOM     44  C   UNL     1      -2.683   4.694  -7.197  1.00  0.00     0.010 A 
ATOM     45  C   UNL     1      -1.009   5.130  -8.891  1.00  0.00     0.010 A 
ATOM     46  C   UNL     1      -2.312   5.318  -8.395  1.00  0.00    -0.014 A 
BRANCH  46  47
ATOM     47  C   UNL     1      -3.347   5.964  -9.248  1.00  0.00     0.031 A 
ATOM     48  C   UNL     1      -3.907   5.163 -10.396  1.00  0.00     0.074 A 
ATOM     49  C   UNL     1      -3.813   7.205  -9.011  1.00  0.00     0.049 A 
ATOM     50  N   UNL     1      -4.735   5.523 -11.342  1.00  0.00    -0.248 NA
ATOM     51  C   UNL     1      -3.463   3.764 -10.482  1.00  0.00     0.031 C 
ATOM     52  C   UNL     1      -3.421   8.057  -7.891  1.00  0.00     0.029 A 
ATOM     53  N   UNL     1      -4.721   7.965  -9.709  1.00  0.00    -0.354 N 
ATOM     54  C   UNL     1      -4.902   4.398 -12.144  1.00  0.00     0.074 A 
ATOM     55  C   UNL     1      -4.061   3.358 -11.590  1.00  0.00     0.031 C 
ATOM     56  C   UNL     1      -4.078   9.228  -7.984  1.00  0.00     0.029 A 
ATOM     57  C   UNL     1      -4.898   9.231  -9.197  1.00  0.00     0.049 A 
ATOM     58  H   UNL     1      -5.201   7.635 -10.503  1.00  0.00     0.167 HD
ATOM     59  C   UNL     1      -5.687   4.242 -13.238  1.00  0.00     0.034 A 
ATOM     60  C   UNL     1      -5.609  10.278  -9.670  1.00  0.00     0.034 A 
ATOM     61  C   UNL     1      -6.513   5.287 -13.789  1.00  0.00     0.049 A 
ATOM     62  C   UNL     1      -6.386  10.121 -10.961  1.00  0.00     0.074 A 
ATOM     63  C   UNL     1      -7.336   5.239 -14.901  1.00  0.00     0.029 A 
ATOM     64  N   UNL     1      -6.617   6.574 -13.276  1.00  0.00    -0.354 N 
ATOM     65  N   UNL     1      -6.512   9.063 -11.729  1.00  0.00    -0.248 NA
ATOM     66  C   UNL     1      -7.115  11.301 -11.449  1.00  0.00     0.031 C 
ATOM     67  C   UNL     1      -7.873   6.513 -15.106  1.00  0.00     0.029 A 
ATOM     68  C   UNL     1      -7.461   7.336 -14.069  1.00  0.00     0.049 A 
ATOM     69  H   UNL     1      -6.157   6.898 -12.468  1.00  0.00     0.167 HD
ATOM     70  C   UNL     1      -7.367   9.442 -12.765  1.00  0.00     0.074 A 
ATOM     71  C   UNL     1      -7.728  10.821 -12.521  1.00  0.00     0.031 C 
ATOM     72  C   UNL     1      -7.819   8.712 -13.817  1.00  0.00     0.034 A 
BRANCH  59  73
ATOM     73  C   UNL     1      -5.627   2.910 -13.945  1.00  0.00     0.023 A 
ATOM     74  C   UNL     1      -6.041   1.718 -13.324  1.00  0.00     0.031 A 
ATOM     75  C   UNL     1      -5.101   2.825 -15.247  1.00  0.00     0.131 A 
ATOM     76  C   UNL     1      -5.849   0.489 -13.972  1.00  0.00     0.055 A 
ATOM     77  C   UNL     1      -4.996   1.608 -15.921  1.00  0.00     0.041 A 
ATOM     78  F   UNL     1      -4.663   3.925 -15.880  1.00  0.00    -0.206 F 
ATOM     79  C   UNL     1      -5.356   0.428 -15.278  1.00  0.00     0.022 A 
BRANCH  76  80
ATOM     80  S   UNL     1      -6.101  -1.038 -13.026  1.00  0.00     0.124 S 
ATOM     81  O   UNL     1      -5.161  -0.857 -11.921  1.00  0.00    -0.237 OA
ATOM     82  O   UNL     1      -7.515  -0.966 -12.681  1.00  0.00    -0.237 OA
ATOM     83  O   UNL     1      -5.741  -2.091 -13.973  1.00  0.00    -0.744 OA
ENDBRANCH  76  80
ENDBRANCH  59  73
BRANCH  60  84
ATOM     84  C   UNL     1      -5.581  11.599  -8.970  1.00  0.00     0.023 A 
ATOM     85  C   UNL     1      -6.754  12.184  -8.464  1.00  0.00     0.031 A 
ATOM     86  C   UNL     1      -4.387  12.336  -8.873  1.00  0.00     0.131 A 
ATOM     87  C   UNL     1      -6.716  13.485  -7.932  1.00  0.00     0.055 A 
ATOM     88  C   UNL     1      -4.343  13.603  -8.287  1.00  0.00     0.041 A 
ATOM     89  F   UNL     1      -3.237  11.834  -9.352  1.00  0.00    -0.206 F 
ATOM     90  C   UNL     1      -5.516  14.190  -7.825  1.00  0.00     0.022 A 
BRANCH  87  91
ATOM     91  S   UNL     1      -8.280  14.286  -7.476  1.00  0.00     0.124 S 
ATOM     92  O   UNL     1      -9.004  14.264  -8.742  1.00  0.00    -0.237 OA
ATOM     93  O   UNL     1      -8.783  13.399  -6.432  1.00  0.00    -0.237 OA
ATOM     94  O   UNL     1      -7.863  15.610  -7.018  1.00  0.00    -0.744 OA
ENDBRANCH  87  91
ENDBRANCH  60  84
BRANCH  72  95
ATOM     95  C   UNL     1      -8.813   9.367 -14.749  1.00  0.00     0.023 A 
ATOM     96  C   UNL     1      -8.466  10.449 -15.577  1.00  0.00     0.031 A 
ATOM     97  C   UNL     1     -10.133   8.882 -14.818  1.00  0.00     0.131 A 
ATOM     98  C   UNL     1      -9.438  11.039 -16.402  1.00  0.00     0.055 A 
ATOM     99  C   UNL     1     -11.078   9.433 -15.684  1.00  0.00     0.041 A 
ATOM    100  F   UNL     1     -10.523   7.852 -14.050  1.00  0.00    -0.206 F 
ATOM    101  C   UNL     1     -10.735  10.525 -16.475  1.00  0.00     0.022 A 
BRANCH  98 102
ATOM    102  S   UNL     1      -9.008  12.541 -17.324  1.00  0.00     0.124 S 
ATOM    103  O   UNL     1      -8.617  13.453 -16.254  1.00  0.00    -0.237 OA
ATOM    104  O   UNL     1      -7.931  12.078 -18.193  1.00  0.00    -0.237 OA
ATOM    105  O   UNL     1     -10.251  12.890 -18.011  1.00  0.00    -0.744 OA
ENDBRANCH  98 102
ENDBRANCH  72  95
ENDBRANCH  46  47
ENDBRANCH  39  41
ENDBRANCH  38  39
ENDBRANCH  37  38
ENDBRANCH  36  37
ENDBRANCH  35  36
ENDBRANCH  34  35
ENDBRANCH   1  34
TORSDOF 25
