REMARK SMILES Cc1nc(-c2cccc(N3C[C@H](C(=O)OCCOCCOCCOC(=O)c4ccc(-c5c6nc(c(-c7cc(S(=O)(=O)[O-])ccc7F)c7ccc([nH]7)c(-c7cc(S(=O)(=O)[O-])ccc7F)c7nc(c(-c8cc(S(=O)(=O)[O-])ccc8F)c8ccc5[nH]8)C=C7)C=C6)cc4)CC3=O)c2)no1
REMARK SMILES IDX 20 1 19 2 18 3 17 4 16 5 15 6 13 7 14 8 12 9 10 10 11 11
REMARK SMILES IDX 91 12 90 13 92 14 9 15 5 16 6 17 93 18 7 19 8 20 4 21 1 22
REMARK SMILES IDX 2 23 3 24 95 25 94 26 21 27 22 28 23 29 24 30 25 31 26 32
REMARK SMILES IDX 27 33 28 34 89 35 29 36 88 37 30 38 31 39 32 40 82 41 33 42
REMARK SMILES IDX 87 43 81 44 83 45 34 46 86 47 80 48 79 49 35 51 67 52 47 53
REMARK SMILES IDX 66 54 48 55 51 56 65 57 84 58 49 59 50 60 64 62 85 63 52 64
REMARK SMILES IDX 36 65 37 66 45 67 38 68 44 69 46 70 43 71 39 72 40 73 41 74
REMARK SMILES IDX 42 75 68 76 69 77 77 78 70 79 76 80 78 81 75 82 71 83 72 84
REMARK SMILES IDX 73 85 74 86 53 87 54 88 62 89 55 90 61 91 63 92 60 93 56 94
REMARK SMILES IDX 57 95 58 96 59 97
REMARK H PARENT 83 50 51 61
REMARK Flexibility Score: inf
ROOT
ATOM      1  C   UNL     1       6.282   6.710   5.995  1.00  0.00     0.188 C 
ENDROOT
BRANCH   1   2
ATOM      2  C   UNL     1       7.154   5.542   5.478  1.00  0.00     0.188 C 
BRANCH   2   3
ATOM      3  O   UNL     1       8.521   5.778   5.242  1.00  0.00    -0.376 OA
BRANCH   3   4
ATOM      4  C   UNL     1       8.934   6.631   4.192  1.00  0.00     0.202 C 
BRANCH   4   5
ATOM      5  C   UNL     1       8.058   7.069   3.006  1.00  0.00     0.261 C 
BRANCH   5   6
ATOM      6  O   UNL     1       6.637   7.046   3.179  1.00  0.00    -0.463 OA
BRANCH   6   7
ATOM      7  C   UNL     1       5.982   6.058   2.510  1.00  0.00     0.311 C 
ATOM      8  O   UNL     1       6.535   5.215   1.818  1.00  0.00    -0.252 OA
BRANCH   7   9
ATOM      9  C   UNL     1       4.480   6.158   2.719  1.00  0.00     0.128 C 
ATOM     10  N   UNL     1       3.647   4.218   1.779  1.00  0.00    -0.312 N 
ATOM     11  C   UNL     1       3.807   5.614   1.478  1.00  0.00     0.141 C 
ATOM     12  C   UNL     1       3.631   3.965   3.143  1.00  0.00     0.227 C 
ATOM     13  C   UNL     1       3.916   5.269   3.831  1.00  0.00     0.117 C 
ATOM     14  O   UNL     1       3.461   2.910   3.737  1.00  0.00    -0.274 OA
BRANCH  10  15
ATOM     15  C   UNL     1       3.574   3.227   0.799  1.00  0.00     0.044 A 
ATOM     16  C   UNL     1       2.425   1.332  -0.157  1.00  0.00     0.025 A 
ATOM     17  C   UNL     1       3.424   1.228  -1.134  1.00  0.00     0.012 A 
ATOM     18  C   UNL     1       2.530   2.309   0.835  1.00  0.00     0.038 A 
ATOM     19  C   UNL     1       4.488   2.130  -1.151  1.00  0.00     0.003 A 
ATOM     20  C   UNL     1       4.548   3.148  -0.201  1.00  0.00     0.026 A 
BRANCH  16  21
ATOM     21  C   UNL     1       1.245   0.491  -0.188  1.00  0.00     0.202 A 
ATOM     22  C   UNL     1      -2.233  -0.160   0.079  1.00  0.00     0.114 C 
ATOM     23  C   UNL     1      -0.773  -0.046  -0.053  1.00  0.00     0.223 A 
ATOM     24  N   UNL     1       0.002   0.993   0.145  1.00  0.00    -0.191 NA
ATOM     25  O   UNL     1      -0.106  -1.150  -0.490  1.00  0.00    -0.339 OA
ATOM     26  N   UNL     1       1.231  -0.777  -0.616  1.00  0.00    -0.057 NA
ENDBRANCH  16  21
ENDBRANCH  10  15
ENDBRANCH   7   9
ENDBRANCH   6   7
ENDBRANCH   5   6
ENDBRANCH   4   5
ENDBRANCH   3   4
ENDBRANCH   2   3
ENDBRANCH   1   2
BRANCH   1  27
ATOM     27  O   UNL     1       6.860   7.978   6.214  1.00  0.00    -0.376 OA
BRANCH  27  28
ATOM     28  C   UNL     1       7.917   8.114   7.144  1.00  0.00     0.202 C 
BRANCH  28  29
ATOM     29  C   UNL     1       8.059   7.257   8.415  1.00  0.00     0.261 C 
BRANCH  29  30
ATOM     30  O   UNL     1       7.684   5.876   8.335  1.00  0.00    -0.460 OA
BRANCH  30  31
ATOM     31  C   UNL     1       6.545   5.542   8.998  1.00  0.00     0.338 C 
ATOM     32  O   UNL     1       5.809   6.300   9.605  1.00  0.00    -0.246 OA
BRANCH  31  33
ATOM     33  C   UNL     1       6.209   4.126   8.736  1.00  0.00     0.060 A 
ATOM     34  C   UNL     1       5.039   3.827   8.022  1.00  0.00     0.016 A 
ATOM     35  C   UNL     1       7.010   3.100   9.237  1.00  0.00     0.016 A 
ATOM     36  C   UNL     1       4.654   2.498   7.828  1.00  0.00     0.010 A 
ATOM     37  C   UNL     1       6.609   1.770   9.062  1.00  0.00     0.010 A 
ATOM     38  C   UNL     1       5.414   1.460   8.383  1.00  0.00    -0.014 A 
BRANCH  38  39
ATOM     39  C   UNL     1       4.882   0.071   8.408  1.00  0.00     0.031 A 
ATOM     40  C   UNL     1       4.268  -0.443   9.684  1.00  0.00     0.074 A 
ATOM     41  C   UNL     1       4.928  -0.722   7.322  1.00  0.00     0.049 A 
ATOM     42  N   UNL     1       3.832  -1.640   9.980  1.00  0.00    -0.248 NA
ATOM     43  C   UNL     1       4.133   0.534  10.776  1.00  0.00     0.031 C 
ATOM     44  C   UNL     1       5.426  -0.323   6.007  1.00  0.00     0.029 A 
ATOM     45  N   UNL     1       4.556  -2.035   7.156  1.00  0.00    -0.354 N 
ATOM     46  C   UNL     1       3.374  -1.565  11.291  1.00  0.00     0.074 A 
ATOM     47  C   UNL     1       3.628  -0.213  11.745  1.00  0.00     0.031 C 
ATOM     48  C   UNL     1       5.345  -1.376   5.174  1.00  0.00     0.029 A 
ATOM     49  C   UNL     1       4.834  -2.534   5.905  1.00  0.00     0.049 A 
ATOM     50  H   UNL     1       4.130  -2.567   7.867  1.00  0.00     0.167 HD
ATOM     51  C   UNL     1       2.789  -2.530  12.044  1.00  0.00     0.034 A 
ATOM     52  C   UNL     1       4.723  -3.788   5.416  1.00  0.00     0.034 A 
ATOM     53  C   UNL     1       2.559  -3.878  11.583  1.00  0.00     0.049 A 
ATOM     54  C   UNL     1       4.180  -4.880   6.311  1.00  0.00     0.074 A 
ATOM     55  C   UNL     1       1.979  -4.935  12.264  1.00  0.00     0.029 A 
ATOM     56  N   UNL     1       2.911  -4.364  10.329  1.00  0.00    -0.354 N 
ATOM     57  N   UNL     1       3.763  -4.803   7.555  1.00  0.00    -0.248 NA
ATOM     58  C   UNL     1       4.088  -6.229   5.734  1.00  0.00     0.031 C 
ATOM     59  C   UNL     1       2.057  -6.075  11.457  1.00  0.00     0.029 A 
ATOM     60  C   UNL     1       2.596  -5.712  10.234  1.00  0.00     0.049 A 
ATOM     61  H   UNL     1       3.324  -3.829   9.613  1.00  0.00     0.167 HD
ATOM     62  C   UNL     1       3.324  -6.083   7.891  1.00  0.00     0.074 A 
ATOM     63  C   UNL     1       3.518  -6.909   6.718  1.00  0.00     0.031 C 
ATOM     64  C   UNL     1       2.800  -6.533   9.061  1.00  0.00     0.034 A 
BRANCH  51  65
ATOM     65  C   UNL     1       2.414  -2.170  13.463  1.00  0.00     0.023 A 
ATOM     66  C   UNL     1       1.464  -1.174  13.751  1.00  0.00     0.031 A 
ATOM     67  C   UNL     1       3.044  -2.808  14.547  1.00  0.00     0.131 A 
ATOM     68  C   UNL     1       1.228  -0.793  15.081  1.00  0.00     0.055 A 
ATOM     69  C   UNL     1       2.741  -2.485  15.871  1.00  0.00     0.041 A 
ATOM     70  F   UNL     1       3.979  -3.748  14.338  1.00  0.00    -0.206 F 
ATOM     71  C   UNL     1       1.840  -1.460  16.144  1.00  0.00     0.022 A 
BRANCH  68  72
ATOM     72  S   UNL     1       0.235   0.692  15.395  1.00  0.00     0.124 S 
ATOM     73  O   UNL     1       0.981   1.709  14.657  1.00  0.00    -0.237 OA
ATOM     74  O   UNL     1      -1.064   0.326  14.843  1.00  0.00    -0.237 OA
ATOM     75  O   UNL     1       0.278   0.833  16.849  1.00  0.00    -0.744 OA
ENDBRANCH  68  72
ENDBRANCH  51  65
BRANCH  52  76
ATOM     76  C   UNL     1       5.187  -4.106   4.031  1.00  0.00     0.023 A 
ATOM     77  C   UNL     1       4.307  -4.607   3.058  1.00  0.00     0.031 A 
ATOM     78  C   UNL     1       6.545  -3.982   3.685  1.00  0.00     0.131 A 
ATOM     79  C   UNL     1       4.802  -5.012   1.807  1.00  0.00     0.055 A 
ATOM     80  C   UNL     1       7.021  -4.320   2.417  1.00  0.00     0.041 A 
ATOM     81  F   UNL     1       7.437  -3.529   4.581  1.00  0.00    -0.206 F 
ATOM     82  C   UNL     1       6.149  -4.852   1.473  1.00  0.00     0.022 A 
BRANCH  79  83
ATOM     83  S   UNL     1       3.686  -5.871   0.661  1.00  0.00     0.124 S 
ATOM     84  O   UNL     1       3.293  -7.034   1.448  1.00  0.00    -0.237 OA
ATOM     85  O   UNL     1       2.648  -4.873   0.433  1.00  0.00    -0.237 OA
ATOM     86  O   UNL     1       4.537  -6.159  -0.492  1.00  0.00    -0.744 OA
ENDBRANCH  79  83
ENDBRANCH  52  76
BRANCH  64  87
ATOM     87  C   UNL     1       2.344  -7.974   9.112  1.00  0.00     0.023 A 
ATOM     88  C   UNL     1       3.244  -9.049   8.997  1.00  0.00     0.031 A 
ATOM     89  C   UNL     1       0.979  -8.275   9.277  1.00  0.00     0.131 A 
ATOM     90  C   UNL     1       2.762 -10.368   8.993  1.00  0.00     0.055 A 
ATOM     91  C   UNL     1       0.514  -9.590   9.341  1.00  0.00     0.041 A 
ATOM     92  F   UNL     1       0.070  -7.292   9.388  1.00  0.00    -0.206 F 
ATOM     93  C   UNL     1       1.406 -10.646   9.184  1.00  0.00     0.022 A 
BRANCH  90  94
ATOM     94  S   UNL     1       3.918 -11.720   8.634  1.00  0.00     0.124 S 
ATOM     95  O   UNL     1       4.434 -11.339   7.324  1.00  0.00    -0.237 OA
ATOM     96  O   UNL     1       4.862 -11.628   9.743  1.00  0.00    -0.237 OA
ATOM     97  O   UNL     1       3.069 -12.910   8.643  1.00  0.00    -0.744 OA
ENDBRANCH  90  94
ENDBRANCH  64  87
ENDBRANCH  38  39
ENDBRANCH  31  33
ENDBRANCH  30  31
ENDBRANCH  29  30
ENDBRANCH  28  29
ENDBRANCH  27  28
ENDBRANCH   1  27
TORSDOF 22
