REMARK SMILES Cc1c(CC(=O)OCCOCCOCCOC(=O)c2ccc(-c3c4nc(c(-c5cc(S(=O)(=O)[O-])ccc5F)c5ccc([nH]5)c(-c5cc(S(=O)(=O)[O-])ccc5F)c5nc(c(-c6cc(S(=O)(=O)[O-])ccc6F)c6ccc3[nH]6)C=C5)C=C4)cc2)cc(-c2ccc(S(C)(=O)=O)cc2)n1-c1ccccc1
REMARK SMILES IDX 11 1 10 2 9 3 8 4 7 5 5 6 6 7 4 8 3 9 1 10 2 11 94 12 82 13
REMARK SMILES IDX 83 14 95 15 96 16 100 17 97 18 99 19 98 20 84 21 85 22 93 23
REMARK SMILES IDX 86 24 92 25 87 26 88 27 89 28 90 29 91 30 12 31 13 32 14 33
REMARK SMILES IDX 15 34 16 35 17 36 18 37 19 38 20 39 81 40 21 41 80 42 22 43
REMARK SMILES IDX 23 44 24 45 74 46 25 47 79 48 73 49 75 50 26 51 78 52 72 53
REMARK SMILES IDX 71 54 27 56 59 57 39 58 58 59 40 60 43 61 57 62 76 63 41 64
REMARK SMILES IDX 42 65 56 67 77 68 44 69 28 70 29 71 37 72 30 73 36 74 38 75
REMARK SMILES IDX 35 76 31 77 32 78 33 79 34 80 60 81 61 82 69 83 62 84 68 85
REMARK SMILES IDX 70 86 67 87 63 88 64 89 65 90 66 91 45 92 46 93 54 94 47 95
REMARK SMILES IDX 53 96 55 97 52 98 48 99 49 100 50 101 51 102
REMARK H PARENT 75 55 43 66
REMARK Flexibility Score: inf
ROOT
ATOM      1  C   UNL     1       0.841  -2.183  -1.959  1.00  0.00     0.188 C 
ENDROOT
BRANCH   1   2
ATOM      2  O   UNL     1       0.907  -2.583  -3.320  1.00  0.00    -0.376 OA
BRANCH   2   3
ATOM      3  C   UNL     1       1.025  -1.595  -4.333  1.00  0.00     0.202 C 
BRANCH   3   4
ATOM      4  C   UNL     1      -0.108  -0.575  -4.485  1.00  0.00     0.261 C 
BRANCH   4   5
ATOM      5  O   UNL     1      -0.351   0.199  -3.293  1.00  0.00    -0.463 OA
BRANCH   5   6
ATOM      6  C   UNL     1      -1.648   0.278  -2.900  1.00  0.00     0.310 C 
ATOM      7  O   UNL     1      -2.580  -0.244  -3.511  1.00  0.00    -0.252 OA
BRANCH   6   8
ATOM      8  C   UNL     1      -1.903   1.006  -1.596  1.00  0.00     0.160 C 
BRANCH   8   9
ATOM      9  C   UNL     1      -0.834   1.882  -1.006  1.00  0.00    -0.015 A 
ATOM     10  C   UNL     1       0.027   0.436   1.008  1.00  0.00     0.065 C 
ATOM     11  C   UNL     1      -0.005   1.610   0.080  1.00  0.00     0.024 A 
ATOM     12  N   UNL     1       0.830   2.702   0.270  1.00  0.00    -0.314 N 
ATOM     13  C   UNL     1      -0.632   3.263  -1.308  1.00  0.00     0.033 A 
ATOM     14  C   UNL     1       0.307   3.780  -0.430  1.00  0.00     0.053 A 
BRANCH  12  15
ATOM     15  C   UNL     1       2.015   2.716   1.040  1.00  0.00     0.046 A 
ATOM     16  C   UNL     1       2.076   3.441   2.232  1.00  0.00     0.026 A 
ATOM     17  C   UNL     1       3.140   2.050   0.540  1.00  0.00     0.026 A 
ATOM     18  C   UNL     1       3.279   3.485   2.937  1.00  0.00     0.002 A 
ATOM     19  C   UNL     1       4.342   2.120   1.241  1.00  0.00     0.002 A 
ATOM     20  C   UNL     1       4.410   2.832   2.439  1.00  0.00     0.000 A 
ENDBRANCH  12  15
BRANCH  14  21
ATOM     21  C   UNL     1       0.714   5.168  -0.223  1.00  0.00    -0.001 A 
ATOM     22  C   UNL     1       1.990   5.619  -0.582  1.00  0.00     0.011 A 
ATOM     23  C   UNL     1      -0.177   6.050   0.406  1.00  0.00     0.011 A 
ATOM     24  C   UNL     1       2.378   6.932  -0.305  1.00  0.00     0.021 A 
ATOM     25  C   UNL     1       0.204   7.362   0.691  1.00  0.00     0.021 A 
ATOM     26  C   UNL     1       1.485   7.793   0.339  1.00  0.00     0.067 A 
BRANCH  26  27
ATOM     27  S   UNL     1       1.975   9.466   0.677  1.00  0.00     0.175 S 
ATOM     28  C   UNL     1       3.284   9.313   1.862  1.00  0.00     0.163 C 
ATOM     29  O   UNL     1       2.538   9.998  -0.558  1.00  0.00    -0.224 OA
ATOM     30  O   UNL     1       0.870  10.136   1.327  1.00  0.00    -0.224 OA
ENDBRANCH  26  27
ENDBRANCH  14  21
ENDBRANCH   8   9
ENDBRANCH   6   8
ENDBRANCH   5   6
ENDBRANCH   4   5
ENDBRANCH   3   4
ENDBRANCH   2   3
ENDBRANCH   1   2
BRANCH   1  31
ATOM     31  C   UNL     1       1.767  -1.087  -1.410  1.00  0.00     0.188 C 
BRANCH  31  32
ATOM     32  O   UNL     1       2.892  -0.662  -2.146  1.00  0.00    -0.376 OA
BRANCH  32  33
ATOM     33  C   UNL     1       4.008  -1.537  -2.265  1.00  0.00     0.202 C 
BRANCH  33  34
ATOM     34  C   UNL     1       4.691  -2.055  -0.973  1.00  0.00     0.261 C 
BRANCH  34  35
ATOM     35  O   UNL     1       4.471  -3.454  -0.571  1.00  0.00    -0.460 OA
BRANCH  35  36
ATOM     36  C   UNL     1       4.252  -3.658   0.773  1.00  0.00     0.338 C 
ATOM     37  O   UNL     1       3.811  -2.777   1.502  1.00  0.00    -0.246 OA
BRANCH  36  38
ATOM     38  C   UNL     1       4.532  -5.065   1.328  1.00  0.00     0.060 A 
ATOM     39  C   UNL     1       3.548  -5.667   2.095  1.00  0.00     0.016 A 
ATOM     40  C   UNL     1       5.773  -5.740   1.353  1.00  0.00     0.016 A 
ATOM     41  C   UNL     1       3.792  -6.899   2.800  1.00  0.00     0.010 A 
ATOM     42  C   UNL     1       6.036  -6.971   2.154  1.00  0.00     0.010 A 
ATOM     43  C   UNL     1       5.053  -7.608   2.934  1.00  0.00    -0.014 A 
BRANCH  43  44
ATOM     44  C   UNL     1       5.177  -8.761   4.155  1.00  0.00     0.031 A 
ATOM     45  C   UNL     1       4.203  -8.244   5.164  1.00  0.00     0.074 A 
ATOM     46  C   UNL     1       5.892  -9.882   4.647  1.00  0.00     0.049 A 
ATOM     47  N   UNL     1       4.352  -7.029   5.611  1.00  0.00    -0.248 NA
ATOM     48  C   UNL     1       2.868  -8.807   5.382  1.00  0.00     0.031 C 
ATOM     49  C   UNL     1       7.104 -10.508   4.084  1.00  0.00     0.029 A 
ATOM     50  N   UNL     1       5.730 -10.751   5.809  1.00  0.00    -0.354 N 
ATOM     51  C   UNL     1       3.280  -6.767   6.422  1.00  0.00     0.074 A 
ATOM     52  C   UNL     1       2.312  -7.803   6.074  1.00  0.00     0.031 C 
ATOM     53  C   UNL     1       7.461 -11.658   4.741  1.00  0.00     0.029 A 
ATOM     54  C   UNL     1       6.582 -11.943   5.881  1.00  0.00     0.049 A 
ATOM     55  H   UNL     1       5.076 -10.546   6.516  1.00  0.00     0.167 HD
ATOM     56  C   UNL     1       3.595  -6.269   7.653  1.00  0.00     0.034 A 
ATOM     57  C   UNL     1       6.661 -13.018   6.799  1.00  0.00     0.034 A 
ATOM     58  C   UNL     1       3.603  -7.316   8.640  1.00  0.00     0.049 A 
ATOM     59  C   UNL     1       6.220 -12.492   8.089  1.00  0.00     0.074 A 
ATOM     60  C   UNL     1       2.721  -8.342   8.916  1.00  0.00     0.029 A 
ATOM     61  N   UNL     1       4.829  -7.696   9.144  1.00  0.00    -0.354 N 
ATOM     62  N   UNL     1       6.986 -11.738   8.812  1.00  0.00    -0.248 NA
ATOM     63  C   UNL     1       4.932 -12.837   8.674  1.00  0.00     0.031 C 
ATOM     64  C   UNL     1       3.544  -9.475   9.092  1.00  0.00     0.029 A 
ATOM     65  C   UNL     1       4.848  -9.061   9.342  1.00  0.00     0.049 A 
ATOM     66  H   UNL     1       5.578  -7.086   9.334  1.00  0.00     0.167 HD
ATOM     67  C   UNL     1       6.090 -11.084   9.598  1.00  0.00     0.074 A 
ATOM     68  C   UNL     1       4.942 -11.970   9.688  1.00  0.00     0.031 C 
ATOM     69  C   UNL     1       6.120  -9.729   9.540  1.00  0.00     0.034 A 
BRANCH  56  70
ATOM     70  C   UNL     1       4.586  -5.132   7.602  1.00  0.00     0.023 A 
ATOM     71  C   UNL     1       4.141  -3.831   7.866  1.00  0.00     0.031 A 
ATOM     72  C   UNL     1       5.915  -5.290   7.148  1.00  0.00     0.131 A 
ATOM     73  C   UNL     1       4.985  -2.738   7.599  1.00  0.00     0.055 A 
ATOM     74  C   UNL     1       6.722  -4.203   6.819  1.00  0.00     0.041 A 
ATOM     75  F   UNL     1       6.452  -6.513   7.005  1.00  0.00    -0.206 F 
ATOM     76  C   UNL     1       6.252  -2.914   7.034  1.00  0.00     0.022 A 
BRANCH  73  77
ATOM     77  S   UNL     1       4.407  -1.072   8.019  1.00  0.00     0.124 S 
ATOM     78  O   UNL     1       3.238  -0.917   7.160  1.00  0.00    -0.237 OA
ATOM     79  O   UNL     1       4.127  -1.194   9.447  1.00  0.00    -0.237 OA
ATOM     80  O   UNL     1       5.542  -0.213   7.685  1.00  0.00    -0.744 OA
ENDBRANCH  73  77
ENDBRANCH  56  70
BRANCH  57  81
ATOM     81  C   UNL     1       7.208 -14.490   7.051  1.00  0.00     0.023 A 
ATOM     82  C   UNL     1       7.459 -15.044   8.387  1.00  0.00     0.031 A 
ATOM     83  C   UNL     1       7.099 -15.470   6.057  1.00  0.00     0.131 A 
ATOM     84  C   UNL     1       7.538 -16.452   8.655  1.00  0.00     0.055 A 
ATOM     85  C   UNL     1       7.184 -16.863   6.329  1.00  0.00     0.041 A 
ATOM     86  F   UNL     1       6.799 -15.119   4.798  1.00  0.00    -0.206 F 
ATOM     87  C   UNL     1       7.383 -17.359   7.617  1.00  0.00     0.022 A 
BRANCH  84  88
ATOM     88  S   UNL     1       7.653 -17.168  10.368  1.00  0.00     0.124 S 
ATOM     89  O   UNL     1       9.058 -16.984  10.710  1.00  0.00    -0.237 OA
ATOM     90  O   UNL     1       6.687 -16.376  11.122  1.00  0.00    -0.237 OA
ATOM     91  O   UNL     1       7.257 -18.568  10.183  1.00  0.00    -0.744 OA
ENDBRANCH  84  88
ENDBRANCH  57  81
BRANCH  69  92
ATOM     92  C   UNL     1       7.495  -9.056   9.522  1.00  0.00     0.023 A 
ATOM     93  C   UNL     1       8.627  -9.454   8.757  1.00  0.00     0.031 A 
ATOM     94  C   UNL     1       7.695  -7.986  10.409  1.00  0.00     0.131 A 
ATOM     95  C   UNL     1       9.878  -8.821   8.922  1.00  0.00     0.055 A 
ATOM     96  C   UNL     1       8.920  -7.329  10.540  1.00  0.00     0.041 A 
ATOM     97  F   UNL     1       6.688  -7.558  11.188  1.00  0.00    -0.206 F 
ATOM     98  C   UNL     1      10.022  -7.754   9.808  1.00  0.00     0.022 A 
BRANCH  95  99
ATOM     99  S   UNL     1      11.361  -9.437   8.050  1.00  0.00     0.124 S 
ATOM    100  O   UNL     1      11.317 -10.876   8.279  1.00  0.00    -0.237 OA
ATOM    101  O   UNL     1      11.127  -9.003   6.676  1.00  0.00    -0.237 OA
ATOM    102  O   UNL     1      12.463  -8.750   8.727  1.00  0.00    -0.744 OA
ENDBRANCH  95  99
ENDBRANCH  69  92
ENDBRANCH  43  44
ENDBRANCH  36  38
ENDBRANCH  35  36
ENDBRANCH  34  35
ENDBRANCH  33  34
ENDBRANCH  32  33
ENDBRANCH  31  32
ENDBRANCH   1  31
TORSDOF 24
