REMARK SMILES CCc1cc(OC(F)(F)F)cc2c1O[C@H](C(F)(F)F)C(C(=O)OCCOCCOCCOC(=O)c1ccc(-c3c4nc(c(-c5cc(S(=O)(=O)[O-])ccc5F)c5ccc([nH]5)c(-c5cc(S(=O)(=O)[O-])ccc5F)c5nc(c(-c6cc(S(=O)(=O)[O-])ccc6F)c6ccc3[nH]6)C=C5)C=C4)cc1)=C2
REMARK SMILES IDX 28 1 27 2 26 3 25 4 24 5 23 6 21 7 22 8 20 9 3 10 4 11 13 12
REMARK SMILES IDX 5 13 12 14 14 15 11 16 98 17 15 18 2 19 1 20 6 21 7 22 8 23
REMARK SMILES IDX 9 24 10 25 16 26 17 27 18 28 19 29 29 30 30 31 31 32 32 33
REMARK SMILES IDX 33 34 34 35 35 36 36 37 97 38 37 39 96 40 38 41 39 42 40 43
REMARK SMILES IDX 90 44 41 45 95 46 89 47 91 48 42 49 94 50 88 51 87 52 43 54
REMARK SMILES IDX 75 55 55 56 74 57 56 58 59 59 73 60 92 61 57 62 58 63 72 65
REMARK SMILES IDX 93 66 60 67 44 68 45 69 53 70 46 71 52 72 54 73 51 74 47 75
REMARK SMILES IDX 48 76 49 77 50 78 76 79 77 80 85 81 78 82 84 83 86 84 83 85
REMARK SMILES IDX 79 86 80 87 81 88 82 89 61 90 62 91 70 92 63 93 69 94 71 95
REMARK SMILES IDX 68 96 64 97 65 98 66 99 67 100
REMARK H PARENT 91 53 59 64
REMARK Flexibility Score: inf
ROOT
ATOM      1  C   UNL     1       3.182  -1.482  -8.471  1.00  0.00     0.188 C 
ENDROOT
BRANCH   1   2
ATOM      2  C   UNL     1       4.095  -0.235  -8.419  1.00  0.00     0.188 C 
BRANCH   2   3
ATOM      3  O   UNL     1       5.400  -0.261  -8.965  1.00  0.00    -0.376 OA
BRANCH   3   4
ATOM      4  C   UNL     1       6.250  -1.361  -8.704  1.00  0.00     0.202 C 
BRANCH   4   5
ATOM      5  C   UNL     1       6.519  -1.815  -7.264  1.00  0.00     0.261 C 
BRANCH   5   6
ATOM      6  O   UNL     1       5.353  -2.041  -6.453  1.00  0.00    -0.460 OA
BRANCH   6   7
ATOM      7  C   UNL     1       5.145  -1.113  -5.484  1.00  0.00     0.338 C 
ATOM      8  O   UNL     1       5.843  -0.134  -5.276  1.00  0.00    -0.246 OA
BRANCH   7   9
ATOM      9  C   UNL     1       3.899  -1.352  -4.729  1.00  0.00     0.087 C 
ATOM     10  C   UNL     1       1.023  -1.411  -1.754  1.00  0.00    -0.002 A 
ATOM     11  C   UNL     1       0.334  -2.602  -1.489  1.00  0.00     0.054 A 
ATOM     12  C   UNL     1       2.081  -1.448  -2.663  1.00  0.00     0.131 A 
ATOM     13  C   UNL     1       0.688  -3.794  -2.133  1.00  0.00     0.130 A 
ATOM     14  C   UNL     1       2.420  -2.623  -3.360  1.00  0.00     0.021 A 
ATOM     15  O   UNL     1       2.771  -0.276  -2.873  1.00  0.00    -0.475 OA
ATOM     16  C   UNL     1       1.717  -3.795  -3.085  1.00  0.00     0.058 A 
ATOM     17  C   UNL     1       3.525  -2.577  -4.323  1.00  0.00     0.027 C 
ATOM     18  C   UNL     1       3.159  -0.116  -4.256  1.00  0.00     0.316 C 
BRANCH  10  19
ATOM     19  C   UNL     1       0.588  -0.116  -1.109  1.00  0.00     0.036 C 
ATOM     20  C   UNL     1       1.129   0.036   0.301  1.00  0.00     0.009 C 
ENDBRANCH  10  19
BRANCH  13  21
ATOM     21  O   UNL     1       0.094  -5.010  -1.934  1.00  0.00    -0.406 OA
BRANCH  21  22
ATOM     22  C   UNL     1      -0.714  -5.149  -0.776  1.00  0.00     0.573 C 
ATOM     23  F   UNL     1      -0.047  -4.777   0.339  1.00  0.00    -0.132 F 
ATOM     24  F   UNL     1      -1.853  -4.434  -0.884  1.00  0.00    -0.132 F 
ATOM     25  F   UNL     1      -1.050  -6.452  -0.639  1.00  0.00    -0.132 F 
ENDBRANCH  21  22
ENDBRANCH  13  21
BRANCH  18  26
ATOM     26  C   UNL     1       1.938   0.289  -5.114  1.00  0.00     0.430 C 
ATOM     27  F   UNL     1       2.171   0.111  -6.433  1.00  0.00    -0.167 F 
ATOM     28  F   UNL     1       0.819  -0.419  -4.838  1.00  0.00    -0.167 F 
ATOM     29  F   UNL     1       1.633   1.597  -4.951  1.00  0.00    -0.167 F 
ENDBRANCH  18  26
ENDBRANCH   7   9
ENDBRANCH   6   7
ENDBRANCH   5   6
ENDBRANCH   4   5
ENDBRANCH   3   4
ENDBRANCH   2   3
ENDBRANCH   1   2
BRANCH   1  30
ATOM     30  O   UNL     1       3.597  -2.606  -9.210  1.00  0.00    -0.376 OA
BRANCH  30  31
ATOM     31  C   UNL     1       3.589  -2.586 -10.624  1.00  0.00     0.202 C 
BRANCH  31  32
ATOM     32  C   UNL     1       2.848  -1.561 -11.502  1.00  0.00     0.261 C 
BRANCH  32  33
ATOM     33  O   UNL     1       2.591  -0.264 -10.955  1.00  0.00    -0.460 OA
BRANCH  33  34
ATOM     34  C   UNL     1       1.279   0.046 -10.801  1.00  0.00     0.338 C 
ATOM     35  O   UNL     1       0.322  -0.678 -11.043  1.00  0.00    -0.246 OA
BRANCH  34  36
ATOM     36  C   UNL     1       1.135   1.368 -10.168  1.00  0.00     0.060 A 
ATOM     37  C   UNL     1       0.765   1.425  -8.821  1.00  0.00     0.016 A 
ATOM     38  C   UNL     1       1.259   2.542 -10.914  1.00  0.00     0.016 A 
ATOM     39  C   UNL     1       0.521   2.655  -8.210  1.00  0.00     0.010 A 
ATOM     40  C   UNL     1       0.994   3.776 -10.303  1.00  0.00     0.010 A 
ATOM     41  C   UNL     1       0.605   3.841  -8.952  1.00  0.00    -0.014 A 
BRANCH  41  42
ATOM     42  C   UNL     1       0.153   5.121  -8.341  1.00  0.00     0.031 A 
ATOM     43  C   UNL     1      -1.195   5.677  -8.716  1.00  0.00     0.074 A 
ATOM     44  C   UNL     1       0.903   5.749  -7.415  1.00  0.00     0.049 A 
ATOM     45  N   UNL     1      -1.765   6.798  -8.354  1.00  0.00    -0.248 NA
ATOM     46  C   UNL     1      -2.008   4.853  -9.622  1.00  0.00     0.031 C 
ATOM     47  C   UNL     1       2.188   5.271  -6.907  1.00  0.00     0.029 A 
ATOM     48  N   UNL     1       0.689   6.922  -6.732  1.00  0.00    -0.354 N 
ATOM     49  C   UNL     1      -3.000   6.822  -8.995  1.00  0.00     0.074 A 
ATOM     50  C   UNL     1      -3.079   5.615  -9.793  1.00  0.00     0.031 C 
ATOM     51  C   UNL     1       2.646   6.141  -5.991  1.00  0.00     0.029 A 
ATOM     52  C   UNL     1       1.720   7.266  -5.887  1.00  0.00     0.049 A 
ATOM     53  H   UNL     1      -0.125   7.465  -6.838  1.00  0.00     0.167 HD
ATOM     54  C   UNL     1      -3.978   7.760  -8.922  1.00  0.00     0.034 A 
ATOM     55  C   UNL     1       1.910   8.375  -5.142  1.00  0.00     0.034 A 
ATOM     56  C   UNL     1      -3.881   8.962  -8.127  1.00  0.00     0.049 A 
ATOM     57  C   UNL     1       0.855   9.458  -5.162  1.00  0.00     0.074 A 
ATOM     58  C   UNL     1      -4.806   9.983  -7.990  1.00  0.00     0.029 A 
ATOM     59  N   UNL     1      -2.789   9.313  -7.341  1.00  0.00    -0.354 N 
ATOM     60  N   UNL     1      -0.296   9.483  -5.795  1.00  0.00    -0.248 NA
ATOM     61  C   UNL     1       1.126  10.659  -4.363  1.00  0.00     0.031 C 
ATOM     62  C   UNL     1      -4.243  10.984  -7.191  1.00  0.00     0.029 A 
ATOM     63  C   UNL     1      -3.003  10.551  -6.750  1.00  0.00     0.049 A 
ATOM     64  H   UNL     1      -1.981   8.764  -7.222  1.00  0.00     0.167 HD
ATOM     65  C   UNL     1      -0.896  10.691  -5.446  1.00  0.00     0.074 A 
ATOM     66  C   UNL     1       0.008  11.350  -4.527  1.00  0.00     0.031 C 
ATOM     67  C   UNL     1      -2.087  11.210  -5.847  1.00  0.00     0.034 A 
BRANCH  54  68
ATOM     68  C   UNL     1      -5.204   7.552  -9.781  1.00  0.00     0.023 A 
ATOM     69  C   UNL     1      -6.072   6.461  -9.595  1.00  0.00     0.031 A 
ATOM     70  C   UNL     1      -5.489   8.445 -10.831  1.00  0.00     0.131 A 
ATOM     71  C   UNL     1      -7.135   6.252 -10.489  1.00  0.00     0.055 A 
ATOM     72  C   UNL     1      -6.598   8.278 -11.663  1.00  0.00     0.041 A 
ATOM     73  F   UNL     1      -4.685   9.492 -11.075  1.00  0.00    -0.206 F 
ATOM     74  C   UNL     1      -7.420   7.167 -11.504  1.00  0.00     0.022 A 
BRANCH  71  75
ATOM     75  S   UNL     1      -8.048   4.686 -10.401  1.00  0.00     0.124 S 
ATOM     76  O   UNL     1      -6.978   3.710 -10.594  1.00  0.00    -0.237 OA
ATOM     77  O   UNL     1      -8.635   4.736  -9.068  1.00  0.00    -0.237 OA
ATOM     78  O   UNL     1      -8.999   4.781 -11.507  1.00  0.00    -0.744 OA
ENDBRANCH  71  75
ENDBRANCH  54  68
BRANCH  55  79
ATOM     79  C   UNL     1       3.171   8.563  -4.362  1.00  0.00     0.023 A 
ATOM     80  C   UNL     1       3.152   8.727  -2.966  1.00  0.00     0.031 A 
ATOM     81  C   UNL     1       4.413   8.658  -5.015  1.00  0.00     0.131 A 
ATOM     82  C   UNL     1       4.340   9.025  -2.279  1.00  0.00     0.055 A 
ATOM     83  C   UNL     1       5.601   8.890  -4.320  1.00  0.00     0.041 A 
ATOM     84  F   UNL     1       4.492   8.524  -6.349  1.00  0.00    -0.206 F 
ATOM     85  C   UNL     1       5.567   9.090  -2.944  1.00  0.00     0.022 A 
BRANCH  82  86
ATOM     86  S   UNL     1       4.248   9.430  -0.512  1.00  0.00     0.124 S 
ATOM     87  O   UNL     1       3.340  10.572  -0.517  1.00  0.00    -0.237 OA
ATOM     88  O   UNL     1       3.722   8.194   0.056  1.00  0.00    -0.237 OA
ATOM     89  O   UNL     1       5.633   9.735  -0.160  1.00  0.00    -0.744 OA
ENDBRANCH  82  86
ENDBRANCH  55  79
BRANCH  67  90
ATOM     90  C   UNL     1      -2.490  12.542  -5.253  1.00  0.00     0.023 A 
ATOM     91  C   UNL     1      -1.747  13.714  -5.485  1.00  0.00     0.031 A 
ATOM     92  C   UNL     1      -3.612  12.633  -4.410  1.00  0.00     0.131 A 
ATOM     93  C   UNL     1      -2.086  14.902  -4.820  1.00  0.00     0.055 A 
ATOM     94  C   UNL     1      -3.991  13.837  -3.813  1.00  0.00     0.041 A 
ATOM     95  F   UNL     1      -4.360  11.549  -4.146  1.00  0.00    -0.206 F 
ATOM     96  C   UNL     1      -3.215  14.976  -4.001  1.00  0.00     0.022 A 
BRANCH  93  97
ATOM     97  S   UNL     1      -0.953  16.315  -4.932  1.00  0.00     0.124 S 
ATOM     98  O   UNL     1       0.299  15.738  -4.454  1.00  0.00    -0.237 OA
ATOM     99  O   UNL     1      -1.002  16.642  -6.353  1.00  0.00    -0.237 OA
ATOM    100  O   UNL     1      -1.555  17.309  -4.046  1.00  0.00    -0.744 OA
ENDBRANCH  93  97
ENDBRANCH  67  90
ENDBRANCH  41  42
ENDBRANCH  34  36
ENDBRANCH  33  34
ENDBRANCH  32  33
ENDBRANCH  31  32
ENDBRANCH  30  31
ENDBRANCH   1  30
TORSDOF 24
