REMARK SMILES O=C(OCCOCCOCCOC(=O)[C@H]1CCC[N@@H+]1Cc1ccccc1[N+](=O)[O-])c1ccc(-c2c3nc(c(-c4cc(S(=O)(=O)[O-])ccc4F)c4ccc([nH]4)c(-c4cc(S(=O)(=O)[O-])ccc4F)c4nc(c(-c5cc(S(=O)(=O)[O-])ccc5F)c5ccc2[nH]5)C=C4)C=C3)cc1
REMARK SMILES IDX 7 1 6 2 5 3 4 4 3 5 2 6 1 7 30 8 31 9 92 10 32 11 91 12
REMARK SMILES IDX 33 13 34 14 35 15 85 16 36 17 90 18 84 19 86 20 37 21 89 22
REMARK SMILES IDX 83 23 82 24 38 26 70 27 50 28 69 29 51 30 54 31 68 32 87 33
REMARK SMILES IDX 52 34 53 35 67 37 88 38 55 39 39 40 40 41 48 42 41 43 47 44
REMARK SMILES IDX 49 45 46 46 42 47 43 48 44 49 45 50 71 51 72 52 80 53 73 54
REMARK SMILES IDX 79 55 81 56 78 57 74 58 75 59 76 60 77 61 56 62 57 63 65 64
REMARK SMILES IDX 58 65 64 66 66 67 63 68 59 69 60 70 61 71 62 72 8 73 9 74
REMARK SMILES IDX 10 75 11 76 12 77 13 78 14 79 15 80 16 81 19 82 17 83 18 84
REMARK SMILES IDX 20 86 21 87 22 88 26 89 23 90 25 91 24 92 27 93 28 94 29 95
REMARK H PARENT 86 25 54 36 19 85
REMARK Flexibility Score: inf
ROOT
ATOM      1  C   UNL     1      -1.638   1.167   2.408  1.00  0.00     0.188 C 
ENDROOT
BRANCH   1   2
ATOM      2  O   UNL     1      -1.331   2.548   2.177  1.00  0.00    -0.376 OA
BRANCH   2   3
ATOM      3  C   UNL     1      -2.238   3.205   1.286  1.00  0.00     0.202 C 
BRANCH   3   4
ATOM      4  C   UNL     1      -1.891   3.059  -0.202  1.00  0.00     0.261 C 
BRANCH   4   5
ATOM      5  O   UNL     1      -1.351   1.761  -0.505  1.00  0.00    -0.460 OA
BRANCH   5   6
ATOM      6  C   UNL     1      -0.043   1.411  -0.624  1.00  0.00     0.338 C 
ATOM      7  O   UNL     1       0.228   0.255  -0.946  1.00  0.00    -0.246 OA
BRANCH   6   8
ATOM      8  C   UNL     1       1.091   2.366  -0.422  1.00  0.00     0.060 A 
ATOM      9  C   UNL     1       1.041   3.497   0.391  1.00  0.00     0.016 A 
ATOM     10  C   UNL     1       2.307   2.078  -1.067  1.00  0.00     0.016 A 
ATOM     11  C   UNL     1       2.094   4.399   0.439  1.00  0.00     0.010 A 
ATOM     12  C   UNL     1       3.407   2.939  -0.954  1.00  0.00     0.010 A 
ATOM     13  C   UNL     1       3.284   4.134  -0.236  1.00  0.00    -0.014 A 
BRANCH  13  14
ATOM     14  C   UNL     1       4.319   5.192  -0.244  1.00  0.00     0.031 A 
ATOM     15  C   UNL     1       4.544   5.972  -1.507  1.00  0.00     0.074 A 
ATOM     16  C   UNL     1       4.912   5.552   0.912  1.00  0.00     0.049 A 
ATOM     17  N   UNL     1       5.344   6.981  -1.724  1.00  0.00    -0.248 NA
ATOM     18  C   UNL     1       3.735   5.581  -2.673  1.00  0.00     0.031 C 
ATOM     19  C   UNL     1       4.647   4.936   2.214  1.00  0.00     0.029 A 
ATOM     20  N   UNL     1       5.819   6.537   1.196  1.00  0.00    -0.354 N 
ATOM     21  C   UNL     1       5.123   7.358  -3.045  1.00  0.00     0.074 A 
ATOM     22  C   UNL     1       4.151   6.437  -3.592  1.00  0.00     0.031 C 
ATOM     23  C   UNL     1       5.380   5.549   3.156  1.00  0.00     0.029 A 
ATOM     24  C   UNL     1       6.183   6.587   2.524  1.00  0.00     0.049 A 
ATOM     25  H   UNL     1       6.179   7.151   0.516  1.00  0.00     0.167 HD
ATOM     26  C   UNL     1       5.670   8.392  -3.729  1.00  0.00     0.034 A 
ATOM     27  C   UNL     1       7.071   7.380   3.154  1.00  0.00     0.034 A 
ATOM     28  C   UNL     1       6.663   9.270  -3.165  1.00  0.00     0.049 A 
ATOM     29  C   UNL     1       7.756   8.444   2.339  1.00  0.00     0.074 A 
ATOM     30  C   UNL     1       7.388  10.274  -3.780  1.00  0.00     0.029 A 
ATOM     31  N   UNL     1       7.074   9.240  -1.836  1.00  0.00    -0.354 N 
ATOM     32  N   UNL     1       7.594   8.737   1.068  1.00  0.00    -0.248 NA
ATOM     33  C   UNL     1       8.727   9.290   3.039  1.00  0.00     0.031 C 
ATOM     34  C   UNL     1       8.270  10.816  -2.837  1.00  0.00     0.029 A 
ATOM     35  C   UNL     1       8.053  10.195  -1.616  1.00  0.00     0.049 A 
ATOM     36  H   UNL     1       6.720   8.628  -1.151  1.00  0.00     0.167 HD
ATOM     37  C   UNL     1       8.440   9.811   0.818  1.00  0.00     0.074 A 
ATOM     38  C   UNL     1       9.078  10.134   2.080  1.00  0.00     0.031 C 
ATOM     39  C   UNL     1       8.681  10.469  -0.346  1.00  0.00     0.034 A 
BRANCH  26  40
ATOM     40  C   UNL     1       5.246   8.550  -5.168  1.00  0.00     0.023 A 
ATOM     41  C   UNL     1       3.924   8.887  -5.514  1.00  0.00     0.031 A 
ATOM     42  C   UNL     1       6.147   8.266  -6.209  1.00  0.00     0.131 A 
ATOM     43  C   UNL     1       3.522   8.853  -6.858  1.00  0.00     0.055 A 
ATOM     44  C   UNL     1       5.758   8.307  -7.550  1.00  0.00     0.041 A 
ATOM     45  F   UNL     1       7.412   7.908  -5.938  1.00  0.00    -0.206 F 
ATOM     46  C   UNL     1       4.435   8.586  -7.880  1.00  0.00     0.022 A 
BRANCH  43  47
ATOM     47  S   UNL     1       1.753   9.010  -7.242  1.00  0.00     0.124 S 
ATOM     48  O   UNL     1       1.197   7.858  -6.539  1.00  0.00    -0.237 OA
ATOM     49  O   UNL     1       1.425  10.316  -6.684  1.00  0.00    -0.237 OA
ATOM     50  O   UNL     1       1.710   8.924  -8.698  1.00  0.00    -0.744 OA
ENDBRANCH  43  47
ENDBRANCH  26  40
BRANCH  27  51
ATOM     51  C   UNL     1       7.399   7.165   4.594  1.00  0.00     0.023 A 
ATOM     52  C   UNL     1       7.184   8.158   5.561  1.00  0.00     0.031 A 
ATOM     53  C   UNL     1       7.996   5.961   5.014  1.00  0.00     0.131 A 
ATOM     54  C   UNL     1       7.599   7.946   6.887  1.00  0.00     0.055 A 
ATOM     55  C   UNL     1       8.351   5.731   6.344  1.00  0.00     0.041 A 
ATOM     56  F   UNL     1       8.245   4.983   4.129  1.00  0.00    -0.206 F 
ATOM     57  C   UNL     1       8.167   6.734   7.288  1.00  0.00     0.022 A 
BRANCH  54  58
ATOM     58  S   UNL     1       7.491   9.322   8.066  1.00  0.00     0.124 S 
ATOM     59  O   UNL     1       8.207  10.378   7.358  1.00  0.00    -0.237 OA
ATOM     60  O   UNL     1       6.047   9.496   8.189  1.00  0.00    -0.237 OA
ATOM     61  O   UNL     1       8.160   8.803   9.256  1.00  0.00    -0.744 OA
ENDBRANCH  54  58
ENDBRANCH  27  51
BRANCH  39  62
ATOM     62  C   UNL     1       9.673  11.600  -0.275  1.00  0.00     0.023 A 
ATOM     63  C   UNL     1      11.033  11.358  -0.020  1.00  0.00     0.031 A 
ATOM     64  C   UNL     1       9.248  12.930  -0.426  1.00  0.00     0.131 A 
ATOM     65  C   UNL     1      11.912  12.436   0.146  1.00  0.00     0.055 A 
ATOM     66  C   UNL     1      10.139  13.997  -0.322  1.00  0.00     0.041 A 
ATOM     67  F   UNL     1       7.958  13.211  -0.670  1.00  0.00    -0.206 F 
ATOM     68  C   UNL     1      11.477  13.754  -0.019  1.00  0.00     0.022 A 
BRANCH  65  69
ATOM     69  S   UNL     1      13.608  12.093   0.684  1.00  0.00     0.124 S 
ATOM     70  O   UNL     1      13.389  11.384   1.942  1.00  0.00    -0.237 OA
ATOM     71  O   UNL     1      14.128  11.289  -0.417  1.00  0.00    -0.237 OA
ATOM     72  O   UNL     1      14.201  13.422   0.816  1.00  0.00    -0.744 OA
ENDBRANCH  65  69
ENDBRANCH  39  62
ENDBRANCH  13  14
ENDBRANCH   6   8
ENDBRANCH   5   6
ENDBRANCH   4   5
ENDBRANCH   3   4
ENDBRANCH   2   3
ENDBRANCH   1   2
BRANCH   1  73
ATOM     73  C   UNL     1      -1.214   0.737   3.815  1.00  0.00     0.188 C 
BRANCH  73  74
ATOM     74  O   UNL     1      -1.987   1.277   4.891  1.00  0.00    -0.376 OA
BRANCH  74  75
ATOM     75  C   UNL     1      -2.098   2.695   4.961  1.00  0.00     0.202 C 
BRANCH  75  76
ATOM     76  C   UNL     1      -0.863   3.498   5.399  1.00  0.00     0.261 C 
BRANCH  76  77
ATOM     77  O   UNL     1       0.387   3.097   4.814  1.00  0.00    -0.459 OA
BRANCH  77  78
ATOM     78  C   UNL     1       1.153   2.321   5.636  1.00  0.00     0.365 C 
ATOM     79  O   UNL     1       0.786   1.934   6.743  1.00  0.00    -0.245 OA
BRANCH  78  80
ATOM     80  C   UNL     1       2.547   2.000   5.024  1.00  0.00     0.295 C 
ATOM     81  C   UNL     1       3.558   2.139   6.161  1.00  0.00     0.083 C 
ATOM     82  N   UNL     1       2.634   0.566   4.638  1.00  0.00    -0.319 N 
ATOM     83  C   UNL     1       3.536   0.772   6.847  1.00  0.00     0.068 C 
ATOM     84  C   UNL     1       2.775  -0.157   5.903  1.00  0.00     0.263 C 
ATOM     85  H   UNL     1       1.789   0.296   4.133  1.00  0.00     0.349 HD
BRANCH  82  86
ATOM     86  C   UNL     1       3.625   0.206   3.599  1.00  0.00     0.307 C 
BRANCH  86  87
ATOM     87  C   UNL     1       5.100   0.489   3.842  1.00  0.00     0.084 A 
ATOM     88  C   UNL     1       5.659   1.638   3.257  1.00  0.00     0.017 A 
ATOM     89  C   UNL     1       5.969  -0.288   4.634  1.00  0.00     0.278 A 
ATOM     90  C   UNL     1       6.963   2.057   3.548  1.00  0.00     0.001 A 
ATOM     91  C   UNL     1       7.267   0.144   4.965  1.00  0.00     0.086 A 
ATOM     92  C   UNL     1       7.752   1.334   4.435  1.00  0.00     0.007 A 
BRANCH  89  93
ATOM     93  N   UNL     1       5.604  -1.621   5.092  1.00  0.00     0.063 N 
ATOM     94  O   UNL     1       5.809  -1.891   6.285  1.00  0.00    -0.258 OA
ATOM     95  O   UNL     1       5.156  -2.413   4.252  1.00  0.00    -0.258 OA
ENDBRANCH  89  93
ENDBRANCH  86  87
ENDBRANCH  82  86
ENDBRANCH  78  80
ENDBRANCH  77  78
ENDBRANCH  76  77
ENDBRANCH  75  76
ENDBRANCH  74  75
ENDBRANCH  73  74
ENDBRANCH   1  73
TORSDOF 23
