REMARK SMILES CC(C)(C)OC(=O)N1CCC[C@]1(Cc1ccccc1)C(=O)OCCOCCOCCOC(=O)c1ccc(-c2c3nc(c(-c4cc(S(=O)(=O)[O-])ccc4F)c4ccc([nH]4)c(-c4cc(S(=O)(=O)[O-])ccc4F)c4nc(c(-c5cc(S(=O)(=O)[O-])ccc5F)c5ccc2[nH]5)C=C4)C=C3)cc1
REMARK SMILES IDX 26 1 25 2 24 3 23 4 22 5 20 6 21 7 12 8 8 9 9 10 10 11 11 12
REMARK SMILES IDX 6 13 7 14 5 15 2 16 1 17 3 18 4 19 13 20 14 21 15 22 19 23
REMARK SMILES IDX 16 24 18 25 17 26 27 27 28 28 29 29 30 30 31 31 32 32 33 33
REMARK SMILES IDX 34 34 35 35 96 36 36 37 95 38 37 39 38 40 39 41 89 42 40 43
REMARK SMILES IDX 94 44 88 45 90 46 41 47 93 48 87 49 86 50 42 52 74 53 54 54
REMARK SMILES IDX 73 55 55 56 58 57 72 58 91 59 56 60 57 61 71 63 92 64 59 65
REMARK SMILES IDX 43 66 44 67 52 68 45 69 51 70 53 71 50 72 46 73 47 74 48 75
REMARK SMILES IDX 49 76 75 77 76 78 84 79 77 80 83 81 85 82 82 83 78 84 79 85
REMARK SMILES IDX 80 86 81 87 60 88 61 89 69 90 62 91 68 92 70 93 67 94 63 95
REMARK SMILES IDX 64 96 65 97 66 98
REMARK H PARENT 90 51 58 62
REMARK Flexibility Score: inf
ROOT
ATOM      1  C   UNL     1      -2.635  -7.012  -3.368  1.00  0.00     0.188 C 
ENDROOT
BRANCH   1   2
ATOM      2  O   UNL     1      -3.732  -6.261  -3.837  1.00  0.00    -0.376 OA
BRANCH   2   3
ATOM      3  C   UNL     1      -3.571  -4.915  -4.250  1.00  0.00     0.202 C 
BRANCH   3   4
ATOM      4  C   UNL     1      -2.406  -3.980  -3.861  1.00  0.00     0.261 C 
BRANCH   4   5
ATOM      5  O   UNL     1      -1.121  -4.558  -3.587  1.00  0.00    -0.461 OA
BRANCH   5   6
ATOM      6  C   UNL     1      -0.791  -4.617  -2.268  1.00  0.00     0.332 C 
ATOM      7  O   UNL     1      -1.565  -4.231  -1.397  1.00  0.00    -0.249 OA
BRANCH   6   8
ATOM      8  C   UNL     1       0.635  -5.207  -1.974  1.00  0.00     0.147 C 
ATOM      9  N   UNL     1       1.381  -4.095  -1.363  1.00  0.00    -0.291 N 
ATOM     10  C   UNL     1       2.629  -3.819  -2.037  1.00  0.00     0.124 C 
ATOM     11  C   UNL     1       2.445  -4.377  -3.427  1.00  0.00     0.025 C 
ATOM     12  C   UNL     1       1.483  -5.544  -3.235  1.00  0.00     0.043 C 
BRANCH   9  13
ATOM     13  C   UNL     1       0.946  -3.456  -0.235  1.00  0.00     0.411 C 
ATOM     14  O   UNL     1       0.226  -3.968   0.610  1.00  0.00    -0.224 OA
BRANCH  13  15
ATOM     15  O   UNL     1       1.303  -2.151  -0.250  1.00  0.00    -0.444 OA
BRANCH  15  16
ATOM     16  C   UNL     1       0.615  -1.246   0.646  1.00  0.00     0.106 C 
ATOM     17  C   UNL     1       1.104   0.145   0.227  1.00  0.00     0.056 C 
ATOM     18  C   UNL     1       1.029  -1.520   2.094  1.00  0.00     0.056 C 
ATOM     19  C   UNL     1      -0.913  -1.285   0.458  1.00  0.00     0.056 C 
ENDBRANCH  15  16
ENDBRANCH  13  15
ENDBRANCH   9  13
BRANCH   8  20
ATOM     20  C   UNL     1       0.437  -6.460  -1.060  1.00  0.00     0.076 C 
BRANCH  20  21
ATOM     21  C   UNL     1       1.680  -7.108  -0.477  1.00  0.00    -0.045 A 
ATOM     22  C   UNL     1       2.094  -8.379  -0.901  1.00  0.00     0.004 A 
ATOM     23  C   UNL     1       2.409  -6.480   0.541  1.00  0.00     0.004 A 
ATOM     24  C   UNL     1       3.228  -8.979  -0.345  1.00  0.00     0.000 A 
ATOM     25  C   UNL     1       3.553  -7.068   1.080  1.00  0.00     0.000 A 
ATOM     26  C   UNL     1       3.965  -8.318   0.634  1.00  0.00     0.000 A 
ENDBRANCH  20  21
ENDBRANCH   8  20
ENDBRANCH   6   8
ENDBRANCH   5   6
ENDBRANCH   4   5
ENDBRANCH   3   4
ENDBRANCH   2   3
ENDBRANCH   1   2
BRANCH   1  27
ATOM     27  C   UNL     1      -1.467  -7.261  -4.331  1.00  0.00     0.188 C 
BRANCH  27  28
ATOM     28  O   UNL     1      -1.460  -6.570  -5.554  1.00  0.00    -0.376 OA
BRANCH  28  29
ATOM     29  C   UNL     1      -2.270  -7.024  -6.624  1.00  0.00     0.202 C 
BRANCH  29  30
ATOM     30  C   UNL     1      -3.119  -8.316  -6.644  1.00  0.00     0.261 C 
BRANCH  30  31
ATOM     31  O   UNL     1      -3.238  -9.089  -5.447  1.00  0.00    -0.460 OA
BRANCH  31  32
ATOM     32  C   UNL     1      -2.365 -10.123  -5.329  1.00  0.00     0.338 C 
ATOM     33  O   UNL     1      -1.496 -10.433  -6.124  1.00  0.00    -0.246 OA
BRANCH  32  34
ATOM     34  C   UNL     1      -2.463 -10.668  -3.956  1.00  0.00     0.060 A 
ATOM     35  C   UNL     1      -1.334 -10.606  -3.123  1.00  0.00     0.016 A 
ATOM     36  C   UNL     1      -3.641 -11.261  -3.504  1.00  0.00     0.016 A 
ATOM     37  C   UNL     1      -1.363 -11.182  -1.854  1.00  0.00     0.010 A 
ATOM     38  C   UNL     1      -3.660 -11.868  -2.244  1.00  0.00     0.010 A 
ATOM     39  C   UNL     1      -2.507 -11.872  -1.435  1.00  0.00    -0.014 A 
BRANCH  39  40
ATOM     40  C   UNL     1      -2.401 -12.829  -0.303  1.00  0.00     0.031 A 
ATOM     41  C   UNL     1      -2.151 -14.277  -0.637  1.00  0.00     0.074 A 
ATOM     42  C   UNL     1      -2.477 -12.433   0.980  1.00  0.00     0.049 A 
ATOM     43  N   UNL     1      -2.089 -15.319   0.150  1.00  0.00    -0.248 NA
ATOM     44  C   UNL     1      -1.947 -14.588  -2.062  1.00  0.00     0.031 C 
ATOM     45  C   UNL     1      -2.637 -11.054   1.433  1.00  0.00     0.029 A 
ATOM     46  N   UNL     1      -2.432 -13.167   2.140  1.00  0.00    -0.354 N 
ATOM     47  C   UNL     1      -1.847 -16.407  -0.682  1.00  0.00     0.074 A 
ATOM     48  C   UNL     1      -1.816 -15.903  -2.037  1.00  0.00     0.031 C 
ATOM     49  C   UNL     1      -2.689 -11.042   2.778  1.00  0.00     0.029 A 
ATOM     50  C   UNL     1      -2.609 -12.414   3.278  1.00  0.00     0.049 A 
ATOM     51  H   UNL     1      -2.287 -14.140   2.156  1.00  0.00     0.167 HD
ATOM     52  C   UNL     1      -1.658 -17.707  -0.347  1.00  0.00     0.034 A 
ATOM     53  C   UNL     1      -2.720 -12.796   4.568  1.00  0.00     0.034 A 
ATOM     54  C   UNL     1      -1.707 -18.198   1.007  1.00  0.00     0.049 A 
ATOM     55  C   UNL     1      -2.619 -14.268   4.909  1.00  0.00     0.074 A 
ATOM     56  C   UNL     1      -1.547 -19.495   1.460  1.00  0.00     0.029 A 
ATOM     57  N   UNL     1      -1.943 -17.413   2.129  1.00  0.00    -0.354 N 
ATOM     58  N   UNL     1      -2.410 -15.293   4.113  1.00  0.00    -0.248 NA
ATOM     59  C   UNL     1      -2.757 -14.633   6.326  1.00  0.00     0.031 C 
ATOM     60  C   UNL     1      -1.761 -19.507   2.842  1.00  0.00     0.029 A 
ATOM     61  C   UNL     1      -1.960 -18.203   3.268  1.00  0.00     0.049 A 
ATOM     62  H   UNL     1      -2.079 -16.438   2.117  1.00  0.00     0.167 HD
ATOM     63  C   UNL     1      -2.343 -16.413   4.942  1.00  0.00     0.074 A 
ATOM     64  C   UNL     1      -2.528 -15.937   6.296  1.00  0.00     0.031 C 
ATOM     65  C   UNL     1      -2.138 -17.715   4.616  1.00  0.00     0.034 A 
BRANCH  52  66
ATOM     66  C   UNL     1      -1.441 -18.687  -1.475  1.00  0.00     0.023 A 
ATOM     67  C   UNL     1      -0.322 -18.607  -2.322  1.00  0.00     0.031 A 
ATOM     68  C   UNL     1      -2.389 -19.694  -1.730  1.00  0.00     0.131 A 
ATOM     69  C   UNL     1      -0.216 -19.469  -3.424  1.00  0.00     0.055 A 
ATOM     70  C   UNL     1      -2.233 -20.604  -2.776  1.00  0.00     0.041 A 
ATOM     71  F   UNL     1      -3.492 -19.802  -0.973  1.00  0.00    -0.206 F 
ATOM     72  C   UNL     1      -1.149 -20.485  -3.641  1.00  0.00     0.022 A 
BRANCH  69  73
ATOM     73  S   UNL     1       1.076 -19.146  -4.656  1.00  0.00     0.124 S 
ATOM     74  O   UNL     1       0.746 -17.787  -5.080  1.00  0.00    -0.237 OA
ATOM     75  O   UNL     1       2.300 -19.293  -3.877  1.00  0.00    -0.237 OA
ATOM     76  O   UNL     1       0.851 -20.178  -5.667  1.00  0.00    -0.744 OA
ENDBRANCH  69  73
ENDBRANCH  52  66
BRANCH  53  77
ATOM     77  C   UNL     1      -2.985 -11.793   5.643  1.00  0.00     0.023 A 
ATOM     78  C   UNL     1      -2.087 -11.614   6.708  1.00  0.00     0.031 A 
ATOM     79  C   UNL     1      -4.186 -11.061   5.668  1.00  0.00     0.131 A 
ATOM     80  C   UNL     1      -2.429 -10.774   7.781  1.00  0.00     0.055 A 
ATOM     81  C   UNL     1      -4.492 -10.176   6.704  1.00  0.00     0.041 A 
ATOM     82  F   UNL     1      -5.088 -11.200   4.683  1.00  0.00    -0.206 F 
ATOM     83  C   UNL     1      -3.618 -10.041   7.777  1.00  0.00     0.022 A 
BRANCH  80  84
ATOM     84  S   UNL     1      -1.351 -10.745   9.241  1.00  0.00     0.124 S 
ATOM     85  O   UNL     1      -1.350 -12.149   9.634  1.00  0.00    -0.237 OA
ATOM     86  O   UNL     1      -0.103 -10.232   8.688  1.00  0.00    -0.237 OA
ATOM     87  O   UNL     1      -2.043  -9.841  10.157  1.00  0.00    -0.744 OA
ENDBRANCH  80  84
ENDBRANCH  53  77
BRANCH  65  88
ATOM     88  C   UNL     1      -2.019 -18.708   5.750  1.00  0.00     0.023 A 
ATOM     89  C   UNL     1      -3.092 -19.000   6.609  1.00  0.00     0.031 A 
ATOM     90  C   UNL     1      -0.797 -19.371   5.975  1.00  0.00     0.131 A 
ATOM     91  C   UNL     1      -2.907 -19.881   7.686  1.00  0.00     0.055 A 
ATOM     92  C   UNL     1      -0.639 -20.298   7.005  1.00  0.00     0.041 A 
ATOM     93  F   UNL     1       0.265 -19.132   5.189  1.00  0.00    -0.206 F 
ATOM     94  C   UNL     1      -1.693 -20.546   7.878  1.00  0.00     0.022 A 
BRANCH  91  95
ATOM     95  S   UNL     1      -4.241 -20.068   8.902  1.00  0.00     0.124 S 
ATOM     96  O   UNL     1      -4.446 -18.692   9.342  1.00  0.00    -0.237 OA
ATOM     97  O   UNL     1      -5.314 -20.647   8.100  1.00  0.00    -0.237 OA
ATOM     98  O   UNL     1      -3.668 -20.962   9.907  1.00  0.00    -0.744 OA
ENDBRANCH  91  95
ENDBRANCH  65  88
ENDBRANCH  39  40
ENDBRANCH  32  34
ENDBRANCH  31  32
ENDBRANCH  30  31
ENDBRANCH  29  30
ENDBRANCH  28  29
ENDBRANCH  27  28
ENDBRANCH   1  27
TORSDOF 25
