REMARK SMILES O=C(OCCOCCOCCOC(=O)[C@@H]1[C@@H](C(=O)Nc2cccc([N+](=O)[O-])c2)[C@@H]2C=C[C@H]1O2)c1ccc(-c2c3nc(c(-c4cc(S(=O)(=O)[O-])ccc4F)c4ccc([nH]4)c(-c4cc(S(=O)(=O)[O-])ccc4F)c4nc(c(-c5cc(S(=O)(=O)[O-])ccc5F)c5ccc2[nH]5)C=C4)C=C3)cc1
REMARK SMILES IDX 7 1 6 2 5 3 4 4 3 5 2 6 1 7 34 8 35 9 96 10 36 11 95 12
REMARK SMILES IDX 37 13 38 14 39 15 89 16 40 17 94 18 88 19 90 20 41 21 93 22
REMARK SMILES IDX 87 23 86 24 42 26 74 27 54 28 73 29 55 30 58 31 72 32 91 33
REMARK SMILES IDX 56 34 57 35 71 37 92 38 59 39 43 40 44 41 52 42 45 43 51 44
REMARK SMILES IDX 53 45 50 46 46 47 47 48 48 49 49 50 75 51 76 52 84 53 77 54
REMARK SMILES IDX 83 55 85 56 82 57 78 58 79 59 80 60 81 61 60 62 61 63 69 64
REMARK SMILES IDX 62 65 68 66 70 67 67 68 63 69 64 70 65 71 66 72 8 73 9 74
REMARK SMILES IDX 10 75 11 76 12 77 13 78 14 79 15 80 16 81 32 82 29 83 31 84
REMARK SMILES IDX 33 85 30 86 17 87 18 88 19 89 20 91 21 92 28 93 22 94 24 95
REMARK SMILES IDX 23 96 25 97 26 98 27 99
REMARK H PARENT 90 25 58 36 19 90
REMARK Flexibility Score: inf
ROOT
ATOM      1  C   UNL     1       2.581  -1.623   0.015  1.00  0.00     0.188 C 
ENDROOT
BRANCH   1   2
ATOM      2  O   UNL     1       3.917  -1.336  -0.407  1.00  0.00    -0.376 OA
BRANCH   2   3
ATOM      3  C   UNL     1       4.849  -1.303   0.684  1.00  0.00     0.202 C 
BRANCH   3   4
ATOM      4  C   UNL     1       4.830  -0.017   1.529  1.00  0.00     0.261 C 
BRANCH   4   5
ATOM      5  O   UNL     1       3.516   0.537   1.698  1.00  0.00    -0.460 OA
BRANCH   5   6
ATOM      6  C   UNL     1       2.821   1.363   0.880  1.00  0.00     0.338 C 
ATOM      7  O   UNL     1       1.659   1.627   1.198  1.00  0.00    -0.246 OA
BRANCH   6   8
ATOM      8  C   UNL     1       3.347   1.968  -0.391  1.00  0.00     0.060 A 
ATOM      9  C   UNL     1       4.505   1.591  -1.079  1.00  0.00     0.016 A 
ATOM     10  C   UNL     1       2.566   2.998  -0.953  1.00  0.00     0.016 A 
ATOM     11  C   UNL     1       4.929   2.269  -2.222  1.00  0.00     0.010 A 
ATOM     12  C   UNL     1       2.965   3.663  -2.115  1.00  0.00     0.010 A 
ATOM     13  C   UNL     1       4.181   3.332  -2.719  1.00  0.00    -0.014 A 
BRANCH  13  14
ATOM     14  C   UNL     1       4.787   4.240  -3.713  1.00  0.00     0.031 A 
ATOM     15  C   UNL     1       5.424   5.488  -3.208  1.00  0.00     0.074 A 
ATOM     16  C   UNL     1       4.800   3.942  -5.020  1.00  0.00     0.049 A 
ATOM     17  N   UNL     1       5.957   6.470  -3.878  1.00  0.00    -0.248 NA
ATOM     18  C   UNL     1       5.470   5.641  -1.746  1.00  0.00     0.031 C 
ATOM     19  C   UNL     1       4.273   2.706  -5.572  1.00  0.00     0.029 A 
ATOM     20  N   UNL     1       5.236   4.640  -6.114  1.00  0.00    -0.354 N 
ATOM     21  C   UNL     1       6.407   7.364  -2.919  1.00  0.00     0.074 A 
ATOM     22  C   UNL     1       6.043   6.825  -1.626  1.00  0.00     0.031 C 
ATOM     23  C   UNL     1       4.364   2.750  -6.909  1.00  0.00     0.029 A 
ATOM     24  C   UNL     1       4.935   4.025  -7.306  1.00  0.00     0.049 A 
ATOM     25  H   UNL     1       5.718   5.497  -6.052  1.00  0.00     0.167 HD
ATOM     26  C   UNL     1       7.068   8.530  -3.112  1.00  0.00     0.034 A 
ATOM     27  C   UNL     1       5.057   4.452  -8.578  1.00  0.00     0.034 A 
ATOM     28  C   UNL     1       7.332   9.065  -4.423  1.00  0.00     0.049 A 
ATOM     29  C   UNL     1       5.661   5.809  -8.785  1.00  0.00     0.074 A 
ATOM     30  C   UNL     1       7.914  10.269  -4.768  1.00  0.00     0.029 A 
ATOM     31  N   UNL     1       6.990   8.430  -5.617  1.00  0.00    -0.354 N 
ATOM     32  N   UNL     1       6.074   6.662  -7.874  1.00  0.00    -0.248 NA
ATOM     33  C   UNL     1       5.827   6.264 -10.167  1.00  0.00     0.031 C 
ATOM     34  C   UNL     1       7.861  10.392  -6.163  1.00  0.00     0.029 A 
ATOM     35  C   UNL     1       7.320   9.230  -6.697  1.00  0.00     0.049 A 
ATOM     36  H   UNL     1       6.575   7.540  -5.681  1.00  0.00     0.167 HD
ATOM     37  C   UNL     1       6.578   7.748  -8.572  1.00  0.00     0.074 A 
ATOM     38  C   UNL     1       6.416   7.439  -9.983  1.00  0.00     0.031 C 
ATOM     39  C   UNL     1       7.136   8.889  -8.092  1.00  0.00     0.034 A 
BRANCH  26  40
ATOM     40  C   UNL     1       7.410   9.301  -1.862  1.00  0.00     0.023 A 
ATOM     41  C   UNL     1       8.247   8.750  -0.872  1.00  0.00     0.031 A 
ATOM     42  C   UNL     1       6.743  10.501  -1.569  1.00  0.00     0.131 A 
ATOM     43  C   UNL     1       8.282   9.324   0.408  1.00  0.00     0.055 A 
ATOM     44  C   UNL     1       6.867  11.124  -0.326  1.00  0.00     0.041 A 
ATOM     45  F   UNL     1       5.906  11.054  -2.461  1.00  0.00    -0.206 F 
ATOM     46  C   UNL     1       7.616  10.521   0.681  1.00  0.00     0.022 A 
BRANCH  43  47
ATOM     47  S   UNL     1       9.010   8.355   1.762  1.00  0.00     0.124 S 
ATOM     48  O   UNL     1       8.183   7.144   1.732  1.00  0.00    -0.237 OA
ATOM     49  O   UNL     1      10.384   8.199   1.344  1.00  0.00    -0.237 OA
ATOM     50  O   UNL     1       8.798   9.205   2.941  1.00  0.00    -0.744 OA
ENDBRANCH  43  47
ENDBRANCH  26  40
BRANCH  27  51
ATOM     51  C   UNL     1       4.564   3.604  -9.704  1.00  0.00     0.023 A 
ATOM     52  C   UNL     1       5.439   3.033 -10.641  1.00  0.00     0.031 A 
ATOM     53  C   UNL     1       3.192   3.299  -9.818  1.00  0.00     0.131 A 
ATOM     54  C   UNL     1       4.935   2.186 -11.646  1.00  0.00     0.055 A 
ATOM     55  C   UNL     1       2.704   2.423 -10.789  1.00  0.00     0.041 A 
ATOM     56  F   UNL     1       2.311   3.819  -8.949  1.00  0.00    -0.206 F 
ATOM     57  C   UNL     1       3.577   1.864 -11.715  1.00  0.00     0.022 A 
BRANCH  54  58
ATOM     58  S   UNL     1       6.083   1.518 -12.883  1.00  0.00     0.124 S 
ATOM     59  O   UNL     1       6.674   2.732 -13.433  1.00  0.00    -0.237 OA
ATOM     60  O   UNL     1       6.962   0.692 -12.060  1.00  0.00    -0.237 OA
ATOM     61  O   UNL     1       5.213   0.779 -13.796  1.00  0.00    -0.744 OA
ENDBRANCH  54  58
ENDBRANCH  27  51
BRANCH  39  62
ATOM     62  C   UNL     1       7.662   9.857  -9.114  1.00  0.00     0.023 A 
ATOM     63  C   UNL     1       6.804  10.599  -9.942  1.00  0.00     0.031 A 
ATOM     64  C   UNL     1       9.049  10.045  -9.244  1.00  0.00     0.131 A 
ATOM     65  C   UNL     1       7.348  11.469 -10.896  1.00  0.00     0.055 A 
ATOM     66  C   UNL     1       9.581  10.955 -10.154  1.00  0.00     0.041 A 
ATOM     67  F   UNL     1       9.906   9.352  -8.476  1.00  0.00    -0.206 F 
ATOM     68  C   UNL     1       8.729  11.668 -10.993  1.00  0.00     0.022 A 
BRANCH  65  69
ATOM     69  S   UNL     1       6.227  12.297 -12.055  1.00  0.00     0.124 S 
ATOM     70  O   UNL     1       5.675  11.167 -12.795  1.00  0.00    -0.237 OA
ATOM     71  O   UNL     1       5.304  12.988 -11.162  1.00  0.00    -0.237 OA
ATOM     72  O   UNL     1       7.114  13.169 -12.823  1.00  0.00    -0.744 OA
ENDBRANCH  65  69
ENDBRANCH  39  62
ENDBRANCH  13  14
ENDBRANCH   6   8
ENDBRANCH   5   6
ENDBRANCH   4   5
ENDBRANCH   3   4
ENDBRANCH   2   3
ENDBRANCH   1   2
BRANCH   1  73
ATOM     73  C   UNL     1       1.981  -2.932  -0.500  1.00  0.00     0.188 C 
BRANCH  73  74
ATOM     74  O   UNL     1       2.763  -4.108  -0.379  1.00  0.00    -0.376 OA
BRANCH  74  75
ATOM     75  C   UNL     1       3.967  -4.158  -1.132  1.00  0.00     0.202 C 
BRANCH  75  76
ATOM     76  C   UNL     1       3.905  -4.026  -2.658  1.00  0.00     0.261 C 
BRANCH  76  77
ATOM     77  O   UNL     1       3.261  -2.860  -3.214  1.00  0.00    -0.463 OA
BRANCH  77  78
ATOM     78  C   UNL     1       2.098  -3.097  -3.883  1.00  0.00     0.312 C 
ATOM     79  O   UNL     1       1.492  -4.163  -3.844  1.00  0.00    -0.252 OA
BRANCH  78  80
ATOM     80  C   UNL     1       1.617  -1.957  -4.742  1.00  0.00     0.147 C 
ATOM     81  C   UNL     1       2.404  -0.631  -4.760  1.00  0.00     0.129 C 
ATOM     82  C   UNL     1       0.216  -1.502  -4.313  1.00  0.00     0.157 C 
ATOM     83  C   UNL     1       1.278   0.387  -4.449  1.00  0.00     0.155 C 
ATOM     84  C   UNL     1       0.186  -0.907  -2.935  1.00  0.00     0.004 C 
ATOM     85  O   UNL     1       0.131  -0.268  -5.066  1.00  0.00    -0.365 OA
ATOM     86  C   UNL     1       0.846   0.255  -3.018  1.00  0.00     0.004 C 
BRANCH  81  87
ATOM     87  C   UNL     1       2.965  -0.323  -6.148  1.00  0.00     0.231 C 
ATOM     88  O   UNL     1       2.311   0.248  -7.017  1.00  0.00    -0.274 OA
ATOM     89  N   UNL     1       4.298  -0.569  -6.366  1.00  0.00    -0.325 N 
ATOM     90  H   UNL     1       4.782   0.112  -6.887  1.00  0.00     0.169 HD
BRANCH  89  91
ATOM     91  C   UNL     1       5.052  -1.662  -5.944  1.00  0.00     0.048 A 
ATOM     92  C   UNL     1       6.368  -1.460  -5.527  1.00  0.00     0.026 A 
ATOM     93  C   UNL     1       4.551  -2.951  -6.097  1.00  0.00     0.111 A 
ATOM     94  C   UNL     1       7.161  -2.551  -5.163  1.00  0.00     0.009 A 
ATOM     95  C   UNL     1       5.357  -4.040  -5.759  1.00  0.00     0.271 A 
ATOM     96  C   UNL     1       6.657  -3.849  -5.273  1.00  0.00     0.086 A 
BRANCH  95  97
ATOM     97  N   UNL     1       4.809  -5.393  -5.869  1.00  0.00     0.062 N 
ATOM     98  O   UNL     1       5.384  -6.295  -5.242  1.00  0.00    -0.258 OA
ATOM     99  O   UNL     1       3.785  -5.549  -6.548  1.00  0.00    -0.258 OA
ENDBRANCH  95  97
ENDBRANCH  89  91
ENDBRANCH  81  87
ENDBRANCH  78  80
ENDBRANCH  77  78
ENDBRANCH  76  77
ENDBRANCH  75  76
ENDBRANCH  74  75
ENDBRANCH  73  74
ENDBRANCH   1  73
TORSDOF 23
