REMARK SMILES O=C(CSc1nnc2sc3ccccc3n12)N[C@H](Cc1c[nH]c2ccccc12)C(=O)OCCOCCOCCOC(=O)c1ccc(-c2c3nc(c(-c4cc(S(=O)(=O)[O-])ccc4F)c4ccc([nH]4)c(-c4cc(S(=O)(=O)[O-])ccc4F)c4nc(c(-c5cc(S(=O)(=O)[O-])ccc5F)c5ccc2[nH]5)C=C4)C=C3)cc1
REMARK SMILES IDX 35 1 34 2 33 3 32 4 31 5 29 6 30 7 18 8 17 9 1 10 2 11 3 13
REMARK SMILES IDX 4 14 5 15 6 16 16 17 7 18 8 19 15 20 9 21 10 22 14 23 11 24
REMARK SMILES IDX 13 25 12 26 19 27 20 28 21 29 28 30 22 31 23 32 27 33 24 35
REMARK SMILES IDX 26 36 25 37 36 38 37 39 38 40 39 41 40 42 41 43 42 44 43 45
REMARK SMILES IDX 44 46 105 47 45 48 104 49 46 50 47 51 48 52 98 53 49 54
REMARK SMILES IDX 103 55 97 56 99 57 50 58 102 59 96 60 95 61 51 63 83 64
REMARK SMILES IDX 63 65 82 66 64 67 67 68 81 69 100 70 65 71 66 72 80 74
REMARK SMILES IDX 101 75 68 76 52 77 53 78 61 79 54 80 60 81 62 82 59 83 55 84
REMARK SMILES IDX 56 85 57 86 58 87 84 88 85 89 93 90 86 91 92 92 94 93 91 94
REMARK SMILES IDX 87 95 88 96 89 97 90 98 69 99 70 100 78 101 71 102 77 103
REMARK SMILES IDX 79 104 76 105 72 106 73 107 74 108 75 109
REMARK H PARENT 17 12 22 34 99 62 67 73
REMARK Flexibility Score: inf
ROOT
ATOM      1  C   UNL     1       2.970  -1.454   4.952  1.00  0.00     0.188 C 
ENDROOT
BRANCH   1   2
ATOM      2  O   UNL     1       3.604  -2.658   5.479  1.00  0.00    -0.376 OA
BRANCH   2   3
ATOM      3  C   UNL     1       4.138  -3.920   4.938  1.00  0.00     0.202 C 
BRANCH   3   4
ATOM      4  C   UNL     1       4.099  -4.768   3.285  1.00  0.00     0.261 C 
BRANCH   4   5
ATOM      5  O   UNL     1       3.675  -3.785   1.534  1.00  0.00    -0.462 OA
BRANCH   5   6
ATOM      6  C   UNL     1       3.115  -2.525   0.920  1.00  0.00     0.329 C 
ATOM      7  O   UNL     1       2.486  -1.659   1.538  1.00  0.00    -0.250 OA
BRANCH   6   8
ATOM      8  C   UNL     1       3.377  -2.233  -0.547  1.00  0.00     0.196 C 
BRANCH   8   9
ATOM      9  N   UNL     1       3.807  -3.405  -1.286  1.00  0.00    -0.342 N 
ATOM     10  O   UNL     1       6.020  -2.984  -1.568  1.00  0.00    -0.274 OA
ATOM     11  C   UNL     1       5.034  -3.671  -1.804  1.00  0.00     0.231 C 
ATOM     12  H   UNL     1       3.122  -4.097  -1.431  1.00  0.00     0.164 HD
BRANCH  11  13
ATOM     13  C   UNL     1       5.052  -4.905  -2.701  1.00  0.00     0.178 C 
BRANCH  13  14
ATOM     14  S   UNL     1       5.109  -6.490  -1.789  1.00  0.00    -0.076 SA
BRANCH  14  15
ATOM     15  C   UNL     1       6.394  -6.169  -0.678  1.00  0.00     0.197 A 
ATOM     16  N   UNL     1       7.686  -6.176  -0.944  1.00  0.00    -0.122 NA
ATOM     17  N   UNL     1       6.183  -5.481   0.469  1.00  0.00    -0.260 N 
ATOM     18  N   UNL     1       8.314  -5.317  -0.036  1.00  0.00    -0.118 NA
ATOM     19  C   UNL     1       7.364  -4.828   0.723  1.00  0.00     0.217 A 
ATOM     20  C   UNL     1       5.079  -5.111   1.198  1.00  0.00     0.068 A 
ATOM     21  S   UNL     1       7.328  -3.467   1.832  1.00  0.00    -0.094 S 
ATOM     22  C   UNL     1       5.575  -3.658   2.017  1.00  0.00     0.055 A 
ATOM     23  C   UNL     1       3.459  -5.757   1.252  1.00  0.00     0.028 A 
ATOM     24  C   UNL     1       4.383  -2.778   2.958  1.00  0.00     0.021 A 
ATOM     25  C   UNL     1       2.192  -4.926   2.163  1.00  0.00     0.002 A 
ATOM     26  C   UNL     1       2.613  -3.436   3.067  1.00  0.00     0.002 A 
ENDBRANCH  14  15
ENDBRANCH  13  14
ENDBRANCH  11  13
ENDBRANCH   8   9
BRANCH   8  27
ATOM     27  C   UNL     1       4.107  -0.867  -0.695  1.00  0.00     0.074 C 
BRANCH  27  28
ATOM     28  C   UNL     1       3.220   0.395  -0.688  1.00  0.00    -0.020 A 
ATOM     29  C   UNL     1       2.053   0.611  -1.406  1.00  0.00     0.087 A 
ATOM     30  C   UNL     1       3.455   1.628   0.035  1.00  0.00     0.003 A 
ATOM     31  N   UNL     1       1.589   1.881  -1.153  1.00  0.00    -0.361 N 
ATOM     32  C   UNL     1       2.416   2.519  -0.259  1.00  0.00     0.046 A 
ATOM     33  C   UNL     1       4.450   2.066   0.934  1.00  0.00     0.010 A 
ATOM     34  H   UNL     1       0.782   2.277  -1.554  1.00  0.00     0.166 HD
ATOM     35  C   UNL     1       2.296   3.788   0.336  1.00  0.00     0.026 A 
ATOM     36  C   UNL     1       4.359   3.337   1.521  1.00  0.00     0.001 A 
ATOM     37  C   UNL     1       3.288   4.179   1.238  1.00  0.00     0.002 A 
ENDBRANCH  27  28
ENDBRANCH   8  27
ENDBRANCH   6   8
ENDBRANCH   5   6
ENDBRANCH   4   5
ENDBRANCH   3   4
ENDBRANCH   2   3
ENDBRANCH   1   2
BRANCH   1  38
ATOM     38  C   UNL     1       3.642  -0.367   3.994  1.00  0.00     0.188 C 
BRANCH  38  39
ATOM     39  O   UNL     1       4.821   0.228   4.517  1.00  0.00    -0.376 OA
BRANCH  39  40
ATOM     40  C   UNL     1       4.585   0.810   5.792  1.00  0.00     0.202 C 
BRANCH  40  41
ATOM     41  C   UNL     1       3.394   1.817   5.840  1.00  0.00     0.261 C 
BRANCH  41  42
ATOM     42  O   UNL     1       2.080   1.210   5.544  1.00  0.00    -0.460 OA
BRANCH  42  43
ATOM     43  C   UNL     1       1.286   1.833   4.610  1.00  0.00     0.338 C 
ATOM     44  O   UNL     1       1.367   3.026   4.352  1.00  0.00    -0.246 OA
BRANCH  43  45
ATOM     45  C   UNL     1       0.540   0.845   3.713  1.00  0.00     0.060 A 
ATOM     46  C   UNL     1      -0.176  -0.293   4.098  1.00  0.00     0.016 A 
ATOM     47  C   UNL     1       0.658   1.052   2.339  1.00  0.00     0.016 A 
ATOM     48  C   UNL     1      -0.654  -1.238   3.119  1.00  0.00     0.010 A 
ATOM     49  C   UNL     1       0.186   0.118   1.387  1.00  0.00     0.010 A 
ATOM     50  C   UNL     1      -0.406  -1.094   1.735  1.00  0.00    -0.014 A 
BRANCH  50  51
ATOM     51  C   UNL     1      -1.090  -1.884   0.633  1.00  0.00     0.031 A 
ATOM     52  C   UNL     1      -2.510  -1.525   0.614  1.00  0.00     0.074 A 
ATOM     53  C   UNL     1      -0.742  -2.765  -0.359  1.00  0.00     0.049 A 
ATOM     54  N   UNL     1      -3.405  -2.241   1.201  1.00  0.00    -0.248 NA
ATOM     55  C   UNL     1      -2.966  -0.227   0.125  1.00  0.00     0.031 C 
ATOM     56  C   UNL     1       0.528  -3.418  -0.578  1.00  0.00     0.029 A 
ATOM     57  N   UNL     1      -1.465  -3.307  -1.426  1.00  0.00    -0.354 N 
ATOM     58  C   UNL     1      -4.598  -1.617   0.925  1.00  0.00     0.074 A 
ATOM     59  C   UNL     1      -4.252  -0.285   0.483  1.00  0.00     0.031 C 
ATOM     60  C   UNL     1       0.614  -3.992  -1.800  1.00  0.00     0.029 A 
ATOM     61  C   UNL     1      -0.690  -3.932  -2.428  1.00  0.00     0.049 A 
ATOM     62  H   UNL     1      -2.447  -3.256  -1.476  1.00  0.00     0.167 HD
ATOM     63  C   UNL     1      -5.731  -2.361   0.818  1.00  0.00     0.034 A 
ATOM     64  C   UNL     1      -0.975  -4.803  -3.446  1.00  0.00     0.034 A 
ATOM     65  C   UNL     1      -5.517  -3.713   1.293  1.00  0.00     0.049 A 
ATOM     66  C   UNL     1      -2.224  -5.495  -3.117  1.00  0.00     0.074 A 
ATOM     67  C   UNL     1      -5.124  -4.285   2.487  1.00  0.00     0.029 A 
ATOM     68  N   UNL     1      -5.333  -4.683   0.338  1.00  0.00    -0.354 N 
ATOM     69  N   UNL     1      -2.304  -6.425  -2.215  1.00  0.00    -0.248 NA
ATOM     70  C   UNL     1      -3.455  -4.821  -3.464  1.00  0.00     0.031 C 
ATOM     71  C   UNL     1      -4.348  -5.428   2.134  1.00  0.00     0.029 A 
ATOM     72  C   UNL     1      -4.356  -5.556   0.746  1.00  0.00     0.049 A 
ATOM     73  H   UNL     1      -5.828  -4.743  -0.511  1.00  0.00     0.167 HD
ATOM     74  C   UNL     1      -3.429  -6.063  -1.500  1.00  0.00     0.074 A 
ATOM     75  C   UNL     1      -4.160  -5.150  -2.382  1.00  0.00     0.031 C 
ATOM     76  C   UNL     1      -3.506  -6.308  -0.161  1.00  0.00     0.034 A 
BRANCH  63  77
ATOM     77  C   UNL     1      -6.876  -1.970  -0.073  1.00  0.00     0.023 A 
ATOM     78  C   UNL     1      -6.776  -0.973  -1.063  1.00  0.00     0.031 A 
ATOM     79  C   UNL     1      -8.055  -2.734  -0.085  1.00  0.00     0.131 A 
ATOM     80  C   UNL     1      -7.812  -0.727  -1.968  1.00  0.00     0.055 A 
ATOM     81  C   UNL     1      -9.060  -2.543  -1.040  1.00  0.00     0.041 A 
ATOM     82  F   UNL     1      -8.240  -3.727   0.799  1.00  0.00    -0.206 F 
ATOM     83  C   UNL     1      -8.945  -1.530  -1.985  1.00  0.00     0.022 A 
BRANCH  80  84
ATOM     84  S   UNL     1      -7.689   0.651  -3.142  1.00  0.00     0.124 S 
ATOM     85  O   UNL     1      -7.826  -0.033  -4.422  1.00  0.00    -0.237 OA
ATOM     86  O   UNL     1      -8.821   1.480  -2.737  1.00  0.00    -0.237 OA
ATOM     87  O   UNL     1      -6.374   1.221  -2.863  1.00  0.00    -0.744 OA
ENDBRANCH  80  84
ENDBRANCH  63  77
BRANCH  64  88
ATOM     88  C   UNL     1      -0.539  -4.706  -4.873  1.00  0.00     0.023 A 
ATOM     89  C   UNL     1      -0.038  -3.494  -5.364  1.00  0.00     0.031 A 
ATOM     90  C   UNL     1      -0.875  -5.693  -5.831  1.00  0.00     0.131 A 
ATOM     91  C   UNL     1       0.012  -3.253  -6.747  1.00  0.00     0.055 A 
ATOM     92  C   UNL     1      -0.788  -5.463  -7.213  1.00  0.00     0.041 A 
ATOM     93  F   UNL     1      -1.364  -6.882  -5.445  1.00  0.00    -0.206 F 
ATOM     94  C   UNL     1      -0.364  -4.224  -7.678  1.00  0.00     0.022 A 
BRANCH  91  95
ATOM     95  S   UNL     1       0.461  -1.605  -7.354  1.00  0.00     0.124 S 
ATOM     96  O   UNL     1       1.394  -1.915  -8.435  1.00  0.00    -0.237 OA
ATOM     97  O   UNL     1      -0.836  -1.084  -7.769  1.00  0.00    -0.237 OA
ATOM     98  O   UNL     1       1.058  -0.972  -6.182  1.00  0.00    -0.744 OA
ENDBRANCH  91  95
ENDBRANCH  64  88
BRANCH  76  99
ATOM     99  C   UNL     1      -2.519  -7.287   0.459  1.00  0.00     0.023 A 
ATOM    100  C   UNL     1      -3.056  -8.292   1.281  1.00  0.00     0.031 A 
ATOM    101  C   UNL     1      -1.112  -7.194   0.406  1.00  0.00     0.131 A 
ATOM    102  C   UNL     1      -2.221  -9.116   2.046  1.00  0.00     0.055 A 
ATOM    103  C   UNL     1      -0.277  -8.065   1.119  1.00  0.00     0.041 A 
ATOM    104  F   UNL     1      -0.493  -6.224  -0.278  1.00  0.00    -0.206 F 
ATOM    105  C   UNL     1      -0.831  -9.021   1.960  1.00  0.00     0.022 A 
BRANCH 102 106
ATOM    106  S   UNL     1      -2.925 -10.240   3.277  1.00  0.00     0.124 S 
ATOM    107  O   UNL     1      -2.523 -11.547   2.764  1.00  0.00    -0.237 OA
ATOM    108  O   UNL     1      -2.249  -9.812   4.500  1.00  0.00    -0.237 OA
ATOM    109  O   UNL     1      -4.356  -9.961   3.231  1.00  0.00    -0.744 OA
ENDBRANCH 102 106
ENDBRANCH  76  99
ENDBRANCH  50  51
ENDBRANCH  43  45
ENDBRANCH  42  43
ENDBRANCH  41  42
ENDBRANCH  40  41
ENDBRANCH  39  40
ENDBRANCH  38  39
ENDBRANCH   1  38
TORSDOF 26
