REMARK SMILES COc1cc([C@@H]2CC(=O)Nc3c(C(=O)OCCOCCOCCOC(=O)c4ccc(-c5c6nc(c(-c7cc(S(=O)(=O)[O-])ccc7F)c7ccc([nH]7)c(-c7cc(S(=O)(=O)[O-])ccc7F)c7nc(c(-c8cc(S(=O)(=O)[O-])ccc8F)c8ccc5[nH]8)C=C7)C=C6)cc4)cn(-c4ccc(F)cc4)c32)c(OC)c2c1OCO2
REMARK SMILES IDX 20 1 19 2 18 3 17 4 16 5 15 6 13 7 14 8 12 9 6 10 7 11 99 12
REMARK SMILES IDX 8 13 11 14 91 15 9 16 10 17 90 18 5 20 3 21 4 22 104 23
REMARK SMILES IDX 103 24 105 25 100 26 107 27 106 28 2 29 1 30 101 31 102 32
REMARK SMILES IDX 92 33 93 34 98 35 94 36 97 37 95 38 96 39 21 40 22 41 23 42
REMARK SMILES IDX 24 43 25 44 26 45 27 46 28 47 89 48 29 49 88 50 30 51 31 52
REMARK SMILES IDX 32 53 82 54 33 55 87 56 81 57 83 58 34 59 86 60 80 61 79 62
REMARK SMILES IDX 35 64 67 65 47 66 66 67 48 68 51 69 65 70 84 71 49 72 50 73
REMARK SMILES IDX 64 75 85 76 52 77 36 78 37 79 45 80 38 81 44 82 46 83 43 84
REMARK SMILES IDX 39 85 40 86 41 87 42 88 68 89 69 90 77 91 70 92 76 93 78 94
REMARK SMILES IDX 75 95 71 96 72 97 73 98 74 99 53 100 54 101 62 102 55 103
REMARK SMILES IDX 61 104 63 105 60 106 56 107 57 108 58 109 59 110
REMARK H PARENT 10 19 83 63 51 74
REMARK Flexibility Score: inf
ROOT
ATOM      1  C   UNL     1      -2.062   6.840  -8.056  1.00  0.00     0.188 C 
ENDROOT
BRANCH   1   2
ATOM      2  C   UNL     1      -1.976   8.129  -7.200  1.00  0.00     0.188 C 
BRANCH   2   3
ATOM      3  O   UNL     1      -1.281   9.281  -7.660  1.00  0.00    -0.376 OA
BRANCH   3   4
ATOM      4  C   UNL     1      -0.096   9.152  -8.428  1.00  0.00     0.202 C 
BRANCH   4   5
ATOM      5  C   UNL     1       1.087   8.298  -7.923  1.00  0.00     0.261 C 
BRANCH   5   6
ATOM      6  O   UNL     1       0.763   7.010  -7.376  1.00  0.00    -0.460 OA
BRANCH   6   7
ATOM      7  C   UNL     1       0.656   6.954  -6.016  1.00  0.00     0.341 C 
ATOM      8  O   UNL     1       0.990   7.850  -5.258  1.00  0.00    -0.246 OA
BRANCH   7   9
ATOM      9  C   UNL     1      -0.015   5.741  -5.556  1.00  0.00     0.102 A 
ATOM     10  C   UNL     1      -0.559   2.107  -5.240  1.00  0.00     0.082 C 
ATOM     11  C   UNL     1      -0.418   1.674  -6.709  1.00  0.00     0.115 C 
ATOM     12  C   UNL     1      -0.620   3.603  -5.169  1.00  0.00     0.055 A 
ATOM     13  C   UNL     1       0.426   2.594  -7.588  1.00  0.00     0.225 C 
ATOM     14  C   UNL     1      -0.056   4.438  -6.106  1.00  0.00     0.078 A 
ATOM     15  N   UNL     1      -1.213   4.386  -4.205  1.00  0.00    -0.317 N 
ATOM     16  O   UNL     1       0.997   2.168  -8.594  1.00  0.00    -0.275 OA
ATOM     17  N   UNL     1       0.459   3.935  -7.279  1.00  0.00    -0.324 N 
ATOM     18  C   UNL     1      -0.836   5.690  -4.434  1.00  0.00     0.109 A 
ATOM     19  H   UNL     1       0.866   4.558  -7.923  1.00  0.00     0.170 HD
BRANCH  10  20
ATOM     20  C   UNL     1       0.547   1.529  -4.337  1.00  0.00     0.012 A 
ATOM     21  C   UNL     1       1.061   0.164  -2.361  1.00  0.00     0.165 A 
ATOM     22  C   UNL     1       0.162   0.595  -3.338  1.00  0.00     0.059 A 
ATOM     23  C   UNL     1       2.372   0.587  -2.454  1.00  0.00     0.211 A 
ATOM     24  C   UNL     1       2.782   1.449  -3.449  1.00  0.00     0.211 A 
ATOM     25  O   UNL     1       3.398   0.226  -1.632  1.00  0.00    -0.449 OA
ATOM     26  C   UNL     1       1.901   1.945  -4.398  1.00  0.00     0.168 A 
ATOM     27  O   UNL     1       4.113   1.734  -3.347  1.00  0.00    -0.449 OA
ATOM     28  C   UNL     1       4.505   0.894  -2.254  1.00  0.00     0.468 C 
BRANCH  21  29
ATOM     29  O   UNL     1       0.571  -0.665  -1.392  1.00  0.00    -0.493 OA
ATOM     30  C   UNL     1       0.895  -0.227  -0.072  1.00  0.00     0.278 C 
ENDBRANCH  21  29
BRANCH  26  31
ATOM     31  O   UNL     1       2.225   2.809  -5.394  1.00  0.00    -0.492 OA
ATOM     32  C   UNL     1       3.540   3.323  -5.509  1.00  0.00     0.278 C 
ENDBRANCH  26  31
ENDBRANCH  10  20
BRANCH  15  33
ATOM     33  C   UNL     1      -2.006   3.957  -3.123  1.00  0.00     0.046 A 
ATOM     34  C   UNL     1      -1.421   3.179  -2.123  1.00  0.00     0.029 A 
ATOM     35  C   UNL     1      -3.367   4.281  -3.081  1.00  0.00     0.029 A 
ATOM     36  C   UNL     1      -2.215   2.646  -1.111  1.00  0.00     0.041 A 
ATOM     37  C   UNL     1      -4.156   3.747  -2.057  1.00  0.00     0.041 A 
ATOM     38  C   UNL     1      -3.577   2.923  -1.094  1.00  0.00     0.123 A 
ATOM     39  F   UNL     1      -4.340   2.389  -0.132  1.00  0.00    -0.207 F 
ENDBRANCH  15  33
ENDBRANCH   7   9
ENDBRANCH   6   7
ENDBRANCH   5   6
ENDBRANCH   4   5
ENDBRANCH   3   4
ENDBRANCH   2   3
ENDBRANCH   1   2
BRANCH   1  40
ATOM     40  O   UNL     1      -1.224   6.829  -9.195  1.00  0.00    -0.376 OA
BRANCH  40  41
ATOM     41  C   UNL     1      -1.776   6.893 -10.503  1.00  0.00     0.202 C 
BRANCH  41  42
ATOM     42  C   UNL     1      -2.823   7.942 -10.883  1.00  0.00     0.261 C 
BRANCH  42  43
ATOM     43  O   UNL     1      -3.537   8.477  -9.792  1.00  0.00    -0.460 OA
BRANCH  43  44
ATOM     44  C   UNL     1      -4.563   7.704  -9.377  1.00  0.00     0.338 C 
ATOM     45  O   UNL     1      -4.842   6.589  -9.768  1.00  0.00    -0.246 OA
BRANCH  44  46
ATOM     46  C   UNL     1      -5.291   8.442  -8.336  1.00  0.00     0.060 A 
ATOM     47  C   UNL     1      -6.323   7.734  -7.721  1.00  0.00     0.016 A 
ATOM     48  C   UNL     1      -5.262   9.838  -8.424  1.00  0.00     0.016 A 
ATOM     49  C   UNL     1      -7.522   8.382  -7.598  1.00  0.00     0.010 A 
ATOM     50  C   UNL     1      -6.464  10.472  -8.344  1.00  0.00     0.010 A 
ATOM     51  C   UNL     1      -7.587   9.694  -8.068  1.00  0.00    -0.014 A 
BRANCH  51  52
ATOM     52  C   UNL     1      -8.880  10.268  -8.330  1.00  0.00     0.031 A 
ATOM     53  C   UNL     1      -9.462  10.876  -7.124  1.00  0.00     0.074 A 
ATOM     54  C   UNL     1      -9.356  10.326  -9.588  1.00  0.00     0.049 A 
ATOM     55  N   UNL     1     -10.450  10.427  -6.428  1.00  0.00    -0.248 NA
ATOM     56  C   UNL     1      -8.693  11.941  -6.456  1.00  0.00     0.031 C 
ATOM     57  C   UNL     1      -8.698   9.948 -10.844  1.00  0.00     0.029 A 
ATOM     58  N   UNL     1     -10.519  10.871 -10.016  1.00  0.00    -0.354 N 
ATOM     59  C   UNL     1     -10.574  11.315  -5.369  1.00  0.00     0.074 A 
ATOM     60  C   UNL     1      -9.321  12.007  -5.285  1.00  0.00     0.031 C 
ATOM     61  C   UNL     1      -9.367  10.507 -11.881  1.00  0.00     0.029 A 
ATOM     62  C   UNL     1     -10.547  11.185 -11.372  1.00  0.00     0.049 A 
ATOM     63  H   UNL     1     -11.283  11.032  -9.417  1.00  0.00     0.167 HD
ATOM     64  C   UNL     1     -11.789  11.616  -4.841  1.00  0.00     0.034 A 
ATOM     65  C   UNL     1     -11.410  12.067 -11.952  1.00  0.00     0.034 A 
ATOM     66  C   UNL     1     -12.783  10.661  -5.278  1.00  0.00     0.049 A 
ATOM     67  C   UNL     1     -12.572  12.172 -11.015  1.00  0.00     0.074 A 
ATOM     68  C   UNL     1     -12.928   9.296  -5.123  1.00  0.00     0.029 A 
ATOM     69  N   UNL     1     -13.583  11.008  -6.348  1.00  0.00    -0.354 N 
ATOM     70  N   UNL     1     -13.361  11.159 -10.750  1.00  0.00    -0.248 NA
ATOM     71  C   UNL     1     -12.516  13.188  -9.966  1.00  0.00     0.031 C 
ATOM     72  C   UNL     1     -13.394   8.833  -6.387  1.00  0.00     0.029 A 
ATOM     73  C   UNL     1     -13.610   9.939  -7.214  1.00  0.00     0.049 A 
ATOM     74  H   UNL     1     -14.050  11.866  -6.469  1.00  0.00     0.167 HD
ATOM     75  C   UNL     1     -13.558  11.192  -9.374  1.00  0.00     0.074 A 
ATOM     76  C   UNL     1     -13.069  12.507  -8.954  1.00  0.00     0.031 C 
ATOM     77  C   UNL     1     -13.794  10.053  -8.653  1.00  0.00     0.034 A 
BRANCH  64  78
ATOM     78  C   UNL     1     -12.154  12.950  -4.240  1.00  0.00     0.023 A 
ATOM     79  C   UNL     1     -13.454  13.070  -3.720  1.00  0.00     0.031 A 
ATOM     80  C   UNL     1     -11.432  14.160  -4.373  1.00  0.00     0.131 A 
ATOM     81  C   UNL     1     -14.012  14.331  -3.458  1.00  0.00     0.055 A 
ATOM     82  C   UNL     1     -11.966  15.407  -4.042  1.00  0.00     0.041 A 
ATOM     83  F   UNL     1     -10.212  14.234  -4.915  1.00  0.00    -0.206 F 
ATOM     84  C   UNL     1     -13.276  15.502  -3.614  1.00  0.00     0.022 A 
BRANCH  81  85
ATOM     85  S   UNL     1     -15.778  14.418  -3.085  1.00  0.00     0.124 S 
ATOM     86  O   UNL     1     -16.355  13.678  -4.203  1.00  0.00    -0.237 OA
ATOM     87  O   UNL     1     -15.839  13.768  -1.780  1.00  0.00    -0.237 OA
ATOM     88  O   UNL     1     -16.051  15.853  -3.082  1.00  0.00    -0.744 OA
ENDBRANCH  81  85
ENDBRANCH  64  78
BRANCH  65  89
ATOM     89  C   UNL     1     -11.042  13.090 -12.984  1.00  0.00     0.023 A 
ATOM     90  C   UNL     1     -11.981  13.763 -13.800  1.00  0.00     0.031 A 
ATOM     91  C   UNL     1      -9.711  13.573 -13.046  1.00  0.00     0.131 A 
ATOM     92  C   UNL     1     -11.567  14.838 -14.634  1.00  0.00     0.055 A 
ATOM     93  C   UNL     1      -9.309  14.622 -13.875  1.00  0.00     0.041 A 
ATOM     94  F   UNL     1      -8.755  13.093 -12.236  1.00  0.00    -0.206 F 
ATOM     95  C   UNL     1     -10.238  15.264 -14.671  1.00  0.00     0.022 A 
BRANCH  92  96
ATOM     96  S   UNL     1     -12.773  15.765 -15.646  1.00  0.00     0.124 S 
ATOM     97  O   UNL     1     -13.173  14.775 -16.639  1.00  0.00    -0.237 OA
ATOM     98  O   UNL     1     -13.781  16.145 -14.664  1.00  0.00    -0.237 OA
ATOM     99  O   UNL     1     -11.989  16.882 -16.177  1.00  0.00    -0.744 OA
ENDBRANCH  92  96
ENDBRANCH  65  89
BRANCH  77 100
ATOM    100  C   UNL     1     -14.061   8.752  -9.394  1.00  0.00     0.023 A 
ATOM    101  C   UNL     1     -13.164   8.127 -10.294  1.00  0.00     0.031 A 
ATOM    102  C   UNL     1     -15.207   8.030  -9.016  1.00  0.00     0.131 A 
ATOM    103  C   UNL     1     -13.435   6.827 -10.771  1.00  0.00     0.055 A 
ATOM    104  C   UNL     1     -15.456   6.735  -9.469  1.00  0.00     0.041 A 
ATOM    105  F   UNL     1     -16.084   8.556  -8.145  1.00  0.00    -0.206 F 
ATOM    106  C   UNL     1     -14.571   6.128 -10.350  1.00  0.00     0.022 A 
BRANCH 103 107
ATOM    107  S   UNL     1     -12.314   6.013 -11.958  1.00  0.00     0.124 S 
ATOM    108  O   UNL     1     -12.106   7.034 -12.979  1.00  0.00    -0.237 OA
ATOM    109  O   UNL     1     -11.157   5.690 -11.129  1.00  0.00    -0.237 OA
ATOM    110  O   UNL     1     -13.082   4.850 -12.409  1.00  0.00    -0.744 OA
ENDBRANCH 103 107
ENDBRANCH  77 100
ENDBRANCH  51  52
ENDBRANCH  44  46
ENDBRANCH  43  44
ENDBRANCH  42  43
ENDBRANCH  41  42
ENDBRANCH  40  41
ENDBRANCH   1  40
TORSDOF 24
