REMARK SMILES O=C(OCCOCCOCCOC(=O)[C@H]1Cc2[nH]cnc2CN1C(=O)C[C@]12C[C@H]3C[C@H](C[C@H](C3)C1)C2)c1ccc(-c2c3nc(c(-c4cc(S(=O)(=O)[O-])ccc4F)c4ccc([nH]4)c(-c4cc(S(=O)(=O)[O-])ccc4F)c4nc(c(-c5cc(S(=O)(=O)[O-])ccc5F)c5ccc2[nH]5)C=C4)C=C3)cc1
REMARK SMILES IDX 7 1 6 2 5 3 4 4 3 5 2 6 1 7 37 8 38 9 99 10 39 11 98 12
REMARK SMILES IDX 40 13 41 14 42 15 92 16 43 17 97 18 91 19 93 20 44 21 96 22
REMARK SMILES IDX 90 23 89 24 45 26 77 27 57 28 76 29 58 30 61 31 75 32 94 33
REMARK SMILES IDX 59 34 60 35 74 37 95 38 62 39 46 40 47 41 55 42 48 43 54 44
REMARK SMILES IDX 56 45 53 46 49 47 50 48 51 49 52 50 78 51 79 52 87 53 80 54
REMARK SMILES IDX 86 55 88 56 85 57 81 58 82 59 83 60 84 61 63 62 64 63 72 64
REMARK SMILES IDX 65 65 71 66 73 67 70 68 66 69 67 70 68 71 69 72 8 73 9 74
REMARK SMILES IDX 10 75 11 76 12 77 13 78 14 79 15 80 16 81 23 82 17 83 22 84
REMARK SMILES IDX 18 85 21 86 19 87 20 89 24 90 25 91 26 92 27 93 28 94 35 95
REMARK SMILES IDX 36 96 29 97 33 98 31 99 30 100 34 101 32 102
REMARK H PARENT 93 25 61 36 18 88
REMARK Flexibility Score: inf
ROOT
ATOM      1  C   UNL     1       2.128  -0.233   0.943  1.00  0.00     0.188 C 
ENDROOT
BRANCH   1   2
ATOM      2  O   UNL     1       3.406   0.149   0.405  1.00  0.00    -0.376 OA
BRANCH   2   3
ATOM      3  C   UNL     1       4.046   1.216   1.105  1.00  0.00     0.202 C 
BRANCH   3   4
ATOM      4  C   UNL     1       3.755   2.620   0.570  1.00  0.00     0.261 C 
BRANCH   4   5
ATOM      5  O   UNL     1       2.369   2.923   0.395  1.00  0.00    -0.460 OA
BRANCH   5   6
ATOM      6  C   UNL     1       1.496   2.257  -0.390  1.00  0.00     0.338 C 
ATOM      7  O   UNL     1       0.331   2.151  -0.004  1.00  0.00    -0.246 OA
BRANCH   6   8
ATOM      8  C   UNL     1       1.843   1.713  -1.738  1.00  0.00     0.060 A 
ATOM      9  C   UNL     1       3.085   1.795  -2.375  1.00  0.00     0.016 A 
ATOM     10  C   UNL     1       0.746   1.197  -2.455  1.00  0.00     0.016 A 
ATOM     11  C   UNL     1       3.168   1.642  -3.746  1.00  0.00     0.010 A 
ATOM     12  C   UNL     1       0.818   1.038  -3.821  1.00  0.00     0.010 A 
ATOM     13  C   UNL     1       2.003   1.384  -4.455  1.00  0.00    -0.014 A 
BRANCH  13  14
ATOM     14  C   UNL     1       2.025   1.591  -5.886  1.00  0.00     0.031 A 
ATOM     15  C   UNL     1       2.598   0.475  -6.665  1.00  0.00     0.074 A 
ATOM     16  C   UNL     1       1.474   2.710  -6.399  1.00  0.00     0.049 A 
ATOM     17  N   UNL     1       3.659   0.478  -7.399  1.00  0.00    -0.248 NA
ATOM     18  C   UNL     1       2.004  -0.860  -6.482  1.00  0.00     0.031 C 
ATOM     19  C   UNL     1       0.679   3.725  -5.696  1.00  0.00     0.029 A 
ATOM     20  N   UNL     1       1.409   3.127  -7.689  1.00  0.00    -0.354 N 
ATOM     21  C   UNL     1       3.723  -0.788  -7.971  1.00  0.00     0.074 A 
ATOM     22  C   UNL     1       2.823  -1.615  -7.214  1.00  0.00     0.031 C 
ATOM     23  C   UNL     1       0.016   4.480  -6.600  1.00  0.00     0.029 A 
ATOM     24  C   UNL     1       0.432   4.086  -7.936  1.00  0.00     0.049 A 
ATOM     25  H   UNL     1       2.004   2.779  -8.392  1.00  0.00     0.167 HD
ATOM     26  C   UNL     1       4.310  -0.983  -9.183  1.00  0.00     0.034 A 
ATOM     27  C   UNL     1      -0.064   4.450  -9.151  1.00  0.00     0.034 A 
ATOM     28  C   UNL     1       5.219   0.096  -9.497  1.00  0.00     0.049 A 
ATOM     29  C   UNL     1       0.945   4.032 -10.161  1.00  0.00     0.074 A 
ATOM     30  C   UNL     1       6.333   0.619  -8.866  1.00  0.00     0.029 A 
ATOM     31  N   UNL     1       4.809   1.068 -10.383  1.00  0.00    -0.354 N 
ATOM     32  N   UNL     1       2.143   4.549 -10.228  1.00  0.00    -0.248 NA
ATOM     33  C   UNL     1       0.820   2.697 -10.735  1.00  0.00     0.031 C 
ATOM     34  C   UNL     1       6.207   2.031  -9.014  1.00  0.00     0.029 A 
ATOM     35  C   UNL     1       5.086   2.287  -9.807  1.00  0.00     0.049 A 
ATOM     36  H   UNL     1       4.396   0.919 -11.264  1.00  0.00     0.167 HD
ATOM     37  C   UNL     1       2.993   3.474 -10.444  1.00  0.00     0.074 A 
ATOM     38  C   UNL     1       2.114   2.370 -10.831  1.00  0.00     0.031 C 
ATOM     39  C   UNL     1       4.288   3.485 -10.004  1.00  0.00     0.034 A 
BRANCH  26  40
ATOM     40  C   UNL     1       3.793  -1.952 -10.223  1.00  0.00     0.023 A 
ATOM     41  C   UNL     1       4.511  -2.054 -11.428  1.00  0.00     0.031 A 
ATOM     42  C   UNL     1       2.513  -2.556 -10.220  1.00  0.00     0.131 A 
ATOM     43  C   UNL     1       3.930  -2.639 -12.567  1.00  0.00     0.055 A 
ATOM     44  C   UNL     1       1.968  -3.197 -11.334  1.00  0.00     0.041 A 
ATOM     45  F   UNL     1       1.674  -2.482  -9.180  1.00  0.00    -0.206 F 
ATOM     46  C   UNL     1       2.663  -3.215 -12.528  1.00  0.00     0.022 A 
BRANCH  43  47
ATOM     47  S   UNL     1       4.789  -2.471 -14.152  1.00  0.00     0.124 S 
ATOM     48  O   UNL     1       4.986  -1.028 -14.227  1.00  0.00    -0.237 OA
ATOM     49  O   UNL     1       5.985  -3.276 -13.930  1.00  0.00    -0.237 OA
ATOM     50  O   UNL     1       3.835  -3.022 -15.113  1.00  0.00    -0.744 OA
ENDBRANCH  43  47
ENDBRANCH  26  40
BRANCH  27  51
ATOM     51  C   UNL     1      -1.497   4.743  -9.461  1.00  0.00     0.023 A 
ATOM     52  C   UNL     1      -1.916   5.448 -10.611  1.00  0.00     0.031 A 
ATOM     53  C   UNL     1      -2.517   4.121  -8.702  1.00  0.00     0.131 A 
ATOM     54  C   UNL     1      -3.293   5.520 -10.943  1.00  0.00     0.055 A 
ATOM     55  C   UNL     1      -3.872   4.203  -9.028  1.00  0.00     0.041 A 
ATOM     56  F   UNL     1      -2.225   3.337  -7.653  1.00  0.00    -0.206 F 
ATOM     57  C   UNL     1      -4.266   4.899 -10.157  1.00  0.00     0.022 A 
BRANCH  54  58
ATOM     58  S   UNL     1      -3.841   6.359 -12.468  1.00  0.00     0.124 S 
ATOM     59  O   UNL     1      -3.553   7.762 -12.168  1.00  0.00    -0.237 OA
ATOM     60  O   UNL     1      -3.021   5.732 -13.487  1.00  0.00    -0.237 OA
ATOM     61  O   UNL     1      -5.269   6.035 -12.541  1.00  0.00    -0.744 OA
ENDBRANCH  54  58
ENDBRANCH  27  51
BRANCH  39  62
ATOM     62  C   UNL     1       4.871   4.788  -9.487  1.00  0.00     0.023 A 
ATOM     63  C   UNL     1       4.351   5.539  -8.405  1.00  0.00     0.031 A 
ATOM     64  C   UNL     1       6.097   5.207 -10.036  1.00  0.00     0.131 A 
ATOM     65  C   UNL     1       5.055   6.663  -7.923  1.00  0.00     0.055 A 
ATOM     66  C   UNL     1       6.797   6.307  -9.544  1.00  0.00     0.041 A 
ATOM     67  F   UNL     1       6.661   4.519 -11.043  1.00  0.00    -0.206 F 
ATOM     68  C   UNL     1       6.276   7.044  -8.488  1.00  0.00     0.022 A 
BRANCH  65  69
ATOM     69  S   UNL     1       4.392   7.666  -6.550  1.00  0.00     0.124 S 
ATOM     70  O   UNL     1       2.994   7.863  -6.914  1.00  0.00    -0.237 OA
ATOM     71  O   UNL     1       4.638   6.813  -5.390  1.00  0.00    -0.237 OA
ATOM     72  O   UNL     1       5.209   8.881  -6.592  1.00  0.00    -0.744 OA
ENDBRANCH  65  69
ENDBRANCH  39  62
ENDBRANCH  13  14
ENDBRANCH   6   8
ENDBRANCH   5   6
ENDBRANCH   4   5
ENDBRANCH   3   4
ENDBRANCH   2   3
ENDBRANCH   1   2
BRANCH   1  73
ATOM     73  C   UNL     1       2.182  -1.534   1.727  1.00  0.00     0.188 C 
BRANCH  73  74
ATOM     74  O   UNL     1       2.418  -1.300   3.110  1.00  0.00    -0.376 OA
BRANCH  74  75
ATOM     75  C   UNL     1       3.294  -2.236   3.735  1.00  0.00     0.202 C 
BRANCH  75  76
ATOM     76  C   UNL     1       2.818  -3.698   3.789  1.00  0.00     0.261 C 
BRANCH  76  77
ATOM     77  O   UNL     1       3.062  -4.424   2.559  1.00  0.00    -0.462 OA
BRANCH  77  78
ATOM     78  C   UNL     1       1.990  -4.777   1.817  1.00  0.00     0.329 C 
ATOM     79  O   UNL     1       0.841  -4.440   2.094  1.00  0.00    -0.250 OA
BRANCH  78  80
ATOM     80  C   UNL     1       2.317  -5.486   0.483  1.00  0.00     0.201 C 
ATOM     81  C   UNL     1       2.001  -4.501  -0.716  1.00  0.00     0.093 C 
ATOM     82  N   UNL     1       3.395  -6.525   0.151  1.00  0.00    -0.322 N 
ATOM     83  C   UNL     1       2.226  -5.206  -2.004  1.00  0.00     0.042 A 
ATOM     84  C   UNL     1       2.955  -7.406  -0.975  1.00  0.00     0.178 C 
ATOM     85  N   UNL     1       2.162  -4.711  -3.275  1.00  0.00    -0.348 N 
ATOM     86  C   UNL     1       2.644  -6.512  -2.135  1.00  0.00     0.081 A 
ATOM     87  C   UNL     1       2.482  -5.747  -4.116  1.00  0.00     0.197 A 
ATOM     88  H   UNL     1       1.932  -3.790  -3.537  1.00  0.00     0.167 HD
ATOM     89  N   UNL     1       2.763  -6.850  -3.454  1.00  0.00    -0.240 NA
BRANCH  82  90
ATOM     90  C   UNL     1       4.746  -6.667   0.456  1.00  0.00     0.224 C 
ATOM     91  O   UNL     1       5.386  -7.636   0.018  1.00  0.00    -0.275 OA
BRANCH  90  92
ATOM     92  C   UNL     1       5.529  -5.755   1.387  1.00  0.00     0.107 C 
BRANCH  92  93
ATOM     93  C   UNL     1       6.131  -4.463   0.787  1.00  0.00    -0.020 C 
ATOM     94  C   UNL     1       6.671  -3.587   1.947  1.00  0.00     0.011 C 
ATOM     95  C   UNL     1       5.049  -3.711   0.019  1.00  0.00     0.011 C 
ATOM     96  C   UNL     1       7.314  -4.668  -0.195  1.00  0.00     0.011 C 
ATOM     97  C   UNL     1       7.139  -2.220   1.430  1.00  0.00    -0.010 C 
ATOM     98  C   UNL     1       5.502  -2.351  -0.480  1.00  0.00    -0.010 C 
ATOM     99  C   UNL     1       7.802  -3.296  -0.745  1.00  0.00    -0.010 C 
ATOM    100  C   UNL     1       8.276  -2.405   0.419  1.00  0.00     0.007 C 
ATOM    101  C   UNL     1       5.982  -1.524   0.714  1.00  0.00     0.007 C 
ATOM    102  C   UNL     1       6.648  -2.575  -1.466  1.00  0.00     0.007 C 
ENDBRANCH  92  93
ENDBRANCH  90  92
ENDBRANCH  82  90
ENDBRANCH  78  80
ENDBRANCH  77  78
ENDBRANCH  76  77
ENDBRANCH  75  76
ENDBRANCH  74  75
ENDBRANCH  73  74
ENDBRANCH   1  73
TORSDOF 23
