REMARK SMILES CC(=O)NS(=O)(=O)c1ccc(-c2ccn(C(F)F)c(=O)c2)cc1C(=O)OCCOCCOCCOC(=O)c1ccc(-c2c3nc(c(-c4cc(S(=O)(=O)[O-])ccc4F)c4ccc([nH]4)c(-c4cc(S(=O)(=O)[O-])ccc4F)c4nc(c(-c5cc(S(=O)(=O)[O-])ccc5F)c5ccc2[nH]5)C=C4)C=C3)cc1
REMARK SMILES IDX 31 1 30 2 29 3 28 4 27 5 26 6 24 7 25 8 23 9 8 10 9 11 10 12
REMARK SMILES IDX 22 13 11 14 5 15 6 16 7 17 4 18 1 19 2 20 3 21 12 23 13 24
REMARK SMILES IDX 21 25 14 26 19 27 15 28 20 29 16 30 17 31 18 32 32 33 33 34
REMARK SMILES IDX 34 35 35 36 36 37 37 38 38 39 39 40 100 41 40 42 99 43 41 44
REMARK SMILES IDX 42 45 43 46 93 47 44 48 98 49 92 50 94 51 45 52 97 53 91 54
REMARK SMILES IDX 90 55 46 57 78 58 58 59 77 60 59 61 62 62 76 63 95 64 60 65
REMARK SMILES IDX 61 66 75 68 96 69 63 70 47 71 48 72 56 73 49 74 55 75 57 76
REMARK SMILES IDX 54 77 50 78 51 79 52 80 53 81 79 82 80 83 88 84 81 85 87 86
REMARK SMILES IDX 89 87 86 88 82 89 83 90 84 91 85 92 64 93 65 94 73 95 66 96
REMARK SMILES IDX 72 97 74 98 71 99 67 100 68 101 69 102 70 103
REMARK H PARENT 4 22 94 56 62 67
REMARK Flexibility Score: inf
ROOT
ATOM      1  C   UNL     1       3.212   0.882   2.213  1.00  0.00     0.188 C 
ENDROOT
BRANCH   1   2
ATOM      2  C   UNL     1       2.079   1.924   2.213  1.00  0.00     0.188 C 
BRANCH   2   3
ATOM      3  O   UNL     1       1.075   1.666   3.190  1.00  0.00    -0.376 OA
BRANCH   3   4
ATOM      4  C   UNL     1      -0.161   1.183   2.684  1.00  0.00     0.202 C 
BRANCH   4   5
ATOM      5  C   UNL     1      -0.122  -0.322   2.430  1.00  0.00     0.261 C 
BRANCH   5   6
ATOM      6  O   UNL     1       0.722  -0.724   1.335  1.00  0.00    -0.460 OA
BRANCH   6   7
ATOM      7  C   UNL     1       0.385  -0.291   0.107  1.00  0.00     0.339 C 
ATOM      8  O   UNL     1      -0.530   0.455  -0.193  1.00  0.00    -0.246 OA
BRANCH   7   9
ATOM      9  C   UNL     1       1.314  -0.861  -0.880  1.00  0.00     0.081 A 
ATOM     10  C   UNL     1       1.571  -2.229  -0.990  1.00  0.00     0.102 A 
ATOM     11  C   UNL     1       2.478  -2.694  -1.954  1.00  0.00     0.024 A 
ATOM     12  C   UNL     1       3.015  -1.813  -2.891  1.00  0.00     0.010 A 
ATOM     13  C   UNL     1       1.835   0.020  -1.843  1.00  0.00     0.025 A 
ATOM     14  C   UNL     1       2.631  -0.466  -2.890  1.00  0.00    -0.017 A 
BRANCH  10  15
ATOM     15  S   UNL     1       0.604  -3.466  -0.166  1.00  0.00     0.264 S 
ATOM     16  O   UNL     1       1.258  -3.750   1.088  1.00  0.00    -0.201 OA
ATOM     17  O   UNL     1       0.356  -4.521  -1.129  1.00  0.00    -0.201 OA
BRANCH  15  18
ATOM     18  N   UNL     1      -0.865  -2.813   0.200  1.00  0.00    -0.249 N 
ATOM     19  C   UNL     1      -1.719  -2.228  -2.086  1.00  0.00     0.115 C 
ATOM     20  C   UNL     1      -1.930  -2.401  -0.610  1.00  0.00     0.230 C 
ATOM     21  O   UNL     1      -2.990  -2.121  -0.065  1.00  0.00    -0.274 OA
ATOM     22  H   UNL     1      -1.022  -2.691   1.164  1.00  0.00     0.183 HD
ENDBRANCH  15  18
ENDBRANCH  10  15
BRANCH  14  23
ATOM     23  C   UNL     1       2.845   0.367  -4.089  1.00  0.00    -0.011 A 
ATOM     24  C   UNL     1       3.557   1.627  -4.124  1.00  0.00     0.027 A 
ATOM     25  C   UNL     1       2.202  -0.047  -5.196  1.00  0.00     0.080 A 
ATOM     26  C   UNL     1       3.524   2.390  -5.227  1.00  0.00     0.095 A 
ATOM     27  C   UNL     1       2.206   0.755  -6.443  1.00  0.00     0.255 A 
ATOM     28  N   UNL     1       2.842   1.980  -6.361  1.00  0.00    -0.258 N 
ATOM     29  O   UNL     1       1.642   0.284  -7.426  1.00  0.00    -0.269 OA
BRANCH  28  30
ATOM     30  C   UNL     1       2.771   2.819  -7.532  1.00  0.00     0.451 C 
ATOM     31  F   UNL     1       3.401   2.224  -8.576  1.00  0.00    -0.185 F 
ATOM     32  F   UNL     1       1.481   3.025  -7.888  1.00  0.00    -0.185 F 
ENDBRANCH  28  30
ENDBRANCH  14  23
ENDBRANCH   7   9
ENDBRANCH   6   7
ENDBRANCH   5   6
ENDBRANCH   4   5
ENDBRANCH   3   4
ENDBRANCH   2   3
ENDBRANCH   1   2
BRANCH   1  33
ATOM     33  O   UNL     1       3.599   0.304   3.456  1.00  0.00    -0.376 OA
BRANCH  33  34
ATOM     34  C   UNL     1       3.684   1.146   4.601  1.00  0.00     0.202 C 
BRANCH  34  35
ATOM     35  C   UNL     1       4.829   2.159   4.605  1.00  0.00     0.261 C 
BRANCH  35  36
ATOM     36  O   UNL     1       4.623   3.195   3.628  1.00  0.00    -0.460 OA
BRANCH  36  37
ATOM     37  C   UNL     1       5.514   3.214   2.607  1.00  0.00     0.338 C 
ATOM     38  O   UNL     1       6.505   2.515   2.488  1.00  0.00    -0.246 OA
BRANCH  37  39
ATOM     39  C   UNL     1       5.006   4.076   1.516  1.00  0.00     0.060 A 
ATOM     40  C   UNL     1       5.133   3.600   0.203  1.00  0.00     0.016 A 
ATOM     41  C   UNL     1       4.464   5.341   1.758  1.00  0.00     0.016 A 
ATOM     42  C   UNL     1       4.784   4.411  -0.875  1.00  0.00     0.010 A 
ATOM     43  C   UNL     1       4.133   6.163   0.675  1.00  0.00     0.010 A 
ATOM     44  C   UNL     1       4.338   5.718  -0.643  1.00  0.00    -0.014 A 
BRANCH  44  45
ATOM     45  C   UNL     1       4.360   6.703  -1.752  1.00  0.00     0.031 A 
ATOM     46  C   UNL     1       5.637   7.469  -1.976  1.00  0.00     0.074 A 
ATOM     47  C   UNL     1       3.292   6.917  -2.540  1.00  0.00     0.049 A 
ATOM     48  N   UNL     1       5.883   8.457  -2.796  1.00  0.00    -0.248 NA
ATOM     49  C   UNL     1       6.791   7.057  -1.161  1.00  0.00     0.031 C 
ATOM     50  C   UNL     1       2.025   6.194  -2.466  1.00  0.00     0.029 A 
ATOM     51  N   UNL     1       3.104   7.829  -3.549  1.00  0.00    -0.354 N 
ATOM     52  C   UNL     1       7.219   8.788  -2.592  1.00  0.00     0.074 A 
ATOM     53  C   UNL     1       7.722   7.907  -1.562  1.00  0.00     0.031 C 
ATOM     54  C   UNL     1       1.174   6.718  -3.368  1.00  0.00     0.029 A 
ATOM     55  C   UNL     1       1.823   7.838  -4.050  1.00  0.00     0.049 A 
ATOM     56  H   UNL     1       3.817   8.420  -3.882  1.00  0.00     0.167 HD
ATOM     57  C   UNL     1       7.960   9.744  -3.203  1.00  0.00     0.034 A 
ATOM     58  C   UNL     1       1.236   8.684  -4.922  1.00  0.00     0.034 A 
ATOM     59  C   UNL     1       7.440  10.649  -4.194  1.00  0.00     0.049 A 
ATOM     60  C   UNL     1       2.045   9.820  -5.506  1.00  0.00     0.074 A 
ATOM     61  C   UNL     1       8.091  11.674  -4.856  1.00  0.00     0.029 A 
ATOM     62  N   UNL     1       6.129  10.648  -4.650  1.00  0.00    -0.354 N 
ATOM     63  N   UNL     1       3.304  10.132  -5.297  1.00  0.00    -0.248 NA
ATOM     64  C   UNL     1       1.352  10.717  -6.443  1.00  0.00     0.031 C 
ATOM     65  C   UNL     1       7.160  12.327  -5.672  1.00  0.00     0.029 A 
ATOM     66  C   UNL     1       5.945  11.668  -5.567  1.00  0.00     0.049 A 
ATOM     67  H   UNL     1       5.432  10.014  -4.363  1.00  0.00     0.167 HD
ATOM     68  C   UNL     1       3.558  11.242  -6.100  1.00  0.00     0.074 A 
ATOM     69  C   UNL     1       2.326  11.543  -6.798  1.00  0.00     0.031 C 
ATOM     70  C   UNL     1       4.708  11.947  -6.255  1.00  0.00     0.034 A 
BRANCH  57  71
ATOM     71  C   UNL     1       9.389   9.888  -2.748  1.00  0.00     0.023 A 
ATOM     72  C   UNL     1      10.337   8.875  -2.978  1.00  0.00     0.031 A 
ATOM     73  C   UNL     1       9.790  11.017  -2.015  1.00  0.00     0.131 A 
ATOM     74  C   UNL     1      11.617   8.977  -2.414  1.00  0.00     0.055 A 
ATOM     75  C   UNL     1      11.088  11.147  -1.520  1.00  0.00     0.041 A 
ATOM     76  F   UNL     1       8.917  12.000  -1.743  1.00  0.00    -0.206 F 
ATOM     77  C   UNL     1      12.006  10.116  -1.704  1.00  0.00     0.022 A 
BRANCH  74  78
ATOM     78  S   UNL     1      12.714   7.535  -2.494  1.00  0.00     0.124 S 
ATOM     79  O   UNL     1      11.917   6.521  -1.808  1.00  0.00    -0.237 OA
ATOM     80  O   UNL     1      12.884   7.349  -3.930  1.00  0.00    -0.237 OA
ATOM     81  O   UNL     1      13.908   7.973  -1.774  1.00  0.00    -0.744 OA
ENDBRANCH  74  78
ENDBRANCH  57  71
BRANCH  58  82
ATOM     82  C   UNL     1      -0.212   8.550  -5.249  1.00  0.00     0.023 A 
ATOM     83  C   UNL     1      -0.638   8.247  -6.551  1.00  0.00     0.031 A 
ATOM     84  C   UNL     1      -1.195   8.799  -4.274  1.00  0.00     0.131 A 
ATOM     85  C   UNL     1      -2.009   8.246  -6.855  1.00  0.00     0.055 A 
ATOM     86  C   UNL     1      -2.558   8.748  -4.570  1.00  0.00     0.041 A 
ATOM     87  F   UNL     1      -0.840   9.098  -3.014  1.00  0.00    -0.206 F 
ATOM     88  C   UNL     1      -2.971   8.482  -5.871  1.00  0.00     0.022 A 
BRANCH  85  89
ATOM     89  S   UNL     1      -2.513   8.016  -8.582  1.00  0.00     0.124 S 
ATOM     90  O   UNL     1      -1.868   9.152  -9.231  1.00  0.00    -0.237 OA
ATOM     91  O   UNL     1      -1.956   6.702  -8.885  1.00  0.00    -0.237 OA
ATOM     92  O   UNL     1      -3.972   8.075  -8.521  1.00  0.00    -0.744 OA
ENDBRANCH  85  89
ENDBRANCH  58  82
BRANCH  70  93
ATOM     93  C   UNL     1       4.703  13.064  -7.266  1.00  0.00     0.023 A 
ATOM     94  C   UNL     1       4.014  14.267  -7.042  1.00  0.00     0.031 A 
ATOM     95  C   UNL     1       5.418  12.921  -8.469  1.00  0.00     0.131 A 
ATOM     96  C   UNL     1       4.024  15.269  -8.025  1.00  0.00     0.055 A 
ATOM     97  C   UNL     1       5.462  13.937  -9.423  1.00  0.00     0.041 A 
ATOM     98  F   UNL     1       6.095  11.790  -8.729  1.00  0.00    -0.206 F 
ATOM     99  C   UNL     1       4.755  15.117  -9.207  1.00  0.00     0.022 A 
BRANCH  96 100
ATOM    100  S   UNL     1       3.024  16.760  -7.764  1.00  0.00     0.124 S 
ATOM    101  O   UNL     1       1.678  16.207  -7.656  1.00  0.00    -0.237 OA
ATOM    102  O   UNL     1       3.590  17.305  -6.534  1.00  0.00    -0.237 OA
ATOM    103  O   UNL     1       3.274  17.555  -8.965  1.00  0.00    -0.744 OA
ENDBRANCH  96 100
ENDBRANCH  70  93
ENDBRANCH  44  45
ENDBRANCH  37  39
ENDBRANCH  36  37
ENDBRANCH  35  36
ENDBRANCH  34  35
ENDBRANCH  33  34
ENDBRANCH   1  33
TORSDOF 24
