REMARK SMILES Cc1ccc(S(=O)(=O)N2c3ccc(C(=O)OCCOCCOCCOC(=O)c4ccc(-c5c6nc(c(-c7cc(S(=O)(=O)[O-])ccc7F)c7ccc([nH]7)c(-c7cc(S(=O)(=O)[O-])ccc7F)c7nc(c(-c8cc(S(=O)(=O)[O-])ccc8F)c8ccc5[nH]8)C=C7)C=C6)cc4)cc3C[C@H]2C)cc1
REMARK SMILES IDX 21 1 20 2 19 3 18 4 17 5 16 6 14 7 15 8 13 9 9 10 10 11
REMARK SMILES IDX 94 12 11 13 92 14 93 15 95 16 12 17 91 18 6 19 7 20 8 21
REMARK SMILES IDX 5 22 1 23 2 24 3 25 97 26 4 27 96 28 22 29 23 30 24 31 25 32
REMARK SMILES IDX 26 33 27 34 28 35 29 36 90 37 30 38 89 39 31 40 32 41 33 42
REMARK SMILES IDX 83 43 34 44 88 45 82 46 84 47 35 48 87 49 81 50 80 51 36 53
REMARK SMILES IDX 68 54 48 55 67 56 49 57 52 58 66 59 85 60 50 61 51 62 65 64
REMARK SMILES IDX 86 65 53 66 37 67 38 68 46 69 39 70 45 71 47 72 44 73 40 74
REMARK SMILES IDX 41 75 42 76 43 77 69 78 70 79 78 80 71 81 77 82 79 83 76 84
REMARK SMILES IDX 72 85 73 86 74 87 75 88 54 89 55 90 63 91 56 92 62 93 64 94
REMARK SMILES IDX 61 95 57 96 58 97 59 98 60 99
REMARK H PARENT 84 52 52 63
REMARK Flexibility Score: inf
ROOT
ATOM      1  C   UNL     1     -12.901   5.918   1.944  1.00  0.00     0.188 C 
ENDROOT
BRANCH   1   2
ATOM      2  C   UNL     1     -13.028   4.895   0.815  1.00  0.00     0.188 C 
BRANCH   2   3
ATOM      3  O   UNL     1     -12.831   3.485   1.082  1.00  0.00    -0.376 OA
BRANCH   3   4
ATOM      4  C   UNL     1     -12.862   2.911   2.391  1.00  0.00     0.202 C 
BRANCH   4   5
ATOM      5  C   UNL     1     -11.782   1.730   2.826  1.00  0.00     0.261 C 
BRANCH   5   6
ATOM      6  O   UNL     1     -10.093   1.753   2.851  1.00  0.00    -0.460 OA
BRANCH   6   7
ATOM      7  C   UNL     1      -9.027   1.326   2.011  1.00  0.00     0.338 C 
ATOM      8  O   UNL     1      -9.062   0.577   1.042  1.00  0.00    -0.246 OA
BRANCH   7   9
ATOM      9  C   UNL     1      -7.593   1.739   2.051  1.00  0.00     0.060 A 
ATOM     10  N   UNL     1      -3.477   1.584   0.906  1.00  0.00    -0.263 N 
ATOM     11  C   UNL     1      -4.846   1.547   1.384  1.00  0.00     0.055 A 
ATOM     12  C   UNL     1      -3.458   2.799  -0.027  1.00  0.00     0.101 C 
ATOM     13  C   UNL     1      -5.359   0.795   2.432  1.00  0.00     0.028 A 
ATOM     14  C   UNL     1      -5.672   2.359   0.624  1.00  0.00    -0.021 A 
ATOM     15  C   UNL     1      -4.914   2.944  -0.536  1.00  0.00     0.063 C 
ATOM     16  C   UNL     1      -3.046   4.032   0.795  1.00  0.00     0.032 C 
ATOM     17  C   UNL     1      -6.730   0.886   2.757  1.00  0.00     0.018 A 
ATOM     18  C   UNL     1      -7.035   2.421   0.917  1.00  0.00     0.021 A 
BRANCH  10  19
ATOM     19  S   UNL     1      -3.007   0.105   0.117  1.00  0.00     0.264 S 
ATOM     20  O   UNL     1      -3.405   0.170  -1.273  1.00  0.00    -0.201 OA
ATOM     21  O   UNL     1      -3.373  -1.011   0.968  1.00  0.00    -0.201 OA
BRANCH  19  22
ATOM     22  C   UNL     1      -1.218   0.086   0.102  1.00  0.00     0.088 A 
ATOM     23  C   UNL     1       3.078  -0.245   0.036  1.00  0.00     0.044 C 
ATOM     24  C   UNL     1       1.582  -0.123   0.057  1.00  0.00    -0.051 A 
ATOM     25  C   UNL     1       0.788  -1.248  -0.192  1.00  0.00     0.005 A 
ATOM     26  C   UNL     1       0.961   1.097   0.356  1.00  0.00     0.005 A 
ATOM     27  C   UNL     1      -0.604  -1.144  -0.176  1.00  0.00     0.022 A 
ATOM     28  C   UNL     1      -0.435   1.202   0.385  1.00  0.00     0.022 A 
ENDBRANCH  19  22
ENDBRANCH  10  19
ENDBRANCH   7   9
ENDBRANCH   6   7
ENDBRANCH   5   6
ENDBRANCH   4   5
ENDBRANCH   3   4
ENDBRANCH   2   3
ENDBRANCH   1   2
BRANCH   1  29
ATOM     29  O   UNL     1     -11.918   5.465   2.859  1.00  0.00    -0.376 OA
BRANCH  29  30
ATOM     30  C   UNL     1     -11.745   6.234   4.027  1.00  0.00     0.202 C 
BRANCH  30  31
ATOM     31  C   UNL     1     -10.736   7.361   3.789  1.00  0.00     0.261 C 
BRANCH  31  32
ATOM     32  O   UNL     1      -9.483   6.814   3.304  1.00  0.00    -0.460 OA
BRANCH  32  33
ATOM     33  C   UNL     1      -9.155   7.075   1.992  1.00  0.00     0.338 C 
ATOM     34  O   UNL     1      -8.876   8.194   1.591  1.00  0.00    -0.246 OA
BRANCH  33  35
ATOM     35  C   UNL     1      -9.180   5.809   1.169  1.00  0.00     0.060 A 
ATOM     36  C   UNL     1      -9.283   5.688  -0.225  1.00  0.00     0.016 A 
ATOM     37  C   UNL     1      -9.395   4.657   1.849  1.00  0.00     0.016 A 
ATOM     38  C   UNL     1      -9.709   4.432  -0.877  1.00  0.00     0.010 A 
ATOM     39  C   UNL     1     -10.053   3.631   1.154  1.00  0.00     0.010 A 
ATOM     40  C   UNL     1     -10.181   3.307  -0.182  1.00  0.00    -0.014 A 
BRANCH  40  41
ATOM     41  C   UNL     1     -11.078   2.070  -0.677  1.00  0.00     0.031 A 
ATOM     42  C   UNL     1     -11.054   0.457  -0.435  1.00  0.00     0.074 A 
ATOM     43  C   UNL     1     -12.040   2.378  -1.578  1.00  0.00     0.049 A 
ATOM     44  N   UNL     1     -10.984  -0.438  -1.409  1.00  0.00    -0.248 NA
ATOM     45  C   UNL     1     -11.171  -0.315   0.837  1.00  0.00     0.031 C 
ATOM     46  C   UNL     1     -13.057   1.498  -2.149  1.00  0.00     0.029 A 
ATOM     47  N   UNL     1     -12.149   3.548  -2.323  1.00  0.00    -0.354 N 
ATOM     48  C   UNL     1     -11.069  -1.729  -0.851  1.00  0.00     0.074 A 
ATOM     49  C   UNL     1     -10.999  -1.591   0.543  1.00  0.00     0.031 C 
ATOM     50  C   UNL     1     -13.464   2.022  -3.315  1.00  0.00     0.029 A 
ATOM     51  C   UNL     1     -12.658   3.202  -3.574  1.00  0.00     0.049 A 
ATOM     52  H   UNL     1     -11.910   4.454  -2.022  1.00  0.00     0.167 HD
ATOM     53  C   UNL     1     -11.435  -2.889  -1.457  1.00  0.00     0.034 A 
ATOM     54  C   UNL     1     -11.970   3.493  -4.711  1.00  0.00     0.034 A 
ATOM     55  C   UNL     1     -12.034  -2.593  -2.715  1.00  0.00     0.049 A 
ATOM     56  C   UNL     1     -11.678   2.277  -5.559  1.00  0.00     0.074 A 
ATOM     57  C   UNL     1     -13.347  -2.382  -3.089  1.00  0.00     0.029 A 
ATOM     58  N   UNL     1     -11.233  -2.078  -3.704  1.00  0.00    -0.354 N 
ATOM     59  N   UNL     1     -11.843   1.042  -5.172  1.00  0.00    -0.248 NA
ATOM     60  C   UNL     1     -11.148   2.363  -6.912  1.00  0.00     0.031 C 
ATOM     61  C   UNL     1     -13.326  -1.733  -4.347  1.00  0.00     0.029 A 
ATOM     62  C   UNL     1     -12.006  -1.615  -4.740  1.00  0.00     0.049 A 
ATOM     63  H   UNL     1     -10.249  -2.046  -3.675  1.00  0.00     0.167 HD
ATOM     64  C   UNL     1     -11.386   0.182  -6.146  1.00  0.00     0.074 A 
ATOM     65  C   UNL     1     -10.998   1.066  -7.228  1.00  0.00     0.031 C 
ATOM     66  C   UNL     1     -11.337  -1.172  -5.942  1.00  0.00     0.034 A 
BRANCH  53  67
ATOM     67  C   UNL     1     -11.586  -4.186  -0.675  1.00  0.00     0.023 A 
ATOM     68  C   UNL     1     -12.740  -4.979  -0.799  1.00  0.00     0.031 A 
ATOM     69  C   UNL     1     -10.627  -4.636   0.265  1.00  0.00     0.131 A 
ATOM     70  C   UNL     1     -12.963  -6.075   0.061  1.00  0.00     0.055 A 
ATOM     71  C   UNL     1     -10.872  -5.693   1.156  1.00  0.00     0.041 A 
ATOM     72  F   UNL     1      -9.441  -4.017   0.389  1.00  0.00    -0.206 F 
ATOM     73  C   UNL     1     -12.058  -6.408   1.069  1.00  0.00     0.022 A 
BRANCH  70  74
ATOM     74  S   UNL     1     -14.467  -7.070  -0.150  1.00  0.00     0.124 S 
ATOM     75  O   UNL     1     -15.523  -6.081   0.043  1.00  0.00    -0.237 OA
ATOM     76  O   UNL     1     -14.307  -7.588  -1.504  1.00  0.00    -0.237 OA
ATOM     77  O   UNL     1     -14.366  -8.075   0.908  1.00  0.00    -0.744 OA
ENDBRANCH  70  74
ENDBRANCH  53  67
BRANCH  54  78
ATOM     78  C   UNL     1     -11.140   4.739  -4.626  1.00  0.00     0.023 A 
ATOM     79  C   UNL     1     -11.790   5.925  -4.207  1.00  0.00     0.031 A 
ATOM     80  C   UNL     1      -9.738   4.734  -4.613  1.00  0.00     0.131 A 
ATOM     81  C   UNL     1     -11.061   6.990  -3.659  1.00  0.00     0.055 A 
ATOM     82  C   UNL     1      -9.005   5.833  -4.130  1.00  0.00     0.041 A 
ATOM     83  F   UNL     1      -9.054   3.628  -4.936  1.00  0.00    -0.206 F 
ATOM     84  C   UNL     1      -9.667   6.953  -3.621  1.00  0.00     0.022 A 
BRANCH  81  85
ATOM     85  S   UNL     1     -11.938   8.290  -2.733  1.00  0.00     0.124 S 
ATOM     86  O   UNL     1     -11.940   9.395  -3.685  1.00  0.00    -0.237 OA
ATOM     87  O   UNL     1     -13.240   7.688  -2.452  1.00  0.00    -0.237 OA
ATOM     88  O   UNL     1     -11.096   8.468  -1.553  1.00  0.00    -0.744 OA
ENDBRANCH  81  85
ENDBRANCH  54  78
BRANCH  66  89
ATOM     89  C   UNL     1     -10.663  -2.247  -6.788  1.00  0.00     0.023 A 
ATOM     90  C   UNL     1     -10.022  -1.987  -7.998  1.00  0.00     0.031 A 
ATOM     91  C   UNL     1     -10.614  -3.611  -6.371  1.00  0.00     0.131 A 
ATOM     92  C   UNL     1      -9.398  -3.010  -8.736  1.00  0.00     0.055 A 
ATOM     93  C   UNL     1      -9.934  -4.614  -7.067  1.00  0.00     0.041 A 
ATOM     94  F   UNL     1     -11.230  -4.055  -5.266  1.00  0.00    -0.206 F 
ATOM     95  C   UNL     1      -9.322  -4.318  -8.268  1.00  0.00     0.022 A 
BRANCH  92  96
ATOM     96  S   UNL     1      -8.764  -2.592 -10.376  1.00  0.00     0.124 S 
ATOM     97  O   UNL     1      -9.953  -2.050 -11.030  1.00  0.00    -0.237 OA
ATOM     98  O   UNL     1      -7.717  -1.625 -10.066  1.00  0.00    -0.237 OA
ATOM     99  O   UNL     1      -8.297  -3.872 -10.903  1.00  0.00    -0.744 OA
ENDBRANCH  92  96
ENDBRANCH  66  89
ENDBRANCH  40  41
ENDBRANCH  33  35
ENDBRANCH  32  33
ENDBRANCH  31  32
ENDBRANCH  30  31
ENDBRANCH  29  30
ENDBRANCH   1  29
TORSDOF 22
