REMARK SMILES C/C=C/c1cncc(-c2ccc([C@@H](C)C(=O)OCCOCCOCCOC(=O)c3ccc(-c4c5nc(c(-c6cc(S(=O)(=O)[O-])ccc6F)c6ccc([nH]6)c(-c6cc(S(=O)(=O)[O-])ccc6F)c6nc(c(-c7cc(S(=O)(=O)[O-])ccc7F)c7ccc4[nH]7)C=C6)C=C5)cc3)cc2)c1
REMARK SMILES IDX 21 1 20 2 19 3 18 4 17 5 15 6 16 7 13 8 14 9 12 10 9 11
REMARK SMILES IDX 10 12 93 13 11 14 92 15 8 16 4 17 5 18 94 19 6 20 7 21 3 22
REMARK SMILES IDX 1 23 2 24 22 25 23 26 24 27 25 28 26 29 27 30 28 31 29 32
REMARK SMILES IDX 30 33 91 34 31 35 90 36 32 37 33 38 34 39 84 40 35 41 89 42
REMARK SMILES IDX 83 43 85 44 36 45 88 46 82 47 81 48 37 50 69 51 49 52 68 53
REMARK SMILES IDX 50 54 53 55 67 56 86 57 51 58 52 59 66 61 87 62 54 63 38 64
REMARK SMILES IDX 39 65 47 66 40 67 46 68 48 69 45 70 41 71 42 72 43 73 44 74
REMARK SMILES IDX 70 75 71 76 79 77 72 78 78 79 80 80 77 81 73 82 74 83 75 84
REMARK SMILES IDX 76 85 55 86 56 87 64 88 57 89 63 90 65 91 62 92 58 93 59 94
REMARK SMILES IDX 60 95 61 96
REMARK H PARENT 85 49 53 60
REMARK Flexibility Score: inf
ROOT
ATOM      1  C   UNL     1       4.699  -3.706   8.543  1.00  0.00     0.188 C 
ENDROOT
BRANCH   1   2
ATOM      2  O   UNL     1       4.852  -5.049   8.990  1.00  0.00    -0.376 OA
BRANCH   2   3
ATOM      3  C   UNL     1       3.714  -5.760   9.460  1.00  0.00     0.202 C 
BRANCH   3   4
ATOM      4  C   UNL     1       2.866  -5.138  10.583  1.00  0.00     0.261 C 
BRANCH   4   5
ATOM      5  O   UNL     1       2.353  -3.811  10.321  1.00  0.00    -0.463 OA
BRANCH   5   6
ATOM      6  C   UNL     1       2.711  -2.838  11.198  1.00  0.00     0.313 C 
ATOM      7  O   UNL     1       3.370  -3.064  12.212  1.00  0.00    -0.252 OA
BRANCH   6   8
ATOM      8  C   UNL     1       2.267  -1.409  10.860  1.00  0.00     0.126 C 
ATOM      9  C   UNL     1       1.459  -0.869  12.040  1.00  0.00     0.025 C 
BRANCH   8  10
ATOM     10  C   UNL     1       1.558  -1.076   9.545  1.00  0.00    -0.034 A 
ATOM     11  C   UNL     1       0.290  -0.343   7.076  1.00  0.00    -0.017 A 
ATOM     12  C   UNL     1      -0.196  -1.392   7.880  1.00  0.00     0.009 A 
ATOM     13  C   UNL     1       1.433   0.328   7.525  1.00  0.00     0.009 A 
ATOM     14  C   UNL     1       0.416  -1.747   9.097  1.00  0.00     0.005 A 
ATOM     15  C   UNL     1       2.049  -0.024   8.740  1.00  0.00     0.005 A 
BRANCH  11  16
ATOM     16  C   UNL     1      -0.437   0.084   5.864  1.00  0.00     0.001 A 
ATOM     17  C   UNL     1      -0.616   0.596   3.483  1.00  0.00    -0.007 A 
ATOM     18  C   UNL     1      -1.947   0.938   3.719  1.00  0.00     0.119 A 
ATOM     19  C   UNL     1       0.145   0.170   4.585  1.00  0.00     0.020 A 
ATOM     20  N   UNL     1      -2.556   0.871   4.922  1.00  0.00    -0.263 NA
ATOM     21  C   UNL     1      -1.784   0.454   5.953  1.00  0.00     0.119 A 
BRANCH  17  22
ATOM     22  C   UNL     1      -0.092   0.754   2.120  1.00  0.00     0.005 C 
ATOM     23  C   UNL     1       1.131   0.024   0.068  1.00  0.00     0.035 C 
ATOM     24  C   UNL     1       0.675  -0.145   1.485  1.00  0.00    -0.030 C 
ENDBRANCH  17  22
ENDBRANCH  11  16
ENDBRANCH   8  10
ENDBRANCH   6   8
ENDBRANCH   5   6
ENDBRANCH   4   5
ENDBRANCH   3   4
ENDBRANCH   2   3
ENDBRANCH   1   2
BRANCH   1  25
ATOM     25  C   UNL     1       3.438  -3.321   7.756  1.00  0.00     0.188 C 
BRANCH  25  26
ATOM     26  O   UNL     1       2.621  -4.412   7.392  1.00  0.00    -0.376 OA
BRANCH  26  27
ATOM     27  C   UNL     1       2.361  -4.585   6.014  1.00  0.00     0.202 C 
BRANCH  27  28
ATOM     28  C   UNL     1       3.581  -4.874   5.126  1.00  0.00     0.261 C 
BRANCH  28  29
ATOM     29  O   UNL     1       4.717  -4.006   5.294  1.00  0.00    -0.460 OA
BRANCH  29  30
ATOM     30  C   UNL     1       4.614  -2.744   4.813  1.00  0.00     0.338 C 
ATOM     31  O   UNL     1       3.649  -2.264   4.234  1.00  0.00    -0.246 OA
BRANCH  30  32
ATOM     32  C   UNL     1       5.781  -1.973   5.308  1.00  0.00     0.060 A 
ATOM     33  C   UNL     1       5.572  -0.856   6.131  1.00  0.00     0.016 A 
ATOM     34  C   UNL     1       7.080  -2.361   4.972  1.00  0.00     0.016 A 
ATOM     35  C   UNL     1       6.661  -0.110   6.596  1.00  0.00     0.010 A 
ATOM     36  C   UNL     1       8.165  -1.599   5.420  1.00  0.00     0.010 A 
ATOM     37  C   UNL     1       7.964  -0.453   6.212  1.00  0.00    -0.014 A 
BRANCH  37  38
ATOM     38  C   UNL     1       9.098   0.478   6.464  1.00  0.00     0.031 A 
ATOM     39  C   UNL     1       9.565   1.355   5.331  1.00  0.00     0.074 A 
ATOM     40  C   UNL     1       9.707   0.552   7.663  1.00  0.00     0.049 A 
ATOM     41  N   UNL     1      10.598   2.154   5.264  1.00  0.00    -0.248 NA
ATOM     42  C   UNL     1       8.752   1.318   4.104  1.00  0.00     0.031 C 
ATOM     43  C   UNL     1       9.320  -0.197   8.857  1.00  0.00     0.029 A 
ATOM     44  N   UNL     1      10.797   1.287   8.068  1.00  0.00    -0.354 N 
ATOM     45  C   UNL     1      10.566   2.709   3.989  1.00  0.00     0.074 A 
ATOM     46  C   UNL     1       9.431   2.126   3.305  1.00  0.00     0.031 C 
ATOM     47  C   UNL     1      10.172   0.103   9.854  1.00  0.00     0.029 A 
ATOM     48  C   UNL     1      11.194   1.025   9.360  1.00  0.00     0.049 A 
ATOM     49  H   UNL     1      11.251   1.940   7.488  1.00  0.00     0.167 HD
ATOM     50  C   UNL     1      11.399   3.627   3.441  1.00  0.00     0.034 A 
ATOM     51  C   UNL     1      12.276   1.449  10.049  1.00  0.00     0.034 A 
ATOM     52  C   UNL     1      12.535   4.193   4.126  1.00  0.00     0.049 A 
ATOM     53  C   UNL     1      13.256   2.389   9.378  1.00  0.00     0.074 A 
ATOM     54  C   UNL     1      13.444   5.127   3.659  1.00  0.00     0.029 A 
ATOM     55  N   UNL     1      12.928   3.872   5.418  1.00  0.00    -0.354 N 
ATOM     56  N   UNL     1      13.217   2.903   8.169  1.00  0.00    -0.248 NA
ATOM     57  C   UNL     1      14.422   2.813  10.167  1.00  0.00     0.031 C 
ATOM     58  C   UNL     1      14.426   5.312   4.636  1.00  0.00     0.029 A 
ATOM     59  C   UNL     1      14.081   4.566   5.751  1.00  0.00     0.049 A 
ATOM     60  H   UNL     1      12.456   3.244   6.012  1.00  0.00     0.167 HD
ATOM     61  C   UNL     1      14.329   3.739   8.074  1.00  0.00     0.074 A 
ATOM     62  C   UNL     1      15.009   3.673   9.350  1.00  0.00     0.031 C 
ATOM     63  C   UNL     1      14.750   4.497   7.029  1.00  0.00     0.034 A 
BRANCH  50  64
ATOM     64  C   UNL     1      11.137   4.043   2.014  1.00  0.00     0.023 A 
ATOM     65  C   UNL     1       9.968   4.729   1.647  1.00  0.00     0.031 A 
ATOM     66  C   UNL     1      12.071   3.745   1.006  1.00  0.00     0.131 A 
ATOM     67  C   UNL     1       9.736   5.045   0.299  1.00  0.00     0.055 A 
ATOM     68  C   UNL     1      11.872   4.133  -0.320  1.00  0.00     0.041 A 
ATOM     69  F   UNL     1      13.194   3.067   1.293  1.00  0.00    -0.206 F 
ATOM     70  C   UNL     1      10.694   4.777  -0.682  1.00  0.00     0.022 A 
BRANCH  67  71
ATOM     71  S   UNL     1       8.110   5.696  -0.172  1.00  0.00     0.124 S 
ATOM     72  O   UNL     1       7.224   4.618   0.262  1.00  0.00    -0.237 OA
ATOM     73  O   UNL     1       8.031   6.934   0.594  1.00  0.00    -0.237 OA
ATOM     74  O   UNL     1       8.214   5.862  -1.620  1.00  0.00    -0.744 OA
ENDBRANCH  67  71
ENDBRANCH  50  64
BRANCH  51  75
ATOM     75  C   UNL     1      12.547   0.953  11.434  1.00  0.00     0.023 A 
ATOM     76  C   UNL     1      12.651   1.839  12.519  1.00  0.00     0.031 A 
ATOM     77  C   UNL     1      12.808  -0.409  11.675  1.00  0.00     0.131 A 
ATOM     78  C   UNL     1      13.072   1.367  13.773  1.00  0.00     0.055 A 
ATOM     79  C   UNL     1      13.156  -0.884  12.941  1.00  0.00     0.041 A 
ATOM     80  F   UNL     1      12.738  -1.302  10.675  1.00  0.00    -0.206 F 
ATOM     81  C   UNL     1      13.308   0.010  13.996  1.00  0.00     0.022 A 
BRANCH  78  82
ATOM     82  S   UNL     1      13.436   2.576  15.077  1.00  0.00     0.124 S 
ATOM     83  O   UNL     1      14.437   3.416  14.429  1.00  0.00    -0.237 OA
ATOM     84  O   UNL     1      12.130   3.187  15.297  1.00  0.00    -0.237 OA
ATOM     85  O   UNL     1      13.931   1.751  16.177  1.00  0.00    -0.744 OA
ENDBRANCH  78  82
ENDBRANCH  51  75
BRANCH  63  86
ATOM     86  C   UNL     1      15.967   5.369   7.243  1.00  0.00     0.023 A 
ATOM     87  C   UNL     1      17.243   4.828   7.480  1.00  0.00     0.031 A 
ATOM     88  C   UNL     1      15.842   6.771   7.210  1.00  0.00     0.131 A 
ATOM     89  C   UNL     1      18.329   5.681   7.732  1.00  0.00     0.055 A 
ATOM     90  C   UNL     1      16.939   7.614   7.393  1.00  0.00     0.041 A 
ATOM     91  F   UNL     1      14.649   7.346   6.992  1.00  0.00    -0.206 F 
ATOM     92  C   UNL     1      18.189   7.069   7.670  1.00  0.00     0.022 A 
BRANCH  89  93
ATOM     93  S   UNL     1      19.910   4.952   8.244  1.00  0.00     0.124 S 
ATOM     94  O   UNL     1      19.528   4.207   9.439  1.00  0.00    -0.237 OA
ATOM     95  O   UNL     1      20.274   4.149   7.081  1.00  0.00    -0.237 OA
ATOM     96  O   UNL     1      20.762   6.115   8.484  1.00  0.00    -0.744 OA
ENDBRANCH  89  93
ENDBRANCH  63  86
ENDBRANCH  37  38
ENDBRANCH  30  32
ENDBRANCH  29  30
ENDBRANCH  28  29
ENDBRANCH  27  28
ENDBRANCH  26  27
ENDBRANCH  25  26
ENDBRANCH   1  25
TORSDOF 23
