REMARK SMILES O=C(OCCOCCOCCOC(=O)c1ccc(-c2c3nc(c(-c4cc(S(=O)(=O)[O-])ccc4F)c4ccc([nH]4)c(-c4cc(S(=O)(=O)[O-])ccc4F)c4nc(c(-c5cc(S(=O)(=O)[O-])ccc5F)c5ccc2[nH]5)C=C4)C=C3)cc1)C1=Cc2cc(Cl)cc(C#Cc3ccccc3)c2O[C@@H]1C(F)(F)F
REMARK SMILES IDX 8 1 7 2 6 3 5 4 4 5 3 6 2 7 1 8 78 9 79 10 96 11 80 12 95 13
REMARK SMILES IDX 81 14 94 15 82 16 85 17 83 18 84 19 97 20 98 21 99 22 100 23
REMARK SMILES IDX 86 24 87 25 88 26 89 27 93 28 90 29 92 30 91 31 9 32 10 33
REMARK SMILES IDX 11 34 12 35 13 36 14 37 15 38 16 39 77 40 17 41 76 42 18 43
REMARK SMILES IDX 19 44 20 45 70 46 21 47 75 48 69 49 71 50 22 51 74 52 68 53
REMARK SMILES IDX 67 54 23 56 55 57 35 58 54 59 36 60 39 61 53 62 72 63 37 64
REMARK SMILES IDX 38 65 52 67 73 68 40 69 24 70 25 71 33 72 26 73 32 74 34 75
REMARK SMILES IDX 31 76 27 77 28 78 29 79 30 80 56 81 57 82 65 83 58 84 64 85
REMARK SMILES IDX 66 86 63 87 59 88 60 89 61 90 62 91 41 92 42 93 50 94 43 95
REMARK SMILES IDX 49 96 51 97 48 98 44 99 45 100 46 101 47 102
REMARK H PARENT 71 55 39 66
REMARK Flexibility Score: inf
ROOT
ATOM      1  C   UNL     1       2.135   0.362   3.518  1.00  0.00     0.188 C 
ENDROOT
BRANCH   1   2
ATOM      2  C   UNL     1       2.371  -0.592   2.340  1.00  0.00     0.188 C 
BRANCH   2   3
ATOM      3  O   UNL     1       3.721  -1.032   1.888  1.00  0.00    -0.376 OA
BRANCH   3   4
ATOM      4  C   UNL     1       4.485  -0.778   0.378  1.00  0.00     0.202 C 
BRANCH   4   5
ATOM      5  C   UNL     1       3.753   0.534  -1.191  1.00  0.00     0.261 C 
BRANCH   5   6
ATOM      6  O   UNL     1       2.797   0.156  -2.311  1.00  0.00    -0.460 OA
BRANCH   6   7
ATOM      7  C   UNL     1       2.997  -1.099  -2.737  1.00  0.00     0.338 C 
ATOM      8  O   UNL     1       2.329  -1.742  -3.507  1.00  0.00    -0.246 OA
BRANCH   7   9
ATOM      9  C   UNL     1       3.889  -1.508  -1.665  1.00  0.00     0.087 C 
ATOM     10  C   UNL     1       5.266  -1.038  -1.776  1.00  0.00     0.027 C 
ATOM     11  C   UNL     1       2.662  -0.965  -0.292  1.00  0.00     0.316 C 
ATOM     12  C   UNL     1       5.947   0.337  -0.837  1.00  0.00     0.020 A 
ATOM     13  O   UNL     1       3.312   0.632   0.635  1.00  0.00    -0.474 OA
ATOM     14  C   UNL     1       7.224   0.739  -1.120  1.00  0.00     0.032 A 
ATOM     15  C   UNL     1       5.008   1.242   0.316  1.00  0.00     0.143 A 
ATOM     16  C   UNL     1       7.662   1.857  -0.398  1.00  0.00     0.043 A 
ATOM     17  C   UNL     1       5.536   2.322   0.988  1.00  0.00     0.069 A 
ATOM     18  Cl  UNL     1       9.274   2.413  -0.724  1.00  0.00    -0.084 Cl
ATOM     19  C   UNL     1       6.881   2.587   0.590  1.00  0.00     0.041 A 
BRANCH  11  20
ATOM     20  C   UNL     1       2.421  -2.563   0.210  1.00  0.00     0.430 C 
ATOM     21  F   UNL     1       2.312  -2.892   1.496  1.00  0.00    -0.167 F 
ATOM     22  F   UNL     1       1.281  -3.012  -0.381  1.00  0.00    -0.167 F 
ATOM     23  F   UNL     1       3.402  -3.395  -0.261  1.00  0.00    -0.167 F 
ENDBRANCH  11  20
BRANCH  17  24
ATOM     24  C   UNL     1       4.981   3.138   2.021  1.00  0.00    -0.058 C 
ATOM     25  C   UNL     1       4.733   3.865   2.954  1.00  0.00    -0.062 C 
BRANCH  25  26
ATOM     26  C   UNL     1       4.551   4.712   4.106  1.00  0.00     0.025 A 
ATOM     27  C   UNL     1       4.561   6.102   3.970  1.00  0.00     0.017 A 
ATOM     28  C   UNL     1       4.385   4.164   5.383  1.00  0.00     0.017 A 
ATOM     29  C   UNL     1       4.388   6.924   5.092  1.00  0.00     0.001 A 
ATOM     30  C   UNL     1       4.222   4.982   6.505  1.00  0.00     0.001 A 
ATOM     31  C   UNL     1       4.219   6.364   6.358  1.00  0.00     0.000 A 
ENDBRANCH  25  26
ENDBRANCH  17  24
ENDBRANCH   7   9
ENDBRANCH   6   7
ENDBRANCH   5   6
ENDBRANCH   4   5
ENDBRANCH   3   4
ENDBRANCH   2   3
ENDBRANCH   1   2
BRANCH   1  32
ATOM     32  O   UNL     1       3.155   1.239   3.923  1.00  0.00    -0.376 OA
BRANCH  32  33
ATOM     33  C   UNL     1       4.436   0.660   4.112  1.00  0.00     0.202 C 
BRANCH  33  34
ATOM     34  C   UNL     1       4.566  -0.434   5.167  1.00  0.00     0.261 C 
BRANCH  34  35
ATOM     35  O   UNL     1       4.022  -1.692   4.744  1.00  0.00    -0.460 OA
BRANCH  35  36
ATOM     36  C   UNL     1       2.923  -2.135   5.401  1.00  0.00     0.338 C 
ATOM     37  O   UNL     1       2.325  -1.580   6.304  1.00  0.00    -0.246 OA
BRANCH  36  38
ATOM     38  C   UNL     1       2.468  -3.369   4.740  1.00  0.00     0.060 A 
ATOM     39  C   UNL     1       1.181  -3.432   4.189  1.00  0.00     0.016 A 
ATOM     40  C   UNL     1       3.327  -4.467   4.684  1.00  0.00     0.016 A 
ATOM     41  C   UNL     1       0.754  -4.598   3.556  1.00  0.00     0.010 A 
ATOM     42  C   UNL     1       2.881  -5.649   4.098  1.00  0.00     0.010 A 
ATOM     43  C   UNL     1       1.587  -5.724   3.555  1.00  0.00    -0.014 A 
BRANCH  43  44
ATOM     44  C   UNL     1       1.013  -7.055   3.261  1.00  0.00     0.031 A 
ATOM     45  C   UNL     1       0.469  -7.832   4.426  1.00  0.00     0.074 A 
ATOM     46  C   UNL     1       0.989  -7.560   2.017  1.00  0.00     0.049 A 
ATOM     47  N   UNL     1      -0.012  -9.045   4.466  1.00  0.00    -0.248 NA
ATOM     48  C   UNL     1       0.483  -7.143   5.728  1.00  0.00     0.031 C 
ATOM     49  C   UNL     1       1.448  -6.868   0.815  1.00  0.00     0.029 A 
ATOM     50  N   UNL     1       0.567  -8.784   1.564  1.00  0.00    -0.354 N 
ATOM     51  C   UNL     1      -0.355  -9.265   5.795  1.00  0.00     0.074 A 
ATOM     52  C   UNL     1       0.012  -8.079   6.535  1.00  0.00     0.031 C 
ATOM     53  C   UNL     1       1.291  -7.686  -0.242  1.00  0.00     0.029 A 
ATOM     54  C   UNL     1       0.762  -8.971   0.215  1.00  0.00     0.049 A 
ATOM     55  H   UNL     1       0.161  -9.464   2.149  1.00  0.00     0.167 HD
ATOM     56  C   UNL     1      -0.931 -10.360   6.346  1.00  0.00     0.034 A 
ATOM     57  C   UNL     1       0.562 -10.067  -0.546  1.00  0.00     0.034 A 
ATOM     58  C   UNL     1      -1.252 -11.545   5.593  1.00  0.00     0.049 A 
ATOM     59  C   UNL     1       0.020 -11.318   0.112  1.00  0.00     0.074 A 
ATOM     60  C   UNL     1      -1.837 -12.714   6.041  1.00  0.00     0.029 A 
ATOM     61  N   UNL     1      -0.993 -11.720   4.239  1.00  0.00    -0.354 N 
ATOM     62  N   UNL     1      -0.317 -11.516   1.368  1.00  0.00    -0.248 NA
ATOM     63  C   UNL     1      -0.172 -12.491  -0.750  1.00  0.00     0.031 C 
ATOM     64  C   UNL     1      -1.843 -13.629   4.985  1.00  0.00     0.029 A 
ATOM     65  C   UNL     1      -1.366 -12.995   3.847  1.00  0.00     0.049 A 
ATOM     66  H   UNL     1      -0.601 -11.039   3.647  1.00  0.00     0.167 HD
ATOM     67  C   UNL     1      -0.798 -12.822   1.433  1.00  0.00     0.074 A 
ATOM     68  C   UNL     1      -0.718 -13.358   0.090  1.00  0.00     0.031 C 
ATOM     69  C   UNL     1      -1.271 -13.515   2.502  1.00  0.00     0.034 A 
BRANCH  56  70
ATOM     70  C   UNL     1      -1.178 -10.338   7.833  1.00  0.00     0.023 A 
ATOM     71  C   UNL     1      -2.039  -9.399   8.428  1.00  0.00     0.031 A 
ATOM     72  C   UNL     1      -0.509 -11.243   8.675  1.00  0.00     0.131 A 
ATOM     73  C   UNL     1      -2.148  -9.336   9.824  1.00  0.00     0.055 A 
ATOM     74  C   UNL     1      -0.695 -11.237  10.058  1.00  0.00     0.041 A 
ATOM     75  F   UNL     1       0.353 -12.139   8.170  1.00  0.00    -0.206 F 
ATOM     76  C   UNL     1      -1.507 -10.269  10.642  1.00  0.00     0.022 A 
BRANCH  73  77
ATOM     77  S   UNL     1      -3.005  -7.918  10.562  1.00  0.00     0.124 S 
ATOM     78  O   UNL     1      -2.233  -6.798  10.029  1.00  0.00    -0.237 OA
ATOM     79  O   UNL     1      -4.360  -8.063  10.046  1.00  0.00    -0.237 OA
ATOM     80  O   UNL     1      -2.856  -8.138  12.000  1.00  0.00    -0.744 OA
ENDBRANCH  73  77
ENDBRANCH  56  70
BRANCH  57  81
ATOM     81  C   UNL     1       0.907 -10.061  -1.999  1.00  0.00     0.023 A 
ATOM     82  C   UNL     1      -0.068 -10.301  -2.981  1.00  0.00     0.031 A 
ATOM     83  C   UNL     1       2.236  -9.883  -2.426  1.00  0.00     0.131 A 
ATOM     84  C   UNL     1       0.307 -10.411  -4.330  1.00  0.00     0.055 A 
ATOM     85  C   UNL     1       2.593  -9.924  -3.775  1.00  0.00     0.041 A 
ATOM     86  F   UNL     1       3.215  -9.668  -1.532  1.00  0.00    -0.206 F 
ATOM     87  C   UNL     1       1.627 -10.204  -4.736  1.00  0.00     0.022 A 
BRANCH  84  88
ATOM     88  S   UNL     1      -0.936 -10.950  -5.537  1.00  0.00     0.124 S 
ATOM     89  O   UNL     1      -1.345 -12.237  -4.985  1.00  0.00    -0.237 OA
ATOM     90  O   UNL     1      -1.921  -9.877  -5.461  1.00  0.00    -0.237 OA
ATOM     91  O   UNL     1      -0.187 -11.018  -6.790  1.00  0.00    -0.744 OA
ENDBRANCH  84  88
ENDBRANCH  57  81
BRANCH  69  92
ATOM     92  C   UNL     1      -1.794 -14.911   2.251  1.00  0.00     0.023 A 
ATOM     93  C   UNL     1      -0.960 -15.952   1.808  1.00  0.00     0.031 A 
ATOM     94  C   UNL     1      -3.154 -15.202   2.466  1.00  0.00     0.131 A 
ATOM     95  C   UNL     1      -1.507 -17.214   1.532  1.00  0.00     0.055 A 
ATOM     96  C   UNL     1      -3.675 -16.481   2.269  1.00  0.00     0.041 A 
ATOM     97  F   UNL     1      -4.001 -14.246   2.883  1.00  0.00    -0.206 F 
ATOM     98  C   UNL     1      -2.853 -17.492   1.785  1.00  0.00     0.022 A 
BRANCH  95  99
ATOM     99  S   UNL     1      -0.461 -18.455   0.723  1.00  0.00     0.124 S 
ATOM    100  O   UNL     1      -0.052 -17.759  -0.492  1.00  0.00    -0.237 OA
ATOM    101  O   UNL     1       0.587 -18.677   1.714  1.00  0.00    -0.237 OA
ATOM    102  O   UNL     1      -1.367 -19.584   0.516  1.00  0.00    -0.744 OA
ENDBRANCH  95  99
ENDBRANCH  69  92
ENDBRANCH  43  44
ENDBRANCH  36  38
ENDBRANCH  35  36
ENDBRANCH  34  35
ENDBRANCH  33  34
ENDBRANCH  32  33
ENDBRANCH   1  32
TORSDOF 23
