REMARK SMILES CCc1ccc(C(=O)NCc2ccc(C(=O)OCCOCCOCCOC(=O)c3ccc(-c4c5nc(c(-c6cc(S(=O)(=O)[O-])ccc6F)c6ccc([nH]6)c(-c6cc(S(=O)(=O)[O-])ccc6F)c6nc(c(-c7cc(S(=O)(=O)[O-])ccc7F)c7ccc4[nH]7)C=C6)C=C5)cc3)cc2)cc1
REMARK SMILES IDX 21 1 20 2 19 3 18 4 17 5 15 6 16 7 14 8 11 9 12 10 93 11
REMARK SMILES IDX 13 12 92 13 10 14 9 15 7 16 8 17 6 19 3 20 4 21 95 22 5 23
REMARK SMILES IDX 94 24 2 25 1 26 22 27 23 28 24 29 25 30 26 31 27 32 28 33
REMARK SMILES IDX 29 34 30 35 91 36 31 37 90 38 32 39 33 40 34 41 84 42 35 43
REMARK SMILES IDX 89 44 83 45 85 46 36 47 88 48 82 49 81 50 37 52 69 53 49 54
REMARK SMILES IDX 68 55 50 56 53 57 67 58 86 59 51 60 52 61 66 63 87 64 54 65
REMARK SMILES IDX 38 66 39 67 47 68 40 69 46 70 48 71 45 72 41 73 42 74 43 75
REMARK SMILES IDX 44 76 70 77 71 78 79 79 72 80 78 81 80 82 77 83 73 84 74 85
REMARK SMILES IDX 75 86 76 87 55 88 56 89 64 90 57 91 63 92 65 93 62 94 58 95
REMARK SMILES IDX 59 96 60 97 61 98
REMARK H PARENT 9 18 85 51 53 62
REMARK Flexibility Score: inf
ROOT
ATOM      1  C   UNL     1      10.067   1.451  -5.778  1.00  0.00     0.188 C 
ENDROOT
BRANCH   1   2
ATOM      2  O   UNL     1      11.355   1.937  -6.081  1.00  0.00    -0.376 OA
BRANCH   2   3
ATOM      3  C   UNL     1      11.549   2.938  -7.064  1.00  0.00     0.202 C 
BRANCH   3   4
ATOM      4  C   UNL     1      10.510   3.404  -8.100  1.00  0.00     0.261 C 
BRANCH   4   5
ATOM      5  O   UNL     1       9.128   3.197  -7.798  1.00  0.00    -0.460 OA
BRANCH   5   6
ATOM      6  C   UNL     1       8.524   2.242  -8.547  1.00  0.00     0.338 C 
ATOM      7  O   UNL     1       9.033   1.593  -9.447  1.00  0.00    -0.246 OA
BRANCH   6   8
ATOM      8  C   UNL     1       7.170   1.954  -8.032  1.00  0.00     0.060 A 
ATOM      9  C   UNL     1       4.528   1.266  -7.366  1.00  0.00    -0.029 A 
ATOM     10  C   UNL     1       5.504   0.273  -7.545  1.00  0.00     0.006 A 
ATOM     11  C   UNL     1       4.928   2.615  -7.419  1.00  0.00     0.006 A 
ATOM     12  C   UNL     1       6.811   0.612  -7.890  1.00  0.00     0.016 A 
ATOM     13  C   UNL     1       6.247   2.961  -7.741  1.00  0.00     0.016 A 
BRANCH   9  14
ATOM     14  C   UNL     1       3.052   0.926  -7.286  1.00  0.00     0.152 C 
BRANCH  14  15
ATOM     15  N   UNL     1       2.803  -0.484  -7.082  1.00  0.00    -0.348 N 
ATOM     16  C   UNL     1       2.340  -1.239  -6.044  1.00  0.00     0.251 C 
ATOM     17  O   UNL     1       2.216  -2.446  -6.259  1.00  0.00    -0.269 OA
ATOM     18  H   UNL     1       3.016  -1.024  -7.877  1.00  0.00     0.164 HD
BRANCH  16  19
ATOM     19  C   UNL     1       1.925  -0.695  -4.722  1.00  0.00     0.039 A 
ATOM     20  C   UNL     1       0.940   0.187  -2.224  1.00  0.00    -0.048 A 
ATOM     21  C   UNL     1       0.568  -1.061  -2.729  1.00  0.00     0.004 A 
ATOM     22  C   UNL     1       1.848   0.965  -2.953  1.00  0.00     0.004 A 
ATOM     23  C   UNL     1       1.052  -1.494  -3.965  1.00  0.00     0.014 A 
ATOM     24  C   UNL     1       2.358   0.514  -4.178  1.00  0.00     0.014 A 
BRANCH  20  25
ATOM     25  C   UNL     1       0.395   0.671  -0.905  1.00  0.00     0.032 C 
ATOM     26  C   UNL     1       0.969  -0.092   0.278  1.00  0.00     0.009 C 
ENDBRANCH  20  25
ENDBRANCH  16  19
ENDBRANCH  14  15
ENDBRANCH   9  14
ENDBRANCH   6   8
ENDBRANCH   5   6
ENDBRANCH   4   5
ENDBRANCH   3   4
ENDBRANCH   2   3
ENDBRANCH   1   2
BRANCH   1  27
ATOM     27  C   UNL     1       9.110   2.372  -4.995  1.00  0.00     0.188 C 
BRANCH  27  28
ATOM     28  O   UNL     1       9.461   3.724  -4.791  1.00  0.00    -0.376 OA
BRANCH  28  29
ATOM     29  C   UNL     1      10.582   4.060  -3.991  1.00  0.00     0.202 C 
BRANCH  29  30
ATOM     30  C   UNL     1      11.195   3.175  -2.887  1.00  0.00     0.261 C 
BRANCH  30  31
ATOM     31  O   UNL     1      11.024   1.759  -2.984  1.00  0.00    -0.460 OA
BRANCH  31  32
ATOM     32  C   UNL     1      10.129   1.221  -2.120  1.00  0.00     0.338 C 
ATOM     33  O   UNL     1       9.443   1.822  -1.303  1.00  0.00    -0.246 OA
BRANCH  32  34
ATOM     34  C   UNL     1       9.964  -0.209  -2.431  1.00  0.00     0.060 A 
ATOM     35  C   UNL     1       8.742  -0.651  -2.957  1.00  0.00     0.016 A 
ATOM     36  C   UNL     1      10.996  -1.114  -2.178  1.00  0.00     0.016 A 
ATOM     37  C   UNL     1       8.544  -2.006  -3.221  1.00  0.00     0.010 A 
ATOM     38  C   UNL     1      10.787  -2.474  -2.421  1.00  0.00     0.010 A 
ATOM     39  C   UNL     1       9.553  -2.930  -2.922  1.00  0.00    -0.014 A 
BRANCH  39  40
ATOM     40  C   UNL     1       9.259  -4.385  -2.964  1.00  0.00     0.031 A 
ATOM     41  C   UNL     1       8.936  -5.089  -1.675  1.00  0.00     0.074 A 
ATOM     42  C   UNL     1       9.264  -5.065  -4.125  1.00  0.00     0.049 A 
ATOM     43  N   UNL     1       8.723  -6.359  -1.450  1.00  0.00    -0.248 NA
ATOM     44  C   UNL     1       8.849  -4.240  -0.476  1.00  0.00     0.031 C 
ATOM     45  C   UNL     1       9.508  -4.483  -5.443  1.00  0.00     0.029 A 
ATOM     46  N   UNL     1       9.067  -6.400  -4.377  1.00  0.00    -0.354 N 
ATOM     47  C   UNL     1       8.483  -6.465  -0.084  1.00  0.00     0.074 A 
ATOM     48  C   UNL     1       8.618  -5.135   0.471  1.00  0.00     0.031 C 
ATOM     49  C   UNL     1       9.456  -5.460  -6.366  1.00  0.00     0.029 A 
ATOM     50  C   UNL     1       9.222  -6.742  -5.701  1.00  0.00     0.049 A 
ATOM     51  H   UNL     1       8.835  -7.052  -3.677  1.00  0.00     0.167 HD
ATOM     52  C   UNL     1       8.172  -7.570   0.638  1.00  0.00     0.034 A 
ATOM     53  C   UNL     1       9.210  -7.951  -6.299  1.00  0.00     0.034 A 
ATOM     54  C   UNL     1       8.057  -8.892   0.071  1.00  0.00     0.049 A 
ATOM     55  C   UNL     1       8.970  -9.184  -5.456  1.00  0.00     0.074 A 
ATOM     56  C   UNL     1       7.734 -10.077   0.708  1.00  0.00     0.029 A 
ATOM     57  N   UNL     1       8.277  -9.208  -1.264  1.00  0.00    -0.354 N 
ATOM     58  N   UNL     1       8.741  -9.274  -4.166  1.00  0.00    -0.248 NA
ATOM     59  C   UNL     1       8.983 -10.478  -6.153  1.00  0.00     0.031 C 
ATOM     60  C   UNL     1       7.844 -11.118  -0.219  1.00  0.00     0.029 A 
ATOM     61  C   UNL     1       8.140 -10.574  -1.459  1.00  0.00     0.049 A 
ATOM     62  H   UNL     1       8.497  -8.557  -1.969  1.00  0.00     0.167 HD
ATOM     63  C   UNL     1       8.548 -10.630  -3.906  1.00  0.00     0.074 A 
ATOM     64  C   UNL     1       8.676 -11.317  -5.175  1.00  0.00     0.031 C 
ATOM     65  C   UNL     1       8.282 -11.252  -2.728  1.00  0.00     0.034 A 
BRANCH  52  66
ATOM     66  C   UNL     1       7.997  -7.398   2.129  1.00  0.00     0.023 A 
ATOM     67  C   UNL     1       6.977  -6.594   2.669  1.00  0.00     0.031 A 
ATOM     68  C   UNL     1       8.884  -8.023   3.022  1.00  0.00     0.131 A 
ATOM     69  C   UNL     1       6.917  -6.378   4.054  1.00  0.00     0.055 A 
ATOM     70  C   UNL     1       8.765  -7.873   4.405  1.00  0.00     0.041 A 
ATOM     71  F   UNL     1       9.894  -8.781   2.566  1.00  0.00    -0.206 F 
ATOM     72  C   UNL     1       7.787  -7.034   4.928  1.00  0.00     0.022 A 
BRANCH  69  73
ATOM     73  S   UNL     1       5.785  -5.108   4.686  1.00  0.00     0.124 S 
ATOM     74  O   UNL     1       6.242  -3.921   3.968  1.00  0.00    -0.237 OA
ATOM     75  O   UNL     1       4.479  -5.627   4.296  1.00  0.00    -0.237 OA
ATOM     76  O   UNL     1       6.049  -5.098   6.123  1.00  0.00    -0.744 OA
ENDBRANCH  69  73
ENDBRANCH  52  66
BRANCH  53  77
ATOM     77  C   UNL     1       9.483  -8.078  -7.762  1.00  0.00     0.023 A 
ATOM     78  C   UNL     1       8.525  -8.610  -8.639  1.00  0.00     0.031 A 
ATOM     79  C   UNL     1      10.738  -7.728  -8.294  1.00  0.00     0.131 A 
ATOM     80  C   UNL     1       8.852  -8.823  -9.988  1.00  0.00     0.055 A 
ATOM     81  C   UNL     1      11.037  -7.885  -9.648  1.00  0.00     0.041 A 
ATOM     82  F   UNL     1      11.697  -7.225  -7.500  1.00  0.00    -0.206 F 
ATOM     83  C   UNL     1      10.095  -8.448 -10.502  1.00  0.00     0.022 A 
BRANCH  80  84
ATOM     84  S   UNL     1       7.662  -9.695 -11.045  1.00  0.00     0.124 S 
ATOM     85  O   UNL     1       7.507 -10.960 -10.335  1.00  0.00    -0.237 OA
ATOM     86  O   UNL     1       6.513  -8.796 -11.015  1.00  0.00    -0.237 OA
ATOM     87  O   UNL     1       8.349  -9.781 -12.332  1.00  0.00    -0.744 OA
ENDBRANCH  80  84
ENDBRANCH  53  77
BRANCH  65  88
ATOM     88  C   UNL     1       8.062 -12.747  -2.764  1.00  0.00     0.023 A 
ATOM     89  C   UNL     1       9.091 -13.644  -3.101  1.00  0.00     0.031 A 
ATOM     90  C   UNL     1       6.798 -13.282  -2.452  1.00  0.00     0.131 A 
ATOM     91  C   UNL     1       8.825 -15.021  -3.168  1.00  0.00     0.055 A 
ATOM     92  C   UNL     1       6.557 -14.656  -2.456  1.00  0.00     0.041 A 
ATOM     93  F   UNL     1       5.775 -12.474  -2.127  1.00  0.00    -0.206 F 
ATOM     94  C   UNL     1       7.570 -15.534  -2.828  1.00  0.00     0.022 A 
BRANCH  91  95
ATOM     95  S   UNL     1      10.115 -16.131  -3.797  1.00  0.00     0.124 S 
ATOM     96  O   UNL     1      10.363 -15.585  -5.127  1.00  0.00    -0.237 OA
ATOM     97  O   UNL     1      11.186 -15.949  -2.823  1.00  0.00    -0.237 OA
ATOM     98  O   UNL     1       9.477 -17.446  -3.776  1.00  0.00    -0.744 OA
ENDBRANCH  91  95
ENDBRANCH  65  88
ENDBRANCH  39  40
ENDBRANCH  32  34
ENDBRANCH  31  32
ENDBRANCH  30  31
ENDBRANCH  29  30
ENDBRANCH  28  29
ENDBRANCH  27  28
ENDBRANCH   1  27
TORSDOF 24
