REMARK SMILES CCCc1cc(OC(F)(F)F)cc2c1O[C@H](C(F)(F)F)C(C(=O)OCCOCCOCCOC(=O)c1ccc(-c3c4nc(c(-c5cc(S(=O)(=O)[O-])ccc5F)c5ccc([nH]5)c(-c5cc(S(=O)(=O)[O-])ccc5F)c5nc(c(-c6cc(S(=O)(=O)[O-])ccc6F)c6ccc3[nH]6)C=C5)C=C4)cc1)=C2
REMARK SMILES IDX 29 1 28 2 27 3 26 4 25 5 24 6 22 7 23 8 21 9 4 10 5 11 14 12
REMARK SMILES IDX 6 13 13 14 15 15 12 16 99 17 16 18 3 19 2 20 1 21 7 22 8 23
REMARK SMILES IDX 9 24 10 25 11 26 17 27 18 28 19 29 20 30 30 31 31 32 32 33
REMARK SMILES IDX 33 34 34 35 35 36 36 37 37 38 98 39 38 40 97 41 39 42 40 43
REMARK SMILES IDX 41 44 91 45 42 46 96 47 90 48 92 49 43 50 95 51 89 52 88 53
REMARK SMILES IDX 44 55 76 56 56 57 75 58 57 59 60 60 74 61 93 62 58 63 59 64
REMARK SMILES IDX 73 66 94 67 61 68 45 69 46 70 54 71 47 72 53 73 55 74 52 75
REMARK SMILES IDX 48 76 49 77 50 78 51 79 77 80 78 81 86 82 79 83 85 84 87 85
REMARK SMILES IDX 84 86 80 87 81 88 82 89 83 90 62 91 63 92 71 93 64 94 70 95
REMARK SMILES IDX 72 96 69 97 65 98 66 99 67 100 68 101
REMARK H PARENT 92 54 60 65
REMARK Flexibility Score: inf
ROOT
ATOM      1  C   UNL     1      -0.184  -9.531  -1.168  1.00  0.00     0.188 C 
ENDROOT
BRANCH   1   2
ATOM      2  C   UNL     1       0.920  -9.745  -2.226  1.00  0.00     0.188 C 
BRANCH   2   3
ATOM      3  O   UNL     1       1.821 -10.839  -2.108  1.00  0.00    -0.376 OA
BRANCH   3   4
ATOM      4  C   UNL     1       2.376 -11.165  -0.843  1.00  0.00     0.202 C 
BRANCH   4   5
ATOM      5  C   UNL     1       3.104 -10.085  -0.029  1.00  0.00     0.261 C 
BRANCH   5   6
ATOM      6  O   UNL     1       2.382  -8.855   0.167  1.00  0.00    -0.460 OA
BRANCH   6   7
ATOM      7  C   UNL     1       2.860  -7.789  -0.521  1.00  0.00     0.338 C 
ATOM      8  O   UNL     1       3.834  -7.790  -1.258  1.00  0.00    -0.246 OA
BRANCH   7   9
ATOM      9  C   UNL     1       1.997  -6.598  -0.383  1.00  0.00     0.087 C 
ATOM     10  C   UNL     1       0.481  -2.725  -0.251  1.00  0.00    -0.002 A 
ATOM     11  C   UNL     1      -0.429  -2.386   0.755  1.00  0.00     0.054 A 
ATOM     12  C   UNL     1       1.038  -4.010  -0.216  1.00  0.00     0.131 A 
ATOM     13  C   UNL     1      -0.702  -3.269   1.808  1.00  0.00     0.130 A 
ATOM     14  C   UNL     1       0.728  -4.941   0.791  1.00  0.00     0.021 A 
ATOM     15  O   UNL     1       1.945  -4.314  -1.201  1.00  0.00    -0.475 OA
ATOM     16  C   UNL     1      -0.144  -4.556   1.809  1.00  0.00     0.058 A 
ATOM     17  C   UNL     1       1.395  -6.250   0.769  1.00  0.00     0.027 C 
ATOM     18  C   UNL     1       1.913  -5.701  -1.601  1.00  0.00     0.316 C 
BRANCH  10  19
ATOM     19  C   UNL     1       0.848  -1.803  -1.398  1.00  0.00     0.039 C 
BRANCH  19  20
ATOM     20  C   UNL     1       0.468  -0.323  -1.298  1.00  0.00     0.001 C 
ATOM     21  C   UNL     1       1.232   0.419  -0.209  1.00  0.00     0.004 C 
ENDBRANCH  19  20
ENDBRANCH  10  19
BRANCH  13  22
ATOM     22  O   UNL     1      -1.500  -2.978   2.882  1.00  0.00    -0.406 OA
BRANCH  22  23
ATOM     23  C   UNL     1      -1.660  -1.599   3.194  1.00  0.00     0.573 C 
ATOM     24  F   UNL     1      -0.476  -0.947   3.202  1.00  0.00    -0.132 F 
ATOM     25  F   UNL     1      -2.499  -1.000   2.324  1.00  0.00    -0.132 F 
ATOM     26  F   UNL     1      -2.196  -1.494   4.431  1.00  0.00    -0.132 F 
ENDBRANCH  22  23
ENDBRANCH  13  22
BRANCH  18  27
ATOM     27  C   UNL     1       0.692  -5.978  -2.506  1.00  0.00     0.430 C 
ATOM     28  F   UNL     1       0.332  -4.890  -3.226  1.00  0.00    -0.167 F 
ATOM     29  F   UNL     1       0.949  -6.965  -3.394  1.00  0.00    -0.167 F 
ATOM     30  F   UNL     1      -0.402  -6.366  -1.804  1.00  0.00    -0.167 F 
ENDBRANCH  18  27
ENDBRANCH   7   9
ENDBRANCH   6   7
ENDBRANCH   5   6
ENDBRANCH   4   5
ENDBRANCH   3   4
ENDBRANCH   2   3
ENDBRANCH   1   2
BRANCH   1  31
ATOM     31  O   UNL     1      -0.226 -10.552  -0.196  1.00  0.00    -0.376 OA
BRANCH  31  32
ATOM     32  C   UNL     1      -1.259 -11.515  -0.278  1.00  0.00     0.202 C 
BRANCH  32  33
ATOM     33  C   UNL     1      -1.662 -12.182  -1.608  1.00  0.00     0.261 C 
BRANCH  33  34
ATOM     34  O   UNL     1      -1.472 -11.442  -2.820  1.00  0.00    -0.460 OA
BRANCH  34  35
ATOM     35  C   UNL     1      -2.489 -10.656  -3.235  1.00  0.00     0.338 C 
ATOM     36  O   UNL     1      -3.541 -10.449  -2.640  1.00  0.00    -0.246 OA
BRANCH  35  37
ATOM     37  C   UNL     1      -2.064  -9.957  -4.466  1.00  0.00     0.060 A 
ATOM     38  C   UNL     1      -1.837  -8.576  -4.429  1.00  0.00     0.016 A 
ATOM     39  C   UNL     1      -1.893 -10.667  -5.658  1.00  0.00     0.016 A 
ATOM     40  C   UNL     1      -1.445  -7.897  -5.588  1.00  0.00     0.010 A 
ATOM     41  C   UNL     1      -1.524  -9.981  -6.821  1.00  0.00     0.010 A 
ATOM     42  C   UNL     1      -1.316  -8.589  -6.800  1.00  0.00    -0.014 A 
BRANCH  42  43
ATOM     43  C   UNL     1      -1.137  -7.851  -8.079  1.00  0.00     0.031 A 
ATOM     44  C   UNL     1      -2.349  -7.597  -8.932  1.00  0.00     0.074 A 
ATOM     45  C   UNL     1       0.071  -7.417  -8.484  1.00  0.00     0.049 A 
ATOM     46  N   UNL     1      -2.432  -7.106 -10.141  1.00  0.00    -0.248 NA
ATOM     47  C   UNL     1      -3.645  -7.950  -8.333  1.00  0.00     0.031 C 
ATOM     48  C   UNL     1       1.310  -7.527  -7.717  1.00  0.00     0.029 A 
ATOM     49  N   UNL     1       0.454  -6.805  -9.655  1.00  0.00    -0.354 N 
ATOM     50  C   UNL     1      -3.787  -7.102 -10.456  1.00  0.00     0.074 A 
ATOM     51  C   UNL     1      -4.483  -7.665  -9.318  1.00  0.00     0.031 C 
ATOM     52  C   UNL     1       2.320  -7.019  -8.446  1.00  0.00     0.029 A 
ATOM     53  C   UNL     1       1.812  -6.598  -9.751  1.00  0.00     0.049 A 
ATOM     54  H   UNL     1      -0.182  -6.541 -10.357  1.00  0.00     0.167 HD
ATOM     55  C   UNL     1      -4.393  -6.669 -11.589  1.00  0.00     0.034 A 
ATOM     56  C   UNL     1       2.559  -6.161 -10.788  1.00  0.00     0.034 A 
ATOM     57  C   UNL     1      -3.684  -6.127 -12.722  1.00  0.00     0.049 A 
ATOM     58  C   UNL     1       1.876  -5.801 -12.090  1.00  0.00     0.074 A 
ATOM     59  C   UNL     1      -4.199  -5.666 -13.921  1.00  0.00     0.029 A 
ATOM     60  N   UNL     1      -2.304  -5.986 -12.805  1.00  0.00    -0.354 N 
ATOM     61  N   UNL     1       0.597  -5.824 -12.389  1.00  0.00    -0.248 NA
ATOM     62  C   UNL     1       2.738  -5.357 -13.195  1.00  0.00     0.031 C 
ATOM     63  C   UNL     1      -3.131  -5.326 -14.756  1.00  0.00     0.029 A 
ATOM     64  C   UNL     1      -1.951  -5.481 -14.047  1.00  0.00     0.049 A 
ATOM     65  H   UNL     1      -1.670  -6.211 -12.086  1.00  0.00     0.167 HD
ATOM     66  C   UNL     1       0.502  -5.359 -13.700  1.00  0.00     0.074 A 
ATOM     67  C   UNL     1       1.850  -5.060 -14.133  1.00  0.00     0.031 C 
ATOM     68  C   UNL     1      -0.602  -5.184 -14.471  1.00  0.00     0.034 A 
BRANCH  55  69
ATOM     69  C   UNL     1      -5.891  -6.834 -11.678  1.00  0.00     0.023 A 
ATOM     70  C   UNL     1      -6.767  -6.161 -10.809  1.00  0.00     0.031 A 
ATOM     71  C   UNL     1      -6.449  -7.709 -12.628  1.00  0.00     0.131 A 
ATOM     72  C   UNL     1      -8.144  -6.429 -10.859  1.00  0.00     0.055 A 
ATOM     73  C   UNL     1      -7.827  -7.906 -12.729  1.00  0.00     0.041 A 
ATOM     74  F   UNL     1      -5.662  -8.400 -13.467  1.00  0.00    -0.206 F 
ATOM     75  C   UNL     1      -8.683  -7.276 -11.830  1.00  0.00     0.022 A 
BRANCH  72  76
ATOM     76  S   UNL     1      -9.203  -5.774  -9.540  1.00  0.00     0.124 S 
ATOM     77  O   UNL     1      -8.581  -6.350  -8.349  1.00  0.00    -0.237 OA
ATOM     78  O   UNL     1      -9.057  -4.333  -9.703  1.00  0.00    -0.237 OA
ATOM     79  O   UNL     1     -10.524  -6.309  -9.863  1.00  0.00    -0.744 OA
ENDBRANCH  72  76
ENDBRANCH  55  69
BRANCH  56  80
ATOM     80  C   UNL     1       4.048  -6.095 -10.678  1.00  0.00     0.023 A 
ATOM     81  C   UNL     1       4.738  -4.881 -10.823  1.00  0.00     0.031 A 
ATOM     82  C   UNL     1       4.811  -7.265 -10.503  1.00  0.00     0.131 A 
ATOM     83  C   UNL     1       6.143  -4.870 -10.841  1.00  0.00     0.055 A 
ATOM     84  C   UNL     1       6.206  -7.240 -10.459  1.00  0.00     0.041 A 
ATOM     85  F   UNL     1       4.206  -8.457 -10.373  1.00  0.00    -0.206 F 
ATOM     86  C   UNL     1       6.881  -6.039 -10.643  1.00  0.00     0.022 A 
BRANCH  83  87
ATOM     87  S   UNL     1       6.997  -3.316 -11.231  1.00  0.00     0.124 S 
ATOM     88  O   UNL     1       6.456  -3.005 -12.549  1.00  0.00    -0.237 OA
ATOM     89  O   UNL     1       6.565  -2.450 -10.139  1.00  0.00    -0.237 OA
ATOM     90  O   UNL     1       8.410  -3.689 -11.207  1.00  0.00    -0.744 OA
ENDBRANCH  83  87
ENDBRANCH  56  80
BRANCH  68  91
ATOM     91  C   UNL     1      -0.410  -4.576 -15.842  1.00  0.00     0.023 A 
ATOM     92  C   UNL     1       0.268  -5.247 -16.874  1.00  0.00     0.031 A 
ATOM     93  C   UNL     1      -0.939  -3.301 -16.121  1.00  0.00     0.131 A 
ATOM     94  C   UNL     1       0.434  -4.625 -18.122  1.00  0.00     0.055 A 
ATOM     95  C   UNL     1      -0.824  -2.714 -17.381  1.00  0.00     0.041 A 
ATOM     96  F   UNL     1      -1.593  -2.611 -15.173  1.00  0.00    -0.206 F 
ATOM     97  C   UNL     1      -0.124  -3.372 -18.387  1.00  0.00     0.022 A 
BRANCH  94  98
ATOM     98  S   UNL     1       1.460  -5.439 -19.378  1.00  0.00     0.124 S 
ATOM     99  O   UNL     1       2.743  -5.556 -18.693  1.00  0.00    -0.237 OA
ATOM    100  O   UNL     1       0.743  -6.690 -19.605  1.00  0.00    -0.237 OA
ATOM    101  O   UNL     1       1.439  -4.502 -20.500  1.00  0.00    -0.744 OA
ENDBRANCH  94  98
ENDBRANCH  68  91
ENDBRANCH  42  43
ENDBRANCH  35  37
ENDBRANCH  34  35
ENDBRANCH  33  34
ENDBRANCH  32  33
ENDBRANCH  31  32
ENDBRANCH   1  31
TORSDOF 25
