REMARK SMILES Cc1ccc(OCC(=O)NNC(=O)[C@H]2CCCC[C@@H]2C(=O)OCCOCCOCCOC(=O)c2ccc(-c3c4nc(c(-c5cc(S(=O)(=O)[O-])ccc5F)c5ccc([nH]5)c(-c5cc(S(=O)(=O)[O-])ccc5F)c5nc(c(-c6cc(S(=O)(=O)[O-])ccc6F)c6ccc3[nH]6)C=C5)C=C4)cc2)cc1
REMARK SMILES IDX 26 1 25 2 24 3 23 4 22 5 20 6 21 7 19 8 14 9 15 10 16 11
REMARK SMILES IDX 18 12 17 13 12 14 11 15 13 17 10 18 8 19 9 20 7 22 6 23 5 24
REMARK SMILES IDX 1 25 2 26 3 27 98 28 4 29 97 30 27 31 28 32 29 33 30 34
REMARK SMILES IDX 31 35 32 36 33 37 34 38 35 39 96 40 36 41 95 42 37 43 38 44
REMARK SMILES IDX 39 45 89 46 40 47 94 48 88 49 90 50 41 51 93 52 87 53 86 54
REMARK SMILES IDX 42 56 74 57 54 58 73 59 55 60 58 61 72 62 91 63 56 64 57 65
REMARK SMILES IDX 71 67 92 68 59 69 43 70 44 71 52 72 45 73 51 74 53 75 50 76
REMARK SMILES IDX 46 77 47 78 48 79 49 80 75 81 76 82 84 83 77 84 83 85 85 86
REMARK SMILES IDX 82 87 78 88 79 89 80 90 81 91 60 92 61 93 69 94 62 95 68 96
REMARK SMILES IDX 70 97 67 98 63 99 64 100 65 101 66 102
REMARK H PARENT 11 16 10 21 90 55 58 66
REMARK Flexibility Score: inf
ROOT
ATOM      1  C   UNL     1      -7.740   4.748   1.868  1.00  0.00     0.188 C 
ENDROOT
BRANCH   1   2
ATOM      2  O   UNL     1      -7.464   4.426   3.239  1.00  0.00    -0.376 OA
BRANCH   2   3
ATOM      3  C   UNL     1      -8.095   5.227   4.219  1.00  0.00     0.202 C 
BRANCH   3   4
ATOM      4  C   UNL     1      -7.721   4.938   5.725  1.00  0.00     0.261 C 
BRANCH   4   5
ATOM      5  O   UNL     1      -6.643   3.981   6.074  1.00  0.00    -0.463 OA
BRANCH   5   6
ATOM      6  C   UNL     1      -5.531   4.361   6.746  1.00  0.00     0.309 C 
ATOM      7  O   UNL     1      -5.368   5.540   7.071  1.00  0.00    -0.252 OA
BRANCH   6   8
ATOM      8  C   UNL     1      -4.339   3.291   7.024  1.00  0.00     0.111 C 
ATOM      9  C   UNL     1      -3.912   1.851   6.467  1.00  0.00     0.094 C 
ATOM     10  C   UNL     1      -4.073   0.603   7.411  1.00  0.00     0.014 C 
ATOM     11  C   UNL     1      -4.238   0.841   8.898  1.00  0.00     0.001 C 
ATOM     12  C   UNL     1      -4.054   3.371   8.527  1.00  0.00     0.016 C 
ATOM     13  C   UNL     1      -4.640   2.233   9.335  1.00  0.00     0.001 C 
BRANCH   9  14
ATOM     14  C   UNL     1      -2.376   1.792   6.274  1.00  0.00     0.242 C 
ATOM     15  N   UNL     1      -1.821   0.911   5.370  1.00  0.00    -0.267 N 
ATOM     16  H   UNL     1      -1.239   0.197   5.717  1.00  0.00     0.191 HD
ATOM     17  O   UNL     1      -1.618   2.254   7.134  1.00  0.00    -0.273 OA
BRANCH  15  18
ATOM     18  N   UNL     1      -2.037   0.970   3.988  1.00  0.00    -0.265 N 
ATOM     19  C   UNL     1      -0.987   1.051   3.087  1.00  0.00     0.276 C 
ATOM     20  O   UNL     1      -1.191   1.002   1.873  1.00  0.00    -0.269 OA
ATOM     21  H   UNL     1      -2.960   0.954   3.646  1.00  0.00     0.191 HD
BRANCH  19  22
ATOM     22  C   UNL     1       0.463   1.097   3.621  1.00  0.00     0.331 C 
BRANCH  22  23
ATOM     23  O   UNL     1       0.724   1.757   4.847  1.00  0.00    -0.484 OA
BRANCH  23  24
ATOM     24  C   UNL     1       0.687   3.125   4.861  1.00  0.00     0.120 A 
ATOM     25  C   UNL     1       0.618   7.408   5.378  1.00  0.00     0.044 C 
ATOM     26  C   UNL     1       0.636   5.921   5.192  1.00  0.00    -0.051 A 
ATOM     27  C   UNL     1       0.816   5.083   6.295  1.00  0.00     0.007 A 
ATOM     28  C   UNL     1       0.475   5.347   3.926  1.00  0.00     0.007 A 
ATOM     29  C   UNL     1       0.848   3.698   6.125  1.00  0.00     0.047 A 
ATOM     30  C   UNL     1       0.495   3.957   3.760  1.00  0.00     0.047 A 
ENDBRANCH  23  24
ENDBRANCH  22  23
ENDBRANCH  19  22
ENDBRANCH  15  18
ENDBRANCH   9  14
ENDBRANCH   6   8
ENDBRANCH   5   6
ENDBRANCH   4   5
ENDBRANCH   3   4
ENDBRANCH   2   3
ENDBRANCH   1   2
BRANCH   1  31
ATOM     31  C   UNL     1      -6.754   5.764   1.284  1.00  0.00     0.188 C 
BRANCH  31  32
ATOM     32  O   UNL     1      -6.328   6.655   2.308  1.00  0.00    -0.376 OA
BRANCH  32  33
ATOM     33  C   UNL     1      -5.618   7.805   1.887  1.00  0.00     0.202 C 
BRANCH  33  34
ATOM     34  C   UNL     1      -4.326   7.531   1.106  1.00  0.00     0.261 C 
BRANCH  34  35
ATOM     35  O   UNL     1      -3.490   6.640   1.867  1.00  0.00    -0.460 OA
BRANCH  35  36
ATOM     36  C   UNL     1      -3.047   5.538   1.193  1.00  0.00     0.338 C 
ATOM     37  O   UNL     1      -2.527   5.572   0.087  1.00  0.00    -0.246 OA
BRANCH  36  38
ATOM     38  C   UNL     1      -3.497   4.318   1.936  1.00  0.00     0.060 A 
ATOM     39  C   UNL     1      -3.898   3.162   1.276  1.00  0.00     0.016 A 
ATOM     40  C   UNL     1      -3.841   4.421   3.263  1.00  0.00     0.016 A 
ATOM     41  C   UNL     1      -4.809   2.243   1.893  1.00  0.00     0.010 A 
ATOM     42  C   UNL     1      -4.817   3.545   3.777  1.00  0.00     0.010 A 
ATOM     43  C   UNL     1      -5.425   2.465   3.137  1.00  0.00    -0.014 A 
BRANCH  43  44
ATOM     44  C   UNL     1      -6.818   1.870   3.593  1.00  0.00     0.031 A 
ATOM     45  C   UNL     1      -7.468   1.764   4.992  1.00  0.00     0.074 A 
ATOM     46  C   UNL     1      -7.688   1.417   2.666  1.00  0.00     0.049 A 
ATOM     47  N   UNL     1      -8.629   2.179   5.451  1.00  0.00    -0.248 NA
ATOM     48  C   UNL     1      -6.794   0.967   5.997  1.00  0.00     0.031 C 
ATOM     49  C   UNL     1      -9.065   0.966   2.849  1.00  0.00     0.029 A 
ATOM     50  N   UNL     1      -7.377   1.008   1.383  1.00  0.00    -0.354 N 
ATOM     51  C   UNL     1      -8.733   1.867   6.824  1.00  0.00     0.074 A 
ATOM     52  C   UNL     1      -7.454   1.224   7.131  1.00  0.00     0.031 C 
ATOM     53  C   UNL     1      -9.345   0.069   1.892  1.00  0.00     0.029 A 
ATOM     54  C   UNL     1      -8.130  -0.143   1.131  1.00  0.00     0.049 A 
ATOM     55  H   UNL     1      -6.746   1.443   0.765  1.00  0.00     0.167 HD
ATOM     56  C   UNL     1      -9.825   1.266   7.405  1.00  0.00     0.034 A 
ATOM     57  C   UNL     1      -7.448  -1.317   0.996  1.00  0.00     0.034 A 
ATOM     58  C   UNL     1     -10.280   0.114   6.655  1.00  0.00     0.049 A 
ATOM     59  C   UNL     1      -7.709  -2.268   2.151  1.00  0.00     0.074 A 
ATOM     60  C   UNL     1     -11.355  -0.170   5.841  1.00  0.00     0.029 A 
ATOM     61  N   UNL     1      -9.435  -0.982   6.571  1.00  0.00    -0.354 N 
ATOM     62  N   UNL     1      -8.335  -1.956   3.260  1.00  0.00    -0.248 NA
ATOM     63  C   UNL     1      -7.248  -3.650   2.151  1.00  0.00     0.031 C 
ATOM     64  C   UNL     1     -11.063  -1.390   5.157  1.00  0.00     0.029 A 
ATOM     65  C   UNL     1      -9.844  -1.872   5.604  1.00  0.00     0.049 A 
ATOM     66  H   UNL     1      -8.639  -1.109   7.135  1.00  0.00     0.167 HD
ATOM     67  C   UNL     1      -8.380  -3.048   4.090  1.00  0.00     0.074 A 
ATOM     68  C   UNL     1      -7.631  -4.067   3.370  1.00  0.00     0.031 C 
ATOM     69  C   UNL     1      -9.031  -3.045   5.296  1.00  0.00     0.034 A 
BRANCH  56  70
ATOM     70  C   UNL     1     -10.256   1.590   8.839  1.00  0.00     0.023 A 
ATOM     71  C   UNL     1     -11.499   1.137   9.349  1.00  0.00     0.031 A 
ATOM     72  C   UNL     1      -9.507   2.409   9.717  1.00  0.00     0.131 A 
ATOM     73  C   UNL     1     -11.944   1.499  10.648  1.00  0.00     0.055 A 
ATOM     74  C   UNL     1      -9.938   2.745  11.014  1.00  0.00     0.041 A 
ATOM     75  F   UNL     1      -8.323   2.922   9.347  1.00  0.00    -0.206 F 
ATOM     76  C   UNL     1     -11.164   2.294  11.485  1.00  0.00     0.022 A 
BRANCH  73  77
ATOM     77  S   UNL     1     -13.610   1.014  11.216  1.00  0.00     0.124 S 
ATOM     78  O   UNL     1     -14.456   1.431  10.103  1.00  0.00    -0.237 OA
ATOM     79  O   UNL     1     -13.463  -0.424  11.414  1.00  0.00    -0.237 OA
ATOM     80  O   UNL     1     -13.793   1.788  12.444  1.00  0.00    -0.744 OA
ENDBRANCH  73  77
ENDBRANCH  56  70
BRANCH  57  81
ATOM     81  C   UNL     1      -6.175  -1.146   0.202  1.00  0.00     0.023 A 
ATOM     82  C   UNL     1      -6.285  -0.359  -0.976  1.00  0.00     0.031 A 
ATOM     83  C   UNL     1      -4.884  -1.359   0.702  1.00  0.00     0.131 A 
ATOM     84  C   UNL     1      -5.191   0.367  -1.466  1.00  0.00     0.055 A 
ATOM     85  C   UNL     1      -3.762  -0.738   0.118  1.00  0.00     0.041 A 
ATOM     86  F   UNL     1      -4.691  -2.050   1.835  1.00  0.00    -0.206 F 
ATOM     87  C   UNL     1      -3.917   0.168  -0.937  1.00  0.00     0.022 A 
BRANCH  84  88
ATOM     88  S   UNL     1      -5.541   1.851  -2.477  1.00  0.00     0.124 S 
ATOM     89  O   UNL     1      -5.476   1.321  -3.833  1.00  0.00    -0.237 OA
ATOM     90  O   UNL     1      -6.866   2.252  -2.005  1.00  0.00    -0.237 OA
ATOM     91  O   UNL     1      -4.473   2.772  -2.103  1.00  0.00    -0.744 OA
ENDBRANCH  84  88
ENDBRANCH  57  81
BRANCH  69  92
ATOM     92  C   UNL     1      -9.000  -4.205   6.267  1.00  0.00     0.023 A 
ATOM     93  C   UNL     1      -9.034  -5.538   5.838  1.00  0.00     0.031 A 
ATOM     94  C   UNL     1      -8.989  -4.006   7.668  1.00  0.00     0.131 A 
ATOM     95  C   UNL     1      -8.968  -6.597   6.760  1.00  0.00     0.055 A 
ATOM     96  C   UNL     1      -9.038  -5.061   8.586  1.00  0.00     0.041 A 
ATOM     97  F   UNL     1      -8.878  -2.780   8.202  1.00  0.00    -0.206 F 
ATOM     98  C   UNL     1      -9.009  -6.371   8.133  1.00  0.00     0.022 A 
BRANCH  95  99
ATOM     99  S   UNL     1      -8.731  -8.274   6.117  1.00  0.00     0.124 S 
ATOM    100  O   UNL     1      -9.817  -8.399   5.151  1.00  0.00    -0.237 OA
ATOM    101  O   UNL     1      -7.388  -8.180   5.548  1.00  0.00    -0.237 OA
ATOM    102  O   UNL     1      -8.846  -9.119   7.302  1.00  0.00    -0.744 OA
ENDBRANCH  95  99
ENDBRANCH  69  92
ENDBRANCH  43  44
ENDBRANCH  36  38
ENDBRANCH  35  36
ENDBRANCH  34  35
ENDBRANCH  33  34
ENDBRANCH  32  33
ENDBRANCH  31  32
ENDBRANCH   1  31
TORSDOF 25
