REMARK SMILES Cc1nn(C)cc1C[NH+]1CCN(C(=O)Cn2ccc(C(=O)OCCOCCOCCOC(=O)c3ccc(-c4c5nc(c(-c6cc(S(=O)(=O)[O-])ccc6F)c6ccc([nH]6)c(-c6cc(S(=O)(=O)[O-])ccc6F)c6nc(c(-c7cc(S(=O)(=O)[O-])ccc7F)c7ccc4[nH]7)C=C6)C=C5)cc3)n2)CC1
REMARK SMILES IDX 26 1 25 2 24 3 23 4 22 5 20 6 21 7 19 8 16 9 17 10 97 11
REMARK SMILES IDX 18 12 15 13 13 14 9 15 10 16 99 17 11 19 98 20 12 21 14 22
REMARK SMILES IDX 8 23 7 24 1 25 2 26 3 27 4 28 6 29 5 30 27 31 28 32 29 33
REMARK SMILES IDX 30 34 31 35 32 36 33 37 34 38 35 39 96 40 36 41 95 42 37 43
REMARK SMILES IDX 38 44 39 45 89 46 40 47 94 48 88 49 90 50 41 51 93 52 87 53
REMARK SMILES IDX 86 54 42 56 74 57 54 58 73 59 55 60 58 61 72 62 91 63 56 64
REMARK SMILES IDX 57 65 71 67 92 68 59 69 43 70 44 71 52 72 45 73 51 74 53 75
REMARK SMILES IDX 50 76 46 77 47 78 48 79 49 80 75 81 76 82 84 83 77 84 83 85
REMARK SMILES IDX 85 86 82 87 78 88 79 89 80 90 81 91 60 92 61 93 69 94 62 95
REMARK SMILES IDX 68 96 70 97 67 98 63 99 64 100 65 101 66 102
REMARK H PARENT 9 18 90 55 58 66
REMARK Flexibility Score: inf
ROOT
ATOM      1  C   UNL     1       8.317  -0.250  -1.731  1.00  0.00     0.188 C 
ENDROOT
BRANCH   1   2
ATOM      2  O   UNL     1       9.681  -0.070  -2.093  1.00  0.00    -0.376 OA
BRANCH   2   3
ATOM      3  C   UNL     1      10.094   1.130  -2.731  1.00  0.00     0.202 C 
BRANCH   3   4
ATOM      4  C   UNL     1       9.393   1.588  -4.024  1.00  0.00     0.261 C 
BRANCH   4   5
ATOM      5  O   UNL     1       7.956   1.607  -3.972  1.00  0.00    -0.458 OA
BRANCH   5   6
ATOM      6  C   UNL     1       7.303   0.685  -4.747  1.00  0.00     0.358 C 
ATOM      7  O   UNL     1       7.856  -0.011  -5.591  1.00  0.00    -0.244 OA
BRANCH   6   8
ATOM      8  C   UNL     1       5.883   0.543  -4.366  1.00  0.00     0.170 A 
ATOM      9  N   UNL     1       4.032  -0.437  -3.916  1.00  0.00    -0.262 N 
ATOM     10  C   UNL     1       3.856   0.847  -3.485  1.00  0.00     0.110 A 
ATOM     11  N   UNL     1       5.254  -0.647  -4.447  1.00  0.00    -0.165 NA
ATOM     12  C   UNL     1       5.022   1.514  -3.780  1.00  0.00     0.057 A 
BRANCH   9  13
ATOM     13  C   UNL     1       3.183  -1.595  -3.645  1.00  0.00     0.244 C 
BRANCH  13  14
ATOM     14  C   UNL     1       1.701  -1.317  -3.823  1.00  0.00     0.244 C 
ATOM     15  N   UNL     1      -1.208  -3.106  -1.100  1.00  0.00    -0.328 N 
ATOM     16  C   UNL     1      -1.611  -2.376  -2.303  1.00  0.00     0.284 C 
ATOM     17  C   UNL     1       0.090  -3.756  -1.290  1.00  0.00     0.284 C 
ATOM     18  H   UNL     1      -1.887  -3.859  -0.991  1.00  0.00     0.348 HD
ATOM     19  C   UNL     1      -0.555  -1.444  -2.918  1.00  0.00     0.181 C 
ATOM     20  C   UNL     1       1.216  -2.912  -1.923  1.00  0.00     0.181 C 
ATOM     21  N   UNL     1       0.804  -1.988  -2.985  1.00  0.00    -0.330 N 
ATOM     22  O   UNL     1       1.299  -0.525  -4.679  1.00  0.00    -0.273 OA
BRANCH  15  23
ATOM     23  C   UNL     1      -1.429  -2.437   0.188  1.00  0.00     0.302 C 
BRANCH  23  24
ATOM     24  C   UNL     1      -0.674  -1.165   0.356  1.00  0.00     0.047 A 
ATOM     25  C   UNL     1      -2.505   0.674  -0.082  1.00  0.00     0.069 C 
ATOM     26  C   UNL     1      -1.136   0.177   0.205  1.00  0.00     0.068 A 
ATOM     27  N   UNL     1      -0.132   1.059   0.301  1.00  0.00    -0.178 NA
ATOM     28  N   UNL     1       0.943   0.303   0.575  1.00  0.00    -0.275 N 
ATOM     29  C   UNL     1       0.642  -1.014   0.746  1.00  0.00     0.118 A 
ATOM     30  C   UNL     1       2.262   0.885   0.541  1.00  0.00     0.173 C 
ENDBRANCH  23  24
ENDBRANCH  15  23
ENDBRANCH  13  14
ENDBRANCH   9  13
ENDBRANCH   6   8
ENDBRANCH   5   6
ENDBRANCH   4   5
ENDBRANCH   3   4
ENDBRANCH   2   3
ENDBRANCH   1   2
BRANCH   1  31
ATOM     31  C   UNL     1       7.485   0.917  -1.155  1.00  0.00     0.188 C 
BRANCH  31  32
ATOM     32  O   UNL     1       8.088   2.198  -1.248  1.00  0.00    -0.376 OA
BRANCH  32  33
ATOM     33  C   UNL     1       8.367   2.867  -0.023  1.00  0.00     0.202 C 
BRANCH  33  34
ATOM     34  C   UNL     1       9.437   2.235   0.866  1.00  0.00     0.261 C 
BRANCH  34  35
ATOM     35  O   UNL     1       9.270   0.845   1.104  1.00  0.00    -0.460 OA
BRANCH  35  36
ATOM     36  C   UNL     1       8.227   0.514   1.893  1.00  0.00     0.338 C 
ATOM     37  O   UNL     1       7.263   1.204   2.167  1.00  0.00    -0.246 OA
BRANCH  36  38
ATOM     38  C   UNL     1       8.483  -0.816   2.448  1.00  0.00     0.060 A 
ATOM     39  C   UNL     1       7.422  -1.465   3.082  1.00  0.00     0.016 A 
ATOM     40  C   UNL     1       9.811  -1.251   2.571  1.00  0.00     0.016 A 
ATOM     41  C   UNL     1       7.718  -2.445   4.004  1.00  0.00     0.010 A 
ATOM     42  C   UNL     1      10.105  -2.204   3.511  1.00  0.00     0.010 A 
ATOM     43  C   UNL     1       9.060  -2.730   4.267  1.00  0.00    -0.014 A 
BRANCH  43  44
ATOM     44  C   UNL     1       9.364  -3.626   5.359  1.00  0.00     0.031 A 
ATOM     45  C   UNL     1       9.248  -5.052   5.013  1.00  0.00     0.074 A 
ATOM     46  C   UNL     1       9.842  -3.178   6.533  1.00  0.00     0.049 A 
ATOM     47  N   UNL     1       8.385  -5.903   5.453  1.00  0.00    -0.248 NA
ATOM     48  C   UNL     1      10.086  -5.554   3.913  1.00  0.00     0.031 C 
ATOM     49  C   UNL     1      10.272  -1.814   6.850  1.00  0.00     0.029 A 
ATOM     50  N   UNL     1      10.171  -3.881   7.651  1.00  0.00    -0.354 N 
ATOM     51  C   UNL     1       8.756  -7.115   4.886  1.00  0.00     0.074 A 
ATOM     52  C   UNL     1       9.613  -6.791   3.780  1.00  0.00     0.031 C 
ATOM     53  C   UNL     1      11.006  -1.838   7.983  1.00  0.00     0.029 A 
ATOM     54  C   UNL     1      11.008  -3.191   8.518  1.00  0.00     0.049 A 
ATOM     55  H   UNL     1       9.846  -4.793   7.828  1.00  0.00     0.167 HD
ATOM     56  C   UNL     1       8.584  -8.280   5.564  1.00  0.00     0.034 A 
ATOM     57  C   UNL     1      11.732  -3.718   9.540  1.00  0.00     0.034 A 
ATOM     58  C   UNL     1       7.601  -8.129   6.620  1.00  0.00     0.049 A 
ATOM     59  C   UNL     1      11.102  -5.013   9.907  1.00  0.00     0.074 A 
ATOM     60  C   UNL     1       6.298  -7.662   6.663  1.00  0.00     0.029 A 
ATOM     61  N   UNL     1       8.026  -8.138   7.933  1.00  0.00    -0.354 N 
ATOM     62  N   UNL     1       9.915  -5.116  10.438  1.00  0.00    -0.248 NA
ATOM     63  C   UNL     1      11.599  -6.230   9.280  1.00  0.00     0.031 C 
ATOM     64  C   UNL     1       6.189  -6.966   7.902  1.00  0.00     0.029 A 
ATOM     65  C   UNL     1       7.400  -7.102   8.580  1.00  0.00     0.049 A 
ATOM     66  H   UNL     1       8.662  -8.774   8.332  1.00  0.00     0.167 HD
ATOM     67  C   UNL     1       9.350  -6.236   9.848  1.00  0.00     0.074 A 
ATOM     68  C   UNL     1      10.471  -6.945   9.239  1.00  0.00     0.031 C 
ATOM     69  C   UNL     1       8.000  -6.332   9.655  1.00  0.00     0.034 A 
BRANCH  56  70
ATOM     70  C   UNL     1       9.594  -9.413   5.543  1.00  0.00     0.023 A 
ATOM     71  C   UNL     1       9.298 -10.525   6.348  1.00  0.00     0.031 A 
ATOM     72  C   UNL     1      10.924  -9.350   5.058  1.00  0.00     0.131 A 
ATOM     73  C   UNL     1      10.311 -11.401   6.769  1.00  0.00     0.055 A 
ATOM     74  C   UNL     1      11.910 -10.274   5.414  1.00  0.00     0.041 A 
ATOM     75  F   UNL     1      11.381  -8.360   4.286  1.00  0.00    -0.206 F 
ATOM     76  C   UNL     1      11.618 -11.282   6.312  1.00  0.00     0.022 A 
BRANCH  73  77
ATOM     77  S   UNL     1       9.918 -12.554   8.104  1.00  0.00     0.124 S 
ATOM     78  O   UNL     1       9.387 -11.645   9.114  1.00  0.00    -0.237 OA
ATOM     79  O   UNL     1       8.953 -13.437   7.458  1.00  0.00    -0.237 OA
ATOM     80  O   UNL     1      11.209 -13.159   8.418  1.00  0.00    -0.744 OA
ENDBRANCH  73  77
ENDBRANCH  56  70
BRANCH  57  81
ATOM     81  C   UNL     1      13.080  -3.286   9.997  1.00  0.00     0.023 A 
ATOM     82  C   UNL     1      13.606  -3.663  11.248  1.00  0.00     0.031 A 
ATOM     83  C   UNL     1      13.975  -2.658   9.099  1.00  0.00     0.131 A 
ATOM     84  C   UNL     1      14.961  -3.399  11.559  1.00  0.00     0.055 A 
ATOM     85  C   UNL     1      15.304  -2.378   9.420  1.00  0.00     0.041 A 
ATOM     86  F   UNL     1      13.615  -2.369   7.839  1.00  0.00    -0.206 F 
ATOM     87  C   UNL     1      15.806  -2.756  10.653  1.00  0.00     0.022 A 
BRANCH  84  88
ATOM     88  S   UNL     1      15.678  -4.004  13.119  1.00  0.00     0.124 S 
ATOM     89  O   UNL     1      15.068  -3.119  14.104  1.00  0.00    -0.237 OA
ATOM     90  O   UNL     1      15.249  -5.398  13.142  1.00  0.00    -0.237 OA
ATOM     91  O   UNL     1      17.116  -3.813  12.928  1.00  0.00    -0.744 OA
ENDBRANCH  84  88
ENDBRANCH  57  81
BRANCH  69  92
ATOM     92  C   UNL     1       7.085  -5.409  10.434  1.00  0.00     0.023 A 
ATOM     93  C   UNL     1       7.165  -3.999  10.429  1.00  0.00     0.031 A 
ATOM     94  C   UNL     1       6.012  -5.998  11.129  1.00  0.00     0.131 A 
ATOM     95  C   UNL     1       6.203  -3.236  11.118  1.00  0.00     0.055 A 
ATOM     96  C   UNL     1       5.051  -5.238  11.795  1.00  0.00     0.041 A 
ATOM     97  F   UNL     1       5.860  -7.333  11.146  1.00  0.00    -0.206 F 
ATOM     98  C   UNL     1       5.147  -3.853  11.798  1.00  0.00     0.022 A 
BRANCH  95  99
ATOM     99  S   UNL     1       6.314  -1.419  11.153  1.00  0.00     0.124 S 
ATOM    100  O   UNL     1       7.721  -1.165  11.433  1.00  0.00    -0.237 OA
ATOM    101  O   UNL     1       5.851  -1.052   9.817  1.00  0.00    -0.237 OA
ATOM    102  O   UNL     1       5.399  -1.045  12.234  1.00  0.00    -0.744 OA
ENDBRANCH  95  99
ENDBRANCH  69  92
ENDBRANCH  43  44
ENDBRANCH  36  38
ENDBRANCH  35  36
ENDBRANCH  34  35
ENDBRANCH  33  34
ENDBRANCH  32  33
ENDBRANCH  31  32
ENDBRANCH   1  31
TORSDOF 24
