REMARK SMILES O=C(OCCOCCOCCOC(=O)[C@H]1CC(=O)N(CCc2ccc3c(c2)OCO3)C1)c1ccc(-c2c3nc(c(-c4cc(S(=O)(=O)[O-])ccc4F)c4ccc([nH]4)c(-c4cc(S(=O)(=O)[O-])ccc4F)c4nc(c(-c5cc(S(=O)(=O)[O-])ccc5F)c5ccc2[nH]5)C=C4)C=C3)cc1
REMARK SMILES IDX 7 1 6 2 5 3 4 4 3 5 2 6 1 7 32 8 33 9 94 10 34 11 93 12
REMARK SMILES IDX 35 13 36 14 37 15 87 16 38 17 92 18 86 19 88 20 39 21 91 22
REMARK SMILES IDX 85 23 84 24 40 26 72 27 52 28 71 29 53 30 56 31 70 32 89 33
REMARK SMILES IDX 54 34 55 35 69 37 90 38 57 39 41 40 42 41 50 42 43 43 49 44
REMARK SMILES IDX 51 45 48 46 44 47 45 48 46 49 47 50 73 51 74 52 82 53 75 54
REMARK SMILES IDX 81 55 83 56 80 57 76 58 77 59 78 60 79 61 58 62 59 63 67 64
REMARK SMILES IDX 60 65 66 66 68 67 65 68 61 69 62 70 63 71 64 72 8 73 9 74
REMARK SMILES IDX 10 75 11 76 12 77 13 78 14 79 15 80 16 81 31 82 17 83 19 84
REMARK SMILES IDX 18 85 20 86 21 87 22 88 23 89 27 90 24 91 26 92 25 93 28 94
REMARK SMILES IDX 30 95 29 96
REMARK H PARENT 88 25 56 36
REMARK Flexibility Score: inf
ROOT
ATOM      1  C   UNL     1       4.170   1.486   3.296  1.00  0.00     0.188 C 
ENDROOT
BRANCH   1   2
ATOM      2  O   UNL     1       3.566   2.536   4.056  1.00  0.00    -0.376 OA
BRANCH   2   3
ATOM      3  C   UNL     1       3.541   2.271   5.466  1.00  0.00     0.202 C 
BRANCH   3   4
ATOM      4  C   UNL     1       2.567   1.167   5.926  1.00  0.00     0.261 C 
BRANCH   4   5
ATOM      5  O   UNL     1       2.292   0.174   4.921  1.00  0.00    -0.460 OA
BRANCH   5   6
ATOM      6  C   UNL     1       1.362   0.190   3.932  1.00  0.00     0.338 C 
ATOM      7  O   UNL     1       1.339  -0.759   3.148  1.00  0.00    -0.246 OA
BRANCH   6   8
ATOM      8  C   UNL     1       0.372   1.294   3.724  1.00  0.00     0.060 A 
ATOM      9  C   UNL     1       0.484   2.584   4.240  1.00  0.00     0.016 A 
ATOM     10  C   UNL     1      -0.743   1.012   2.914  1.00  0.00     0.016 A 
ATOM     11  C   UNL     1      -0.529   3.520   4.089  1.00  0.00     0.010 A 
ATOM     12  C   UNL     1      -1.753   1.961   2.720  1.00  0.00     0.010 A 
ATOM     13  C   UNL     1      -1.672   3.198   3.366  1.00  0.00    -0.014 A 
BRANCH  13  14
ATOM     14  C   UNL     1      -2.817   4.122   3.476  1.00  0.00     0.031 A 
ATOM     15  C   UNL     1      -3.931   3.762   4.393  1.00  0.00     0.074 A 
ATOM     16  C   UNL     1      -2.793   5.316   2.865  1.00  0.00     0.049 A 
ATOM     17  N   UNL     1      -4.998   4.448   4.687  1.00  0.00    -0.248 NA
ATOM     18  C   UNL     1      -3.832   2.458   5.063  1.00  0.00     0.031 C 
ATOM     19  C   UNL     1      -1.733   5.725   1.963  1.00  0.00     0.029 A 
ATOM     20  N   UNL     1      -3.656   6.380   2.873  1.00  0.00    -0.354 N 
ATOM     21  C   UNL     1      -5.719   3.649   5.558  1.00  0.00     0.074 A 
ATOM     22  C   UNL     1      -4.975   2.419   5.725  1.00  0.00     0.031 C 
ATOM     23  C   UNL     1      -2.039   6.926   1.464  1.00  0.00     0.029 A 
ATOM     24  C   UNL     1      -3.252   7.419   2.067  1.00  0.00     0.049 A 
ATOM     25  H   UNL     1      -4.485   6.399   3.404  1.00  0.00     0.167 HD
ATOM     26  C   UNL     1      -6.902   3.931   6.149  1.00  0.00     0.034 A 
ATOM     27  C   UNL     1      -3.784   8.633   1.832  1.00  0.00     0.034 A 
ATOM     28  C   UNL     1      -7.626   5.154   5.913  1.00  0.00     0.049 A 
ATOM     29  C   UNL     1      -5.099   8.912   2.489  1.00  0.00     0.074 A 
ATOM     30  C   UNL     1      -8.858   5.537   6.406  1.00  0.00     0.029 A 
ATOM     31  N   UNL     1      -7.187   6.192   5.093  1.00  0.00    -0.354 N 
ATOM     32  N   UNL     1      -5.787   8.137   3.295  1.00  0.00    -0.248 NA
ATOM     33  C   UNL     1      -5.726  10.200   2.189  1.00  0.00     0.031 C 
ATOM     34  C   UNL     1      -9.196   6.766   5.829  1.00  0.00     0.029 A 
ATOM     35  C   UNL     1      -8.137   7.201   5.047  1.00  0.00     0.049 A 
ATOM     36  H   UNL     1      -6.326   6.207   4.615  1.00  0.00     0.167 HD
ATOM     37  C   UNL     1      -6.941   8.840   3.592  1.00  0.00     0.074 A 
ATOM     38  C   UNL     1      -6.827  10.123   2.920  1.00  0.00     0.031 C 
ATOM     39  C   UNL     1      -8.007   8.453   4.336  1.00  0.00     0.034 A 
BRANCH  26  40
ATOM     40  C   UNL     1      -7.496   2.833   6.991  1.00  0.00     0.023 A 
ATOM     41  C   UNL     1      -6.842   2.344   8.137  1.00  0.00     0.031 A 
ATOM     42  C   UNL     1      -8.655   2.169   6.556  1.00  0.00     0.131 A 
ATOM     43  C   UNL     1      -7.289   1.159   8.740  1.00  0.00     0.055 A 
ATOM     44  C   UNL     1      -9.151   1.048   7.222  1.00  0.00     0.041 A 
ATOM     45  F   UNL     1      -9.295   2.567   5.446  1.00  0.00    -0.206 F 
ATOM     46  C   UNL     1      -8.456   0.523   8.308  1.00  0.00     0.022 A 
BRANCH  43  47
ATOM     47  S   UNL     1      -6.213   0.351   9.959  1.00  0.00     0.124 S 
ATOM     48  O   UNL     1      -5.013   0.092   9.166  1.00  0.00    -0.237 OA
ATOM     49  O   UNL     1      -6.085   1.370  10.994  1.00  0.00    -0.237 OA
ATOM     50  O   UNL     1      -6.966  -0.840  10.344  1.00  0.00    -0.744 OA
ENDBRANCH  43  47
ENDBRANCH  26  40
BRANCH  27  51
ATOM     51  C   UNL     1      -3.127   9.649   0.950  1.00  0.00     0.023 A 
ATOM     52  C   UNL     1      -2.720  10.896   1.459  1.00  0.00     0.031 A 
ATOM     53  C   UNL     1      -2.951   9.421  -0.426  1.00  0.00     0.131 A 
ATOM     54  C   UNL     1      -2.206  11.879   0.593  1.00  0.00     0.055 A 
ATOM     55  C   UNL     1      -2.388  10.381  -1.273  1.00  0.00     0.041 A 
ATOM     56  F   UNL     1      -3.304   8.247  -0.972  1.00  0.00    -0.206 F 
ATOM     57  C   UNL     1      -2.021  11.623  -0.766  1.00  0.00     0.022 A 
BRANCH  54  58
ATOM     58  S   UNL     1      -1.873  13.540   1.249  1.00  0.00     0.124 S 
ATOM     59  O   UNL     1      -3.200  13.954   1.692  1.00  0.00    -0.237 OA
ATOM     60  O   UNL     1      -0.901  13.265   2.302  1.00  0.00    -0.237 OA
ATOM     61  O   UNL     1      -1.346  14.262   0.093  1.00  0.00    -0.744 OA
ENDBRANCH  54  58
ENDBRANCH  27  51
BRANCH  39  62
ATOM     62  C   UNL     1      -9.112   9.464   4.460  1.00  0.00     0.023 A 
ATOM     63  C   UNL     1      -9.861   9.871   3.344  1.00  0.00     0.031 A 
ATOM     64  C   UNL     1      -9.369  10.072   5.699  1.00  0.00     0.131 A 
ATOM     65  C   UNL     1     -10.777  10.922   3.472  1.00  0.00     0.055 A 
ATOM     66  C   UNL     1     -10.342  11.060   5.837  1.00  0.00     0.041 A 
ATOM     67  F   UNL     1      -8.668   9.726   6.791  1.00  0.00    -0.206 F 
ATOM     68  C   UNL     1     -11.039  11.503   4.716  1.00  0.00     0.022 A 
BRANCH  65  69
ATOM     69  S   UNL     1     -11.514  11.614   1.968  1.00  0.00     0.124 S 
ATOM     70  O   UNL     1     -10.334  12.045   1.226  1.00  0.00    -0.237 OA
ATOM     71  O   UNL     1     -12.232  10.469   1.416  1.00  0.00    -0.237 OA
ATOM     72  O   UNL     1     -12.361  12.694   2.469  1.00  0.00    -0.744 OA
ENDBRANCH  65  69
ENDBRANCH  39  62
ENDBRANCH  13  14
ENDBRANCH   6   8
ENDBRANCH   5   6
ENDBRANCH   4   5
ENDBRANCH   3   4
ENDBRANCH   2   3
ENDBRANCH   1   2
BRANCH   1  73
ATOM     73  C   UNL     1       5.191   1.933   2.253  1.00  0.00     0.188 C 
BRANCH  73  74
ATOM     74  O   UNL     1       6.265   2.764   2.669  1.00  0.00    -0.376 OA
BRANCH  74  75
ATOM     75  C   UNL     1       5.951   3.936   3.407  1.00  0.00     0.202 C 
BRANCH  75  76
ATOM     76  C   UNL     1       5.089   5.028   2.753  1.00  0.00     0.261 C 
BRANCH  76  77
ATOM     77  O   UNL     1       3.969   4.588   1.967  1.00  0.00    -0.463 OA
BRANCH  77  78
ATOM     78  C   UNL     1       4.215   4.499   0.632  1.00  0.00     0.311 C 
ATOM     79  O   UNL     1       5.325   4.610   0.121  1.00  0.00    -0.252 OA
BRANCH  78  80
ATOM     80  C   UNL     1       2.970   4.445  -0.212  1.00  0.00     0.128 C 
ATOM     81  C   UNL     1       1.659   3.883   0.317  1.00  0.00     0.117 C 
ATOM     82  C   UNL     1       2.656   5.908  -0.394  1.00  0.00     0.135 C 
ATOM     83  C   UNL     1       0.645   4.779  -0.379  1.00  0.00     0.223 C 
ATOM     84  N   UNL     1       1.255   6.003  -0.608  1.00  0.00    -0.341 N 
ATOM     85  O   UNL     1      -0.504   4.460  -0.644  1.00  0.00    -0.275 OA
BRANCH  84  86
ATOM     86  C   UNL     1       0.650   7.265  -1.042  1.00  0.00     0.124 C 
BRANCH  86  87
ATOM     87  C   UNL     1       0.697   8.461  -0.035  1.00  0.00     0.057 C 
BRANCH  87  88
ATOM     88  C   UNL     1       2.006   9.080   0.402  1.00  0.00    -0.042 A 
ATOM     89  C   UNL     1       2.763   8.463   1.425  1.00  0.00     0.008 A 
ATOM     90  C   UNL     1       2.425  10.329  -0.074  1.00  0.00     0.054 A 
ATOM     91  C   UNL     1       4.032   8.911   1.782  1.00  0.00     0.051 A 
ATOM     92  C   UNL     1       3.619  10.832   0.406  1.00  0.00     0.166 A 
ATOM     93  C   UNL     1       4.423  10.115   1.265  1.00  0.00     0.165 A 
ATOM     94  O   UNL     1       4.139  12.065   0.147  1.00  0.00    -0.454 OA
ATOM     95  O   UNL     1       5.565  10.778   1.592  1.00  0.00    -0.454 OA
ATOM     96  C   UNL     1       5.227  12.087   1.093  1.00  0.00     0.468 C 
ENDBRANCH  87  88
ENDBRANCH  86  87
ENDBRANCH  84  86
ENDBRANCH  78  80
ENDBRANCH  77  78
ENDBRANCH  76  77
ENDBRANCH  75  76
ENDBRANCH  74  75
ENDBRANCH  73  74
ENDBRANCH   1  73
TORSDOF 23
