REMARK SMILES COc1ccc(CSc2ncccc2C(=O)OCCOCCOCCOC(=O)c2ccc(-c3c4nc(c(-c5cc(S(=O)(=O)[O-])ccc5F)c5ccc([nH]5)c(-c5cc(S(=O)(=O)[O-])ccc5F)c5nc(c(-c6cc(S(=O)(=O)[O-])ccc6F)c6ccc3[nH]6)C=C5)C=C4)cc2)cc1
REMARK SMILES IDX 21 1 20 2 19 3 18 4 17 5 15 6 16 7 14 8 9 9 10 10 11 11
REMARK SMILES IDX 13 12 12 13 8 14 7 15 6 16 3 17 4 18 93 19 5 20 92 21 2 22
REMARK SMILES IDX 1 23 22 24 23 25 24 26 25 27 26 28 27 29 28 30 29 31 30 32
REMARK SMILES IDX 91 33 31 34 90 35 32 36 33 37 34 38 84 39 35 40 89 41 83 42
REMARK SMILES IDX 85 43 36 44 88 45 82 46 81 47 37 49 69 50 49 51 68 52 50 53
REMARK SMILES IDX 53 54 67 55 86 56 51 57 52 58 66 60 87 61 54 62 38 63 39 64
REMARK SMILES IDX 47 65 40 66 46 67 48 68 45 69 41 70 42 71 43 72 44 73 70 74
REMARK SMILES IDX 71 75 79 76 72 77 78 78 80 79 77 80 73 81 74 82 75 83 76 84
REMARK SMILES IDX 55 85 56 86 64 87 57 88 63 89 65 90 62 91 58 92 59 93 60 94
REMARK SMILES IDX 61 95
REMARK H PARENT 85 48 53 59
REMARK Flexibility Score: inf
ROOT
ATOM      1  C   UNL     1       5.297  -2.157   8.300  1.00  0.00     0.188 C 
ENDROOT
BRANCH   1   2
ATOM      2  O   UNL     1       6.170  -3.085   7.666  1.00  0.00    -0.376 OA
BRANCH   2   3
ATOM      3  C   UNL     1       6.154  -3.071   6.243  1.00  0.00     0.202 C 
BRANCH   3   4
ATOM      4  C   UNL     1       6.862  -1.852   5.647  1.00  0.00     0.261 C 
BRANCH   4   5
ATOM      5  O   UNL     1       6.168  -0.623   5.916  1.00  0.00    -0.460 OA
BRANCH   5   6
ATOM      6  C   UNL     1       4.983  -0.461   5.282  1.00  0.00     0.340 C 
ATOM      7  O   UNL     1       4.550  -1.199   4.420  1.00  0.00    -0.246 OA
BRANCH   6   8
ATOM      8  C   UNL     1       4.345   0.766   5.782  1.00  0.00     0.092 A 
ATOM      9  C   UNL     1       3.113   0.825   6.437  1.00  0.00     0.111 A 
ATOM     10  N   UNL     1       2.647   2.017   6.912  1.00  0.00    -0.249 NA
ATOM     11  C   UNL     1       3.391   3.133   6.772  1.00  0.00     0.112 A 
ATOM     12  C   UNL     1       5.103   1.947   5.653  1.00  0.00     0.020 A 
ATOM     13  C   UNL     1       4.627   3.146   6.166  1.00  0.00     0.021 A 
BRANCH   9  14
ATOM     14  S   UNL     1       2.112  -0.497   7.091  1.00  0.00    -0.101 SA
BRANCH  14  15
ATOM     15  C   UNL     1       1.785  -1.657   5.737  1.00  0.00     0.112 C 
BRANCH  15  16
ATOM     16  C   UNL     1       1.286  -1.079   4.443  1.00  0.00    -0.037 A 
ATOM     17  C   UNL     1       0.428  -0.034   1.969  1.00  0.00     0.118 A 
ATOM     18  C   UNL     1      -0.264   0.262   3.146  1.00  0.00     0.047 A 
ATOM     19  C   UNL     1       1.520  -0.894   2.025  1.00  0.00     0.047 A 
ATOM     20  C   UNL     1       0.159  -0.254   4.376  1.00  0.00     0.008 A 
ATOM     21  C   UNL     1       1.921  -1.432   3.246  1.00  0.00     0.008 A 
BRANCH  17  22
ATOM     22  O   UNL     1      -0.052   0.563   0.836  1.00  0.00    -0.497 OA
ATOM     23  C   UNL     1       0.647   0.279  -0.369  1.00  0.00     0.278 C 
ENDBRANCH  17  22
ENDBRANCH  15  16
ENDBRANCH  14  15
ENDBRANCH   9  14
ENDBRANCH   6   8
ENDBRANCH   5   6
ENDBRANCH   4   5
ENDBRANCH   3   4
ENDBRANCH   2   3
ENDBRANCH   1   2
BRANCH   1  24
ATOM     24  C   UNL     1       5.959  -0.867   8.830  1.00  0.00     0.188 C 
BRANCH  24  25
ATOM     25  O   UNL     1       7.362  -0.827   9.057  1.00  0.00    -0.376 OA
BRANCH  25  26
ATOM     26  C   UNL     1       8.002  -1.973   9.597  1.00  0.00     0.202 C 
BRANCH  26  27
ATOM     27  C   UNL     1       7.591  -2.449  10.996  1.00  0.00     0.261 C 
BRANCH  27  28
ATOM     28  O   UNL     1       6.179  -2.649  11.171  1.00  0.00    -0.460 OA
BRANCH  28  29
ATOM     29  C   UNL     1       5.563  -1.728  11.957  1.00  0.00     0.338 C 
ATOM     30  O   UNL     1       6.091  -0.796  12.539  1.00  0.00    -0.246 OA
BRANCH  29  31
ATOM     31  C   UNL     1       4.096  -1.899  11.885  1.00  0.00     0.060 A 
ATOM     32  C   UNL     1       3.319  -0.787  11.530  1.00  0.00     0.016 A 
ATOM     33  C   UNL     1       3.483  -3.106  12.230  1.00  0.00     0.016 A 
ATOM     34  C   UNL     1       1.927  -0.865  11.556  1.00  0.00     0.010 A 
ATOM     35  C   UNL     1       2.085  -3.174  12.282  1.00  0.00     0.010 A 
ATOM     36  C   UNL     1       1.303  -2.044  11.980  1.00  0.00    -0.014 A 
BRANCH  36  37
ATOM     37  C   UNL     1      -0.146  -2.029  12.304  1.00  0.00     0.031 A 
ATOM     38  C   UNL     1      -0.559  -1.776  13.729  1.00  0.00     0.074 A 
ATOM     39  C   UNL     1      -1.079  -2.217  11.354  1.00  0.00     0.049 A 
ATOM     40  N   UNL     1      -1.753  -1.769  14.264  1.00  0.00    -0.248 NA
ATOM     41  C   UNL     1       0.529  -1.498  14.678  1.00  0.00     0.031 C 
ATOM     42  C   UNL     1      -0.808  -2.415   9.931  1.00  0.00     0.029 A 
ATOM     43  N   UNL     1      -2.447  -2.281  11.450  1.00  0.00    -0.354 N 
ATOM     44  C   UNL     1      -1.561  -1.484  15.612  1.00  0.00     0.074 A 
ATOM     45  C   UNL     1      -0.132  -1.366  15.816  1.00  0.00     0.031 C 
ATOM     46  C   UNL     1      -1.975  -2.602   9.290  1.00  0.00     0.029 A 
ATOM     47  C   UNL     1      -3.070  -2.570  10.260  1.00  0.00     0.049 A 
ATOM     48  H   UNL     1      -2.935  -2.135  12.293  1.00  0.00     0.167 HD
ATOM     49  C   UNL     1      -2.490  -1.327  16.588  1.00  0.00     0.034 A 
ATOM     50  C   UNL     1      -4.370  -2.808   9.991  1.00  0.00     0.034 A 
ATOM     51  C   UNL     1      -3.909  -1.474  16.377  1.00  0.00     0.049 A 
ATOM     52  C   UNL     1      -5.381  -2.733  11.111  1.00  0.00     0.074 A 
ATOM     53  C   UNL     1      -4.939  -1.331  17.291  1.00  0.00     0.029 A 
ATOM     54  N   UNL     1      -4.500  -1.819  15.167  1.00  0.00    -0.354 N 
ATOM     55  N   UNL     1      -5.191  -2.457  12.382  1.00  0.00    -0.248 NA
ATOM     56  C   UNL     1      -6.783  -2.997  10.758  1.00  0.00     0.031 C 
ATOM     57  C   UNL     1      -6.141  -1.659  16.653  1.00  0.00     0.029 A 
ATOM     58  C   UNL     1      -5.874  -1.931  15.321  1.00  0.00     0.049 A 
ATOM     59  H   UNL     1      -4.014  -1.963  14.323  1.00  0.00     0.167 HD
ATOM     60  C   UNL     1      -6.454  -2.485  12.971  1.00  0.00     0.074 A 
ATOM     61  C   UNL     1      -7.396  -2.798  11.916  1.00  0.00     0.031 C 
ATOM     62  C   UNL     1      -6.803  -2.263  14.265  1.00  0.00     0.034 A 
BRANCH  49  63
ATOM     63  C   UNL     1      -1.978  -1.044  17.981  1.00  0.00     0.023 A 
ATOM     64  C   UNL     1      -1.268   0.131  18.285  1.00  0.00     0.031 A 
ATOM     65  C   UNL     1      -2.151  -1.992  19.005  1.00  0.00     0.131 A 
ATOM     66  C   UNL     1      -0.688   0.291  19.552  1.00  0.00     0.055 A 
ATOM     67  C   UNL     1      -1.641  -1.790  20.289  1.00  0.00     0.041 A 
ATOM     68  F   UNL     1      -2.800  -3.143  18.769  1.00  0.00    -0.206 F 
ATOM     69  C   UNL     1      -0.889  -0.651  20.564  1.00  0.00     0.022 A 
BRANCH  66  70
ATOM     70  S   UNL     1       0.468   1.665  19.811  1.00  0.00     0.124 S 
ATOM     71  O   UNL     1       1.460   1.419  18.767  1.00  0.00    -0.237 OA
ATOM     72  O   UNL     1      -0.384   2.833  19.622  1.00  0.00    -0.237 OA
ATOM     73  O   UNL     1       0.948   1.457  21.176  1.00  0.00    -0.744 OA
ENDBRANCH  66  70
ENDBRANCH  49  63
BRANCH  50  74
ATOM     74  C   UNL     1      -4.793  -3.193   8.615  1.00  0.00     0.023 A 
ATOM     75  C   UNL     1      -5.633  -2.368   7.850  1.00  0.00     0.031 A 
ATOM     76  C   UNL     1      -4.397  -4.425   8.063  1.00  0.00     0.131 A 
ATOM     77  C   UNL     1      -6.079  -2.801   6.591  1.00  0.00     0.055 A 
ATOM     78  C   UNL     1      -4.805  -4.830   6.792  1.00  0.00     0.041 A 
ATOM     79  F   UNL     1      -3.597  -5.252   8.755  1.00  0.00    -0.206 F 
ATOM     80  C   UNL     1      -5.661  -4.020   6.052  1.00  0.00     0.022 A 
BRANCH  77  81
ATOM     81  S   UNL     1      -7.276  -1.777   5.691  1.00  0.00     0.124 S 
ATOM     82  O   UNL     1      -8.402  -1.751   6.618  1.00  0.00    -0.237 OA
ATOM     83  O   UNL     1      -6.546  -0.523   5.533  1.00  0.00    -0.237 OA
ATOM     84  O   UNL     1      -7.502  -2.523   4.455  1.00  0.00    -0.744 OA
ENDBRANCH  77  81
ENDBRANCH  50  74
BRANCH  62  85
ATOM     85  C   UNL     1      -8.276  -2.308  14.599  1.00  0.00     0.023 A 
ATOM     86  C   UNL     1      -9.013  -3.505  14.548  1.00  0.00     0.031 A 
ATOM     87  C   UNL     1      -8.951  -1.131  14.970  1.00  0.00     0.131 A 
ATOM     88  C   UNL     1     -10.391  -3.489  14.817  1.00  0.00     0.055 A 
ATOM     89  C   UNL     1     -10.309  -1.131  15.290  1.00  0.00     0.041 A 
ATOM     90  F   UNL     1      -8.297   0.040  15.034  1.00  0.00    -0.206 F 
ATOM     91  C   UNL     1     -11.040  -2.312  15.204  1.00  0.00     0.022 A 
BRANCH  88  92
ATOM     92  S   UNL     1     -11.347  -5.012  14.578  1.00  0.00     0.124 S 
ATOM     93  O   UNL     1     -11.102  -5.307  13.170  1.00  0.00    -0.237 OA
ATOM     94  O   UNL     1     -10.730  -5.922  15.537  1.00  0.00    -0.237 OA
ATOM     95  O   UNL     1     -12.717  -4.612  14.898  1.00  0.00    -0.744 OA
ENDBRANCH  88  92
ENDBRANCH  62  85
ENDBRANCH  36  37
ENDBRANCH  29  31
ENDBRANCH  28  29
ENDBRANCH  27  28
ENDBRANCH  26  27
ENDBRANCH  25  26
ENDBRANCH  24  25
ENDBRANCH   1  24
TORSDOF 24
