REMARK SMILES Cc1cc(C(=O)N[C@H](C(=O)OCCOCCOCCOC(=O)c2ccc(-c3c4nc(c(-c5cc(S(=O)(=O)[O-])ccc5F)c5ccc([nH]5)c(-c5cc(S(=O)(=O)[O-])ccc5F)c5nc(c(-c6cc(S(=O)(=O)[O-])ccc6F)c6ccc3[nH]6)C=C5)C=C4)cc2)C(C)C)c(C)s1
REMARK SMILES IDX 16 1 15 2 14 3 13 4 12 5 11 6 9 7 10 8 8 9 7 10 5 11 6 12
REMARK SMILES IDX 4 14 1 15 2 16 3 17 91 18 89 19 90 20 86 21 87 22 88 23
REMARK SMILES IDX 17 24 18 25 19 26 20 27 21 28 22 29 23 30 24 31 85 32 25 33
REMARK SMILES IDX 84 34 26 35 27 36 28 37 78 38 29 39 83 40 77 41 79 42 30 43
REMARK SMILES IDX 82 44 76 45 75 46 31 48 63 49 43 50 62 51 44 52 47 53 61 54
REMARK SMILES IDX 80 55 45 56 46 57 60 59 81 60 48 61 32 62 33 63 41 64 34 65
REMARK SMILES IDX 40 66 42 67 39 68 35 69 36 70 37 71 38 72 64 73 65 74 73 75
REMARK SMILES IDX 66 76 72 77 74 78 71 79 67 80 68 81 69 82 70 83 49 84 50 85
REMARK SMILES IDX 58 86 51 87 57 88 59 89 56 90 52 91 53 92 54 93 55 94
REMARK H PARENT 7 13 79 47 47 58
REMARK Flexibility Score: inf
ROOT
ATOM      1  C   UNL     1       1.123  -1.397   0.150  1.00  0.00     0.188 C 
ENDROOT
BRANCH   1   2
ATOM      2  C   UNL     1       2.178  -2.147   0.992  1.00  0.00     0.188 C 
BRANCH   2   3
ATOM      3  O   UNL     1       3.445  -2.255   0.366  1.00  0.00    -0.376 OA
BRANCH   3   4
ATOM      4  C   UNL     1       3.733  -3.498  -0.255  1.00  0.00     0.202 C 
BRANCH   4   5
ATOM      5  C   UNL     1       2.845  -3.909  -1.443  1.00  0.00     0.261 C 
BRANCH   5   6
ATOM      6  O   UNL     1       1.417  -3.930  -1.240  1.00  0.00    -0.462 OA
BRANCH   6   7
ATOM      7  C   UNL     1       0.933  -4.726  -0.243  1.00  0.00     0.328 C 
ATOM      8  O   UNL     1       1.665  -5.382   0.481  1.00  0.00    -0.250 OA
BRANCH   7   9
ATOM      9  C   UNL     1      -0.626  -4.721  -0.257  1.00  0.00     0.195 C 
BRANCH   9  10
ATOM     10  N   UNL     1      -1.032  -5.783  -1.173  1.00  0.00    -0.338 N 
ATOM     11  C   UNL     1      -0.932  -7.150  -1.153  1.00  0.00     0.253 C 
ATOM     12  O   UNL     1      -1.422  -7.694  -2.147  1.00  0.00    -0.269 OA
ATOM     13  H   UNL     1      -1.474  -5.442  -1.984  1.00  0.00     0.164 HD
BRANCH  11  14
ATOM     14  C   UNL     1      -0.268  -7.921  -0.078  1.00  0.00     0.053 A 
ATOM     15  C   UNL     1       1.353  -8.212   3.361  1.00  0.00     0.056 C 
ATOM     16  C   UNL     1       0.778  -8.435   2.003  1.00  0.00     0.003 A 
ATOM     17  C   UNL     1       0.150  -7.497   1.226  1.00  0.00     0.029 A 
ATOM     18  S   UNL     1       0.831  -9.921   1.204  1.00  0.00    -0.145 S 
ATOM     19  C   UNL     1       0.057  -9.275  -0.200  1.00  0.00     0.014 A 
ATOM     20  C   UNL     1      -0.153 -10.223  -1.337  1.00  0.00     0.057 C 
ENDBRANCH  11  14
ENDBRANCH   9  10
BRANCH   9  21
ATOM     21  C   UNL     1      -1.483  -4.724   1.044  1.00  0.00     0.017 C 
ATOM     22  C   UNL     1      -0.886  -3.966   2.229  1.00  0.00     0.010 C 
ATOM     23  C   UNL     1      -2.910  -4.212   0.787  1.00  0.00     0.010 C 
ENDBRANCH   9  21
ENDBRANCH   7   9
ENDBRANCH   6   7
ENDBRANCH   5   6
ENDBRANCH   4   5
ENDBRANCH   3   4
ENDBRANCH   2   3
ENDBRANCH   1   2
BRANCH   1  24
ATOM     24  O   UNL     1       1.504  -0.752  -1.054  1.00  0.00    -0.376 OA
BRANCH  24  25
ATOM     25  C   UNL     1       2.726  -0.030  -1.082  1.00  0.00     0.202 C 
BRANCH  25  26
ATOM     26  C   UNL     1       3.071   0.986   0.028  1.00  0.00     0.261 C 
BRANCH  26  27
ATOM     27  O   UNL     1       2.727   0.632   1.381  1.00  0.00    -0.460 OA
BRANCH  27  28
ATOM     28  C   UNL     1       1.620   1.232   1.887  1.00  0.00     0.338 C 
ATOM     29  O   UNL     1       0.928   2.067   1.315  1.00  0.00    -0.246 OA
BRANCH  28  30
ATOM     30  C   UNL     1       1.198   0.581   3.153  1.00  0.00     0.060 A 
ATOM     31  C   UNL     1      -0.084   0.009   3.207  1.00  0.00     0.016 A 
ATOM     32  C   UNL     1       2.002   0.586   4.294  1.00  0.00     0.016 A 
ATOM     33  C   UNL     1      -0.581  -0.517   4.399  1.00  0.00     0.010 A 
ATOM     34  C   UNL     1       1.486   0.091   5.504  1.00  0.00     0.010 A 
ATOM     35  C   UNL     1       0.175  -0.421   5.572  1.00  0.00    -0.014 A 
BRANCH  35  36
ATOM     36  C   UNL     1      -0.517  -0.602   6.878  1.00  0.00     0.031 A 
ATOM     37  C   UNL     1      -1.024   0.631   7.587  1.00  0.00     0.074 A 
ATOM     38  C   UNL     1      -0.772  -1.820   7.391  1.00  0.00     0.049 A 
ATOM     39  N   UNL     1      -1.661   0.740   8.724  1.00  0.00    -0.248 NA
ATOM     40  C   UNL     1      -0.776   1.914   6.912  1.00  0.00     0.031 C 
ATOM     41  C   UNL     1      -0.400  -3.092   6.777  1.00  0.00     0.029 A 
ATOM     42  N   UNL     1      -1.413  -2.183   8.552  1.00  0.00    -0.354 N 
ATOM     43  C   UNL     1      -1.887   2.102   8.903  1.00  0.00     0.074 A 
ATOM     44  C   UNL     1      -1.278   2.779   7.778  1.00  0.00     0.031 C 
ATOM     45  C   UNL     1      -0.812  -4.097   7.571  1.00  0.00     0.029 A 
ATOM     46  C   UNL     1      -1.446  -3.542   8.767  1.00  0.00     0.049 A 
ATOM     47  H   UNL     1      -1.811  -1.530   9.173  1.00  0.00     0.167 HD
ATOM     48  C   UNL     1      -2.549   2.732   9.904  1.00  0.00     0.034 A 
ATOM     49  C   UNL     1      -1.915  -4.251   9.816  1.00  0.00     0.034 A 
ATOM     50  C   UNL     1      -3.140   2.051  11.030  1.00  0.00     0.049 A 
ATOM     51  C   UNL     1      -2.558  -3.519  10.974  1.00  0.00     0.074 A 
ATOM     52  C   UNL     1      -3.835   2.595  12.097  1.00  0.00     0.029 A 
ATOM     53  N   UNL     1      -3.095   0.680  11.246  1.00  0.00    -0.354 N 
ATOM     54  N   UNL     1      -2.769  -2.231  11.129  1.00  0.00    -0.248 NA
ATOM     55  C   UNL     1      -3.039  -4.341  12.093  1.00  0.00     0.031 C 
ATOM     56  C   UNL     1      -4.133   1.565  12.997  1.00  0.00     0.029 A 
ATOM     57  C   UNL     1      -3.714   0.365  12.447  1.00  0.00     0.049 A 
ATOM     58  H   UNL     1      -2.683   0.027  10.635  1.00  0.00     0.167 HD
ATOM     59  C   UNL     1      -3.439  -2.098  12.345  1.00  0.00     0.074 A 
ATOM     60  C   UNL     1      -3.615  -3.436  12.868  1.00  0.00     0.031 C 
ATOM     61  C   UNL     1      -3.874  -0.972  12.971  1.00  0.00     0.034 A 
BRANCH  48  62
ATOM     62  C   UNL     1      -2.611   4.241   9.850  1.00  0.00     0.023 A 
ATOM     63  C   UNL     1      -3.267   4.922   8.809  1.00  0.00     0.031 A 
ATOM     64  C   UNL     1      -1.973   5.012  10.838  1.00  0.00     0.131 A 
ATOM     65  C   UNL     1      -3.204   6.322   8.739  1.00  0.00     0.055 A 
ATOM     66  C   UNL     1      -1.989   6.407  10.810  1.00  0.00     0.041 A 
ATOM     67  F   UNL     1      -1.307   4.420  11.843  1.00  0.00    -0.206 F 
ATOM     68  C   UNL     1      -2.594   7.071   9.747  1.00  0.00     0.022 A 
BRANCH  65  69
ATOM     69  S   UNL     1      -3.793   7.142   7.231  1.00  0.00     0.124 S 
ATOM     70  O   UNL     1      -2.963   6.508   6.209  1.00  0.00    -0.237 OA
ATOM     71  O   UNL     1      -5.208   6.791   7.214  1.00  0.00    -0.237 OA
ATOM     72  O   UNL     1      -3.502   8.553   7.473  1.00  0.00    -0.744 OA
ENDBRANCH  65  69
ENDBRANCH  48  62
BRANCH  49  73
ATOM     73  C   UNL     1      -1.762  -5.737   9.861  1.00  0.00     0.023 A 
ATOM     74  C   UNL     1      -2.878  -6.586   9.930  1.00  0.00     0.031 A 
ATOM     75  C   UNL     1      -0.485  -6.327   9.920  1.00  0.00     0.131 A 
ATOM     76  C   UNL     1      -2.699  -7.968  10.107  1.00  0.00     0.055 A 
ATOM     77  C   UNL     1      -0.312  -7.707  10.034  1.00  0.00     0.041 A 
ATOM     78  F   UNL     1       0.618  -5.564   9.868  1.00  0.00    -0.206 F 
ATOM     79  C   UNL     1      -1.424  -8.536  10.144  1.00  0.00     0.022 A 
BRANCH  76  80
ATOM     80  S   UNL     1      -4.160  -9.006  10.395  1.00  0.00     0.124 S 
ATOM     81  O   UNL     1      -4.726  -8.395  11.592  1.00  0.00    -0.237 OA
ATOM     82  O   UNL     1      -4.913  -8.815   9.159  1.00  0.00    -0.237 OA
ATOM     83  O   UNL     1      -3.597 -10.341  10.579  1.00  0.00    -0.744 OA
ENDBRANCH  76  80
ENDBRANCH  49  73
BRANCH  61  84
ATOM     84  C   UNL     1      -4.628  -1.150  14.271  1.00  0.00     0.023 A 
ATOM     85  C   UNL     1      -4.025  -1.711  15.411  1.00  0.00     0.031 A 
ATOM     86  C   UNL     1      -5.983  -0.778  14.362  1.00  0.00     0.131 A 
ATOM     87  C   UNL     1      -4.792  -1.957  16.561  1.00  0.00     0.055 A 
ATOM     88  C   UNL     1      -6.719  -0.952  15.535  1.00  0.00     0.041 A 
ATOM     89  F   UNL     1      -6.617  -0.240  13.308  1.00  0.00    -0.206 F 
ATOM     90  C   UNL     1      -6.130  -1.562  16.637  1.00  0.00     0.022 A 
BRANCH  87  91
ATOM     91  S   UNL     1      -4.053  -2.921  17.909  1.00  0.00     0.124 S 
ATOM     92  O   UNL     1      -3.647  -4.142  17.220  1.00  0.00    -0.237 OA
ATOM     93  O   UNL     1      -2.971  -2.052  18.357  1.00  0.00    -0.237 OA
ATOM     94  O   UNL     1      -5.153  -3.082  18.859  1.00  0.00    -0.744 OA
ENDBRANCH  87  91
ENDBRANCH  61  84
ENDBRANCH  35  36
ENDBRANCH  28  30
ENDBRANCH  27  28
ENDBRANCH  26  27
ENDBRANCH  25  26
ENDBRANCH  24  25
ENDBRANCH   1  24
TORSDOF 23
