REMARK SMILES C=Cc1cncc(-c2ccc([C@@H](C)C(=O)OCCOCCOCCOC(=O)c3ccc(-c4c5nc(c(-c6cc(S(=O)(=O)[O-])ccc6F)c6ccc([nH]6)c(-c6cc(S(=O)(=O)[O-])ccc6F)c6nc(c(-c7cc(S(=O)(=O)[O-])ccc7F)c7ccc4[nH]7)C=C6)C=C5)cc3)cc2)c1
REMARK SMILES IDX 20 1 19 2 18 3 17 4 16 5 14 6 15 7 12 8 13 9 11 10 8 11 9 12
REMARK SMILES IDX 92 13 10 14 91 15 7 16 3 17 4 18 93 19 5 20 6 21 2 22 1 23
REMARK SMILES IDX 21 24 22 25 23 26 24 27 25 28 26 29 27 30 28 31 29 32 90 33
REMARK SMILES IDX 30 34 89 35 31 36 32 37 33 38 83 39 34 40 88 41 82 42 84 43
REMARK SMILES IDX 35 44 87 45 81 46 80 47 36 49 68 50 48 51 67 52 49 53 52 54
REMARK SMILES IDX 66 55 85 56 50 57 51 58 65 60 86 61 53 62 37 63 38 64 46 65
REMARK SMILES IDX 39 66 45 67 47 68 44 69 40 70 41 71 42 72 43 73 69 74 70 75
REMARK SMILES IDX 78 76 71 77 77 78 79 79 76 80 72 81 73 82 74 83 75 84 54 85
REMARK SMILES IDX 55 86 63 87 56 88 62 89 64 90 61 91 57 92 58 93 59 94 60 95
REMARK H PARENT 84 48 52 59
REMARK Flexibility Score: inf
ROOT
ATOM      1  C   UNL     1      -4.367  -6.962  -0.752  1.00  0.00     0.188 C 
ENDROOT
BRANCH   1   2
ATOM      2  O   UNL     1      -4.833  -7.708  -1.872  1.00  0.00    -0.376 OA
BRANCH   2   3
ATOM      3  C   UNL     1      -5.707  -7.089  -2.806  1.00  0.00     0.202 C 
BRANCH   3   4
ATOM      4  C   UNL     1      -7.022  -6.484  -2.288  1.00  0.00     0.261 C 
BRANCH   4   5
ATOM      5  O   UNL     1      -6.889  -5.516  -1.222  1.00  0.00    -0.463 OA
BRANCH   5   6
ATOM      6  C   UNL     1      -7.529  -5.805  -0.060  1.00  0.00     0.313 C 
ATOM      7  O   UNL     1      -8.250  -6.792   0.077  1.00  0.00    -0.252 OA
BRANCH   6   8
ATOM      8  C   UNL     1      -7.306  -4.833   1.105  1.00  0.00     0.126 C 
ATOM      9  C   UNL     1      -8.668  -4.313   1.562  1.00  0.00     0.025 C 
BRANCH   8  10
ATOM     10  C   UNL     1      -6.311  -3.675   1.002  1.00  0.00    -0.034 A 
ATOM     11  C   UNL     1      -4.408  -1.532   0.921  1.00  0.00    -0.017 A 
ATOM     12  C   UNL     1      -5.396  -1.683  -0.070  1.00  0.00     0.009 A 
ATOM     13  C   UNL     1      -4.388  -2.474   1.956  1.00  0.00     0.009 A 
ATOM     14  C   UNL     1      -6.338  -2.727  -0.027  1.00  0.00     0.005 A 
ATOM     15  C   UNL     1      -5.326  -3.520   2.001  1.00  0.00     0.005 A 
BRANCH  11  16
ATOM     16  C   UNL     1      -3.483  -0.383   0.903  1.00  0.00     0.001 A 
ATOM     17  C   UNL     1      -1.260   0.624   0.864  1.00  0.00    -0.007 A 
ATOM     18  C   UNL     1      -1.887   1.867   0.893  1.00  0.00     0.119 A 
ATOM     19  C   UNL     1      -2.084  -0.514   0.881  1.00  0.00     0.020 A 
ATOM     20  N   UNL     1      -3.226   2.050   0.912  1.00  0.00    -0.263 NA
ATOM     21  C   UNL     1      -3.979   0.924   0.921  1.00  0.00     0.119 A 
BRANCH  17  22
ATOM     22  C   UNL     1       0.206   0.570   0.871  1.00  0.00     0.002 C 
ATOM     23  C   UNL     1       0.934  -0.259   0.113  1.00  0.00     0.009 C 
ENDBRANCH  17  22
ENDBRANCH  11  16
ENDBRANCH   8  10
ENDBRANCH   6   8
ENDBRANCH   5   6
ENDBRANCH   4   5
ENDBRANCH   3   4
ENDBRANCH   2   3
ENDBRANCH   1   2
BRANCH   1  24
ATOM     24  C   UNL     1      -4.066  -5.465  -0.914  1.00  0.00     0.188 C 
BRANCH  24  25
ATOM     25  O   UNL     1      -4.050  -5.007  -2.251  1.00  0.00    -0.376 OA
BRANCH  25  26
ATOM     26  C   UNL     1      -2.868  -4.354  -2.672  1.00  0.00     0.202 C 
BRANCH  26  27
ATOM     27  C   UNL     1      -1.653  -5.283  -2.800  1.00  0.00     0.261 C 
BRANCH  27  28
ATOM     28  O   UNL     1      -1.317  -6.036  -1.617  1.00  0.00    -0.460 OA
BRANCH  28  29
ATOM     29  C   UNL     1      -0.841  -5.332  -0.565  1.00  0.00     0.338 C 
ATOM     30  O   UNL     1      -0.635  -4.125  -0.535  1.00  0.00    -0.246 OA
BRANCH  29  31
ATOM     31  C   UNL     1      -0.829  -6.214   0.626  1.00  0.00     0.060 A 
ATOM     32  C   UNL     1      -1.536  -5.817   1.769  1.00  0.00     0.016 A 
ATOM     33  C   UNL     1      -0.121  -7.419   0.625  1.00  0.00     0.016 A 
ATOM     34  C   UNL     1      -1.492  -6.594   2.929  1.00  0.00     0.010 A 
ATOM     35  C   UNL     1      -0.066  -8.190   1.794  1.00  0.00     0.010 A 
ATOM     36  C   UNL     1      -0.716  -7.762   2.966  1.00  0.00    -0.014 A 
BRANCH  36  37
ATOM     37  C   UNL     1      -0.435  -8.412   4.276  1.00  0.00     0.031 A 
ATOM     38  C   UNL     1       0.888  -8.136   4.947  1.00  0.00     0.074 A 
ATOM     39  C   UNL     1      -1.349  -9.184   4.892  1.00  0.00     0.049 A 
ATOM     40  N   UNL     1       1.352  -8.574   6.089  1.00  0.00    -0.248 NA
ATOM     41  C   UNL     1       1.810  -7.247   4.225  1.00  0.00     0.031 C 
ATOM     42  C   UNL     1      -2.678  -9.498   4.371  1.00  0.00     0.029 A 
ATOM     43  N   UNL     1      -1.296  -9.844   6.096  1.00  0.00    -0.354 N 
ATOM     44  C   UNL     1       2.619  -8.014   6.224  1.00  0.00     0.074 A 
ATOM     45  C   UNL     1       2.866  -7.246   5.023  1.00  0.00     0.031 C 
ATOM     46  C   UNL     1      -3.317 -10.287   5.253  1.00  0.00     0.029 A 
ATOM     47  C   UNL     1      -2.432 -10.565   6.385  1.00  0.00     0.049 A 
ATOM     48  H   UNL     1      -0.518  -9.805   6.698  1.00  0.00     0.167 HD
ATOM     49  C   UNL     1       3.492  -8.117   7.258  1.00  0.00     0.034 A 
ATOM     50  C   UNL     1      -2.719 -11.369   7.430  1.00  0.00     0.034 A 
ATOM     51  C   UNL     1       3.243  -8.899   8.446  1.00  0.00     0.049 A 
ATOM     52  C   UNL     1      -1.697 -11.537   8.532  1.00  0.00     0.074 A 
ATOM     53  C   UNL     1       4.056  -9.065   9.555  1.00  0.00     0.029 A 
ATOM     54  N   UNL     1       2.103  -9.659   8.678  1.00  0.00    -0.354 N 
ATOM     55  N   UNL     1      -0.508 -10.990   8.653  1.00  0.00    -0.248 NA
ATOM     56  C   UNL     1      -2.067 -12.420   9.647  1.00  0.00     0.031 C 
ATOM     57  C   UNL     1       3.447  -9.986  10.414  1.00  0.00     0.029 A 
ATOM     58  C   UNL     1       2.208 -10.321   9.893  1.00  0.00     0.049 A 
ATOM     59  H   UNL     1       1.332  -9.719   8.068  1.00  0.00     0.167 HD
ATOM     60  C   UNL     1      -0.008 -11.435   9.877  1.00  0.00     0.074 A 
ATOM     61  C   UNL     1      -1.033 -12.275  10.461  1.00  0.00     0.031 C 
ATOM     62  C   UNL     1       1.188 -11.170  10.466  1.00  0.00     0.034 A 
BRANCH  49  63
ATOM     63  C   UNL     1       4.819  -7.406   7.120  1.00  0.00     0.023 A 
ATOM     64  C   UNL     1       4.904  -6.006   7.007  1.00  0.00     0.031 A 
ATOM     65  C   UNL     1       6.016  -8.142   7.071  1.00  0.00     0.131 A 
ATOM     66  C   UNL     1       6.146  -5.396   6.777  1.00  0.00     0.055 A 
ATOM     67  C   UNL     1       7.259  -7.521   6.929  1.00  0.00     0.041 A 
ATOM     68  F   UNL     1       5.999  -9.482   7.146  1.00  0.00    -0.206 F 
ATOM     69  C   UNL     1       7.328  -6.141   6.766  1.00  0.00     0.022 A 
BRANCH  66  70
ATOM     70  S   UNL     1       6.181  -3.635   6.339  1.00  0.00     0.124 S 
ATOM     71  O   UNL     1       5.333  -3.610   5.149  1.00  0.00    -0.237 OA
ATOM     72  O   UNL     1       5.628  -3.003   7.531  1.00  0.00    -0.237 OA
ATOM     73  O   UNL     1       7.597  -3.371   6.091  1.00  0.00    -0.744 OA
ENDBRANCH  66  70
ENDBRANCH  49  63
BRANCH  50  74
ATOM     74  C   UNL     1      -4.015 -12.110   7.488  1.00  0.00     0.023 A 
ATOM     75  C   UNL     1      -4.936 -11.895   8.527  1.00  0.00     0.031 A 
ATOM     76  C   UNL     1      -4.319 -13.102   6.537  1.00  0.00     0.131 A 
ATOM     77  C   UNL     1      -6.087 -12.694   8.621  1.00  0.00     0.055 A 
ATOM     78  C   UNL     1      -5.495 -13.851   6.601  1.00  0.00     0.041 A 
ATOM     79  F   UNL     1      -3.472 -13.357   5.527  1.00  0.00    -0.206 F 
ATOM     80  C   UNL     1      -6.381 -13.659   7.656  1.00  0.00     0.022 A 
BRANCH  77  81
ATOM     81  S   UNL     1      -7.149 -12.522  10.083  1.00  0.00     0.124 S 
ATOM     82  O   UNL     1      -6.215 -12.817  11.164  1.00  0.00    -0.237 OA
ATOM     83  O   UNL     1      -7.589 -11.135   9.976  1.00  0.00    -0.237 OA
ATOM     84  O   UNL     1      -8.191 -13.523   9.866  1.00  0.00    -0.744 OA
ENDBRANCH  77  81
ENDBRANCH  50  74
BRANCH  62  85
ATOM     85  C   UNL     1       1.425 -11.757  11.841  1.00  0.00     0.023 A 
ATOM     86  C   UNL     1       1.461 -13.146  12.063  1.00  0.00     0.031 A 
ATOM     87  C   UNL     1       1.574 -10.912  12.956  1.00  0.00     0.131 A 
ATOM     88  C   UNL     1       1.554 -13.645  13.372  1.00  0.00     0.055 A 
ATOM     89  C   UNL     1       1.747 -11.415  14.247  1.00  0.00     0.041 A 
ATOM     90  F   UNL     1       1.546  -9.577  12.812  1.00  0.00    -0.206 F 
ATOM     91  C   UNL     1       1.716 -12.789  14.464  1.00  0.00     0.022 A 
BRANCH  88  92
ATOM     92  S   UNL     1       1.313 -15.423  13.644  1.00  0.00     0.124 S 
ATOM     93  O   UNL     1       0.014 -15.651  13.019  1.00  0.00    -0.237 OA
ATOM     94  O   UNL     1       2.462 -16.001  12.954  1.00  0.00    -0.237 OA
ATOM     95  O   UNL     1       1.333 -15.553  15.100  1.00  0.00    -0.744 OA
ENDBRANCH  88  92
ENDBRANCH  62  85
ENDBRANCH  36  37
ENDBRANCH  29  31
ENDBRANCH  28  29
ENDBRANCH  27  28
ENDBRANCH  26  27
ENDBRANCH  25  26
ENDBRANCH  24  25
ENDBRANCH   1  24
TORSDOF 23
