REMARK SMILES NC(=O)c1c(-c2ccc(Cl)cc2)csc1NC(=O)[C@H]1[C@@H](C(=O)OCCOCCOCCOC(=O)c2ccc(-c3c4nc(c(-c5cc(S(=O)(=O)[O-])ccc5F)c5ccc([nH]5)c(-c5cc(S(=O)(=O)[O-])ccc5F)c5nc(c(-c6cc(S(=O)(=O)[O-])ccc6F)c6ccc3[nH]6)C=C5)C=C4)cc2)[C@@H]2CC[C@H]1O2
REMARK SMILES IDX 27 1 26 2 25 3 24 4 23 5 21 6 22 7 20 8 19 9 101 10 98 11
REMARK SMILES IDX 100 12 102 13 99 14 17 15 16 16 18 18 15 19 4 20 5 21 13 22
REMARK SMILES IDX 14 23 2 24 1 25 3 28 6 29 7 30 12 31 8 32 11 33 9 34 10 35
REMARK SMILES IDX 28 36 29 37 30 38 31 39 32 40 33 41 34 42 35 43 36 44 97 45
REMARK SMILES IDX 37 46 96 47 38 48 39 49 40 50 90 51 41 52 95 53 89 54 91 55
REMARK SMILES IDX 42 56 94 57 88 58 87 59 43 61 75 62 55 63 74 64 56 65 59 66
REMARK SMILES IDX 73 67 92 68 57 69 58 70 72 72 93 73 60 74 44 75 45 76 53 77
REMARK SMILES IDX 46 78 52 79 54 80 51 81 47 82 48 83 49 84 50 85 76 86 77 87
REMARK SMILES IDX 85 88 78 89 84 90 86 91 83 92 79 93 80 94 81 95 82 96 61 97
REMARK SMILES IDX 62 98 70 99 63 100 69 101 71 102 68 103 64 104 65 105 66 106
REMARK SMILES IDX 67 107
REMARK H PARENT 16 17 1 26 1 27 91 60 59 71
REMARK Flexibility Score: inf
ROOT
ATOM      1  C   UNL     1       0.481  -9.886  -3.302  1.00  0.00     0.188 C 
ENDROOT
BRANCH   1   2
ATOM      2  O   UNL     1       1.575 -10.743  -3.001  1.00  0.00    -0.376 OA
BRANCH   2   3
ATOM      3  C   UNL     1       2.846 -10.102  -3.013  1.00  0.00     0.202 C 
BRANCH   3   4
ATOM      4  C   UNL     1       3.075  -9.226  -1.783  1.00  0.00     0.261 C 
BRANCH   4   5
ATOM      5  O   UNL     1       2.135  -8.144  -1.653  1.00  0.00    -0.463 OA
BRANCH   5   6
ATOM      6  C   UNL     1       2.222  -7.112  -2.547  1.00  0.00     0.312 C 
ATOM      7  O   UNL     1       3.071  -7.043  -3.421  1.00  0.00    -0.252 OA
BRANCH   6   8
ATOM      8  C   UNL     1       1.227  -6.040  -2.123  1.00  0.00     0.143 C 
ATOM      9  C   UNL     1       0.273  -5.311  -3.106  1.00  0.00     0.124 C 
ATOM     10  C   UNL     1       0.944  -3.922  -3.180  1.00  0.00     0.132 C 
ATOM     11  C   UNL     1       2.086  -4.890  -1.602  1.00  0.00     0.133 C 
ATOM     12  C   UNL     1       0.577  -3.088  -1.949  1.00  0.00     0.035 C 
ATOM     13  O   UNL     1       2.328  -4.181  -2.834  1.00  0.00    -0.373 OA
ATOM     14  C   UNL     1       1.241  -3.882  -0.822  1.00  0.00     0.036 C 
BRANCH   9  15
ATOM     15  C   UNL     1      -0.040  -5.911  -4.474  1.00  0.00     0.231 C 
ATOM     16  N   UNL     1      -1.159  -5.609  -5.218  1.00  0.00    -0.317 N 
ATOM     17  H   UNL     1      -1.199  -6.128  -6.054  1.00  0.00     0.170 HD
ATOM     18  O   UNL     1       0.672  -6.808  -4.936  1.00  0.00    -0.274 OA
BRANCH  16  19
ATOM     19  C   UNL     1      -2.249  -4.751  -5.081  1.00  0.00     0.108 A 
ATOM     20  C   UNL     1      -3.430  -4.739  -5.821  1.00  0.00     0.082 A 
ATOM     21  C   UNL     1      -4.342  -3.706  -5.401  1.00  0.00     0.007 A 
ATOM     22  C   UNL     1      -3.811  -2.930  -4.403  1.00  0.00     0.076 A 
ATOM     23  S   UNL     1      -2.259  -3.478  -3.959  1.00  0.00    -0.125 S 
BRANCH  20  24
ATOM     24  C   UNL     1      -3.849  -5.681  -6.838  1.00  0.00     0.252 C 
ATOM     25  N   UNL     1      -3.645  -5.272  -8.114  1.00  0.00    -0.365 N 
ATOM     26  H   UNL     1      -3.903  -5.854  -8.865  1.00  0.00     0.159 HD
ATOM     27  H   UNL     1      -3.239  -4.393  -8.290  1.00  0.00     0.159 HD
ATOM     28  O   UNL     1      -4.455  -6.704  -6.554  1.00  0.00    -0.269 OA
ENDBRANCH  20  24
BRANCH  21  29
ATOM     29  C   UNL     1      -5.665  -3.497  -5.978  1.00  0.00    -0.017 A 
ATOM     30  C   UNL     1      -5.861  -2.475  -6.912  1.00  0.00     0.010 A 
ATOM     31  C   UNL     1      -6.671  -4.456  -5.776  1.00  0.00     0.010 A 
ATOM     32  C   UNL     1      -7.047  -2.425  -7.650  1.00  0.00     0.021 A 
ATOM     33  C   UNL     1      -7.855  -4.405  -6.517  1.00  0.00     0.021 A 
ATOM     34  C   UNL     1      -8.034  -3.392  -7.455  1.00  0.00     0.041 A 
ATOM     35  Cl  UNL     1      -9.470  -3.342  -8.401  1.00  0.00    -0.084 Cl
ENDBRANCH  21  29
ENDBRANCH  16  19
ENDBRANCH   9  15
ENDBRANCH   6   8
ENDBRANCH   5   6
ENDBRANCH   4   5
ENDBRANCH   3   4
ENDBRANCH   2   3
ENDBRANCH   1   2
BRANCH   1  36
ATOM     36  C   UNL     1      -0.452  -9.594  -2.105  1.00  0.00     0.188 C 
BRANCH  36  37
ATOM     37  O   UNL     1      -0.315 -10.346  -0.905  1.00  0.00    -0.376 OA
BRANCH  37  38
ATOM     38  C   UNL     1      -0.219 -11.762  -1.018  1.00  0.00     0.202 C 
BRANCH  38  39
ATOM     39  C   UNL     1      -1.323 -12.507  -1.784  1.00  0.00     0.261 C 
BRANCH  39  40
ATOM     40  O   UNL     1      -1.491 -12.062  -3.143  1.00  0.00    -0.460 OA
BRANCH  40  41
ATOM     41  C   UNL     1      -2.768 -11.821  -3.537  1.00  0.00     0.338 C 
ATOM     42  O   UNL     1      -3.784 -12.024  -2.897  1.00  0.00    -0.246 OA
BRANCH  41  43
ATOM     43  C   UNL     1      -2.758 -11.133  -4.845  1.00  0.00     0.060 A 
ATOM     44  C   UNL     1      -2.746  -9.742  -4.861  1.00  0.00     0.016 A 
ATOM     45  C   UNL     1      -2.841 -11.837  -6.049  1.00  0.00     0.016 A 
ATOM     46  C   UNL     1      -2.782  -9.061  -6.073  1.00  0.00     0.010 A 
ATOM     47  C   UNL     1      -2.954 -11.135  -7.266  1.00  0.00     0.010 A 
ATOM     48  C   UNL     1      -2.957  -9.731  -7.289  1.00  0.00    -0.014 A 
BRANCH  48  49
ATOM     49  C   UNL     1      -3.328  -8.944  -8.509  1.00  0.00     0.031 A 
ATOM     50  C   UNL     1      -4.780  -8.882  -8.937  1.00  0.00     0.074 A 
ATOM     51  C   UNL     1      -2.454  -8.125  -9.128  1.00  0.00     0.049 A 
ATOM     52  N   UNL     1      -5.326  -8.255  -9.952  1.00  0.00    -0.248 NA
ATOM     53  C   UNL     1      -5.742  -9.598  -8.087  1.00  0.00     0.031 C 
ATOM     54  C   UNL     1      -1.078  -7.880  -8.699  1.00  0.00     0.029 A 
ATOM     55  N   UNL     1      -2.620  -7.287 -10.212  1.00  0.00    -0.354 N 
ATOM     56  C   UNL     1      -6.692  -8.525  -9.878  1.00  0.00     0.074 A 
ATOM     57  C   UNL     1      -6.886  -9.367  -8.715  1.00  0.00     0.031 C 
ATOM     58  C   UNL     1      -0.541  -6.928  -9.482  1.00  0.00     0.029 A 
ATOM     59  C   UNL     1      -1.499  -6.548 -10.522  1.00  0.00     0.049 A 
ATOM     60  H   UNL     1      -3.462  -7.223 -10.718  1.00  0.00     0.167 HD
ATOM     61  C   UNL     1      -7.696  -8.125 -10.700  1.00  0.00     0.034 A 
ATOM     62  C   UNL     1      -1.257  -5.686 -11.535  1.00  0.00     0.034 A 
ATOM     63  C   UNL     1      -7.521  -7.281 -11.857  1.00  0.00     0.049 A 
ATOM     64  C   UNL     1      -2.345  -5.396 -12.546  1.00  0.00     0.074 A 
ATOM     65  C   UNL     1      -8.476  -6.865 -12.772  1.00  0.00     0.029 A 
ATOM     66  N   UNL     1      -6.319  -6.726 -12.266  1.00  0.00    -0.354 N 
ATOM     67  N   UNL     1      -3.612  -5.741 -12.519  1.00  0.00    -0.248 NA
ATOM     68  C   UNL     1      -1.965  -4.608 -13.728  1.00  0.00     0.031 C 
ATOM     69  C   UNL     1      -7.836  -6.126 -13.774  1.00  0.00     0.029 A 
ATOM     70  C   UNL     1      -6.497  -6.009 -13.441  1.00  0.00     0.049 A 
ATOM     71  H   UNL     1      -5.462  -6.826 -11.791  1.00  0.00     0.167 HD
ATOM     72  C   UNL     1      -4.175  -5.202 -13.677  1.00  0.00     0.074 A 
ATOM     73  C   UNL     1      -3.123  -4.479 -14.357  1.00  0.00     0.031 C 
ATOM     74  C   UNL     1      -5.449  -5.301 -14.137  1.00  0.00     0.034 A 
BRANCH  61  75
ATOM     75  C   UNL     1      -9.072  -8.687 -10.438  1.00  0.00     0.023 A 
ATOM     76  C   UNL     1      -9.836  -8.323  -9.316  1.00  0.00     0.031 A 
ATOM     77  C   UNL     1      -9.620  -9.623 -11.336  1.00  0.00     0.131 A 
ATOM     78  C   UNL     1     -11.083  -8.931  -9.096  1.00  0.00     0.055 A 
ATOM     79  C   UNL     1     -10.888 -10.172 -11.148  1.00  0.00     0.041 A 
ATOM     80  F   UNL     1      -8.924 -10.021 -12.413  1.00  0.00    -0.206 F 
ATOM     81  C   UNL     1     -11.622  -9.836 -10.015  1.00  0.00     0.022 A 
BRANCH  78  82
ATOM     82  S   UNL     1     -11.938  -8.627  -7.525  1.00  0.00     0.124 S 
ATOM     83  O   UNL     1     -10.922  -9.017  -6.550  1.00  0.00    -0.237 OA
ATOM     84  O   UNL     1     -12.238  -7.202  -7.598  1.00  0.00    -0.237 OA
ATOM     85  O   UNL     1     -13.099  -9.514  -7.590  1.00  0.00    -0.744 OA
ENDBRANCH  78  82
ENDBRANCH  61  75
BRANCH  62  86
ATOM     86  C   UNL     1       0.098  -5.081 -11.718  1.00  0.00     0.023 A 
ATOM     87  C   UNL     1       0.280  -3.688 -11.763  1.00  0.00     0.031 A 
ATOM     88  C   UNL     1       1.220  -5.896 -11.959  1.00  0.00     0.131 A 
ATOM     89  C   UNL     1       1.540  -3.157 -12.085  1.00  0.00     0.055 A 
ATOM     90  C   UNL     1       2.484  -5.362 -12.212  1.00  0.00     0.041 A 
ATOM     91  F   UNL     1       1.100  -7.233 -11.959  1.00  0.00    -0.206 F 
ATOM     92  C   UNL     1       2.647  -3.984 -12.291  1.00  0.00     0.022 A 
BRANCH  89  93
ATOM     93  S   UNL     1       1.689  -1.366 -12.339  1.00  0.00     0.124 S 
ATOM     94  O   UNL     1       0.739  -1.143 -13.423  1.00  0.00    -0.237 OA
ATOM     95  O   UNL     1       1.304  -0.843 -11.033  1.00  0.00    -0.237 OA
ATOM     96  O   UNL     1       3.096  -1.188 -12.693  1.00  0.00    -0.744 OA
ENDBRANCH  89  93
ENDBRANCH  62  86
BRANCH  74  97
ATOM     97  C   UNL     1      -5.787  -4.593 -15.430  1.00  0.00     0.023 A 
ATOM     98  C   UNL     1      -5.224  -4.985 -16.658  1.00  0.00     0.031 A 
ATOM     99  C   UNL     1      -6.686  -3.510 -15.437  1.00  0.00     0.131 A 
ATOM    100  C   UNL     1      -5.525  -4.272 -17.830  1.00  0.00     0.055 A 
ATOM    101  C   UNL     1      -7.028  -2.842 -16.616  1.00  0.00     0.041 A 
ATOM    102  F   UNL     1      -7.253  -3.085 -14.297  1.00  0.00    -0.206 F 
ATOM    103  C   UNL     1      -6.437  -3.214 -17.819  1.00  0.00     0.022 A 
BRANCH 100 104
ATOM    104  S   UNL     1      -4.644  -4.692 -19.360  1.00  0.00     0.124 S 
ATOM    105  O   UNL     1      -3.251  -4.494 -18.972  1.00  0.00    -0.237 OA
ATOM    106  O   UNL     1      -5.053  -6.074 -19.587  1.00  0.00    -0.237 OA
ATOM    107  O   UNL     1      -5.160  -3.728 -20.330  1.00  0.00    -0.744 OA
ENDBRANCH 100 104
ENDBRANCH  74  97
ENDBRANCH  48  49
ENDBRANCH  41  43
ENDBRANCH  40  41
ENDBRANCH  39  40
ENDBRANCH  38  39
ENDBRANCH  37  38
ENDBRANCH  36  37
ENDBRANCH   1  36
TORSDOF 24
