REMARK SMILES CC1=C(C(=O)OCCOCCOCCOC(=O)c2ccc(-c3c4nc(c(-c5cc(S(=O)(=O)[O-])ccc5F)c5ccc([nH]5)c(-c5cc(S(=O)(=O)[O-])ccc5F)c5nc(c(-c6cc(S(=O)(=O)[O-])ccc6F)c6ccc3[nH]6)C=C5)C=C4)cc2)N2C(=O)[C@H](NC(=O)c3c(Cl)c(C(F)(F)F)nn3C)[C@@H]2SC1
REMARK SMILES IDX 10 1 9 2 8 3 7 4 6 5 4 6 5 7 3 8 1 9 2 10 101 11 81 12
REMARK SMILES IDX 100 13 82 14 99 15 83 16 84 17 85 18 86 19 87 21 88 22 89 23
REMARK SMILES IDX 97 24 90 25 91 26 96 27 98 28 92 29 93 30 94 31 95 32 11 33
REMARK SMILES IDX 12 34 13 35 14 36 15 37 16 38 17 39 18 40 19 41 80 42 20 43
REMARK SMILES IDX 79 44 21 45 22 46 23 47 73 48 24 49 78 50 72 51 74 52 25 53
REMARK SMILES IDX 77 54 71 55 70 56 26 58 58 59 38 60 57 61 39 62 42 63 56 64
REMARK SMILES IDX 75 65 40 66 41 67 55 69 76 70 43 71 27 72 28 73 36 74 29 75
REMARK SMILES IDX 35 76 37 77 34 78 30 79 31 80 32 81 33 82 59 83 60 84 68 85
REMARK SMILES IDX 61 86 67 87 69 88 66 89 62 90 63 91 64 92 65 93 44 94 45 95
REMARK SMILES IDX 53 96 46 97 52 98 54 99 51 100 47 101 48 102 49 103 50 104
REMARK H PARENT 85 20 74 57 42 68
REMARK Flexibility Score: inf
ROOT
ATOM      1  C   UNL     1       2.300  -3.986   1.875  1.00  0.00     0.188 C 
ENDROOT
BRANCH   1   2
ATOM      2  O   UNL     1       2.411  -4.975   0.862  1.00  0.00    -0.376 OA
BRANCH   2   3
ATOM      3  C   UNL     1       1.977  -4.656  -0.457  1.00  0.00     0.202 C 
BRANCH   3   4
ATOM      4  C   UNL     1       0.640  -3.932  -0.643  1.00  0.00     0.261 C 
BRANCH   4   5
ATOM      5  O   UNL     1       0.642  -2.668   0.035  1.00  0.00    -0.459 OA
BRANCH   5   6
ATOM      6  C   UNL     1      -0.549  -2.280   0.556  1.00  0.00     0.355 C 
ATOM      7  O   UNL     1      -1.639  -2.771   0.318  1.00  0.00    -0.244 OA
BRANCH   6   8
ATOM      8  C   UNL     1      -0.317  -1.170   1.535  1.00  0.00     0.131 C 
ATOM      9  C   UNL     1       0.617   0.341  -0.261  1.00  0.00     0.043 C 
ATOM     10  C   UNL     1       0.148   0.041   1.143  1.00  0.00    -0.032 C 
ATOM     11  C   UNL     1       0.258   1.240   2.069  1.00  0.00     0.105 C 
ATOM     12  N   UNL     1      -0.597  -1.417   2.844  1.00  0.00    -0.289 N 
ATOM     13  S   UNL     1      -0.765   1.108   3.570  1.00  0.00    -0.129 SA
ATOM     14  C   UNL     1      -1.052  -2.432   3.603  1.00  0.00     0.253 C 
ATOM     15  C   UNL     1      -0.188  -0.564   3.938  1.00  0.00     0.181 C 
ATOM     16  O   UNL     1      -1.333  -3.580   3.342  1.00  0.00    -0.272 OA
ATOM     17  C   UNL     1      -1.048  -1.481   4.870  1.00  0.00     0.206 C 
BRANCH  17  18
ATOM     18  N   UNL     1      -2.381  -0.973   5.267  1.00  0.00    -0.336 N 
ATOM     19  C   UNL     1      -2.901  -0.733   6.513  1.00  0.00     0.271 C 
ATOM     20  H   UNL     1      -2.990  -0.777   4.518  1.00  0.00     0.164 HD
ATOM     21  O   UNL     1      -4.056  -0.318   6.570  1.00  0.00    -0.267 OA
BRANCH  19  22
ATOM     22  C   UNL     1      -2.084  -0.944   7.674  1.00  0.00     0.145 A 
ATOM     23  C   UNL     1      -2.347  -1.742   8.772  1.00  0.00     0.104 A 
ATOM     24  N   UNL     1      -0.960  -0.248   8.020  1.00  0.00    -0.261 N 
ATOM     25  Cl  UNL     1      -3.679  -2.764   8.991  1.00  0.00    -0.079 Cl
ATOM     26  C   UNL     1      -1.298  -1.514   9.698  1.00  0.00     0.185 A 
ATOM     27  N   UNL     1      -0.411  -0.632   9.184  1.00  0.00    -0.166 NA
ATOM     28  C   UNL     1      -0.362   0.874   7.336  1.00  0.00     0.174 C 
BRANCH  26  29
ATOM     29  C   UNL     1      -1.180  -2.077  11.091  1.00  0.00     0.436 C 
ATOM     30  F   UNL     1      -1.992  -1.407  11.955  1.00  0.00    -0.164 F 
ATOM     31  F   UNL     1      -1.528  -3.384  11.160  1.00  0.00    -0.164 F 
ATOM     32  F   UNL     1       0.080  -1.973  11.592  1.00  0.00    -0.164 F 
ENDBRANCH  26  29
ENDBRANCH  19  22
ENDBRANCH  17  18
ENDBRANCH   6   8
ENDBRANCH   5   6
ENDBRANCH   4   5
ENDBRANCH   3   4
ENDBRANCH   2   3
ENDBRANCH   1   2
BRANCH   1  33
ATOM     33  C   UNL     1       3.042  -2.645   1.698  1.00  0.00     0.188 C 
BRANCH  33  34
ATOM     34  O   UNL     1       3.752  -2.411   0.505  1.00  0.00    -0.376 OA
BRANCH  34  35
ATOM     35  C   UNL     1       4.991  -3.049   0.249  1.00  0.00     0.202 C 
BRANCH  35  36
ATOM     36  C   UNL     1       5.825  -3.877   1.246  1.00  0.00     0.261 C 
BRANCH  36  37
ATOM     37  O   UNL     1       5.231  -4.258   2.484  1.00  0.00    -0.460 OA
BRANCH  37  38
ATOM     38  C   UNL     1       5.561  -3.480   3.545  1.00  0.00     0.338 C 
ATOM     39  O   UNL     1       6.248  -2.474   3.527  1.00  0.00    -0.246 OA
BRANCH  38  40
ATOM     40  C   UNL     1       4.768  -3.917   4.711  1.00  0.00     0.060 A 
ATOM     41  C   UNL     1       3.931  -2.979   5.329  1.00  0.00     0.016 A 
ATOM     42  C   UNL     1       4.865  -5.221   5.203  1.00  0.00     0.016 A 
ATOM     43  C   UNL     1       3.212  -3.333   6.469  1.00  0.00     0.010 A 
ATOM     44  C   UNL     1       4.158  -5.568   6.358  1.00  0.00     0.010 A 
ATOM     45  C   UNL     1       3.356  -4.617   7.014  1.00  0.00    -0.014 A 
BRANCH  45  46
ATOM     46  C   UNL     1       2.839  -4.884   8.379  1.00  0.00     0.031 A 
ATOM     47  C   UNL     1       3.786  -4.729   9.539  1.00  0.00     0.074 A 
ATOM     48  C   UNL     1       1.553  -5.219   8.586  1.00  0.00     0.049 A 
ATOM     49  N   UNL     1       3.575  -4.906  10.816  1.00  0.00    -0.248 NA
ATOM     50  C   UNL     1       5.160  -4.319   9.205  1.00  0.00     0.031 C 
ATOM     51  C   UNL     1       0.537  -5.362   7.544  1.00  0.00     0.029 A 
ATOM     52  N   UNL     1       0.884  -5.507   9.749  1.00  0.00    -0.354 N 
ATOM     53  C   UNL     1       4.785  -4.622  11.442  1.00  0.00     0.074 A 
ATOM     54  C   UNL     1       5.736  -4.308  10.397  1.00  0.00     0.031 C 
ATOM     55  C   UNL     1      -0.624  -5.727   8.116  1.00  0.00     0.029 A 
ATOM     56  C   UNL     1      -0.427  -5.876   9.558  1.00  0.00     0.049 A 
ATOM     57  H   UNL     1       1.304  -5.455  10.638  1.00  0.00     0.167 HD
ATOM     58  C   UNL     1       5.075  -4.612  12.766  1.00  0.00     0.034 A 
ATOM     59  C   UNL     1      -1.351  -6.300  10.445  1.00  0.00     0.034 A 
ATOM     60  C   UNL     1       4.122  -4.952  13.795  1.00  0.00     0.049 A 
ATOM     61  C   UNL     1      -0.981  -6.362  11.911  1.00  0.00     0.074 A 
ATOM     62  C   UNL     1       4.304  -4.975  15.166  1.00  0.00     0.029 A 
ATOM     63  N   UNL     1       2.809  -5.343  13.563  1.00  0.00    -0.354 N 
ATOM     64  N   UNL     1       0.162  -6.069  12.493  1.00  0.00    -0.248 NA
ATOM     65  C   UNL     1      -2.031  -6.795  12.842  1.00  0.00     0.031 C 
ATOM     66  C   UNL     1       3.129  -5.452  15.757  1.00  0.00     0.029 A 
ATOM     67  C   UNL     1       2.184  -5.648  14.762  1.00  0.00     0.049 A 
ATOM     68  H   UNL     1       2.385  -5.397  12.676  1.00  0.00     0.167 HD
ATOM     69  C   UNL     1      -0.052  -6.241  13.860  1.00  0.00     0.074 A 
ATOM     70  C   UNL     1      -1.432  -6.653  14.014  1.00  0.00     0.031 C 
ATOM     71  C   UNL     1       0.808  -6.068  14.897  1.00  0.00     0.034 A 
BRANCH  58  72
ATOM     72  C   UNL     1       6.494  -4.278  13.160  1.00  0.00     0.023 A 
ATOM     73  C   UNL     1       7.059  -3.017  12.897  1.00  0.00     0.031 A 
ATOM     74  C   UNL     1       7.309  -5.250  13.767  1.00  0.00     0.131 A 
ATOM     75  C   UNL     1       8.416  -2.787  13.171  1.00  0.00     0.055 A 
ATOM     76  C   UNL     1       8.636  -4.987  14.112  1.00  0.00     0.041 A 
ATOM     77  F   UNL     1       6.834  -6.480  14.018  1.00  0.00    -0.206 F 
ATOM     78  C   UNL     1       9.201  -3.755  13.800  1.00  0.00     0.022 A 
BRANCH  75  79
ATOM     79  S   UNL     1       9.179  -1.260  12.554  1.00  0.00     0.124 S 
ATOM     80  O   UNL     1       8.928  -1.362  11.118  1.00  0.00    -0.237 OA
ATOM     81  O   UNL     1       8.434  -0.225  13.261  1.00  0.00    -0.237 OA
ATOM     82  O   UNL     1      10.582  -1.397  12.944  1.00  0.00    -0.744 OA
ENDBRANCH  75  79
ENDBRANCH  58  72
BRANCH  59  83
ATOM     83  C   UNL     1      -2.715  -6.704   9.990  1.00  0.00     0.023 A 
ATOM     84  C   UNL     1      -3.864  -6.023  10.427  1.00  0.00     0.031 A 
ATOM     85  C   UNL     1      -2.893  -7.820   9.155  1.00  0.00     0.131 A 
ATOM     86  C   UNL     1      -5.138  -6.483  10.058  1.00  0.00     0.055 A 
ATOM     87  C   UNL     1      -4.160  -8.245   8.749  1.00  0.00     0.041 A 
ATOM     88  F   UNL     1      -1.833  -8.518   8.717  1.00  0.00    -0.206 F 
ATOM     89  C   UNL     1      -5.292  -7.581   9.210  1.00  0.00     0.022 A 
BRANCH  86  90
ATOM     90  S   UNL     1      -6.600  -5.696  10.793  1.00  0.00     0.124 S 
ATOM     91  O   UNL     1      -6.334  -5.845  12.219  1.00  0.00    -0.237 OA
ATOM     92  O   UNL     1      -6.519  -4.339  10.265  1.00  0.00    -0.237 OA
ATOM     93  O   UNL     1      -7.710  -6.496  10.279  1.00  0.00    -0.744 OA
ENDBRANCH  86  90
ENDBRANCH  59  83
BRANCH  71  94
ATOM     94  C   UNL     1       0.262  -6.282  16.290  1.00  0.00     0.023 A 
ATOM     95  C   UNL     1      -0.163  -7.545  16.738  1.00  0.00     0.031 A 
ATOM     96  C   UNL     1       0.157  -5.197  17.180  1.00  0.00     0.131 A 
ATOM     97  C   UNL     1      -0.729  -7.682  18.015  1.00  0.00     0.055 A 
ATOM     98  C   UNL     1      -0.349  -5.351  18.472  1.00  0.00     0.041 A 
ATOM     99  F   UNL     1       0.548  -3.968  16.810  1.00  0.00    -0.206 F 
ATOM    100  C   UNL     1      -0.810  -6.596  18.890  1.00  0.00     0.022 A 
BRANCH  97 101
ATOM    101  S   UNL     1      -1.448  -9.280  18.485  1.00  0.00     0.124 S 
ATOM    102  O   UNL     1      -2.438  -9.490  17.434  1.00  0.00    -0.237 OA
ATOM    103  O   UNL     1      -0.288 -10.165  18.455  1.00  0.00    -0.237 OA
ATOM    104  O   UNL     1      -2.000  -9.030  19.816  1.00  0.00    -0.744 OA
ENDBRANCH  97 101
ENDBRANCH  71  94
ENDBRANCH  45  46
ENDBRANCH  38  40
ENDBRANCH  37  38
ENDBRANCH  36  37
ENDBRANCH  35  36
ENDBRANCH  34  35
ENDBRANCH  33  34
ENDBRANCH   1  33
TORSDOF 23
