REMARK SMILES Cc1cc(C)cc(C[N@@H+]2CCO[C@@H](CC(=O)OCCOCCOCCOC(=O)c3ccc(-c4c5nc(c(-c6cc(S(=O)(=O)[O-])ccc6F)c6ccc([nH]6)c(-c6cc(S(=O)(=O)[O-])ccc6F)c6nc(c(-c7cc(S(=O)(=O)[O-])ccc7F)c7ccc4[nH]7)C=C6)C=C5)cc3)C2)c1
REMARK SMILES IDX 21 1 20 2 19 3 18 4 17 5 15 6 16 7 14 8 13 9 9 10 10 11
REMARK SMILES IDX 92 12 11 14 12 15 8 16 7 17 1 18 2 19 3 20 93 21 4 22 5 23
REMARK SMILES IDX 6 24 22 25 23 26 24 27 25 28 26 29 27 30 28 31 29 32 30 33
REMARK SMILES IDX 91 34 31 35 90 36 32 37 33 38 34 39 84 40 35 41 89 42 83 43
REMARK SMILES IDX 85 44 36 45 88 46 82 47 81 48 37 50 69 51 49 52 68 53 50 54
REMARK SMILES IDX 53 55 67 56 86 57 51 58 52 59 66 61 87 62 54 63 38 64 39 65
REMARK SMILES IDX 47 66 40 67 46 68 48 69 45 70 41 71 42 72 43 73 44 74 70 75
REMARK SMILES IDX 71 76 79 77 72 78 78 79 80 80 77 81 73 82 74 83 75 84 76 85
REMARK SMILES IDX 55 86 56 87 64 88 57 89 63 90 65 91 62 92 58 93 59 94 60 95
REMARK SMILES IDX 61 96
REMARK H PARENT 9 13 85 49 53 60
REMARK Flexibility Score: inf
ROOT
ATOM      1  C   UNL     1       3.991  -1.358   2.634  1.00  0.00     0.188 C 
ENDROOT
BRANCH   1   2
ATOM      2  O   UNL     1       5.051  -2.163   3.141  1.00  0.00    -0.376 OA
BRANCH   2   3
ATOM      3  C   UNL     1       4.727  -3.436   3.699  1.00  0.00     0.202 C 
BRANCH   3   4
ATOM      4  C   UNL     1       3.610  -3.470   4.747  1.00  0.00     0.261 C 
BRANCH   4   5
ATOM      5  O   UNL     1       2.344  -3.080   4.183  1.00  0.00    -0.463 OA
BRANCH   5   6
ATOM      6  C   UNL     1       1.385  -2.781   5.093  1.00  0.00     0.308 C 
ATOM      7  O   UNL     1       1.459  -3.073   6.281  1.00  0.00    -0.252 OA
BRANCH   6   8
ATOM      8  C   UNL     1       0.346  -1.839   4.533  1.00  0.00     0.160 C 
BRANCH   8   9
ATOM      9  C   UNL     1      -0.495  -2.183   3.295  1.00  0.00     0.184 C 
ATOM     10  N   UNL     1      -1.140  -3.682   1.372  1.00  0.00    -0.327 N 
ATOM     11  C   UNL     1      -2.533  -3.492   1.772  1.00  0.00     0.291 C 
ATOM     12  C   UNL     1      -0.218  -3.482   2.507  1.00  0.00     0.295 C 
ATOM     13  H   UNL     1      -1.053  -4.672   1.141  1.00  0.00     0.348 HD
ATOM     14  C   UNL     1      -2.778  -2.260   2.661  1.00  0.00     0.222 C 
ATOM     15  O   UNL     1      -1.869  -2.223   3.763  1.00  0.00    -0.366 OA
BRANCH  10  16
ATOM     16  C   UNL     1      -0.731  -3.223   0.036  1.00  0.00     0.299 C 
BRANCH  16  17
ATOM     17  C   UNL     1      -0.824  -1.758  -0.365  1.00  0.00     0.007 A 
ATOM     18  C   UNL     1       1.268   0.851  -2.246  1.00  0.00     0.044 C 
ATOM     19  C   UNL     1       0.175   0.210  -1.444  1.00  0.00    -0.050 A 
ATOM     20  C   UNL     1      -1.004   0.928  -1.239  1.00  0.00     0.006 A 
ATOM     21  C   UNL     1       0.269  -1.113  -0.976  1.00  0.00     0.013 A 
ATOM     22  C   UNL     1      -2.121   0.301  -0.695  1.00  0.00    -0.050 A 
ATOM     23  C   UNL     1      -3.386   1.075  -0.474  1.00  0.00     0.044 C 
ATOM     24  C   UNL     1      -2.032  -1.048  -0.325  1.00  0.00     0.013 A 
ENDBRANCH  16  17
ENDBRANCH  10  16
ENDBRANCH   8   9
ENDBRANCH   6   8
ENDBRANCH   5   6
ENDBRANCH   4   5
ENDBRANCH   3   4
ENDBRANCH   2   3
ENDBRANCH   1   2
BRANCH   1  25
ATOM     25  C   UNL     1       3.008  -1.989   1.630  1.00  0.00     0.188 C 
BRANCH  25  26
ATOM     26  O   UNL     1       3.330  -3.308   1.214  1.00  0.00    -0.376 OA
BRANCH  26  27
ATOM     27  C   UNL     1       3.730  -3.432  -0.149  1.00  0.00     0.202 C 
BRANCH  27  28
ATOM     28  C   UNL     1       5.004  -2.666  -0.519  1.00  0.00     0.261 C 
BRANCH  28  29
ATOM     29  O   UNL     1       4.823  -1.252  -0.308  1.00  0.00    -0.460 OA
BRANCH  29  30
ATOM     30  C   UNL     1       4.943  -0.418  -1.353  1.00  0.00     0.338 C 
ATOM     31  O   UNL     1       5.237  -0.731  -2.505  1.00  0.00    -0.246 OA
BRANCH  30  32
ATOM     32  C   UNL     1       4.694   0.973  -0.907  1.00  0.00     0.060 A 
ATOM     33  C   UNL     1       3.653   1.294  -0.024  1.00  0.00     0.016 A 
ATOM     34  C   UNL     1       5.462   1.998  -1.457  1.00  0.00     0.016 A 
ATOM     35  C   UNL     1       3.353   2.620   0.281  1.00  0.00     0.010 A 
ATOM     36  C   UNL     1       5.186   3.327  -1.124  1.00  0.00     0.010 A 
ATOM     37  C   UNL     1       4.114   3.649  -0.272  1.00  0.00    -0.014 A 
BRANCH  37  38
ATOM     38  C   UNL     1       3.755   5.069  -0.047  1.00  0.00     0.031 A 
ATOM     39  C   UNL     1       3.271   5.889  -1.207  1.00  0.00     0.074 A 
ATOM     40  C   UNL     1       3.879   5.622   1.173  1.00  0.00     0.049 A 
ATOM     41  N   UNL     1       3.188   7.186  -1.329  1.00  0.00    -0.248 NA
ATOM     42  C   UNL     1       2.828   5.139  -2.393  1.00  0.00     0.031 C 
ATOM     43  C   UNL     1       4.227   4.902   2.400  1.00  0.00     0.029 A 
ATOM     44  N   UNL     1       3.751   6.927   1.576  1.00  0.00    -0.354 N 
ATOM     45  C   UNL     1       2.729   7.415  -2.622  1.00  0.00     0.074 A 
ATOM     46  C   UNL     1       2.546   6.118  -3.240  1.00  0.00     0.031 C 
ATOM     47  C   UNL     1       4.309   5.779   3.412  1.00  0.00     0.029 A 
ATOM     48  C   UNL     1       4.113   7.127   2.888  1.00  0.00     0.049 A 
ATOM     49  H   UNL     1       3.433   7.648   0.985  1.00  0.00     0.167 HD
ATOM     50  C   UNL     1       2.505   8.603  -3.234  1.00  0.00     0.034 A 
ATOM     51  C   UNL     1       4.342   8.269   3.566  1.00  0.00     0.034 A 
ATOM     52  C   UNL     1       2.695   9.878  -2.583  1.00  0.00     0.049 A 
ATOM     53  C   UNL     1       4.194   9.581   2.841  1.00  0.00     0.074 A 
ATOM     54  C   UNL     1       2.520  11.149  -3.101  1.00  0.00     0.029 A 
ATOM     55  N   UNL     1       3.106  10.040  -1.265  1.00  0.00    -0.354 N 
ATOM     56  N   UNL     1       3.856   9.799   1.590  1.00  0.00    -0.248 NA
ATOM     57  C   UNL     1       4.474  10.798   3.612  1.00  0.00     0.031 C 
ATOM     58  C   UNL     1       2.882  12.077  -2.117  1.00  0.00     0.029 A 
ATOM     59  C   UNL     1       3.214  11.388  -0.961  1.00  0.00     0.049 A 
ATOM     60  H   UNL     1       3.293   9.305  -0.638  1.00  0.00     0.167 HD
ATOM     61  C   UNL     1       3.866  11.181   1.430  1.00  0.00     0.074 A 
ATOM     62  C   UNL     1       4.231  11.744   2.716  1.00  0.00     0.031 C 
ATOM     63  C   UNL     1       3.596  11.922   0.325  1.00  0.00     0.034 A 
BRANCH  50  64
ATOM     64  C   UNL     1       2.119   8.575  -4.691  1.00  0.00     0.023 A 
ATOM     65  C   UNL     1       0.896   8.043  -5.133  1.00  0.00     0.031 A 
ATOM     66  C   UNL     1       3.011   9.069  -5.661  1.00  0.00     0.131 A 
ATOM     67  C   UNL     1       0.623   7.965  -6.509  1.00  0.00     0.055 A 
ATOM     68  C   UNL     1       2.704   9.053  -7.023  1.00  0.00     0.041 A 
ATOM     69  F   UNL     1       4.206   9.564  -5.300  1.00  0.00    -0.206 F 
ATOM     70  C   UNL     1       1.508   8.489  -7.455  1.00  0.00     0.022 A 
BRANCH  67  71
ATOM     71  S   UNL     1      -0.850   7.058  -7.054  1.00  0.00     0.124 S 
ATOM     72  O   UNL     1      -0.606   5.731  -6.492  1.00  0.00    -0.237 OA
ATOM     73  O   UNL     1      -1.934   7.819  -6.445  1.00  0.00    -0.237 OA
ATOM     74  O   UNL     1      -0.779   7.131  -8.512  1.00  0.00    -0.744 OA
ENDBRANCH  67  71
ENDBRANCH  50  64
BRANCH  51  75
ATOM     75  C   UNL     1       4.834   8.218   4.973  1.00  0.00     0.023 A 
ATOM     76  C   UNL     1       4.067   8.729   6.030  1.00  0.00     0.031 A 
ATOM     77  C   UNL     1       6.096   7.674   5.275  1.00  0.00     0.131 A 
ATOM     78  C   UNL     1       4.579   8.707   7.337  1.00  0.00     0.055 A 
ATOM     79  C   UNL     1       6.579   7.608   6.582  1.00  0.00     0.041 A 
ATOM     80  F   UNL     1       6.873   7.176   4.300  1.00  0.00    -0.206 F 
ATOM     81  C   UNL     1       5.822   8.136   7.623  1.00  0.00     0.022 A 
BRANCH  78  82
ATOM     82  S   UNL     1       3.622   9.501   8.658  1.00  0.00     0.124 S 
ATOM     83  O   UNL     1       3.511  10.868   8.164  1.00  0.00    -0.237 OA
ATOM     84  O   UNL     1       2.392   8.715   8.653  1.00  0.00    -0.237 OA
ATOM     85  O   UNL     1       4.465   9.329   9.839  1.00  0.00    -0.744 OA
ENDBRANCH  78  82
ENDBRANCH  51  75
BRANCH  63  86
ATOM     86  C   UNL     1       3.643  13.419   0.486  1.00  0.00     0.023 A 
ATOM     87  C   UNL     1       4.854  14.103   0.688  1.00  0.00     0.031 A 
ATOM     88  C   UNL     1       2.453  14.167   0.457  1.00  0.00     0.131 A 
ATOM     89  C   UNL     1       4.843  15.488   0.905  1.00  0.00     0.055 A 
ATOM     90  C   UNL     1       2.454  15.552   0.621  1.00  0.00     0.041 A 
ATOM     91  F   UNL     1       1.270  13.560   0.269  1.00  0.00    -0.206 F 
ATOM     92  C   UNL     1       3.652  16.219   0.859  1.00  0.00     0.022 A 
BRANCH  89  93
ATOM     93  S   UNL     1       6.399  16.315   1.334  1.00  0.00     0.124 S 
ATOM     94  O   UNL     1       6.780  15.626   2.563  1.00  0.00    -0.237 OA
ATOM     95  O   UNL     1       7.230  16.043   0.166  1.00  0.00    -0.237 OA
ATOM     96  O   UNL     1       6.009  17.714   1.504  1.00  0.00    -0.744 OA
ENDBRANCH  89  93
ENDBRANCH  63  86
ENDBRANCH  37  38
ENDBRANCH  30  32
ENDBRANCH  29  30
ENDBRANCH  28  29
ENDBRANCH  27  28
ENDBRANCH  26  27
ENDBRANCH  25  26
ENDBRANCH   1  25
TORSDOF 23
