REMARK SMILES Cc1nc(-c2ccccc2F)sc1C(=O)NCc1ccc(C(=O)OCCOCCOCCOC(=O)c2ccc(-c3c4nc(c(-c5cc(S(=O)(=O)[O-])ccc5F)c5ccc([nH]5)c(-c5cc(S(=O)(=O)[O-])ccc5F)c5nc(c(-c6cc(S(=O)(=O)[O-])ccc6F)c6ccc3[nH]6)C=C5)C=C4)cc2)cc1
REMARK SMILES IDX 28 1 27 2 26 3 25 4 24 5 22 6 23 7 21 8 18 9 19 10 100 11
REMARK SMILES IDX 20 12 99 13 17 14 16 15 14 16 15 17 13 19 1 20 2 21 3 22
REMARK SMILES IDX 4 23 12 24 5 25 6 26 10 27 7 28 9 29 11 30 8 31 29 32 30 33
REMARK SMILES IDX 31 34 32 35 33 36 34 37 35 38 36 39 37 40 98 41 38 42 97 43
REMARK SMILES IDX 39 44 40 45 41 46 91 47 42 48 96 49 90 50 92 51 43 52 95 53
REMARK SMILES IDX 89 54 88 55 44 57 76 58 56 59 75 60 57 61 60 62 74 63 93 64
REMARK SMILES IDX 58 65 59 66 73 68 94 69 61 70 45 71 46 72 54 73 47 74 53 75
REMARK SMILES IDX 55 76 52 77 48 78 49 79 50 80 51 81 77 82 78 83 86 84 79 85
REMARK SMILES IDX 85 86 87 87 84 88 80 89 81 90 82 91 83 92 62 93 63 94 71 95
REMARK SMILES IDX 64 96 70 97 72 98 69 99 65 100 66 101 67 102 68 103
REMARK H PARENT 16 18 92 56 60 67
REMARK Flexibility Score: inf
ROOT
ATOM      1  C   UNL     1      -8.048  -2.719  -4.705  1.00  0.00     0.188 C 
ENDROOT
BRANCH   1   2
ATOM      2  O   UNL     1      -8.556  -3.052  -5.986  1.00  0.00    -0.376 OA
BRANCH   2   3
ATOM      3  C   UNL     1      -7.983  -4.115  -6.732  1.00  0.00     0.202 C 
BRANCH   3   4
ATOM      4  C   UNL     1      -6.470  -4.377  -6.775  1.00  0.00     0.261 C 
BRANCH   4   5
ATOM      5  O   UNL     1      -5.810  -4.370  -5.504  1.00  0.00    -0.460 OA
BRANCH   5   6
ATOM      6  C   UNL     1      -4.873  -3.394  -5.353  1.00  0.00     0.338 C 
ATOM      7  O   UNL     1      -4.514  -2.592  -6.186  1.00  0.00    -0.246 OA
BRANCH   6   8
ATOM      8  C   UNL     1      -4.461  -3.324  -3.934  1.00  0.00     0.060 A 
ATOM      9  C   UNL     1      -3.646  -3.064  -1.260  1.00  0.00    -0.029 A 
ATOM     10  C   UNL     1      -3.993  -1.935  -2.010  1.00  0.00     0.006 A 
ATOM     11  C   UNL     1      -3.755  -4.332  -1.860  1.00  0.00     0.006 A 
ATOM     12  C   UNL     1      -4.387  -2.060  -3.342  1.00  0.00     0.016 A 
ATOM     13  C   UNL     1      -4.170  -4.466  -3.188  1.00  0.00     0.016 A 
BRANCH   9  14
ATOM     14  C   UNL     1      -3.076  -2.944   0.129  1.00  0.00     0.152 C 
BRANCH  14  15
ATOM     15  N   UNL     1      -1.643  -3.085   0.095  1.00  0.00    -0.347 N 
ATOM     16  C   UNL     1      -0.537  -2.291   0.009  1.00  0.00     0.263 C 
ATOM     17  O   UNL     1       0.481  -2.998  -0.089  1.00  0.00    -0.268 OA
ATOM     18  H   UNL     1      -1.387  -4.034   0.150  1.00  0.00     0.164 HD
BRANCH  16  19
ATOM     19  C   UNL     1      -0.454  -0.831   0.045  1.00  0.00     0.115 A 
ATOM     20  C   UNL     1      -2.718   0.556   0.279  1.00  0.00     0.068 C 
ATOM     21  C   UNL     1      -1.264   0.298   0.178  1.00  0.00     0.062 A 
ATOM     22  N   UNL     1      -0.578   1.506   0.231  1.00  0.00    -0.240 NA
ATOM     23  C   UNL     1       0.705   1.370   0.034  1.00  0.00     0.127 A 
ATOM     24  S   UNL     1       1.213  -0.238  -0.130  1.00  0.00    -0.108 S 
BRANCH  23  25
ATOM     25  C   UNL     1       1.615   2.511   0.035  1.00  0.00     0.046 A 
ATOM     26  C   UNL     1       1.469   3.480   1.043  1.00  0.00     0.014 A 
ATOM     27  C   UNL     1       2.529   2.755  -0.992  1.00  0.00     0.133 A 
ATOM     28  C   UNL     1       2.207   4.665   1.013  1.00  0.00     0.001 A 
ATOM     29  C   UNL     1       3.263   3.941  -1.032  1.00  0.00     0.040 A 
ATOM     30  F   UNL     1       2.692   1.875  -1.992  1.00  0.00    -0.206 F 
ATOM     31  C   UNL     1       3.097   4.900  -0.032  1.00  0.00     0.003 A 
ENDBRANCH  23  25
ENDBRANCH  16  19
ENDBRANCH  14  15
ENDBRANCH   9  14
ENDBRANCH   6   8
ENDBRANCH   5   6
ENDBRANCH   4   5
ENDBRANCH   3   4
ENDBRANCH   2   3
ENDBRANCH   1   2
BRANCH   1  32
ATOM     32  C   UNL     1      -8.034  -3.778  -3.585  1.00  0.00     0.188 C 
BRANCH  32  33
ATOM     33  O   UNL     1      -8.300  -5.108  -3.959  1.00  0.00    -0.376 OA
BRANCH  33  34
ATOM     34  C   UNL     1      -9.634  -5.566  -4.095  1.00  0.00     0.202 C 
BRANCH  34  35
ATOM     35  C   UNL     1     -10.921  -4.734  -3.909  1.00  0.00     0.261 C 
BRANCH  35  36
ATOM     36  O   UNL     1     -10.812  -3.326  -3.707  1.00  0.00    -0.460 OA
BRANCH  36  37
ATOM     37  C   UNL     1     -10.970  -2.907  -2.426  1.00  0.00     0.338 C 
ATOM     38  O   UNL     1     -11.130  -3.603  -1.440  1.00  0.00    -0.246 OA
BRANCH  37  39
ATOM     39  C   UNL     1     -10.744  -1.451  -2.377  1.00  0.00     0.060 A 
ATOM     40  C   UNL     1      -9.616  -0.968  -1.702  1.00  0.00     0.016 A 
ATOM     41  C   UNL     1     -11.657  -0.570  -2.959  1.00  0.00     0.016 A 
ATOM     42  C   UNL     1      -9.409   0.406  -1.588  1.00  0.00     0.010 A 
ATOM     43  C   UNL     1     -11.457   0.808  -2.827  1.00  0.00     0.010 A 
ATOM     44  C   UNL     1     -10.347   1.302  -2.119  1.00  0.00    -0.014 A 
BRANCH  44  45
ATOM     45  C   UNL     1     -10.250   2.747  -1.795  1.00  0.00     0.031 A 
ATOM     46  C   UNL     1     -11.107   3.297  -0.687  1.00  0.00     0.074 A 
ATOM     47  C   UNL     1      -9.390   3.551  -2.448  1.00  0.00     0.049 A 
ATOM     48  N   UNL     1     -11.227   4.529  -0.267  1.00  0.00    -0.248 NA
ATOM     49  C   UNL     1     -11.937   2.326   0.046  1.00  0.00     0.031 C 
ATOM     50  C   UNL     1      -8.466   3.123  -3.497  1.00  0.00     0.029 A 
ATOM     51  N   UNL     1      -9.155   4.897  -2.320  1.00  0.00    -0.354 N 
ATOM     52  C   UNL     1     -12.145   4.484   0.777  1.00  0.00     0.074 A 
ATOM     53  C   UNL     1     -12.573   3.108   0.906  1.00  0.00     0.031 C 
ATOM     54  C   UNL     1      -7.761   4.189  -3.917  1.00  0.00     0.029 A 
ATOM     55  C   UNL     1      -8.213   5.380  -3.199  1.00  0.00     0.049 A 
ATOM     56  H   UNL     1      -9.617   5.465  -1.662  1.00  0.00     0.167 HD
ATOM     57  C   UNL     1     -12.582   5.497   1.562  1.00  0.00     0.034 A 
ATOM     58  C   UNL     1      -7.783   6.641  -3.416  1.00  0.00     0.034 A 
ATOM     59  C   UNL     1     -12.152   6.864   1.425  1.00  0.00     0.049 A 
ATOM     60  C   UNL     1      -8.362   7.770  -2.599  1.00  0.00     0.074 A 
ATOM     61  C   UNL     1     -12.533   7.962   2.177  1.00  0.00     0.029 A 
ATOM     62  N   UNL     1     -11.254   7.325   0.473  1.00  0.00    -0.354 N 
ATOM     63  N   UNL     1      -9.252   7.717  -1.635  1.00  0.00    -0.248 NA
ATOM     64  C   UNL     1      -7.884   9.127  -2.901  1.00  0.00     0.031 C 
ATOM     65  C   UNL     1     -11.919   9.095   1.637  1.00  0.00     0.029 A 
ATOM     66  C   UNL     1     -11.095   8.695   0.598  1.00  0.00     0.049 A 
ATOM     67  H   UNL     1     -10.797   6.762  -0.193  1.00  0.00     0.167 HD
ATOM     68  C   UNL     1      -9.420   9.030  -1.200  1.00  0.00     0.074 A 
ATOM     69  C   UNL     1      -8.541   9.852  -2.004  1.00  0.00     0.031 C 
ATOM     70  C   UNL     1     -10.224   9.507  -0.217  1.00  0.00     0.034 A 
BRANCH  57  71
ATOM     71  C   UNL     1     -13.605   5.175   2.617  1.00  0.00     0.023 A 
ATOM     72  C   UNL     1     -13.279   4.411   3.750  1.00  0.00     0.031 A 
ATOM     73  C   UNL     1     -14.916   5.670   2.504  1.00  0.00     0.131 A 
ATOM     74  C   UNL     1     -14.261   4.139   4.713  1.00  0.00     0.055 A 
ATOM     75  C   UNL     1     -15.873   5.447   3.495  1.00  0.00     0.041 A 
ATOM     76  F   UNL     1     -15.283   6.388   1.431  1.00  0.00    -0.206 F 
ATOM     77  C   UNL     1     -15.549   4.673   4.605  1.00  0.00     0.022 A 
BRANCH  74  78
ATOM     78  S   UNL     1     -13.854   3.021   6.081  1.00  0.00     0.124 S 
ATOM     79  O   UNL     1     -13.615   1.765   5.373  1.00  0.00    -0.237 OA
ATOM     80  O   UNL     1     -12.681   3.654   6.671  1.00  0.00    -0.237 OA
ATOM     81  O   UNL     1     -15.057   3.042   6.911  1.00  0.00    -0.744 OA
ENDBRANCH  74  78
ENDBRANCH  57  71
BRANCH  58  82
ATOM     82  C   UNL     1      -6.774   6.912  -4.478  1.00  0.00     0.023 A 
ATOM     83  C   UNL     1      -5.484   7.359  -4.157  1.00  0.00     0.031 A 
ATOM     84  C   UNL     1      -7.096   6.740  -5.837  1.00  0.00     0.131 A 
ATOM     85  C   UNL     1      -4.567   7.640  -5.183  1.00  0.00     0.055 A 
ATOM     86  C   UNL     1      -6.168   6.979  -6.851  1.00  0.00     0.041 A 
ATOM     87  F   UNL     1      -8.319   6.317  -6.195  1.00  0.00    -0.206 F 
ATOM     88  C   UNL     1      -4.895   7.438  -6.526  1.00  0.00     0.022 A 
BRANCH  85  89
ATOM     89  S   UNL     1      -2.940   8.310  -4.740  1.00  0.00     0.124 S 
ATOM     90  O   UNL     1      -3.299   9.600  -4.162  1.00  0.00    -0.237 OA
ATOM     91  O   UNL     1      -2.439   7.306  -3.809  1.00  0.00    -0.237 OA
ATOM     92  O   UNL     1      -2.238   8.373  -6.021  1.00  0.00    -0.744 OA
ENDBRANCH  85  89
ENDBRANCH  58  82
BRANCH  70  93
ATOM     93  C   UNL     1     -10.174  10.984   0.079  1.00  0.00     0.023 A 
ATOM     94  C   UNL     1     -10.725  11.931  -0.800  1.00  0.00     0.031 A 
ATOM     95  C   UNL     1      -9.628  11.441   1.292  1.00  0.00     0.131 A 
ATOM     96  C   UNL     1     -10.700  13.293  -0.460  1.00  0.00     0.055 A 
ATOM     97  C   UNL     1      -9.648  12.790   1.645  1.00  0.00     0.041 A 
ATOM     98  F   UNL     1      -9.094  10.574   2.169  1.00  0.00    -0.206 F 
ATOM     99  C   UNL     1     -10.183  13.725   0.765  1.00  0.00     0.022 A 
BRANCH  96 100
ATOM    100  S   UNL     1     -11.333  14.503  -1.653  1.00  0.00     0.124 S 
ATOM    101  O   UNL     1     -10.397  14.352  -2.762  1.00  0.00    -0.237 OA
ATOM    102  O   UNL     1     -12.691  14.028  -1.896  1.00  0.00    -0.237 OA
ATOM    103  O   UNL     1     -11.243  15.773  -0.934  1.00  0.00    -0.744 OA
ENDBRANCH  96 100
ENDBRANCH  70  93
ENDBRANCH  44  45
ENDBRANCH  37  39
ENDBRANCH  36  37
ENDBRANCH  35  36
ENDBRANCH  34  35
ENDBRANCH  33  34
ENDBRANCH  32  33
ENDBRANCH   1  32
TORSDOF 24
