REMARK SMILES Cc1ccc(C(=O)OCCOCCOCCOC(=O)c2ccc(-c3c4nc(c(-c5cc(S(=O)(=O)[O-])ccc5F)c5ccc([nH]5)c(-c5cc(S(=O)(=O)[O-])ccc5F)c5nc(c(-c6cc(S(=O)(=O)[O-])ccc6F)c6ccc3[nH]6)C=C5)C=C4)cc2)cc1N1C(=O)/C(=C\c2nc3ccccc3n2C)SC1=S
REMARK SMILES IDX 13 1 12 2 11 3 10 4 9 5 8 6 6 7 7 8 5 9 1 10 2 11 3 12 84 13
REMARK SMILES IDX 4 14 83 15 85 16 86 17 101 18 87 19 88 20 100 21 102 22
REMARK SMILES IDX 89 23 90 24 91 25 98 26 92 27 97 28 99 29 93 30 96 31 94 32
REMARK SMILES IDX 95 33 14 34 15 35 16 36 17 37 18 38 19 39 20 40 21 41 82 42
REMARK SMILES IDX 22 43 81 44 23 45 24 46 25 47 75 48 26 49 80 50 74 51 76 52
REMARK SMILES IDX 27 53 79 54 73 55 72 56 28 58 60 59 40 60 59 61 41 62 44 63
REMARK SMILES IDX 58 64 77 65 42 66 43 67 57 69 78 70 45 71 29 72 30 73 38 74
REMARK SMILES IDX 31 75 37 76 39 77 36 78 32 79 33 80 34 81 35 82 61 83 62 84
REMARK SMILES IDX 70 85 63 86 69 87 71 88 68 89 64 90 65 91 66 92 67 93 46 94
REMARK SMILES IDX 47 95 55 96 48 97 54 98 56 99 53 100 49 101 50 102 51 103
REMARK SMILES IDX 52 104
REMARK H PARENT 76 57 44 68
REMARK Flexibility Score: inf
ROOT
ATOM      1  C   UNL     1      -6.449   0.018  -3.539  1.00  0.00     0.188 C 
ENDROOT
BRANCH   1   2
ATOM      2  C   UNL     1      -6.516   0.119  -2.014  1.00  0.00     0.188 C 
BRANCH   2   3
ATOM      3  O   UNL     1      -7.028   1.326  -1.446  1.00  0.00    -0.376 OA
BRANCH   3   4
ATOM      4  C   UNL     1      -6.244   2.529  -1.550  1.00  0.00     0.202 C 
BRANCH   4   5
ATOM      5  C   UNL     1      -5.156   2.865  -0.469  1.00  0.00     0.261 C 
BRANCH   5   6
ATOM      6  O   UNL     1      -3.750   2.419  -0.665  1.00  0.00    -0.460 OA
BRANCH   6   7
ATOM      7  C   UNL     1      -2.675   3.108  -1.168  1.00  0.00     0.338 C 
ATOM      8  O   UNL     1      -2.764   4.251  -1.595  1.00  0.00    -0.246 OA
BRANCH   7   9
ATOM      9  C   UNL     1      -1.264   2.331  -1.171  1.00  0.00     0.062 A 
ATOM     10  C   UNL     1       2.738   0.676  -0.253  1.00  0.00     0.046 C 
ATOM     11  C   UNL     1       1.405   1.252  -0.632  1.00  0.00    -0.027 A 
ATOM     12  C   UNL     1       0.303   0.472  -0.430  1.00  0.00     0.006 A 
ATOM     13  C   UNL     1       1.165   2.572  -1.070  1.00  0.00     0.054 A 
ATOM     14  C   UNL     1      -0.952   1.049  -0.640  1.00  0.00     0.016 A 
ATOM     15  C   UNL     1      -0.130   3.062  -1.454  1.00  0.00     0.042 A 
BRANCH  13  16
ATOM     16  N   UNL     1       1.997   3.580  -0.536  1.00  0.00    -0.261 N 
ATOM     17  C   UNL     1       1.752   3.894   0.814  1.00  0.00     0.270 C 
ATOM     18  C   UNL     1       2.720   4.457  -1.296  1.00  0.00     0.152 C 
ATOM     19  O   UNL     1       1.025   3.279   1.549  1.00  0.00    -0.268 OA
ATOM     20  C   UNL     1       2.402   5.202   1.130  1.00  0.00     0.084 C 
ATOM     21  S   UNL     1       3.261   5.779  -0.269  1.00  0.00    -0.054 SA
ATOM     22  S   UNL     1       3.080   4.354  -2.925  1.00  0.00    -0.051 S 
ATOM     23  C   UNL     1       2.282   5.934   2.247  1.00  0.00     0.068 C 
BRANCH  23  24
ATOM     24  C   UNL     1       1.541   5.528   3.391  1.00  0.00     0.134 A 
ATOM     25  N   UNL     1       1.468   4.345   3.965  1.00  0.00    -0.229 NA
ATOM     26  N   UNL     1       0.751   6.430   4.083  1.00  0.00    -0.328 N 
ATOM     27  C   UNL     1       0.446   4.423   4.880  1.00  0.00     0.089 A 
ATOM     28  C   UNL     1      -0.028   5.726   4.976  1.00  0.00     0.068 A 
ATOM     29  C   UNL     1       0.700   7.859   3.889  1.00  0.00     0.152 C 
ATOM     30  C   UNL     1      -0.148   3.412   5.652  1.00  0.00     0.030 A 
ATOM     31  C   UNL     1      -1.082   6.083   5.828  1.00  0.00     0.028 A 
ATOM     32  C   UNL     1      -1.218   3.744   6.492  1.00  0.00     0.002 A 
ATOM     33  C   UNL     1      -1.673   5.060   6.579  1.00  0.00     0.002 A 
ENDBRANCH  23  24
ENDBRANCH  13  16
ENDBRANCH   7   9
ENDBRANCH   6   7
ENDBRANCH   5   6
ENDBRANCH   4   5
ENDBRANCH   3   4
ENDBRANCH   2   3
ENDBRANCH   1   2
BRANCH   1  34
ATOM     34  O   UNL     1      -5.523   0.988  -4.033  1.00  0.00    -0.376 OA
BRANCH  34  35
ATOM     35  C   UNL     1      -5.542   1.176  -5.440  1.00  0.00     0.202 C 
BRANCH  35  36
ATOM     36  C   UNL     1      -4.906   0.026  -6.241  1.00  0.00     0.261 C 
BRANCH  36  37
ATOM     37  O   UNL     1      -3.526  -0.157  -5.864  1.00  0.00    -0.460 OA
BRANCH  37  38
ATOM     38  C   UNL     1      -3.193  -1.390  -5.358  1.00  0.00     0.338 C 
ATOM     39  O   UNL     1      -3.224  -2.415  -6.010  1.00  0.00    -0.246 OA
BRANCH  38  40
ATOM     40  C   UNL     1      -2.836  -1.245  -3.905  1.00  0.00     0.060 A 
ATOM     41  C   UNL     1      -2.912  -2.248  -2.934  1.00  0.00     0.016 A 
ATOM     42  C   UNL     1      -2.702   0.031  -3.447  1.00  0.00     0.016 A 
ATOM     43  C   UNL     1      -2.996  -1.925  -1.527  1.00  0.00     0.010 A 
ATOM     44  C   UNL     1      -3.172   0.272  -2.160  1.00  0.00     0.010 A 
ATOM     45  C   UNL     1      -3.262  -0.622  -1.076  1.00  0.00    -0.014 A 
BRANCH  45  46
ATOM     46  C   UNL     1      -3.838  -0.202   0.371  1.00  0.00     0.031 A 
ATOM     47  C   UNL     1      -3.415   0.895   1.548  1.00  0.00     0.074 A 
ATOM     48  C   UNL     1      -5.014  -0.815   0.661  1.00  0.00     0.049 A 
ATOM     49  N   UNL     1      -4.030   0.943   2.715  1.00  0.00    -0.248 NA
ATOM     50  C   UNL     1      -2.379   1.966   1.622  1.00  0.00     0.031 C 
ATOM     51  C   UNL     1      -6.017  -0.456   1.659  1.00  0.00     0.029 A 
ATOM     52  N   UNL     1      -5.491  -2.034   0.197  1.00  0.00    -0.354 N 
ATOM     53  C   UNL     1      -3.761   2.155   3.345  1.00  0.00     0.074 A 
ATOM     54  C   UNL     1      -2.619   2.674   2.718  1.00  0.00     0.031 C 
ATOM     55  C   UNL     1      -6.699  -1.560   1.992  1.00  0.00     0.029 A 
ATOM     56  C   UNL     1      -6.082  -2.663   1.289  1.00  0.00     0.049 A 
ATOM     57  H   UNL     1      -5.424  -2.384  -0.721  1.00  0.00     0.167 HD
ATOM     58  C   UNL     1      -4.576   2.720   4.274  1.00  0.00     0.034 A 
ATOM     59  C   UNL     1      -5.609  -3.826   1.820  1.00  0.00     0.034 A 
ATOM     60  C   UNL     1      -5.359   1.696   4.916  1.00  0.00     0.049 A 
ATOM     61  C   UNL     1      -5.312  -3.703   3.305  1.00  0.00     0.074 A 
ATOM     62  C   UNL     1      -6.689   1.339   4.938  1.00  0.00     0.029 A 
ATOM     63  N   UNL     1      -4.652   0.645   5.483  1.00  0.00    -0.354 N 
ATOM     64  N   UNL     1      -5.438  -2.594   3.983  1.00  0.00    -0.248 NA
ATOM     65  C   UNL     1      -4.829  -4.794   4.145  1.00  0.00     0.031 C 
ATOM     66  C   UNL     1      -6.745  -0.024   5.365  1.00  0.00     0.029 A 
ATOM     67  C   UNL     1      -5.462  -0.450   5.673  1.00  0.00     0.049 A 
ATOM     68  H   UNL     1      -3.697   0.680   5.719  1.00  0.00     0.167 HD
ATOM     69  C   UNL     1      -4.979  -2.759   5.262  1.00  0.00     0.074 A 
ATOM     70  C   UNL     1      -4.665  -4.175   5.329  1.00  0.00     0.031 C 
ATOM     71  C   UNL     1      -4.849  -1.698   6.121  1.00  0.00     0.034 A 
BRANCH  58  72
ATOM     72  C   UNL     1      -4.689   4.223   4.521  1.00  0.00     0.023 A 
ATOM     73  C   UNL     1      -5.463   4.709   5.596  1.00  0.00     0.031 A 
ATOM     74  C   UNL     1      -4.194   5.228   3.645  1.00  0.00     0.131 A 
ATOM     75  C   UNL     1      -5.690   6.097   5.769  1.00  0.00     0.055 A 
ATOM     76  C   UNL     1      -4.353   6.603   3.866  1.00  0.00     0.041 A 
ATOM     77  F   UNL     1      -3.604   4.938   2.477  1.00  0.00    -0.206 F 
ATOM     78  C   UNL     1      -5.109   7.047   4.931  1.00  0.00     0.022 A 
BRANCH  75  79
ATOM     79  S   UNL     1      -6.839   6.671   7.054  1.00  0.00     0.124 S 
ATOM     80  O   UNL     1      -8.113   6.136   6.586  1.00  0.00    -0.237 OA
ATOM     81  O   UNL     1      -6.283   6.070   8.261  1.00  0.00    -0.237 OA
ATOM     82  O   UNL     1      -6.725   8.129   6.988  1.00  0.00    -0.744 OA
ENDBRANCH  75  79
ENDBRANCH  58  72
BRANCH  59  83
ATOM     83  C   UNL     1      -4.958  -4.729   0.816  1.00  0.00     0.023 A 
ATOM     84  C   UNL     1      -5.730  -5.029  -0.334  1.00  0.00     0.031 A 
ATOM     85  C   UNL     1      -3.578  -4.972   0.742  1.00  0.00     0.131 A 
ATOM     86  C   UNL     1      -5.117  -5.385  -1.543  1.00  0.00     0.055 A 
ATOM     87  C   UNL     1      -2.976  -5.424  -0.449  1.00  0.00     0.041 A 
ATOM     88  F   UNL     1      -2.768  -4.640   1.756  1.00  0.00    -0.206 F 
ATOM     89  C   UNL     1      -3.740  -5.593  -1.607  1.00  0.00     0.022 A 
BRANCH  86  90
ATOM     90  S   UNL     1      -6.074  -5.237  -3.090  1.00  0.00     0.124 S 
ATOM     91  O   UNL     1      -6.508  -6.611  -3.309  1.00  0.00    -0.237 OA
ATOM     92  O   UNL     1      -7.120  -4.280  -2.743  1.00  0.00    -0.237 OA
ATOM     93  O   UNL     1      -5.077  -4.726  -4.026  1.00  0.00    -0.744 OA
ENDBRANCH  86  90
ENDBRANCH  59  83
BRANCH  71  94
ATOM     94  C   UNL     1      -4.085  -1.709   7.437  1.00  0.00     0.023 A 
ATOM     95  C   UNL     1      -3.194  -2.727   7.804  1.00  0.00     0.031 A 
ATOM     96  C   UNL     1      -4.158  -0.616   8.340  1.00  0.00     0.131 A 
ATOM     97  C   UNL     1      -2.496  -2.685   9.025  1.00  0.00     0.055 A 
ATOM     98  C   UNL     1      -3.382  -0.526   9.501  1.00  0.00     0.041 A 
ATOM     99  F   UNL     1      -4.980   0.422   8.129  1.00  0.00    -0.206 F 
ATOM    100  C   UNL     1      -2.557  -1.576   9.863  1.00  0.00     0.022 A 
BRANCH  97 101
ATOM    101  S   UNL     1      -1.602  -4.173   9.543  1.00  0.00     0.124 S 
ATOM    102  O   UNL     1      -2.643  -5.194   9.460  1.00  0.00    -0.237 OA
ATOM    103  O   UNL     1      -0.544  -4.266   8.543  1.00  0.00    -0.237 OA
ATOM    104  O   UNL     1      -1.157  -3.854  10.897  1.00  0.00    -0.744 OA
ENDBRANCH  97 101
ENDBRANCH  71  94
ENDBRANCH  45  46
ENDBRANCH  38  40
ENDBRANCH  37  38
ENDBRANCH  36  37
ENDBRANCH  35  36
ENDBRANCH  34  35
ENDBRANCH   1  34
TORSDOF 22
