REMARK SMILES C[C@@H]1CCCN(C(=O)c2ccncc2/C=C/C(=O)OCCOCCOCCOC(=O)c2ccc(-c3c4nc(c(-c5cc(S(=O)(=O)[O-])ccc5F)c5ccc([nH]5)c(-c5cc(S(=O)(=O)[O-])ccc5F)c5nc(c(-c6cc(S(=O)(=O)[O-])ccc6F)c6ccc3[nH]6)C=C5)C=C4)cc2)[C@@H]1C
REMARK SMILES IDX 23 1 22 2 21 3 20 4 19 5 17 6 18 7 16 8 15 9 14 10 9 11
REMARK SMILES IDX 10 12 11 13 13 14 12 15 7 16 8 17 6 18 1 19 2 20 3 21 94 22
REMARK SMILES IDX 4 23 95 24 5 25 24 26 25 27 26 28 27 29 28 30 29 31 30 32
REMARK SMILES IDX 31 33 32 34 93 35 33 36 92 37 34 38 35 39 36 40 86 41 37 42
REMARK SMILES IDX 91 43 85 44 87 45 38 46 90 47 84 48 83 49 39 51 71 52 51 53
REMARK SMILES IDX 70 54 52 55 55 56 69 57 88 58 53 59 54 60 68 62 89 63 56 64
REMARK SMILES IDX 40 65 41 66 49 67 42 68 48 69 50 70 47 71 43 72 44 73 45 74
REMARK SMILES IDX 46 75 72 76 73 77 81 78 74 79 80 80 82 81 79 82 75 83 76 84
REMARK SMILES IDX 77 85 78 86 57 87 58 88 66 89 59 90 65 91 67 92 64 93 60 94
REMARK SMILES IDX 61 95 62 96 63 97
REMARK H PARENT 87 50 55 61
REMARK Flexibility Score: inf
ROOT
ATOM      1  C   UNL     1       7.130   2.182  -2.010  1.00  0.00     0.188 C 
ENDROOT
BRANCH   1   2
ATOM      2  O   UNL     1       7.986   2.019  -0.904  1.00  0.00    -0.376 OA
BRANCH   2   3
ATOM      3  C   UNL     1       7.575   2.412   0.393  1.00  0.00     0.202 C 
BRANCH   3   4
ATOM      4  C   UNL     1       6.241   3.096   0.756  1.00  0.00     0.261 C 
BRANCH   4   5
ATOM      5  O   UNL     1       5.166   3.027  -0.187  1.00  0.00    -0.460 OA
BRANCH   5   6
ATOM      6  C   UNL     1       4.822   4.210  -0.755  1.00  0.00     0.330 C 
ATOM      7  O   UNL     1       5.353   5.291  -0.543  1.00  0.00    -0.247 OA
BRANCH   6   8
ATOM      8  C   UNL     1       3.799   4.061  -1.813  1.00  0.00     0.094 C 
ATOM      9  C   UNL     1       2.897   3.069  -1.911  1.00  0.00     0.018 C 
BRANCH   9  10
ATOM     10  C   UNL     1       1.873   3.022  -2.979  1.00  0.00     0.006 A 
ATOM     11  C   UNL     1       0.558   2.562  -2.781  1.00  0.00     0.050 A 
ATOM     12  C   UNL     1      -0.401   2.685  -3.794  1.00  0.00     0.034 A 
ATOM     13  C   UNL     1       0.009   3.152  -5.026  1.00  0.00     0.112 A 
ATOM     14  C   UNL     1       2.169   3.441  -4.276  1.00  0.00     0.119 A 
ATOM     15  N   UNL     1       1.278   3.505  -5.295  1.00  0.00    -0.264 NA
BRANCH  11  16
ATOM     16  C   UNL     1       0.128   2.042  -1.465  1.00  0.00     0.254 C 
ATOM     17  O   UNL     1       0.221   2.834  -0.531  1.00  0.00    -0.269 OA
BRANCH  16  18
ATOM     18  N   UNL     1      -0.325   0.719  -1.345  1.00  0.00    -0.336 N 
ATOM     19  C   UNL     1       1.997  -0.519   0.183  1.00  0.00     0.010 C 
ATOM     20  C   UNL     1       0.556  -1.046   0.147  1.00  0.00     0.008 C 
ATOM     21  C   UNL     1       0.380  -2.075  -0.985  1.00  0.00     0.007 C 
ATOM     22  C   UNL     1      -0.503   0.074  -0.024  1.00  0.00     0.085 C 
ATOM     23  C   UNL     1       0.422  -1.427  -2.368  1.00  0.00     0.022 C 
ATOM     24  C   UNL     1      -0.595   0.963   1.219  1.00  0.00     0.031 C 
ATOM     25  C   UNL     1      -0.506  -0.217  -2.467  1.00  0.00     0.120 C 
ENDBRANCH  16  18
ENDBRANCH  11  16
ENDBRANCH   9  10
ENDBRANCH   6   8
ENDBRANCH   5   6
ENDBRANCH   4   5
ENDBRANCH   3   4
ENDBRANCH   2   3
ENDBRANCH   1   2
BRANCH   1  26
ATOM     26  C   UNL     1       6.052   1.101  -2.221  1.00  0.00     0.188 C 
BRANCH  26  27
ATOM     27  O   UNL     1       5.763   0.165  -1.201  1.00  0.00    -0.376 OA
BRANCH  27  28
ATOM     28  C   UNL     1       6.780  -0.705  -0.729  1.00  0.00     0.202 C 
BRANCH  28  29
ATOM     29  C   UNL     1       7.886  -1.304  -1.618  1.00  0.00     0.261 C 
BRANCH  29  30
ATOM     30  O   UNL     1       8.408  -0.476  -2.661  1.00  0.00    -0.460 OA
BRANCH  30  31
ATOM     31  C   UNL     1       8.037  -0.825  -3.917  1.00  0.00     0.338 C 
ATOM     32  O   UNL     1       7.284  -1.734  -4.240  1.00  0.00    -0.246 OA
BRANCH  31  33
ATOM     33  C   UNL     1       8.556   0.179  -4.860  1.00  0.00     0.060 A 
ATOM     34  C   UNL     1       7.661   1.042  -5.509  1.00  0.00     0.016 A 
ATOM     35  C   UNL     1       9.924   0.242  -5.123  1.00  0.00     0.016 A 
ATOM     36  C   UNL     1       8.135   1.980  -6.427  1.00  0.00     0.010 A 
ATOM     37  C   UNL     1      10.392   1.160  -6.064  1.00  0.00     0.010 A 
ATOM     38  C   UNL     1       9.499   2.020  -6.733  1.00  0.00    -0.014 A 
BRANCH  38  39
ATOM     39  C   UNL     1       9.999   2.818  -7.878  1.00  0.00     0.031 A 
ATOM     40  C   UNL     1      10.250   2.105  -9.177  1.00  0.00     0.074 A 
ATOM     41  C   UNL     1      10.271   4.129  -7.754  1.00  0.00     0.049 A 
ATOM     42  N   UNL     1      10.862   2.526 -10.252  1.00  0.00    -0.248 NA
ATOM     43  C   UNL     1       9.753   0.723  -9.265  1.00  0.00     0.031 C 
ATOM     44  C   UNL     1       9.999   4.941  -6.570  1.00  0.00     0.029 A 
ATOM     45  N   UNL     1      10.862   5.002  -8.633  1.00  0.00    -0.354 N 
ATOM     46  C   UNL     1      10.852   1.451 -11.134  1.00  0.00     0.074 A 
ATOM     47  C   UNL     1      10.185   0.357 -10.462  1.00  0.00     0.031 C 
ATOM     48  C   UNL     1      10.444   6.191  -6.789  1.00  0.00     0.029 A 
ATOM     49  C   UNL     1      11.086   6.252  -8.102  1.00  0.00     0.049 A 
ATOM     50  H   UNL     1      11.103   4.758  -9.556  1.00  0.00     0.167 HD
ATOM     51  C   UNL     1      11.363   1.387 -12.387  1.00  0.00     0.034 A 
ATOM     52  C   UNL     1      11.771   7.302  -8.602  1.00  0.00     0.034 A 
ATOM     53  C   UNL     1      12.030   2.489 -13.034  1.00  0.00     0.049 A 
ATOM     54  C   UNL     1      12.427   7.169  -9.960  1.00  0.00     0.074 A 
ATOM     55  C   UNL     1      12.563   2.541 -14.310  1.00  0.00     0.029 A 
ATOM     56  N   UNL     1      12.274   3.725 -12.450  1.00  0.00    -0.354 N 
ATOM     57  N   UNL     1      12.420   6.149 -10.788  1.00  0.00    -0.248 NA
ATOM     58  C   UNL     1      13.189   8.328 -10.450  1.00  0.00     0.031 C 
ATOM     59  C   UNL     1      13.206   3.772 -14.464  1.00  0.00     0.029 A 
ATOM     60  C   UNL     1      12.986   4.530 -13.325  1.00  0.00     0.049 A 
ATOM     61  H   UNL     1      11.982   3.991 -11.548  1.00  0.00     0.167 HD
ATOM     62  C   UNL     1      13.130   6.565 -11.913  1.00  0.00     0.074 A 
ATOM     63  C   UNL     1      13.555   7.924 -11.658  1.00  0.00     0.031 C 
ATOM     64  C   UNL     1      13.395   5.889 -13.060  1.00  0.00     0.034 A 
BRANCH  51  65
ATOM     65  C   UNL     1      11.286   0.064 -13.107  1.00  0.00     0.023 A 
ATOM     66  C   UNL     1      10.061  -0.523 -13.466  1.00  0.00     0.031 A 
ATOM     67  C   UNL     1      12.468  -0.629 -13.430  1.00  0.00     0.131 A 
ATOM     68  C   UNL     1      10.043  -1.789 -14.070  1.00  0.00     0.055 A 
ATOM     69  C   UNL     1      12.446  -1.850 -14.104  1.00  0.00     0.041 A 
ATOM     70  F   UNL     1      13.667  -0.132 -13.086  1.00  0.00    -0.206 F 
ATOM     71  C   UNL     1      11.228  -2.443 -14.418  1.00  0.00     0.022 A 
BRANCH  68  72
ATOM     72  S   UNL     1       8.450  -2.632 -14.271  1.00  0.00     0.124 S 
ATOM     73  O   UNL     1       7.971  -2.694 -12.892  1.00  0.00    -0.237 OA
ATOM     74  O   UNL     1       7.725  -1.730 -15.159  1.00  0.00    -0.237 OA
ATOM     75  O   UNL     1       8.815  -3.921 -14.854  1.00  0.00    -0.744 OA
ENDBRANCH  68  72
ENDBRANCH  51  65
BRANCH  52  76
ATOM     76  C   UNL     1      11.928   8.560  -7.813  1.00  0.00     0.023 A 
ATOM     77  C   UNL     1      11.446   9.783  -8.306  1.00  0.00     0.031 A 
ATOM     78  C   UNL     1      12.633   8.576  -6.596  1.00  0.00     0.131 A 
ATOM     79  C   UNL     1      11.727  10.975  -7.622  1.00  0.00     0.055 A 
ATOM     80  C   UNL     1      12.851   9.757  -5.883  1.00  0.00     0.041 A 
ATOM     81  F   UNL     1      13.127   7.439  -6.080  1.00  0.00    -0.206 F 
ATOM     82  C   UNL     1      12.411  10.969  -6.405  1.00  0.00     0.022 A 
BRANCH  79  83
ATOM     83  S   UNL     1      11.290  12.550  -8.410  1.00  0.00     0.124 S 
ATOM     84  O   UNL     1      12.024  12.462  -9.668  1.00  0.00    -0.237 OA
ATOM     85  O   UNL     1       9.838  12.448  -8.505  1.00  0.00    -0.237 OA
ATOM     86  O   UNL     1      11.784  13.551  -7.468  1.00  0.00    -0.744 OA
ENDBRANCH  79  83
ENDBRANCH  52  76
BRANCH  64  87
ATOM     87  C   UNL     1      14.106   6.633 -14.167  1.00  0.00     0.023 A 
ATOM     88  C   UNL     1      15.446   7.041 -14.059  1.00  0.00     0.031 A 
ATOM     89  C   UNL     1      13.428   6.902 -15.370  1.00  0.00     0.131 A 
ATOM     90  C   UNL     1      16.055   7.725 -15.124  1.00  0.00     0.055 A 
ATOM     91  C   UNL     1      14.056   7.528 -16.447  1.00  0.00     0.041 A 
ATOM     92  F   UNL     1      12.144   6.538 -15.527  1.00  0.00    -0.206 F 
ATOM     93  C   UNL     1      15.375   7.951 -16.324  1.00  0.00     0.022 A 
BRANCH  90  94
ATOM     94  S   UNL     1      17.732   8.380 -14.900  1.00  0.00     0.124 S 
ATOM     95  O   UNL     1      17.556   9.287 -13.771  1.00  0.00    -0.237 OA
ATOM     96  O   UNL     1      18.507   7.172 -14.634  1.00  0.00    -0.237 OA
ATOM     97  O   UNL     1      18.020   9.029 -16.178  1.00  0.00    -0.744 OA
ENDBRANCH  90  94
ENDBRANCH  64  87
ENDBRANCH  38  39
ENDBRANCH  31  33
ENDBRANCH  30  31
ENDBRANCH  29  30
ENDBRANCH  28  29
ENDBRANCH  27  28
ENDBRANCH  26  27
ENDBRANCH   1  26
TORSDOF 23
