REMARK SMILES COc1cccc(N2C(=O)/C(=C/c3ccccc3C(=O)OCCOCCOCCOC(=O)c3ccc(-c4c5nc(c(-c6cc(S(=O)(=O)[O-])ccc6F)c6ccc([nH]6)c(-c6cc(S(=O)(=O)[O-])ccc6F)c6nc(c(-c7cc(S(=O)(=O)[O-])ccc7F)c7ccc4[nH]7)C=C6)C=C5)cc3)SC2=S)c1
REMARK SMILES IDX 25 1 24 2 23 3 22 4 21 5 19 6 20 7 18 8 13 9 14 10 15 11
REMARK SMILES IDX 17 12 16 13 12 14 8 15 9 16 97 17 10 18 11 19 96 20 98 21
REMARK SMILES IDX 7 22 3 23 4 24 99 25 5 26 6 27 2 28 1 29 26 30 27 31 28 32
REMARK SMILES IDX 29 33 30 34 31 35 32 36 33 37 34 38 95 39 35 40 94 41 36 42
REMARK SMILES IDX 37 43 38 44 88 45 39 46 93 47 87 48 89 49 40 50 92 51 86 52
REMARK SMILES IDX 85 53 41 55 73 56 53 57 72 58 54 59 57 60 71 61 90 62 55 63
REMARK SMILES IDX 56 64 70 66 91 67 58 68 42 69 43 70 51 71 44 72 50 73 52 74
REMARK SMILES IDX 49 75 45 76 46 77 47 78 48 79 74 80 75 81 83 82 76 83 82 84
REMARK SMILES IDX 84 85 81 86 77 87 78 88 79 89 80 90 59 91 60 92 68 93 61 94
REMARK SMILES IDX 67 95 69 96 66 97 62 98 63 99 64 100 65 101
REMARK H PARENT 89 54 57 65
REMARK Flexibility Score: inf
ROOT
ATOM      1  C   UNL     1       7.225  -9.431   0.359  1.00  0.00     0.188 C 
ENDROOT
BRANCH   1   2
ATOM      2  O   UNL     1       6.471  -9.396   1.569  1.00  0.00    -0.376 OA
BRANCH   2   3
ATOM      3  C   UNL     1       5.559  -8.324   1.782  1.00  0.00     0.202 C 
BRANCH   3   4
ATOM      4  C   UNL     1       6.118  -6.903   1.688  1.00  0.00     0.261 C 
BRANCH   4   5
ATOM      5  O   UNL     1       6.660  -6.619   0.386  1.00  0.00    -0.460 OA
BRANCH   5   6
ATOM      6  C   UNL     1       7.908  -6.087   0.359  1.00  0.00     0.338 C 
ATOM      7  O   UNL     1       8.561  -5.752   1.335  1.00  0.00    -0.246 OA
BRANCH   6   8
ATOM      8  C   UNL     1       8.465  -6.064  -1.025  1.00  0.00     0.067 A 
ATOM      9  C   UNL     1       7.736  -5.752  -2.196  1.00  0.00    -0.010 A 
ATOM     10  C   UNL     1       8.399  -5.794  -3.435  1.00  0.00     0.009 A 
ATOM     11  C   UNL     1       9.750  -6.140  -3.515  1.00  0.00     0.001 A 
ATOM     12  C   UNL     1       9.823  -6.412  -1.123  1.00  0.00     0.016 A 
ATOM     13  C   UNL     1      10.459  -6.458  -2.362  1.00  0.00     0.001 A 
BRANCH   9  14
ATOM     14  C   UNL     1       6.289  -5.485  -2.232  1.00  0.00     0.030 C 
ATOM     15  N   UNL     1       3.769  -3.789  -0.330  1.00  0.00    -0.261 N 
ATOM     16  C   UNL     1       4.154  -4.558  -1.425  1.00  0.00     0.270 C 
ATOM     17  C   UNL     1       4.800  -3.177   0.377  1.00  0.00     0.152 C 
ATOM     18  O   UNL     1       3.435  -5.151  -2.220  1.00  0.00    -0.268 OA
ATOM     19  C   UNL     1       5.637  -4.548  -1.534  1.00  0.00     0.081 C 
ATOM     20  S   UNL     1       6.298  -3.329  -0.528  1.00  0.00    -0.054 SA
ATOM     21  S   UNL     1       4.786  -2.476   1.897  1.00  0.00    -0.051 S 
BRANCH  15  22
ATOM     22  C   UNL     1       2.389  -3.631  -0.015  1.00  0.00     0.054 A 
ATOM     23  C   UNL     1       0.531  -2.158   0.535  1.00  0.00     0.120 A 
ATOM     24  C   UNL     1      -0.321  -3.258   0.593  1.00  0.00     0.046 A 
ATOM     25  C   UNL     1       1.883  -2.352   0.257  1.00  0.00     0.073 A 
ATOM     26  C   UNL     1       0.161  -4.535   0.304  1.00  0.00     0.006 A 
ATOM     27  C   UNL     1       1.507  -4.720  -0.022  1.00  0.00     0.027 A 
BRANCH  23  28
ATOM     28  O   UNL     1      -0.043  -0.939   0.776  1.00  0.00    -0.497 OA
ATOM     29  C   UNL     1       0.620   0.172   0.175  1.00  0.00     0.278 C 
ENDBRANCH  23  28
ENDBRANCH  15  22
ENDBRANCH   9  14
ENDBRANCH   6   8
ENDBRANCH   5   6
ENDBRANCH   4   5
ENDBRANCH   3   4
ENDBRANCH   2   3
ENDBRANCH   1   2
BRANCH   1  30
ATOM     30  C   UNL     1       6.487  -9.237  -0.981  1.00  0.00     0.188 C 
BRANCH  30  31
ATOM     31  O   UNL     1       5.074  -9.217  -0.865  1.00  0.00    -0.376 OA
BRANCH  31  32
ATOM     32  C   UNL     1       4.390 -10.326  -1.432  1.00  0.00     0.202 C 
BRANCH  32  33
ATOM     33  C   UNL     1       4.606 -11.677  -0.735  1.00  0.00     0.261 C 
BRANCH  33  34
ATOM     34  O   UNL     1       5.972 -12.099  -0.584  1.00  0.00    -0.460 OA
BRANCH  34  35
ATOM     35  C   UNL     1       6.647 -12.443  -1.706  1.00  0.00     0.338 C 
ATOM     36  O   UNL     1       6.216 -12.428  -2.844  1.00  0.00    -0.246 OA
BRANCH  35  37
ATOM     37  C   UNL     1       8.067 -12.648  -1.331  1.00  0.00     0.060 A 
ATOM     38  C   UNL     1       9.059 -11.909  -1.989  1.00  0.00     0.016 A 
ATOM     39  C   UNL     1       8.416 -13.543  -0.316  1.00  0.00     0.016 A 
ATOM     40  C   UNL     1      10.405 -12.082  -1.647  1.00  0.00     0.010 A 
ATOM     41  C   UNL     1       9.764 -13.729   0.012  1.00  0.00     0.010 A 
ATOM     42  C   UNL     1      10.769 -13.018  -0.668  1.00  0.00    -0.014 A 
BRANCH  42  43
ATOM     43  C   UNL     1      12.197 -13.390  -0.478  1.00  0.00     0.031 A 
ATOM     44  C   UNL     1      12.724 -14.589  -1.222  1.00  0.00     0.074 A 
ATOM     45  C   UNL     1      13.009 -12.692   0.338  1.00  0.00     0.049 A 
ATOM     46  N   UNL     1      13.909 -15.140  -1.179  1.00  0.00    -0.248 NA
ATOM     47  C   UNL     1      11.782 -15.257  -2.135  1.00  0.00     0.031 C 
ATOM     48  C   UNL     1      12.631 -11.494   1.086  1.00  0.00     0.029 A 
ATOM     49  N   UNL     1      14.323 -12.901   0.683  1.00  0.00    -0.354 N 
ATOM     50  C   UNL     1      13.854 -16.224  -2.051  1.00  0.00     0.074 A 
ATOM     51  C   UNL     1      12.512 -16.262  -2.591  1.00  0.00     0.031 C 
ATOM     52  C   UNL     1      13.687 -11.083   1.813  1.00  0.00     0.029 A 
ATOM     53  C   UNL     1      14.803 -12.006   1.613  1.00  0.00     0.049 A 
ATOM     54  H   UNL     1      14.871 -13.623   0.300  1.00  0.00     0.167 HD
ATOM     55  C   UNL     1      14.832 -17.105  -2.372  1.00  0.00     0.034 A 
ATOM     56  C   UNL     1      15.995 -11.958   2.247  1.00  0.00     0.034 A 
ATOM     57  C   UNL     1      16.164 -17.065  -1.824  1.00  0.00     0.049 A 
ATOM     58  C   UNL     1      17.041 -13.007   1.931  1.00  0.00     0.074 A 
ATOM     59  C   UNL     1      17.238 -17.889  -2.116  1.00  0.00     0.029 A 
ATOM     60  N   UNL     1      16.601 -16.169  -0.859  1.00  0.00    -0.354 N 
ATOM     61  N   UNL     1      16.987 -13.999   1.072  1.00  0.00    -0.248 NA
ATOM     62  C   UNL     1      18.310 -12.924   2.669  1.00  0.00     0.031 C 
ATOM     63  C   UNL     1      18.301 -17.536  -1.277  1.00  0.00     0.029 A 
ATOM     64  C   UNL     1      17.916 -16.444  -0.516  1.00  0.00     0.049 A 
ATOM     65  H   UNL     1      16.058 -15.444  -0.475  1.00  0.00     0.167 HD
ATOM     66  C   UNL     1      18.230 -14.627   1.140  1.00  0.00     0.074 A 
ATOM     67  C   UNL     1      19.014 -13.899   2.114  1.00  0.00     0.031 C 
ATOM     68  C   UNL     1      18.688 -15.706   0.454  1.00  0.00     0.034 A 
BRANCH  55  69
ATOM     69  C   UNL     1      14.478 -18.222  -3.319  1.00  0.00     0.023 A 
ATOM     70  C   UNL     1      14.177 -17.983  -4.670  1.00  0.00     0.031 A 
ATOM     71  C   UNL     1      14.440 -19.549  -2.856  1.00  0.00     0.131 A 
ATOM     72  C   UNL     1      13.803 -19.050  -5.501  1.00  0.00     0.055 A 
ATOM     73  C   UNL     1      14.131 -20.614  -3.703  1.00  0.00     0.041 A 
ATOM     74  F   UNL     1      14.696 -19.831  -1.569  1.00  0.00    -0.206 F 
ATOM     75  C   UNL     1      13.801 -20.367  -5.032  1.00  0.00     0.022 A 
BRANCH  72  76
ATOM     76  S   UNL     1      13.217 -18.684  -7.177  1.00  0.00     0.124 S 
ATOM     77  O   UNL     1      12.044 -17.856  -6.907  1.00  0.00    -0.237 OA
ATOM     78  O   UNL     1      14.359 -17.999  -7.769  1.00  0.00    -0.237 OA
ATOM     79  O   UNL     1      12.924 -20.004  -7.734  1.00  0.00    -0.744 OA
ENDBRANCH  72  76
ENDBRANCH  55  69
BRANCH  56  80
ATOM     80  C   UNL     1      16.274 -10.922   3.287  1.00  0.00     0.023 A 
ATOM     81  C   UNL     1      17.331 -10.008   3.134  1.00  0.00     0.031 A 
ATOM     82  C   UNL     1      15.560 -10.902   4.498  1.00  0.00     0.131 A 
ATOM     83  C   UNL     1      17.686  -9.161   4.197  1.00  0.00     0.055 A 
ATOM     84  C   UNL     1      15.877 -10.015   5.529  1.00  0.00     0.041 A 
ATOM     85  F   UNL     1      14.546 -11.758   4.703  1.00  0.00    -0.206 F 
ATOM     86  C   UNL     1      16.959  -9.150   5.389  1.00  0.00     0.022 A 
BRANCH  83  87
ATOM     87  S   UNL     1      19.194  -8.163   4.045  1.00  0.00     0.124 S 
ATOM     88  O   UNL     1      20.197  -9.183   3.760  1.00  0.00    -0.237 OA
ATOM     89  O   UNL     1      18.855  -7.271   2.942  1.00  0.00    -0.237 OA
ATOM     90  O   UNL     1      19.310  -7.521   5.352  1.00  0.00    -0.744 OA
ENDBRANCH  83  87
ENDBRANCH  56  80
BRANCH  68  91
ATOM     91  C   UNL     1      20.121 -16.118   0.686  1.00  0.00     0.023 A 
ATOM     92  C   UNL     1      20.554 -16.649   1.914  1.00  0.00     0.031 A 
ATOM     93  C   UNL     1      21.070 -15.973  -0.342  1.00  0.00     0.131 A 
ATOM     94  C   UNL     1      21.908 -16.966   2.100  1.00  0.00     0.055 A 
ATOM     95  C   UNL     1      22.404 -16.345  -0.171  1.00  0.00     0.041 A 
ATOM     96  F   UNL     1      20.712 -15.473  -1.536  1.00  0.00    -0.206 F 
ATOM     97  C   UNL     1      22.832 -16.833   1.060  1.00  0.00     0.022 A 
BRANCH  94  98
ATOM     98  S   UNL     1      22.467 -17.482   3.747  1.00  0.00     0.124 S 
ATOM     99  O   UNL     1      22.092 -16.336   4.568  1.00  0.00    -0.237 OA
ATOM    100  O   UNL     1      21.699 -18.703   3.969  1.00  0.00    -0.237 OA
ATOM    101  O   UNL     1      23.905 -17.679   3.576  1.00  0.00    -0.744 OA
ENDBRANCH  94  98
ENDBRANCH  68  91
ENDBRANCH  42  43
ENDBRANCH  35  37
ENDBRANCH  34  35
ENDBRANCH  33  34
ENDBRANCH  32  33
ENDBRANCH  31  32
ENDBRANCH  30  31
ENDBRANCH   1  30
TORSDOF 23
