REMARK SMILES CCc1ccsc1CNS(=O)(=O)N1CCC(C(=O)OCCOCCOCCOC(=O)c2ccc(-c3c4nc(c(-c5cc(S(=O)(=O)[O-])ccc5F)c5ccc([nH]5)c(-c5cc(S(=O)(=O)[O-])ccc5F)c5nc(c(-c6cc(S(=O)(=O)[O-])ccc6F)c6ccc3[nH]6)C=C5)C=C4)cc2)CC1
REMARK SMILES IDX 23 1 22 2 21 3 20 4 19 5 17 6 18 7 16 8 13 9 14 10 95 11
REMARK SMILES IDX 15 12 94 13 10 14 11 15 12 16 9 17 8 19 7 20 3 21 4 22 5 23
REMARK SMILES IDX 6 24 2 25 1 26 24 27 25 28 26 29 27 30 28 31 29 32 30 33
REMARK SMILES IDX 31 34 32 35 93 36 33 37 92 38 34 39 35 40 36 41 86 42 37 43
REMARK SMILES IDX 91 44 85 45 87 46 38 47 90 48 84 49 83 50 39 52 71 53 51 54
REMARK SMILES IDX 70 55 52 56 55 57 69 58 88 59 53 60 54 61 68 63 89 64 56 65
REMARK SMILES IDX 40 66 41 67 49 68 42 69 48 70 50 71 47 72 43 73 44 74 45 75
REMARK SMILES IDX 46 76 72 77 73 78 81 79 74 80 80 81 82 82 79 83 75 84 76 85
REMARK SMILES IDX 77 86 78 87 57 88 58 89 66 90 59 91 65 92 67 93 64 94 60 95
REMARK SMILES IDX 61 96 62 97 63 98
REMARK H PARENT 9 18 87 51 55 62
REMARK Flexibility Score: inf
ROOT
ATOM      1  C   UNL     1      -2.817   7.364  -7.074  1.00  0.00     0.188 C 
ENDROOT
BRANCH   1   2
ATOM      2  O   UNL     1      -2.082   8.480  -7.564  1.00  0.00    -0.376 OA
BRANCH   2   3
ATOM      3  C   UNL     1      -0.681   8.495  -7.301  1.00  0.00     0.202 C 
BRANCH   3   4
ATOM      4  C   UNL     1      -0.249   8.494  -5.826  1.00  0.00     0.261 C 
BRANCH   4   5
ATOM      5  O   UNL     1      -0.808   7.434  -5.016  1.00  0.00    -0.463 OA
BRANCH   5   6
ATOM      6  C   UNL     1      -1.673   7.842  -4.051  1.00  0.00     0.309 C 
ATOM      7  O   UNL     1      -1.941   9.017  -3.817  1.00  0.00    -0.252 OA
BRANCH   6   8
ATOM      8  C   UNL     1      -2.350   6.719  -3.279  1.00  0.00     0.102 C 
ATOM      9  N   UNL     1      -2.465   4.578  -1.315  1.00  0.00    -0.189 NA
ATOM     10  C   UNL     1      -2.784   4.287  -2.737  1.00  0.00     0.104 C 
ATOM     11  C   UNL     1      -2.799   5.972  -0.926  1.00  0.00     0.104 C 
ATOM     12  C   UNL     1      -2.040   5.269  -3.659  1.00  0.00     0.032 C 
ATOM     13  C   UNL     1      -2.030   6.943  -1.801  1.00  0.00     0.032 C 
BRANCH   9  14
ATOM     14  S   UNL     1      -3.019   3.429  -0.198  1.00  0.00     0.279 S 
ATOM     15  O   UNL     1      -2.975   2.114  -0.781  1.00  0.00    -0.195 OA
ATOM     16  O   UNL     1      -4.195   3.929   0.475  1.00  0.00    -0.195 OA
BRANCH  14  17
ATOM     17  N   UNL     1      -1.752   3.512   0.900  1.00  0.00    -0.197 NA
ATOM     18  H   UNL     1      -1.656   4.480   1.210  1.00  0.00     0.142 HD
BRANCH  17  19
ATOM     19  C   UNL     1      -0.463   3.072   0.346  1.00  0.00     0.146 C 
BRANCH  19  20
ATOM     20  C   UNL     1       0.503   2.814   1.469  1.00  0.00     0.023 A 
ATOM     21  C   UNL     1       0.983   1.596   1.939  1.00  0.00    -0.033 A 
ATOM     22  C   UNL     1       1.923   1.794   3.006  1.00  0.00     0.015 A 
ATOM     23  C   UNL     1       2.119   3.122   3.305  1.00  0.00     0.065 A 
ATOM     24  S   UNL     1       1.191   4.145   2.307  1.00  0.00    -0.147 S 
BRANCH  21  25
ATOM     25  C   UNL     1       0.588   0.237   1.423  1.00  0.00     0.033 C 
ATOM     26  C   UNL     1       1.235  -0.107   0.089  1.00  0.00     0.009 C 
ENDBRANCH  21  25
ENDBRANCH  19  20
ENDBRANCH  17  19
ENDBRANCH  14  17
ENDBRANCH   9  14
ENDBRANCH   6   8
ENDBRANCH   5   6
ENDBRANCH   4   5
ENDBRANCH   3   4
ENDBRANCH   2   3
ENDBRANCH   1   2
BRANCH   1  27
ATOM     27  C   UNL     1      -2.323   5.992  -7.527  1.00  0.00     0.188 C 
BRANCH  27  28
ATOM     28  O   UNL     1      -0.924   5.779  -7.468  1.00  0.00    -0.376 OA
BRANCH  28  29
ATOM     29  C   UNL     1      -0.400   4.673  -8.206  1.00  0.00     0.202 C 
BRANCH  29  30
ATOM     30  C   UNL     1      -0.883   4.428  -9.659  1.00  0.00     0.261 C 
BRANCH  30  31
ATOM     31  O   UNL     1      -2.307   4.338  -9.899  1.00  0.00    -0.460 OA
BRANCH  31  32
ATOM     32  C   UNL     1      -3.036   3.503  -9.118  1.00  0.00     0.338 C 
ATOM     33  O   UNL     1      -2.580   2.645  -8.383  1.00  0.00    -0.246 OA
BRANCH  32  34
ATOM     34  C   UNL     1      -4.451   3.995  -9.063  1.00  0.00     0.060 A 
ATOM     35  C   UNL     1      -5.107   3.969  -7.822  1.00  0.00     0.016 A 
ATOM     36  C   UNL     1      -5.111   4.543 -10.168  1.00  0.00     0.016 A 
ATOM     37  C   UNL     1      -6.419   4.443  -7.689  1.00  0.00     0.010 A 
ATOM     38  C   UNL     1      -6.437   4.995 -10.040  1.00  0.00     0.010 A 
ATOM     39  C   UNL     1      -7.115   4.918  -8.807  1.00  0.00    -0.014 A 
BRANCH  39  40
ATOM     40  C   UNL     1      -8.593   5.121  -8.739  1.00  0.00     0.031 A 
ATOM     41  C   UNL     1      -9.484   4.021  -9.266  1.00  0.00     0.074 A 
ATOM     42  C   UNL     1      -9.155   6.222  -8.201  1.00  0.00     0.049 A 
ATOM     43  N   UNL     1     -10.787   3.981  -9.382  1.00  0.00    -0.248 NA
ATOM     44  C   UNL     1      -8.803   2.801  -9.727  1.00  0.00     0.031 C 
ATOM     45  C   UNL     1      -8.429   7.332  -7.588  1.00  0.00     0.029 A 
ATOM     46  N   UNL     1     -10.479   6.588  -8.088  1.00  0.00    -0.354 N 
ATOM     47  C   UNL     1     -11.081   2.743  -9.947  1.00  0.00     0.074 A 
ATOM     48  C   UNL     1      -9.817   2.075 -10.172  1.00  0.00     0.031 C 
ATOM     49  C   UNL     1      -9.315   8.257  -7.171  1.00  0.00     0.029 A 
ATOM     50  C   UNL     1     -10.669   7.833  -7.528  1.00  0.00     0.049 A 
ATOM     51  H   UNL     1     -11.221   6.013  -8.382  1.00  0.00     0.167 HD
ATOM     52  C   UNL     1     -12.290   2.209 -10.250  1.00  0.00     0.034 A 
ATOM     53  C   UNL     1     -11.797   8.557  -7.351  1.00  0.00     0.034 A 
ATOM     54  C   UNL     1     -13.548   2.878 -10.023  1.00  0.00     0.049 A 
ATOM     55  C   UNL     1     -13.127   7.983  -7.799  1.00  0.00     0.074 A 
ATOM     56  C   UNL     1     -14.826   2.406 -10.270  1.00  0.00     0.029 A 
ATOM     57  N   UNL     1     -13.692   4.162  -9.517  1.00  0.00    -0.354 N 
ATOM     58  N   UNL     1     -13.390   6.808  -8.325  1.00  0.00    -0.248 NA
ATOM     59  C   UNL     1     -14.314   8.835  -7.627  1.00  0.00     0.031 C 
ATOM     60  C   UNL     1     -15.734   3.436 -10.003  1.00  0.00     0.029 A 
ATOM     61  C   UNL     1     -15.033   4.515  -9.491  1.00  0.00     0.049 A 
ATOM     62  H   UNL     1     -12.951   4.738  -9.220  1.00  0.00     0.167 HD
ATOM     63  C   UNL     1     -14.774   6.769  -8.500  1.00  0.00     0.074 A 
ATOM     64  C   UNL     1     -15.290   8.030  -8.016  1.00  0.00     0.031 C 
ATOM     65  C   UNL     1     -15.548   5.775  -9.008  1.00  0.00     0.034 A 
BRANCH  52  66
ATOM     66  C   UNL     1     -12.309   0.859 -10.927  1.00  0.00     0.023 A 
ATOM     67  C   UNL     1     -11.844  -0.305 -10.291  1.00  0.00     0.031 A 
ATOM     68  C   UNL     1     -12.799   0.741 -12.241  1.00  0.00     0.131 A 
ATOM     69  C   UNL     1     -11.822  -1.522 -10.991  1.00  0.00     0.055 A 
ATOM     70  C   UNL     1     -12.852  -0.487 -12.901  1.00  0.00     0.041 A 
ATOM     71  F   UNL     1     -13.231   1.822 -12.909  1.00  0.00    -0.206 F 
ATOM     72  C   UNL     1     -12.349  -1.626 -12.280  1.00  0.00     0.022 A 
BRANCH  69  73
ATOM     73  S   UNL     1     -10.965  -2.936 -10.246  1.00  0.00     0.124 S 
ATOM     74  O   UNL     1      -9.620  -2.398 -10.052  1.00  0.00    -0.237 OA
ATOM     75  O   UNL     1     -11.740  -3.173  -9.034  1.00  0.00    -0.237 OA
ATOM     76  O   UNL     1     -11.069  -3.976 -11.268  1.00  0.00    -0.744 OA
ENDBRANCH  69  73
ENDBRANCH  52  66
BRANCH  53  77
ATOM     77  C   UNL     1     -11.747   9.935  -6.768  1.00  0.00     0.023 A 
ATOM     78  C   UNL     1     -12.454  10.255  -5.596  1.00  0.00     0.031 A 
ATOM     79  C   UNL     1     -11.079  10.979  -7.433  1.00  0.00     0.131 A 
ATOM     80  C   UNL     1     -12.527  11.589  -5.161  1.00  0.00     0.055 A 
ATOM     81  C   UNL     1     -11.097  12.292  -6.958  1.00  0.00     0.041 A 
ATOM     82  F   UNL     1     -10.402  10.739  -8.568  1.00  0.00    -0.206 F 
ATOM     83  C   UNL     1     -11.839  12.607  -5.824  1.00  0.00     0.022 A 
BRANCH  80  84
ATOM     84  S   UNL     1     -13.641  11.997  -3.787  1.00  0.00     0.124 S 
ATOM     85  O   UNL     1     -14.924  11.527  -4.298  1.00  0.00    -0.237 OA
ATOM     86  O   UNL     1     -13.065  11.227  -2.691  1.00  0.00    -0.237 OA
ATOM     87  O   UNL     1     -13.512  13.448  -3.663  1.00  0.00    -0.744 OA
ENDBRANCH  80  84
ENDBRANCH  53  77
BRANCH  65  88
ATOM     88  C   UNL     1     -17.047   5.981  -9.005  1.00  0.00     0.023 A 
ATOM     89  C   UNL     1     -17.668   6.982  -9.773  1.00  0.00     0.031 A 
ATOM     90  C   UNL     1     -17.869   5.157  -8.213  1.00  0.00     0.131 A 
ATOM     91  C   UNL     1     -19.057   7.170  -9.688  1.00  0.00     0.055 A 
ATOM     92  C   UNL     1     -19.257   5.303  -8.188  1.00  0.00     0.041 A 
ATOM     93  F   UNL     1     -17.336   4.186  -7.455  1.00  0.00    -0.206 F 
ATOM     94  C   UNL     1     -19.858   6.324  -8.917  1.00  0.00     0.022 A 
BRANCH  91  95
ATOM     95  S   UNL     1     -19.798   8.602 -10.521  1.00  0.00     0.124 S 
ATOM     96  O   UNL     1     -19.070   9.714  -9.918  1.00  0.00    -0.237 OA
ATOM     97  O   UNL     1     -19.502   8.335 -11.925  1.00  0.00    -0.237 OA
ATOM     98  O   UNL     1     -21.212   8.517 -10.160  1.00  0.00    -0.744 OA
ENDBRANCH  91  95
ENDBRANCH  65  88
ENDBRANCH  39  40
ENDBRANCH  32  34
ENDBRANCH  31  32
ENDBRANCH  30  31
ENDBRANCH  29  30
ENDBRANCH  28  29
ENDBRANCH  27  28
ENDBRANCH   1  27
TORSDOF 25
