REMARK SMILES CC(C)C[C@H](NC(=O)[C@H](Cc1ccccc1)NC(=O)CNC(=O)CNC(=O)OCc1ccccc1)C(=O)OCCOCCOCCOC(=O)c1ccc(-c2c3nc(c(-c4cc(S(=O)(=O)[O-])ccc4F)c4ccc([nH]4)c(-c4cc(S(=O)(=O)[O-])ccc4F)c4nc(c(-c5cc(S(=O)(=O)[O-])ccc5F)c5ccc2[nH]5)C=C4)C=C3)cc1
REMARK SMILES IDX 39 1 38 2 36 3 37 4 5 5 4 6 2 7 1 8 3 9 6 10 7 11 8 13 9 14
REMARK SMILES IDX 17 15 18 16 19 18 20 19 21 20 22 21 23 23 24 24 25 25 26 26
REMARK SMILES IDX 27 28 28 29 29 30 30 31 31 32 35 33 32 34 34 35 33 36 10 37
REMARK SMILES IDX 11 38 12 39 16 40 13 41 15 42 14 43 40 44 41 45 42 46 43 47
REMARK SMILES IDX 44 48 45 49 46 50 47 51 48 52 49 53 50 54 51 55 112 56 52 57
REMARK SMILES IDX 111 58 53 59 54 60 55 61 105 62 56 63 110 64 104 65 106 66
REMARK SMILES IDX 57 67 109 68 103 69 102 70 58 72 90 73 70 74 89 75 71 76
REMARK SMILES IDX 74 77 88 78 107 79 72 80 73 81 87 83 108 84 75 85 59 86
REMARK SMILES IDX 60 87 68 88 61 89 67 90 69 91 66 92 62 93 63 94 64 95 65 96
REMARK SMILES IDX 91 97 92 98 100 99 93 100 99 101 101 102 98 103 94 104
REMARK SMILES IDX 95 105 96 106 97 107 76 108 77 109 85 110 78 111 84 112
REMARK SMILES IDX 86 113 83 114 79 115 80 116 81 117 82 118
REMARK H PARENT 6 12 17 17 21 22 25 27 106 71 74 82
REMARK Flexibility Score: inf
ROOT
ATOM      1  C   UNL     1       0.003   8.445   1.834  1.00  0.00     0.261 C 
ENDROOT
BRANCH   1   2
ATOM      2  O   UNL     1      -0.684   7.200   1.608  1.00  0.00    -0.462 OA
BRANCH   2   3
ATOM      3  C   UNL     1      -0.382   6.225   2.519  1.00  0.00     0.328 C 
ATOM      4  O   UNL     1       0.220   6.459   3.566  1.00  0.00    -0.250 OA
BRANCH   3   5
ATOM      5  C   UNL     1      -0.495   4.779   1.975  1.00  0.00     0.192 C 
BRANCH   5   6
ATOM      6  C   UNL     1       0.629   4.743   0.970  1.00  0.00     0.040 C 
BRANCH   6   7
ATOM      7  C   UNL     1       0.213   5.311  -0.437  1.00  0.00    -0.015 C 
ATOM      8  C   UNL     1       1.026   6.594  -0.606  1.00  0.00     0.007 C 
ATOM      9  C   UNL     1       0.143   4.442  -1.722  1.00  0.00     0.007 C 
ENDBRANCH   6   7
ENDBRANCH   5   6
BRANCH   5  10
ATOM     10  N   UNL     1      -1.641   4.055   1.426  1.00  0.00    -0.341 N 
ATOM     11  C   UNL     1      -1.651   2.734   0.969  1.00  0.00     0.243 C 
ATOM     12  H   UNL     1      -2.492   4.547   1.374  1.00  0.00     0.164 HD
ATOM     13  O   UNL     1      -2.716   2.127   1.144  1.00  0.00    -0.273 OA
BRANCH  11  14
ATOM     14  C   UNL     1      -0.539   2.151  -0.086  1.00  0.00     0.175 C 
BRANCH  14  15
ATOM     15  N   UNL     1       1.045   2.033  -0.025  1.00  0.00    -0.342 N 
ATOM     16  C   UNL     1       2.281   2.592  -0.353  1.00  0.00     0.240 C 
ATOM     17  H   UNL     1       1.240   1.195   0.455  1.00  0.00     0.164 HD
ATOM     18  O   UNL     1       3.201   1.945   0.199  1.00  0.00    -0.273 OA
BRANCH  16  19
ATOM     19  C   UNL     1       2.832   4.036  -1.127  1.00  0.00     0.216 C 
BRANCH  19  20
ATOM     20  N   UNL     1       2.796   4.601  -2.606  1.00  0.00    -0.346 N 
ATOM     21  C   UNL     1       2.314   5.493  -3.554  1.00  0.00     0.239 C 
ATOM     22  H   UNL     1       3.434   4.037  -3.100  1.00  0.00     0.164 HD
ATOM     23  O   UNL     1       2.881   5.296  -4.653  1.00  0.00    -0.273 OA
BRANCH  21  24
ATOM     24  C   UNL     1       1.180   6.766  -3.595  1.00  0.00     0.219 C 
BRANCH  24  25
ATOM     25  N   UNL     1      -0.318   6.664  -3.529  1.00  0.00    -0.312 N 
ATOM     26  C   UNL     1      -1.279   7.408  -2.880  1.00  0.00     0.407 C 
ATOM     27  H   UNL     1      -0.686   5.917  -4.054  1.00  0.00     0.167 HD
ATOM     28  O   UNL     1      -2.295   6.821  -2.501  1.00  0.00    -0.225 OA
BRANCH  26  29
ATOM     29  O   UNL     1      -1.047   8.736  -2.692  1.00  0.00    -0.445 OA
BRANCH  29  30
ATOM     30  C   UNL     1      -1.622   9.354  -1.497  1.00  0.00     0.270 C 
BRANCH  30  31
ATOM     31  C   UNL     1      -2.895  10.221  -1.436  1.00  0.00    -0.011 A 
ATOM     32  C   UNL     1      -3.701  10.601  -2.501  1.00  0.00     0.007 A 
ATOM     33  C   UNL     1      -3.310  10.692  -0.163  1.00  0.00     0.007 A 
ATOM     34  C   UNL     1      -4.859  11.391  -2.279  1.00  0.00     0.000 A 
ATOM     35  C   UNL     1      -4.452  11.459   0.075  1.00  0.00     0.000 A 
ATOM     36  C   UNL     1      -5.237  11.814  -0.998  1.00  0.00     0.000 A 
ENDBRANCH  30  31
ENDBRANCH  29  30
ENDBRANCH  26  29
ENDBRANCH  24  25
ENDBRANCH  21  24
ENDBRANCH  19  20
ENDBRANCH  16  19
ENDBRANCH  14  15
BRANCH  14  37
ATOM     37  C   UNL     1      -1.111   0.973  -0.946  1.00  0.00     0.070 C 
BRANCH  37  38
ATOM     38  C   UNL     1      -1.710   1.411  -2.288  1.00  0.00    -0.045 A 
ATOM     39  C   UNL     1      -0.889   1.661  -3.402  1.00  0.00     0.004 A 
ATOM     40  C   UNL     1      -3.090   1.630  -2.427  1.00  0.00     0.004 A 
ATOM     41  C   UNL     1      -1.424   2.153  -4.600  1.00  0.00     0.000 A 
ATOM     42  C   UNL     1      -3.628   2.097  -3.635  1.00  0.00     0.000 A 
ATOM     43  C   UNL     1      -2.794   2.373  -4.716  1.00  0.00     0.000 A 
ENDBRANCH  37  38
ENDBRANCH  14  37
ENDBRANCH  11  14
ENDBRANCH   5  10
ENDBRANCH   3   5
ENDBRANCH   2   3
ENDBRANCH   1   2
BRANCH   1  44
ATOM     44  C   UNL     1      -0.850   9.662   2.152  1.00  0.00     0.202 C 
BRANCH  44  45
ATOM     45  O   UNL     1      -2.081   9.604   2.849  1.00  0.00    -0.376 OA
BRANCH  45  46
ATOM     46  C   UNL     1      -2.811   8.397   2.979  1.00  0.00     0.188 C 
BRANCH  46  47
ATOM     47  C   UNL     1      -3.877   8.059   1.917  1.00  0.00     0.188 C 
BRANCH  47  48
ATOM     48  O   UNL     1      -3.465   7.896   0.569  1.00  0.00    -0.376 OA
BRANCH  48  49
ATOM     49  C   UNL     1      -4.465   7.337  -0.320  1.00  0.00     0.202 C 
BRANCH  49  50
ATOM     50  C   UNL     1      -5.833   8.037  -0.476  1.00  0.00     0.261 C 
BRANCH  50  51
ATOM     51  O   UNL     1      -6.583   8.076   0.733  1.00  0.00    -0.460 OA
BRANCH  51  52
ATOM     52  C   UNL     1      -6.904   6.870   1.230  1.00  0.00     0.338 C 
ATOM     53  O   UNL     1      -6.953   5.804   0.605  1.00  0.00    -0.246 OA
BRANCH  52  54
ATOM     54  C   UNL     1      -6.830   6.987   2.692  1.00  0.00     0.060 A 
ATOM     55  C   UNL     1      -6.357   5.878   3.402  1.00  0.00     0.016 A 
ATOM     56  C   UNL     1      -7.040   8.218   3.338  1.00  0.00     0.016 A 
ATOM     57  C   UNL     1      -6.198   5.970   4.773  1.00  0.00     0.010 A 
ATOM     58  C   UNL     1      -6.849   8.320   4.710  1.00  0.00     0.010 A 
ATOM     59  C   UNL     1      -6.516   7.167   5.431  1.00  0.00    -0.014 A 
BRANCH  59  60
ATOM     60  C   UNL     1      -6.810   7.074   6.872  1.00  0.00     0.031 A 
ATOM     61  C   UNL     1      -8.257   6.940   7.264  1.00  0.00     0.074 A 
ATOM     62  C   UNL     1      -5.809   6.924   7.753  1.00  0.00     0.049 A 
ATOM     63  N   UNL     1      -8.776   6.631   8.420  1.00  0.00    -0.248 NA
ATOM     64  C   UNL     1      -9.257   7.174   6.205  1.00  0.00     0.031 C 
ATOM     65  C   UNL     1      -4.383   7.013   7.436  1.00  0.00     0.029 A 
ATOM     66  N   UNL     1      -5.843   6.617   9.085  1.00  0.00    -0.354 N 
ATOM     67  C   UNL     1     -10.152   6.604   8.216  1.00  0.00     0.074 A 
ATOM     68  C   UNL     1     -10.395   7.004   6.853  1.00  0.00     0.031 C 
ATOM     69  C   UNL     1      -3.675   6.730   8.542  1.00  0.00     0.029 A 
ATOM     70  C   UNL     1      -4.596   6.464   9.643  1.00  0.00     0.049 A 
ATOM     71  H   UNL     1      -6.679   6.515   9.595  1.00  0.00     0.167 HD
ATOM     72  C   UNL     1     -11.124   6.241   9.084  1.00  0.00     0.034 A 
ATOM     73  C   UNL     1      -4.254   6.140  10.905  1.00  0.00     0.034 A 
ATOM     74  C   UNL     1     -10.850   5.861  10.444  1.00  0.00     0.049 A 
ATOM     75  C   UNL     1      -5.365   5.814  11.876  1.00  0.00     0.074 A 
ATOM     76  C   UNL     1     -11.742   5.507  11.437  1.00  0.00     0.029 A 
ATOM     77  N   UNL     1      -9.579   5.795  11.002  1.00  0.00    -0.354 N 
ATOM     78  N   UNL     1      -6.664   5.779  11.668  1.00  0.00    -0.248 NA
ATOM     79  C   UNL     1      -4.963   5.458  13.240  1.00  0.00     0.031 C 
ATOM     80  C   UNL     1     -11.016   5.295  12.614  1.00  0.00     0.029 A 
ATOM     81  C   UNL     1      -9.664   5.432  12.335  1.00  0.00     0.049 A 
ATOM     82  H   UNL     1      -8.740   5.978  10.520  1.00  0.00     0.167 HD
ATOM     83  C   UNL     1      -7.231   5.380  12.876  1.00  0.00     0.074 A 
ATOM     84  C   UNL     1      -6.127   5.144  13.786  1.00  0.00     0.031 C 
ATOM     85  C   UNL     1      -8.539   5.229  13.216  1.00  0.00     0.034 A 
BRANCH  72  86
ATOM     86  C   UNL     1     -12.548   6.289   8.589  1.00  0.00     0.023 A 
ATOM     87  C   UNL     1     -13.001   5.454   7.550  1.00  0.00     0.031 A 
ATOM     88  C   UNL     1     -13.456   7.211   9.135  1.00  0.00     0.131 A 
ATOM     89  C   UNL     1     -14.306   5.599   7.053  1.00  0.00     0.055 A 
ATOM     90  C   UNL     1     -14.776   7.297   8.690  1.00  0.00     0.041 A 
ATOM     91  F   UNL     1     -13.069   8.059  10.101  1.00  0.00    -0.206 F 
ATOM     92  C   UNL     1     -15.205   6.496   7.636  1.00  0.00     0.022 A 
BRANCH  89  93
ATOM     93  S   UNL     1     -14.773   4.695   5.551  1.00  0.00     0.124 S 
ATOM     94  O   UNL     1     -13.823   5.229   4.579  1.00  0.00    -0.237 OA
ATOM     95  O   UNL     1     -14.574   3.305   5.944  1.00  0.00    -0.237 OA
ATOM     96  O   UNL     1     -16.164   5.088   5.334  1.00  0.00    -0.744 OA
ENDBRANCH  89  93
ENDBRANCH  72  86
BRANCH  73  97
ATOM     97  C   UNL     1      -2.824   6.137  11.330  1.00  0.00     0.023 A 
ATOM     98  C   UNL     1      -2.207   4.988  11.847  1.00  0.00     0.031 A 
ATOM     99  C   UNL     1      -2.068   7.324  11.287  1.00  0.00     0.131 A 
ATOM    100  C   UNL     1      -0.901   5.064  12.358  1.00  0.00     0.055 A 
ATOM    101  C   UNL     1      -0.747   7.379  11.734  1.00  0.00     0.041 A 
ATOM    102  F   UNL     1      -2.606   8.456  10.805  1.00  0.00    -0.206 F 
ATOM    103  C   UNL     1      -0.163   6.247  12.292  1.00  0.00     0.022 A 
BRANCH 100 104
ATOM    104  S   UNL     1      -0.221   3.623  13.226  1.00  0.00     0.124 S 
ATOM    105  O   UNL     1      -1.241   3.376  14.239  1.00  0.00    -0.237 OA
ATOM    106  O   UNL     1      -0.131   2.639  12.152  1.00  0.00    -0.237 OA
ATOM    107  O   UNL     1       1.061   4.107  13.736  1.00  0.00    -0.744 OA
ENDBRANCH 100 104
ENDBRANCH  73  97
BRANCH  85 108
ATOM    108  C   UNL     1      -8.819   4.773  14.627  1.00  0.00     0.023 A 
ATOM    109  C   UNL     1      -8.463   5.563  15.733  1.00  0.00     0.031 A 
ATOM    110  C   UNL     1      -9.411   3.522  14.868  1.00  0.00     0.131 A 
ATOM    111  C   UNL     1      -8.613   5.053  17.029  1.00  0.00     0.055 A 
ATOM    112  C   UNL     1      -9.637   3.056  16.163  1.00  0.00     0.041 A 
ATOM    113  F   UNL     1      -9.775   2.727  13.849  1.00  0.00    -0.206 F 
ATOM    114  C   UNL     1      -9.216   3.813  17.253  1.00  0.00     0.022 A 
BRANCH 111 115
ATOM    115  S   UNL     1      -7.873   5.971  18.407  1.00  0.00     0.124 S 
ATOM    116  O   UNL     1      -6.479   6.071  17.987  1.00  0.00    -0.237 OA
ATOM    117  O   UNL     1      -8.633   7.216  18.395  1.00  0.00    -0.237 OA
ATOM    118  O   UNL     1      -8.114   5.107  19.561  1.00  0.00    -0.744 OA
ENDBRANCH 111 115
ENDBRANCH  85 108
ENDBRANCH  59  60
ENDBRANCH  52  54
ENDBRANCH  51  52
ENDBRANCH  50  51
ENDBRANCH  49  50
ENDBRANCH  48  49
ENDBRANCH  47  48
ENDBRANCH  46  47
ENDBRANCH  45  46
ENDBRANCH  44  45
ENDBRANCH   1  44
TORSDOF 34
