REMARK SMILES C[N@@H+]1CC2(CC[NH+](C(=O)c3cc(-c4ccncc4)n[nH]3)CC2)C[C@H]1C(=O)OCCOCCOCCOC(=O)c1ccc(-c2c3nc(c(-c4cc(S(=O)(=O)[O-])ccc4F)c4ccc([nH]4)c(-c4cc(S(=O)(=O)[O-])ccc4F)c4nc(c(-c5cc(S(=O)(=O)[O-])ccc5F)c5ccc2[nH]5)C=C4)C=C3)cc1
REMARK SMILES IDX 31 1 30 2 29 3 28 4 27 5 25 6 26 7 24 8 1 9 2 10 3 11 4 13
REMARK SMILES IDX 23 14 5 15 22 16 6 17 21 18 7 19 8 21 9 22 10 23 11 24 20 25
REMARK SMILES IDX 12 26 19 27 13 29 14 30 18 31 15 32 17 33 16 34 32 35 33 36
REMARK SMILES IDX 34 37 35 38 36 39 37 40 38 41 39 42 40 43 101 44 41 45
REMARK SMILES IDX 100 46 42 47 43 48 44 49 94 50 45 51 99 52 93 53 95 54 46 55
REMARK SMILES IDX 98 56 92 57 91 58 47 60 79 61 59 62 78 63 60 64 63 65 77 66
REMARK SMILES IDX 96 67 61 68 62 69 76 71 97 72 64 73 48 74 49 75 57 76 50 77
REMARK SMILES IDX 56 78 58 79 55 80 51 81 52 82 53 83 54 84 80 85 81 86 89 87
REMARK SMILES IDX 82 88 88 89 90 90 87 91 83 92 84 93 85 94 86 95 65 96 66 97
REMARK SMILES IDX 74 98 67 99 73 100 75 101 72 102 68 103 69 104 70 105 71 106
REMARK H PARENT 2 12 7 20 20 28 95 59 63 70
REMARK Flexibility Score: inf
ROOT
ATOM      1  C   UNL     1       2.473  -4.362  -1.577  1.00  0.00     0.188 C 
ENDROOT
BRANCH   1   2
ATOM      2  O   UNL     1       2.092  -5.723  -1.782  1.00  0.00    -0.376 OA
BRANCH   2   3
ATOM      3  C   UNL     1       0.774  -6.013  -2.218  1.00  0.00     0.202 C 
BRANCH   3   4
ATOM      4  C   UNL     1      -0.370  -5.620  -1.282  1.00  0.00     0.261 C 
BRANCH   4   5
ATOM      5  O   UNL     1      -0.296  -4.262  -0.817  1.00  0.00    -0.459 OA
BRANCH   5   6
ATOM      6  C   UNL     1      -0.284  -4.089   0.531  1.00  0.00     0.365 C 
ATOM      7  O   UNL     1      -0.462  -5.000   1.336  1.00  0.00    -0.245 OA
BRANCH   6   8
ATOM      8  C   UNL     1      -0.081  -2.637   1.000  1.00  0.00     0.295 C 
ATOM      9  C   UNL     1       0.982  -0.504   0.468  1.00  0.00     0.333 C 
ATOM     10  N   UNL     1       0.211  -1.634  -0.059  1.00  0.00    -0.325 N 
ATOM     11  C   UNL     1      -1.088  -1.187  -0.576  1.00  0.00     0.270 C 
ATOM     12  H   UNL     1       0.780  -2.047  -0.797  1.00  0.00     0.348 HD
ATOM     13  C   UNL     1      -2.133  -1.402   0.538  1.00  0.00     0.036 C 
ATOM     14  C   UNL     1      -1.364  -2.142   1.651  1.00  0.00     0.091 C 
ATOM     15  C   UNL     1      -3.304  -2.263   0.003  1.00  0.00     0.075 C 
ATOM     16  C   UNL     1      -2.683  -0.067   1.099  1.00  0.00     0.075 C 
ATOM     17  C   UNL     1      -4.163  -1.471  -0.978  1.00  0.00     0.271 C 
ATOM     18  C   UNL     1      -3.631   0.650   0.137  1.00  0.00     0.271 C 
ATOM     19  N   UNL     1      -4.667  -0.266  -0.324  1.00  0.00    -0.266 N 
ATOM     20  H   UNL     1      -5.396   0.395  -0.356  1.00  0.00     0.357 HD
BRANCH  19  21
ATOM     21  C   UNL     1      -6.006   0.086  -0.187  1.00  0.00     0.362 C 
ATOM     22  O   UNL     1      -6.352   1.225   0.118  1.00  0.00    -0.224 OA
BRANCH  21  23
ATOM     23  C   UNL     1      -6.997  -0.920  -0.457  1.00  0.00     0.163 A 
ATOM     24  C   UNL     1      -7.137  -2.233  -0.054  1.00  0.00     0.068 A 
ATOM     25  N   UNL     1      -8.115  -0.660  -1.195  1.00  0.00    -0.269 N 
ATOM     26  C   UNL     1      -8.293  -2.715  -0.717  1.00  0.00     0.093 A 
ATOM     27  N   UNL     1      -8.866  -1.746  -1.446  1.00  0.00    -0.175 NA
ATOM     28  H   UNL     1      -8.350   0.241  -1.514  1.00  0.00     0.190 HD
BRANCH  26  29
ATOM     29  C   UNL     1      -8.831  -4.066  -0.690  1.00  0.00     0.005 A 
ATOM     30  C   UNL     1      -9.108  -4.697   0.522  1.00  0.00     0.030 A 
ATOM     31  C   UNL     1      -9.068  -4.746  -1.884  1.00  0.00     0.030 A 
ATOM     32  C   UNL     1      -9.618  -5.983   0.485  1.00  0.00     0.111 A 
ATOM     33  C   UNL     1      -9.568  -6.034  -1.815  1.00  0.00     0.111 A 
ATOM     34  N   UNL     1      -9.850  -6.668  -0.656  1.00  0.00    -0.265 NA
ENDBRANCH  26  29
ENDBRANCH  21  23
ENDBRANCH  19  21
ENDBRANCH   6   8
ENDBRANCH   5   6
ENDBRANCH   4   5
ENDBRANCH   3   4
ENDBRANCH   2   3
ENDBRANCH   1   2
BRANCH   1  35
ATOM     35  C   UNL     1       1.905  -3.264  -2.498  1.00  0.00     0.188 C 
BRANCH  35  36
ATOM     36  O   UNL     1       1.465  -3.752  -3.756  1.00  0.00    -0.376 OA
BRANCH  36  37
ATOM     37  C   UNL     1       2.081  -3.169  -4.889  1.00  0.00     0.202 C 
BRANCH  37  38
ATOM     38  C   UNL     1       3.478  -3.735  -5.161  1.00  0.00     0.261 C 
BRANCH  38  39
ATOM     39  O   UNL     1       4.405  -3.629  -4.067  1.00  0.00    -0.460 OA
BRANCH  39  40
ATOM     40  C   UNL     1       4.840  -2.390  -3.749  1.00  0.00     0.338 C 
ATOM     41  O   UNL     1       4.524  -1.345  -4.306  1.00  0.00    -0.246 OA
BRANCH  40  42
ATOM     42  C   UNL     1       5.620  -2.477  -2.496  1.00  0.00     0.060 A 
ATOM     43  C   UNL     1       5.246  -1.689  -1.400  1.00  0.00     0.016 A 
ATOM     44  C   UNL     1       6.719  -3.336  -2.400  1.00  0.00     0.016 A 
ATOM     45  C   UNL     1       5.990  -1.734  -0.215  1.00  0.00     0.010 A 
ATOM     46  C   UNL     1       7.471  -3.367  -1.221  1.00  0.00     0.010 A 
ATOM     47  C   UNL     1       7.130  -2.546  -0.131  1.00  0.00    -0.014 A 
BRANCH  47  48
ATOM     48  C   UNL     1       8.076  -2.406   1.009  1.00  0.00     0.031 A 
ATOM     49  C   UNL     1       9.283  -1.523   0.827  1.00  0.00     0.074 A 
ATOM     50  C   UNL     1       7.890  -3.060   2.172  1.00  0.00     0.049 A 
ATOM     51  N   UNL     1      10.297  -1.322   1.627  1.00  0.00    -0.248 NA
ATOM     52  C   UNL     1       9.354  -0.770  -0.436  1.00  0.00     0.031 C 
ATOM     53  C   UNL     1       6.748  -3.916   2.488  1.00  0.00     0.029 A 
ATOM     54  N   UNL     1       8.677  -3.121   3.298  1.00  0.00    -0.354 N 
ATOM     55  C   UNL     1      11.137  -0.437   0.959  1.00  0.00     0.074 A 
ATOM     56  C   UNL     1      10.519  -0.152  -0.318  1.00  0.00     0.031 C 
ATOM     57  C   UNL     1       6.923  -4.440   3.715  1.00  0.00     0.029 A 
ATOM     58  C   UNL     1       8.206  -3.990   4.257  1.00  0.00     0.049 A 
ATOM     59  H   UNL     1       9.500  -2.592   3.409  1.00  0.00     0.167 HD
ATOM     60  C   UNL     1      12.316   0.089   1.372  1.00  0.00     0.034 A 
ATOM     61  C   UNL     1       8.763  -4.404   5.415  1.00  0.00     0.034 A 
ATOM     62  C   UNL     1      12.926  -0.202   2.645  1.00  0.00     0.049 A 
ATOM     63  C   UNL     1      10.113  -3.852   5.824  1.00  0.00     0.074 A 
ATOM     64  C   UNL     1      14.098   0.311   3.173  1.00  0.00     0.029 A 
ATOM     65  N   UNL     1      12.427  -1.096   3.582  1.00  0.00    -0.354 N 
ATOM     66  N   UNL     1      10.879  -2.988   5.198  1.00  0.00    -0.248 NA
ATOM     67  C   UNL     1      10.669  -4.327   7.100  1.00  0.00     0.031 C 
ATOM     68  C   UNL     1      14.346  -0.327   4.392  1.00  0.00     0.029 A 
ATOM     69  C   UNL     1      13.287  -1.177   4.666  1.00  0.00     0.049 A 
ATOM     70  H   UNL     1      11.586  -1.599   3.490  1.00  0.00     0.167 HD
ATOM     71  C   UNL     1      11.987  -2.793   6.022  1.00  0.00     0.074 A 
ATOM     72  C   UNL     1      11.783  -3.616   7.194  1.00  0.00     0.031 C 
ATOM     73  C   UNL     1      13.073  -2.002   5.831  1.00  0.00     0.034 A 
BRANCH  60  74
ATOM     74  C   UNL     1      13.055   0.986   0.411  1.00  0.00     0.023 A 
ATOM     75  C   UNL     1      12.557   2.245   0.035  1.00  0.00     0.031 A 
ATOM     76  C   UNL     1      14.282   0.569  -0.135  1.00  0.00     0.131 A 
ATOM     77  C   UNL     1      13.260   3.022  -0.899  1.00  0.00     0.055 A 
ATOM     78  C   UNL     1      15.010   1.375  -1.010  1.00  0.00     0.041 A 
ATOM     79  F   UNL     1      14.791  -0.635   0.172  1.00  0.00    -0.206 F 
ATOM     80  C   UNL     1      14.495   2.606  -1.405  1.00  0.00     0.022 A 
BRANCH  77  81
ATOM     81  S   UNL     1      12.488   4.538  -1.527  1.00  0.00     0.124 S 
ATOM     82  O   UNL     1      11.271   4.015  -2.145  1.00  0.00    -0.237 OA
ATOM     83  O   UNL     1      12.300   5.323  -0.313  1.00  0.00    -0.237 OA
ATOM     84  O   UNL     1      13.477   5.065  -2.464  1.00  0.00    -0.744 OA
ENDBRANCH  77  81
ENDBRANCH  60  74
BRANCH  61  85
ATOM     85  C   UNL     1       8.098  -5.445   6.257  1.00  0.00     0.023 A 
ATOM     86  C   UNL     1       7.707  -5.177   7.579  1.00  0.00     0.031 A 
ATOM     87  C   UNL     1       7.934  -6.758   5.778  1.00  0.00     0.131 A 
ATOM     88  C   UNL     1       7.231  -6.217   8.394  1.00  0.00     0.055 A 
ATOM     89  C   UNL     1       7.403  -7.775   6.574  1.00  0.00     0.041 A 
ATOM     90  F   UNL     1       8.299  -7.075   4.525  1.00  0.00    -0.206 F 
ATOM     91  C   UNL     1       7.065  -7.511   7.897  1.00  0.00     0.022 A 
BRANCH  88  92
ATOM     92  S   UNL     1       6.947  -5.881  10.155  1.00  0.00     0.124 S 
ATOM     93  O   UNL     1       8.250  -5.378  10.575  1.00  0.00    -0.237 OA
ATOM     94  O   UNL     1       5.867  -4.901  10.105  1.00  0.00    -0.237 OA
ATOM     95  O   UNL     1       6.577  -7.187  10.696  1.00  0.00    -0.744 OA
ENDBRANCH  88  92
ENDBRANCH  61  85
BRANCH  73  96
ATOM     96  C   UNL     1      14.095  -1.942   6.942  1.00  0.00     0.023 A 
ATOM     97  C   UNL     1      14.886  -3.052   7.288  1.00  0.00     0.031 A 
ATOM     98  C   UNL     1      14.278  -0.750   7.666  1.00  0.00     0.131 A 
ATOM     99  C   UNL     1      15.787  -2.962   8.361  1.00  0.00     0.055 A 
ATOM    100  C   UNL     1      15.218  -0.648   8.693  1.00  0.00     0.041 A 
ATOM    101  F   UNL     1      13.550   0.342   7.380  1.00  0.00    -0.206 F 
ATOM    102  C   UNL     1      15.969  -1.762   9.054  1.00  0.00     0.022 A 
BRANCH  99 103
ATOM    103  S   UNL     1      16.658  -4.459   8.899  1.00  0.00     0.124 S 
ATOM    104  O   UNL     1      15.553  -5.356   9.220  1.00  0.00    -0.237 OA
ATOM    105  O   UNL     1      17.439  -4.807   7.716  1.00  0.00    -0.237 OA
ATOM    106  O   UNL     1      17.443  -4.006  10.047  1.00  0.00    -0.744 OA
ENDBRANCH  99 103
ENDBRANCH  73  96
ENDBRANCH  47  48
ENDBRANCH  40  42
ENDBRANCH  39  40
ENDBRANCH  38  39
ENDBRANCH  37  38
ENDBRANCH  36  37
ENDBRANCH  35  36
ENDBRANCH   1  35
TORSDOF 23
