REMARK SMILES CC1(C)Oc2ccc(NC(=O)[C@H]3CC=CC[C@@H]3C(=O)OCCOCCOCCOC(=O)c3ccc(-c4c5nc(c(-c6cc(S(=O)(=O)[O-])ccc6F)c6ccc([nH]6)c(-c6cc(S(=O)(=O)[O-])ccc6F)c6nc(c(-c7cc(S(=O)(=O)[O-])ccc7F)c7ccc4[nH]7)C=C6)C=C5)cc3)cc2NC1=O
REMARK SMILES IDX 25 1 24 2 23 3 22 4 21 5 20 6 18 7 19 8 17 9 12 10 13 11
REMARK SMILES IDX 14 12 16 13 15 14 10 15 9 16 11 18 8 19 1 20 2 21 3 22 4 23
REMARK SMILES IDX 98 24 5 25 97 26 99 27 6 28 96 29 7 31 95 32 26 33 27 34
REMARK SMILES IDX 28 35 29 36 30 37 31 38 32 39 33 40 94 41 34 42 93 43 35 44
REMARK SMILES IDX 36 45 37 46 87 47 38 48 92 49 86 50 88 51 39 52 91 53 85 54
REMARK SMILES IDX 84 55 40 57 72 58 52 59 71 60 53 61 56 62 70 63 89 64 54 65
REMARK SMILES IDX 55 66 69 68 90 69 57 70 41 71 42 72 50 73 43 74 49 75 51 76
REMARK SMILES IDX 48 77 44 78 45 79 46 80 47 81 73 82 74 83 82 84 75 85 81 86
REMARK SMILES IDX 83 87 80 88 76 89 77 90 78 91 79 92 58 93 59 94 67 95 60 96
REMARK SMILES IDX 66 97 68 98 65 99 61 100 62 101 63 102 64 103
REMARK H PARENT 9 17 97 30 88 56 56 67
REMARK Flexibility Score: inf
ROOT
ATOM      1  C   UNL     1      -7.915   4.642  -5.759  1.00  0.00     0.188 C 
ENDROOT
BRANCH   1   2
ATOM      2  C   UNL     1      -8.596   5.145  -7.027  1.00  0.00     0.188 C 
BRANCH   2   3
ATOM      3  O   UNL     1      -9.453   4.258  -7.742  1.00  0.00    -0.376 OA
BRANCH   3   4
ATOM      4  C   UNL     1      -9.347   2.855  -7.545  1.00  0.00     0.202 C 
BRANCH   4   5
ATOM      5  C   UNL     1      -8.096   2.153  -8.098  1.00  0.00     0.261 C 
BRANCH   5   6
ATOM      6  O   UNL     1      -6.814   2.590  -7.571  1.00  0.00    -0.463 OA
BRANCH   6   7
ATOM      7  C   UNL     1      -5.952   3.091  -8.490  1.00  0.00     0.310 C 
ATOM      8  O   UNL     1      -6.213   3.150  -9.690  1.00  0.00    -0.252 OA
BRANCH   7   9
ATOM      9  C   UNL     1      -4.628   3.653  -7.971  1.00  0.00     0.116 C 
ATOM     10  C   UNL     1      -3.939   3.179  -6.652  1.00  0.00     0.097 C 
ATOM     11  C   UNL     1      -4.469   3.936  -5.424  1.00  0.00     0.041 C 
ATOM     12  C   UNL     1      -4.366   5.411  -5.634  1.00  0.00    -0.030 C 
ATOM     13  C   UNL     1      -4.632   5.191  -8.121  1.00  0.00     0.043 C 
ATOM     14  C   UNL     1      -4.403   5.962  -6.854  1.00  0.00    -0.030 C 
BRANCH  10  15
ATOM     15  C   UNL     1      -2.413   3.473  -6.812  1.00  0.00     0.228 C 
ATOM     16  N   UNL     1      -1.615   3.693  -5.724  1.00  0.00    -0.326 N 
ATOM     17  H   UNL     1      -0.974   4.434  -5.824  1.00  0.00     0.169 HD
ATOM     18  O   UNL     1      -1.888   3.616  -7.920  1.00  0.00    -0.274 OA
BRANCH  16  19
ATOM     19  C   UNL     1      -1.562   3.035  -4.489  1.00  0.00     0.043 A 
ATOM     20  C   UNL     1       1.054   0.103   0.374  1.00  0.00     0.067 C 
ATOM     21  C   UNL     1       0.756   1.011  -0.817  1.00  0.00     0.182 C 
ATOM     22  C   UNL     1       1.738   0.650  -1.957  1.00  0.00     0.067 C 
ATOM     23  O   UNL     1      -0.595   0.721  -1.217  1.00  0.00    -0.476 OA
ATOM     24  C   UNL     1       0.935   2.503  -0.445  1.00  0.00     0.268 C 
ATOM     25  C   UNL     1      -1.008   1.566  -2.215  1.00  0.00     0.144 A 
ATOM     26  N   UNL     1       0.338   3.367  -1.339  1.00  0.00    -0.319 N 
ATOM     27  O   UNL     1       1.633   2.908   0.480  1.00  0.00    -0.270 OA
ATOM     28  C   UNL     1      -1.868   1.035  -3.163  1.00  0.00     0.051 A 
ATOM     29  C   UNL     1      -0.520   2.874  -2.330  1.00  0.00     0.086 A 
ATOM     30  H   UNL     1       0.515   4.334  -1.281  1.00  0.00     0.170 HD
ATOM     31  C   UNL     1      -2.122   1.763  -4.318  1.00  0.00     0.030 A 
ATOM     32  C   UNL     1      -0.812   3.624  -3.462  1.00  0.00     0.056 A 
ENDBRANCH  16  19
ENDBRANCH  10  15
ENDBRANCH   7   9
ENDBRANCH   6   7
ENDBRANCH   5   6
ENDBRANCH   4   5
ENDBRANCH   3   4
ENDBRANCH   2   3
ENDBRANCH   1   2
BRANCH   1  33
ATOM     33  O   UNL     1      -8.752   3.802  -4.984  1.00  0.00    -0.376 OA
BRANCH  33  34
ATOM     34  C   UNL     1      -8.714   4.008  -3.585  1.00  0.00     0.202 C 
BRANCH  34  35
ATOM     35  C   UNL     1      -9.570   5.208  -3.167  1.00  0.00     0.261 C 
BRANCH  35  36
ATOM     36  O   UNL     1      -9.250   6.447  -3.830  1.00  0.00    -0.460 OA
BRANCH  36  37
ATOM     37  C   UNL     1      -8.120   7.073  -3.435  1.00  0.00     0.338 C 
ATOM     38  O   UNL     1      -7.346   6.686  -2.563  1.00  0.00    -0.246 OA
BRANCH  37  39
ATOM     39  C   UNL     1      -7.832   8.162  -4.393  1.00  0.00     0.060 A 
ATOM     40  C   UNL     1      -8.684   9.248  -4.569  1.00  0.00     0.016 A 
ATOM     41  C   UNL     1      -6.662   8.077  -5.149  1.00  0.00     0.016 A 
ATOM     42  C   UNL     1      -8.351  10.238  -5.507  1.00  0.00     0.010 A 
ATOM     43  C   UNL     1      -6.334   9.051  -6.092  1.00  0.00     0.010 A 
ATOM     44  C   UNL     1      -7.172  10.150  -6.278  1.00  0.00    -0.014 A 
BRANCH  44  45
ATOM     45  C   UNL     1      -6.718  11.287  -7.124  1.00  0.00     0.031 A 
ATOM     46  C   UNL     1      -6.658  11.214  -8.624  1.00  0.00     0.074 A 
ATOM     47  C   UNL     1      -6.271  12.390  -6.494  1.00  0.00     0.049 A 
ATOM     48  N   UNL     1      -6.420  12.179  -9.477  1.00  0.00    -0.248 NA
ATOM     49  C   UNL     1      -6.855   9.899  -9.251  1.00  0.00     0.031 C 
ATOM     50  C   UNL     1      -6.121  12.511  -5.044  1.00  0.00     0.029 A 
ATOM     51  N   UNL     1      -5.860  13.608  -6.975  1.00  0.00    -0.354 N 
ATOM     52  C   UNL     1      -6.476  11.601 -10.741  1.00  0.00     0.074 A 
ATOM     53  C   UNL     1      -6.689  10.184 -10.539  1.00  0.00     0.031 C 
ATOM     54  C   UNL     1      -5.699  13.747  -4.749  1.00  0.00     0.029 A 
ATOM     55  C   UNL     1      -5.533  14.506  -5.986  1.00  0.00     0.049 A 
ATOM     56  H   UNL     1      -5.805  13.818  -7.936  1.00  0.00     0.167 HD
ATOM     57  C   UNL     1      -6.397  12.211 -11.950  1.00  0.00     0.034 A 
ATOM     58  C   UNL     1      -5.167  15.803  -6.057  1.00  0.00     0.034 A 
ATOM     59  C   UNL     1      -6.174  13.628 -12.118  1.00  0.00     0.049 A 
ATOM     60  C   UNL     1      -5.156  16.479  -7.403  1.00  0.00     0.074 A 
ATOM     61  C   UNL     1      -6.170  14.360 -13.293  1.00  0.00     0.029 A 
ATOM     62  N   UNL     1      -5.909  14.526 -11.093  1.00  0.00    -0.354 N 
ATOM     63  N   UNL     1      -5.403  15.961  -8.584  1.00  0.00    -0.248 NA
ATOM     64  C   UNL     1      -4.853  17.916  -7.433  1.00  0.00     0.031 C 
ATOM     65  C   UNL     1      -5.834  15.679 -12.989  1.00  0.00     0.029 A 
ATOM     66  C   UNL     1      -5.715  15.796 -11.613  1.00  0.00     0.049 A 
ATOM     67  H   UNL     1      -5.866  14.295 -10.137  1.00  0.00     0.167 HD
ATOM     68  C   UNL     1      -5.304  17.011  -9.492  1.00  0.00     0.074 A 
ATOM     69  C   UNL     1      -5.011  18.200  -8.720  1.00  0.00     0.031 C 
ATOM     70  C   UNL     1      -5.436  16.986 -10.842  1.00  0.00     0.034 A 
BRANCH  57  71
ATOM     71  C   UNL     1      -6.630  11.399 -13.207  1.00  0.00     0.023 A 
ATOM     72  C   UNL     1      -5.660  11.359 -14.228  1.00  0.00     0.031 A 
ATOM     73  C   UNL     1      -7.896  10.846 -13.477  1.00  0.00     0.131 A 
ATOM     74  C   UNL     1      -5.990  10.829 -15.485  1.00  0.00     0.055 A 
ATOM     75  C   UNL     1      -8.202  10.275 -14.713  1.00  0.00     0.041 A 
ATOM     76  F   UNL     1      -8.864  10.873 -12.547  1.00  0.00    -0.206 F 
ATOM     77  C   UNL     1      -7.253  10.281 -15.730  1.00  0.00     0.022 A 
BRANCH  74  78
ATOM     78  S   UNL     1      -4.832  10.917 -16.880  1.00  0.00     0.124 S 
ATOM     79  O   UNL     1      -4.716   9.511 -17.265  1.00  0.00    -0.237 OA
ATOM     80  O   UNL     1      -5.556  11.762 -17.825  1.00  0.00    -0.237 OA
ATOM     81  O   UNL     1      -3.628  11.502 -16.301  1.00  0.00    -0.744 OA
ENDBRANCH  74  78
ENDBRANCH  57  71
BRANCH  58  82
ATOM     82  C   UNL     1      -4.896  16.540  -4.789  1.00  0.00     0.023 A 
ATOM     83  C   UNL     1      -3.856  16.133  -3.933  1.00  0.00     0.031 A 
ATOM     84  C   UNL     1      -5.754  17.560  -4.346  1.00  0.00     0.131 A 
ATOM     85  C   UNL     1      -3.750  16.687  -2.651  1.00  0.00     0.055 A 
ATOM     86  C   UNL     1      -5.594  18.168  -3.099  1.00  0.00     0.041 A 
ATOM     87  F   UNL     1      -6.777  17.966  -5.114  1.00  0.00    -0.206 F 
ATOM     88  C   UNL     1      -4.600  17.716  -2.236  1.00  0.00     0.022 A 
BRANCH  85  89
ATOM     89  S   UNL     1      -2.619  15.973  -1.425  1.00  0.00     0.124 S 
ATOM     90  O   UNL     1      -1.722  17.090  -1.151  1.00  0.00    -0.237 OA
ATOM     91  O   UNL     1      -3.536  15.618  -0.344  1.00  0.00    -0.237 OA
ATOM     92  O   UNL     1      -2.023  14.839  -2.125  1.00  0.00    -0.744 OA
ENDBRANCH  85  89
ENDBRANCH  58  82
BRANCH  70  93
ATOM     93  C   UNL     1      -5.266  18.274 -11.615  1.00  0.00     0.023 A 
ATOM     94  C   UNL     1      -6.325  18.766 -12.404  1.00  0.00     0.031 A 
ATOM     95  C   UNL     1      -4.019  18.915 -11.706  1.00  0.00     0.131 A 
ATOM     96  C   UNL     1      -6.102  19.831 -13.286  1.00  0.00     0.055 A 
ATOM     97  C   UNL     1      -3.817  20.012 -12.544  1.00  0.00     0.041 A 
ATOM     98  F   UNL     1      -2.973  18.477 -10.986  1.00  0.00    -0.206 F 
ATOM     99  C   UNL     1      -4.857  20.464 -13.352  1.00  0.00     0.022 A 
BRANCH  96 100
ATOM    100  S   UNL     1      -7.386  20.369 -14.450  1.00  0.00     0.124 S 
ATOM    101  O   UNL     1      -7.574  21.767 -14.068  1.00  0.00    -0.237 OA
ATOM    102  O   UNL     1      -6.736  20.158 -15.741  1.00  0.00    -0.237 OA
ATOM    103  O   UNL     1      -8.514  19.489 -14.163  1.00  0.00    -0.744 OA
ENDBRANCH  96 100
ENDBRANCH  70  93
ENDBRANCH  44  45
ENDBRANCH  37  39
ENDBRANCH  36  37
ENDBRANCH  35  36
ENDBRANCH  34  35
ENDBRANCH  33  34
ENDBRANCH   1  33
TORSDOF 22
