REMARK SMILES CS(=O)(=O)c1ccc(/C=C(/C(=O)OCCOCCOCCOC(=O)c2ccc(-c3c4nc(c(-c5cc(S(=O)(=O)[O-])ccc5F)c5ccc([nH]5)c(-c5cc(S(=O)(=O)[O-])ccc5F)c5nc(c(-c6cc(S(=O)(=O)[O-])ccc6F)c6ccc3[nH]6)C=C5)C=C4)cc2)c2ccc(-c3ccc(S(C)(=O)=O)cc3)cc2)cc1
REMARK SMILES IDX 17 1 16 2 15 3 14 4 13 5 11 6 12 7 10 8 9 9 8 10 5 11 6 12
REMARK SMILES IDX 105 13 7 14 104 15 2 16 1 17 3 18 4 19 88 20 89 21 103 22
REMARK SMILES IDX 90 23 102 24 91 25 92 26 93 27 101 28 94 29 100 30 95 31
REMARK SMILES IDX 96 32 97 33 98 34 99 35 18 36 19 37 20 38 21 39 22 40 23 41
REMARK SMILES IDX 24 42 25 43 26 44 87 45 27 46 86 47 28 48 29 49 30 50 80 51
REMARK SMILES IDX 31 52 85 53 79 54 81 55 32 56 84 57 78 58 77 59 33 61 65 62
REMARK SMILES IDX 45 63 64 64 46 65 49 66 63 67 82 68 47 69 48 70 62 72 83 73
REMARK SMILES IDX 50 74 34 75 35 76 43 77 36 78 42 79 44 80 41 81 37 82 38 83
REMARK SMILES IDX 39 84 40 85 66 86 67 87 75 88 68 89 74 90 76 91 73 92 69 93
REMARK SMILES IDX 70 94 71 95 72 96 51 97 52 98 60 99 53 100 59 101 61 102
REMARK SMILES IDX 58 103 54 104 55 105 56 106 57 107
REMARK H PARENT 81 60 49 71
REMARK Flexibility Score: inf
ROOT
ATOM      1  C   UNL     1       1.114   6.530   8.226  1.00  0.00     0.188 C 
ENDROOT
BRANCH   1   2
ATOM      2  O   UNL     1       1.627   7.829   8.490  1.00  0.00    -0.376 OA
BRANCH   2   3
ATOM      3  C   UNL     1       2.987   8.037   8.141  1.00  0.00     0.202 C 
BRANCH   3   4
ATOM      4  C   UNL     1       3.224   8.218   6.639  1.00  0.00     0.261 C 
BRANCH   4   5
ATOM      5  O   UNL     1       2.750   7.136   5.820  1.00  0.00    -0.460 OA
BRANCH   5   6
ATOM      6  C   UNL     1       3.490   5.999   5.796  1.00  0.00     0.338 C 
ATOM      7  O   UNL     1       4.533   5.832   6.407  1.00  0.00    -0.246 OA
BRANCH   6   8
ATOM      8  C   UNL     1       2.801   4.938   4.981  1.00  0.00     0.067 C 
ATOM      9  C   UNL     1       2.091   5.309   3.887  1.00  0.00     0.024 C 
BRANCH   9  10
ATOM     10  C   UNL     1       1.426   4.463   2.867  1.00  0.00    -0.025 A 
ATOM     11  C   UNL     1       0.492   2.831   0.779  1.00  0.00     0.067 A 
ATOM     12  C   UNL     1       0.349   2.412   2.100  1.00  0.00     0.021 A 
ATOM     13  C   UNL     1       0.997   4.099   0.494  1.00  0.00     0.021 A 
ATOM     14  C   UNL     1       0.794   3.241   3.137  1.00  0.00     0.009 A 
ATOM     15  C   UNL     1       1.455   4.910   1.536  1.00  0.00     0.009 A 
BRANCH  11  16
ATOM     16  S   UNL     1       0.118   1.723  -0.559  1.00  0.00     0.175 S 
ATOM     17  C   UNL     1       0.877   0.181  -0.110  1.00  0.00     0.163 C 
ATOM     18  O   UNL     1       0.824   2.214  -1.730  1.00  0.00    -0.224 OA
ATOM     19  O   UNL     1      -1.320   1.549  -0.579  1.00  0.00    -0.224 OA
ENDBRANCH  11  16
ENDBRANCH   9  10
BRANCH   8  20
ATOM     20  C   UNL     1       2.928   3.534   5.419  1.00  0.00    -0.011 A 
ATOM     21  C   UNL     1       2.180   3.096   6.519  1.00  0.00     0.009 A 
ATOM     22  C   UNL     1       3.681   2.598   4.704  1.00  0.00     0.009 A 
ATOM     23  C   UNL     1       2.154   1.745   6.870  1.00  0.00     0.009 A 
ATOM     24  C   UNL     1       3.649   1.242   5.061  1.00  0.00     0.009 A 
ATOM     25  C   UNL     1       2.872   0.788   6.141  1.00  0.00    -0.018 A 
BRANCH  25  26
ATOM     26  C   UNL     1       2.756  -0.647   6.466  1.00  0.00    -0.018 A 
ATOM     27  C   UNL     1       1.490  -1.236   6.652  1.00  0.00     0.010 A 
ATOM     28  C   UNL     1       3.888  -1.476   6.575  1.00  0.00     0.010 A 
ATOM     29  C   UNL     1       1.353  -2.604   6.894  1.00  0.00     0.021 A 
ATOM     30  C   UNL     1       3.762  -2.850   6.822  1.00  0.00     0.021 A 
ATOM     31  C   UNL     1       2.491  -3.408   6.965  1.00  0.00     0.067 A 
BRANCH  31  32
ATOM     32  S   UNL     1       2.278  -5.170   7.096  1.00  0.00     0.175 S 
ATOM     33  C   UNL     1       1.793  -5.427   8.782  1.00  0.00     0.163 C 
ATOM     34  O   UNL     1       1.158  -5.512   6.237  1.00  0.00    -0.224 OA
ATOM     35  O   UNL     1       3.569  -5.790   6.875  1.00  0.00    -0.224 OA
ENDBRANCH  31  32
ENDBRANCH  25  26
ENDBRANCH   8  20
ENDBRANCH   6   8
ENDBRANCH   5   6
ENDBRANCH   4   5
ENDBRANCH   3   4
ENDBRANCH   2   3
ENDBRANCH   1   2
BRANCH   1  36
ATOM     36  C   UNL     1       0.059   6.496   7.103  1.00  0.00     0.188 C 
BRANCH  36  37
ATOM     37  O   UNL     1      -0.711   7.653   6.795  1.00  0.00    -0.376 OA
BRANCH  37  38
ATOM     38  C   UNL     1      -1.062   8.555   7.831  1.00  0.00     0.202 C 
BRANCH  38  39
ATOM     39  C   UNL     1      -2.006   8.063   8.933  1.00  0.00     0.261 C 
BRANCH  39  40
ATOM     40  O   UNL     1      -1.675   6.780   9.485  1.00  0.00    -0.460 OA
BRANCH  40  41
ATOM     41  C   UNL     1      -2.465   5.760   9.062  1.00  0.00     0.338 C 
ATOM     42  O   UNL     1      -3.412   5.836   8.299  1.00  0.00    -0.246 OA
BRANCH  41  43
ATOM     43  C   UNL     1      -1.917   4.469   9.530  1.00  0.00     0.060 A 
ATOM     44  C   UNL     1      -1.743   3.451   8.583  1.00  0.00     0.016 A 
ATOM     45  C   UNL     1      -1.644   4.231  10.880  1.00  0.00     0.016 A 
ATOM     46  C   UNL     1      -1.330   2.182   8.985  1.00  0.00     0.010 A 
ATOM     47  C   UNL     1      -1.252   2.949  11.285  1.00  0.00     0.010 A 
ATOM     48  C   UNL     1      -1.122   1.912  10.344  1.00  0.00    -0.014 A 
BRANCH  48  49
ATOM     49  C   UNL     1      -0.972   0.504  10.789  1.00  0.00     0.031 A 
ATOM     50  C   UNL     1      -2.213  -0.267  11.150  1.00  0.00     0.074 A 
ATOM     51  C   UNL     1       0.235  -0.087  10.847  1.00  0.00     0.049 A 
ATOM     52  N   UNL     1      -2.334  -1.500  11.566  1.00  0.00    -0.248 NA
ATOM     53  C   UNL     1      -3.487   0.458  11.025  1.00  0.00     0.031 C 
ATOM     54  C   UNL     1       1.502   0.552  10.500  1.00  0.00     0.029 A 
ATOM     55  N   UNL     1       0.593  -1.356  11.230  1.00  0.00    -0.354 N 
ATOM     56  C   UNL     1      -3.698  -1.703  11.749  1.00  0.00     0.074 A 
ATOM     57  C   UNL     1      -4.357  -0.455  11.429  1.00  0.00     0.031 C 
ATOM     58  C   UNL     1       2.501  -0.326  10.693  1.00  0.00     0.029 A 
ATOM     59  C   UNL     1       1.952  -1.571  11.225  1.00  0.00     0.049 A 
ATOM     60  H   UNL     1      -0.061  -2.047  11.484  1.00  0.00     0.167 HD
ATOM     61  C   UNL     1      -4.343  -2.828  12.146  1.00  0.00     0.034 A 
ATOM     62  C   UNL     1       2.670  -2.637  11.638  1.00  0.00     0.034 A 
ATOM     63  C   UNL     1      -3.670  -4.052  12.501  1.00  0.00     0.049 A 
ATOM     64  C   UNL     1       1.938  -3.851  12.162  1.00  0.00     0.074 A 
ATOM     65  C   UNL     1      -4.222  -5.252  12.915  1.00  0.00     0.029 A 
ATOM     66  N   UNL     1      -2.292  -4.227  12.507  1.00  0.00    -0.354 N 
ATOM     67  N   UNL     1       0.644  -4.055  12.264  1.00  0.00    -0.248 NA
ATOM     68  C   UNL     1       2.760  -4.989  12.596  1.00  0.00     0.031 C 
ATOM     69  C   UNL     1      -3.178  -6.127  13.234  1.00  0.00     0.029 A 
ATOM     70  C   UNL     1      -1.974  -5.503  12.945  1.00  0.00     0.049 A 
ATOM     71  H   UNL     1      -1.636  -3.543  12.239  1.00  0.00     0.167 HD
ATOM     72  C   UNL     1       0.499  -5.350  12.758  1.00  0.00     0.074 A 
ATOM     73  C   UNL     1       1.835  -5.890  12.899  1.00  0.00     0.031 C 
ATOM     74  C   UNL     1      -0.635  -6.032  13.064  1.00  0.00     0.034 A 
BRANCH  61  75
ATOM     75  C   UNL     1      -5.845  -2.752  12.269  1.00  0.00     0.023 A 
ATOM     76  C   UNL     1      -6.666  -2.539  11.147  1.00  0.00     0.031 A 
ATOM     77  C   UNL     1      -6.462  -2.848  13.528  1.00  0.00     0.131 A 
ATOM     78  C   UNL     1      -8.047  -2.357  11.316  1.00  0.00     0.055 A 
ATOM     79  C   UNL     1      -7.846  -2.743  13.680  1.00  0.00     0.041 A 
ATOM     80  F   UNL     1      -5.726  -3.026  14.637  1.00  0.00    -0.206 F 
ATOM     81  C   UNL     1      -8.646  -2.481  12.571  1.00  0.00     0.022 A 
BRANCH  78  82
ATOM     82  S   UNL     1      -9.028  -1.812   9.891  1.00  0.00     0.124 S 
ATOM     83  O   UNL     1      -8.361  -0.561   9.536  1.00  0.00    -0.237 OA
ATOM     84  O   UNL     1      -8.858  -2.915   8.952  1.00  0.00    -0.237 OA
ATOM     85  O   UNL     1     -10.373  -1.659  10.440  1.00  0.00    -0.744 OA
ENDBRANCH  78  82
ENDBRANCH  61  75
BRANCH  62  86
ATOM     86  C   UNL     1       4.161  -2.598  11.617  1.00  0.00     0.023 A 
ATOM     87  C   UNL     1       4.903  -3.474  10.812  1.00  0.00     0.031 A 
ATOM     88  C   UNL     1       4.874  -1.714  12.446  1.00  0.00     0.131 A 
ATOM     89  C   UNL     1       6.305  -3.476  10.877  1.00  0.00     0.055 A 
ATOM     90  C   UNL     1       6.270  -1.690  12.477  1.00  0.00     0.041 A 
ATOM     91  F   UNL     1       4.218  -0.852  13.239  1.00  0.00    -0.206 F 
ATOM     92  C   UNL     1       6.995  -2.586  11.698  1.00  0.00     0.022 A 
BRANCH  89  93
ATOM     93  S   UNL     1       7.205  -4.731   9.928  1.00  0.00     0.124 S 
ATOM     94  O   UNL     1       6.498  -5.949  10.305  1.00  0.00    -0.237 OA
ATOM     95  O   UNL     1       6.998  -4.258   8.563  1.00  0.00    -0.237 OA
ATOM     96  O   UNL     1       8.572  -4.618  10.431  1.00  0.00    -0.744 OA
ENDBRANCH  89  93
ENDBRANCH  62  86
BRANCH  74  97
ATOM     97  C   UNL     1      -0.482  -7.466  13.515  1.00  0.00     0.023 A 
ATOM     98  C   UNL     1       0.118  -7.802  14.740  1.00  0.00     0.031 A 
ATOM     99  C   UNL     1      -0.955  -8.512  12.701  1.00  0.00     0.131 A 
ATOM    100  C   UNL     1       0.274  -9.152  15.094  1.00  0.00     0.055 A 
ATOM    101  C   UNL     1      -0.851  -9.849  13.086  1.00  0.00     0.041 A 
ATOM    102  F   UNL     1      -1.534  -8.247  11.518  1.00  0.00    -0.206 F 
ATOM    103  C   UNL     1      -0.223 -10.176  14.283  1.00  0.00     0.022 A 
BRANCH 100 104
ATOM    104  S   UNL     1       1.215  -9.556  16.591  1.00  0.00     0.124 S 
ATOM    105  O   UNL     1       2.503  -8.928  16.316  1.00  0.00    -0.237 OA
ATOM    106  O   UNL     1       0.413  -8.934  17.640  1.00  0.00    -0.237 OA
ATOM    107  O   UNL     1       1.227 -11.018  16.605  1.00  0.00    -0.744 OA
ENDBRANCH 100 104
ENDBRANCH  74  97
ENDBRANCH  48  49
ENDBRANCH  41  43
ENDBRANCH  40  41
ENDBRANCH  39  40
ENDBRANCH  38  39
ENDBRANCH  37  38
ENDBRANCH  36  37
ENDBRANCH   1  36
TORSDOF 25
