REMARK SMILES O=C(OCCOCCOCCOC(=O)[C@@H]1CCCN(c2ccc3cc(S(=O)(=O)N4CCCCC4)ccc3n2)C1)c1ccc(-c2c3nc(c(-c4cc(S(=O)(=O)[O-])ccc4F)c4ccc([nH]4)c(-c4cc(S(=O)(=O)[O-])ccc4F)c4nc(c(-c5cc(S(=O)(=O)[O-])ccc5F)c5ccc2[nH]5)C=C4)C=C3)cc1
REMARK SMILES IDX 7 1 6 2 5 3 4 4 3 5 2 6 1 7 40 8 41 9 102 10 42 11 101 12
REMARK SMILES IDX 43 13 44 14 45 15 95 16 46 17 100 18 94 19 96 20 47 21 99 22
REMARK SMILES IDX 93 23 92 24 48 26 80 27 60 28 79 29 61 30 64 31 78 32 97 33
REMARK SMILES IDX 62 34 63 35 77 37 98 38 65 39 49 40 50 41 58 42 51 43 57 44
REMARK SMILES IDX 59 45 56 46 52 47 53 48 54 49 55 50 81 51 82 52 90 53 83 54
REMARK SMILES IDX 89 55 91 56 88 57 84 58 85 59 86 60 87 61 66 62 67 63 75 64
REMARK SMILES IDX 68 65 74 66 76 67 73 68 69 69 70 70 71 71 72 72 8 73 9 74
REMARK SMILES IDX 10 75 11 76 12 77 13 78 14 79 15 80 16 81 39 82 17 83 19 84
REMARK SMILES IDX 18 85 20 86 21 87 38 88 22 89 37 90 23 91 36 92 24 93 35 94
REMARK SMILES IDX 25 95 26 96 27 97 28 98 29 99 30 100 34 101 31 102 33 103
REMARK SMILES IDX 32 104
REMARK H PARENT 96 25 64 36
REMARK Flexibility Score: inf
ROOT
ATOM      1  C   UNL     1       2.171   1.126  -1.344  1.00  0.00     0.188 C 
ENDROOT
BRANCH   1   2
ATOM      2  O   UNL     1       3.548   0.928  -1.005  1.00  0.00    -0.376 OA
BRANCH   2   3
ATOM      3  C   UNL     1       4.109  -0.252  -1.588  1.00  0.00     0.202 C 
BRANCH   3   4
ATOM      4  C   UNL     1       3.929  -1.513  -0.732  1.00  0.00     0.261 C 
BRANCH   4   5
ATOM      5  O   UNL     1       2.566  -1.653  -0.286  1.00  0.00    -0.460 OA
BRANCH   5   6
ATOM      6  C   UNL     1       1.998  -1.311   0.897  1.00  0.00     0.338 C 
ATOM      7  O   UNL     1       0.788  -1.503   1.025  1.00  0.00    -0.246 OA
BRANCH   6   8
ATOM      8  C   UNL     1       2.727  -0.719   2.067  1.00  0.00     0.060 A 
ATOM      9  C   UNL     1       3.941  -0.045   2.005  1.00  0.00     0.016 A 
ATOM     10  C   UNL     1       2.100  -0.802   3.330  1.00  0.00     0.016 A 
ATOM     11  C   UNL     1       4.553   0.427   3.166  1.00  0.00     0.010 A 
ATOM     12  C   UNL     1       2.699  -0.288   4.495  1.00  0.00     0.010 A 
ATOM     13  C   UNL     1       3.958   0.304   4.420  1.00  0.00    -0.014 A 
BRANCH  13  14
ATOM     14  C   UNL     1       4.773   0.679   5.604  1.00  0.00     0.031 A 
ATOM     15  C   UNL     1       5.620  -0.377   6.245  1.00  0.00     0.074 A 
ATOM     16  C   UNL     1       4.884   1.963   5.993  1.00  0.00     0.049 A 
ATOM     17  N   UNL     1       6.484  -0.271   7.218  1.00  0.00    -0.248 NA
ATOM     18  C   UNL     1       5.460  -1.740   5.719  1.00  0.00     0.031 C 
ATOM     19  C   UNL     1       4.137   3.067   5.405  1.00  0.00     0.029 A 
ATOM     20  N   UNL     1       5.696   2.569   6.921  1.00  0.00    -0.354 N 
ATOM     21  C   UNL     1       6.922  -1.565   7.471  1.00  0.00     0.074 A 
ATOM     22  C   UNL     1       6.259  -2.428   6.517  1.00  0.00     0.031 C 
ATOM     23  C   UNL     1       4.596   4.223   5.908  1.00  0.00     0.029 A 
ATOM     24  C   UNL     1       5.636   3.947   6.893  1.00  0.00     0.049 A 
ATOM     25  H   UNL     1       6.266   2.067   7.548  1.00  0.00     0.167 HD
ATOM     26  C   UNL     1       7.766  -1.990   8.443  1.00  0.00     0.034 A 
ATOM     27  C   UNL     1       6.345   4.871   7.580  1.00  0.00     0.034 A 
ATOM     28  C   UNL     1       8.393  -1.109   9.396  1.00  0.00     0.049 A 
ATOM     29  C   UNL     1       7.306   4.371   8.636  1.00  0.00     0.074 A 
ATOM     30  C   UNL     1       9.200  -1.430  10.473  1.00  0.00     0.029 A 
ATOM     31  N   UNL     1       8.270   0.277   9.393  1.00  0.00    -0.354 N 
ATOM     32  N   UNL     1       7.665   3.136   8.912  1.00  0.00    -0.248 NA
ATOM     33  C   UNL     1       7.920   5.383   9.507  1.00  0.00     0.031 C 
ATOM     34  C   UNL     1       9.517  -0.247  11.152  1.00  0.00     0.029 A 
ATOM     35  C   UNL     1       8.970   0.821  10.459  1.00  0.00     0.049 A 
ATOM     36  H   UNL     1       7.760   0.795   8.730  1.00  0.00     0.167 HD
ATOM     37  C   UNL     1       8.517   3.225  10.010  1.00  0.00     0.074 A 
ATOM     38  C   UNL     1       8.679   4.636  10.295  1.00  0.00     0.031 C 
ATOM     39  C   UNL     1       9.088   2.233  10.741  1.00  0.00     0.034 A 
BRANCH  26  40
ATOM     40  C   UNL     1       7.940  -3.482   8.572  1.00  0.00     0.023 A 
ATOM     41  C   UNL     1       8.536  -4.244   7.555  1.00  0.00     0.031 A 
ATOM     42  C   UNL     1       7.403  -4.166   9.675  1.00  0.00     0.131 A 
ATOM     43  C   UNL     1       8.511  -5.644   7.620  1.00  0.00     0.055 A 
ATOM     44  C   UNL     1       7.446  -5.558   9.770  1.00  0.00     0.041 A 
ATOM     45  F   UNL     1       6.790  -3.494  10.662  1.00  0.00    -0.206 F 
ATOM     46  C   UNL     1       7.988  -6.308   8.730  1.00  0.00     0.022 A 
BRANCH  43  47
ATOM     47  S   UNL     1       9.016  -6.576   6.150  1.00  0.00     0.124 S 
ATOM     48  O   UNL     1       8.068  -6.079   5.157  1.00  0.00    -0.237 OA
ATOM     49  O   UNL     1      10.400  -6.150   5.977  1.00  0.00    -0.237 OA
ATOM     50  O   UNL     1       8.832  -7.969   6.546  1.00  0.00    -0.744 OA
ENDBRANCH  43  47
ENDBRANCH  26  40
BRANCH  27  51
ATOM     51  C   UNL     1       6.160   6.343   7.357  1.00  0.00     0.023 A 
ATOM     52  C   UNL     1       7.252   7.174   7.038  1.00  0.00     0.031 A 
ATOM     53  C   UNL     1       4.910   6.964   7.534  1.00  0.00     0.131 A 
ATOM     54  C   UNL     1       7.081   8.568   6.950  1.00  0.00     0.055 A 
ATOM     55  C   UNL     1       4.730   8.340   7.368  1.00  0.00     0.041 A 
ATOM     56  F   UNL     1       3.832   6.241   7.874  1.00  0.00    -0.206 F 
ATOM     57  C   UNL     1       5.822   9.153   7.088  1.00  0.00     0.022 A 
BRANCH  54  58
ATOM     58  S   UNL     1       8.547   9.626   6.774  1.00  0.00     0.124 S 
ATOM     59  O   UNL     1       9.337   9.234   7.936  1.00  0.00    -0.237 OA
ATOM     60  O   UNL     1       9.066   9.213   5.475  1.00  0.00    -0.237 OA
ATOM     61  O   UNL     1       7.998  10.980   6.822  1.00  0.00    -0.744 OA
ENDBRANCH  54  58
ENDBRANCH  27  51
BRANCH  39  62
ATOM     62  C   UNL     1       9.922   2.658  11.925  1.00  0.00     0.023 A 
ATOM     63  C   UNL     1       9.340   3.280  13.044  1.00  0.00     0.031 A 
ATOM     64  C   UNL     1      11.312   2.450  11.931  1.00  0.00     0.131 A 
ATOM     65  C   UNL     1      10.151   3.724  14.099  1.00  0.00     0.055 A 
ATOM     66  C   UNL     1      12.107   2.841  13.009  1.00  0.00     0.041 A 
ATOM     67  F   UNL     1      11.919   1.860  10.888  1.00  0.00    -0.206 F 
ATOM     68  C   UNL     1      11.529   3.494  14.095  1.00  0.00     0.022 A 
BRANCH  65  69
ATOM     69  S   UNL     1       9.392   4.683  15.439  1.00  0.00     0.124 S 
ATOM     70  O   UNL     1       8.825   5.817  14.717  1.00  0.00    -0.237 OA
ATOM     71  O   UNL     1       8.432   3.736  15.996  1.00  0.00    -0.237 OA
ATOM     72  O   UNL     1      10.521   5.004  16.311  1.00  0.00    -0.744 OA
ENDBRANCH  65  69
ENDBRANCH  39  62
ENDBRANCH  13  14
ENDBRANCH   6   8
ENDBRANCH   5   6
ENDBRANCH   4   5
ENDBRANCH   3   4
ENDBRANCH   2   3
ENDBRANCH   1   2
BRANCH   1  73
ATOM     73  C   UNL     1       1.915   2.542  -1.861  1.00  0.00     0.188 C 
BRANCH  73  74
ATOM     74  O   UNL     1       2.607   2.860  -3.069  1.00  0.00    -0.376 OA
BRANCH  74  75
ATOM     75  C   UNL     1       3.954   3.325  -2.916  1.00  0.00     0.202 C 
BRANCH  75  76
ATOM     76  C   UNL     1       4.067   4.748  -2.354  1.00  0.00     0.261 C 
BRANCH  76  77
ATOM     77  O   UNL     1       3.975   4.704  -0.921  1.00  0.00    -0.463 OA
BRANCH  77  78
ATOM     78  C   UNL     1       3.071   5.491  -0.291  1.00  0.00     0.310 C 
ATOM     79  O   UNL     1       2.344   6.301  -0.854  1.00  0.00    -0.252 OA
BRANCH  78  80
ATOM     80  C   UNL     1       2.987   5.196   1.201  1.00  0.00     0.118 C 
ATOM     81  C   UNL     1       3.285   6.448   2.033  1.00  0.00     0.019 C 
ATOM     82  C   UNL     1       3.857   4.018   1.651  1.00  0.00     0.133 C 
ATOM     83  C   UNL     1       4.785   6.750   2.098  1.00  0.00     0.022 C 
ATOM     84  N   UNL     1       5.266   4.407   1.718  1.00  0.00    -0.356 N 
ATOM     85  C   UNL     1       5.601   5.541   2.568  1.00  0.00     0.118 C 
BRANCH  84  86
ATOM     86  C   UNL     1       6.192   3.372   1.624  1.00  0.00     0.129 A 
ATOM     87  C   UNL     1       6.295   2.705   0.408  1.00  0.00     0.047 A 
ATOM     88  N   UNL     1       6.955   3.012   2.678  1.00  0.00    -0.231 NA
ATOM     89  C   UNL     1       7.177   1.653   0.256  1.00  0.00     0.014 A 
ATOM     90  C   UNL     1       7.782   1.945   2.564  1.00  0.00     0.073 A 
ATOM     91  C   UNL     1       7.921   1.242   1.350  1.00  0.00     0.002 A 
ATOM     92  C   UNL     1       8.469   1.435   3.666  1.00  0.00     0.030 A 
ATOM     93  C   UNL     1       8.754   0.127   1.239  1.00  0.00     0.032 A 
ATOM     94  C   UNL     1       9.277   0.284   3.581  1.00  0.00     0.024 A 
ATOM     95  C   UNL     1       9.437  -0.357   2.355  1.00  0.00     0.083 A 
BRANCH  95  96
ATOM     96  S   UNL     1      10.489  -1.764   2.039  1.00  0.00     0.243 S 
ATOM     97  O   UNL     1       9.593  -2.882   1.830  1.00  0.00    -0.207 OA
ATOM     98  O   UNL     1      11.378  -1.335   0.976  1.00  0.00    -0.207 OA
BRANCH  96  99
ATOM     99  N   UNL     1      11.444  -2.044   3.410  1.00  0.00    -0.198 NA
ATOM    100  C   UNL     1      12.421  -0.985   3.750  1.00  0.00     0.102 C 
ATOM    101  C   UNL     1      10.799  -2.777   4.532  1.00  0.00     0.102 C 
ATOM    102  C   UNL     1      13.384  -1.417   4.844  1.00  0.00     0.017 C 
ATOM    103  C   UNL     1      11.808  -3.159   5.609  1.00  0.00     0.017 C 
ATOM    104  C   UNL     1      12.632  -1.960   6.047  1.00  0.00     0.003 C 
ENDBRANCH  96  99
ENDBRANCH  95  96
ENDBRANCH  84  86
ENDBRANCH  78  80
ENDBRANCH  77  78
ENDBRANCH  76  77
ENDBRANCH  75  76
ENDBRANCH  74  75
ENDBRANCH  73  74
ENDBRANCH   1  73
TORSDOF 23
