REMARK SMILES Cc1cc([C@@H]([NH3+])C[C@H](C)CC(=O)OCCOCCOCCOC(=O)c2ccc(-c3c4nc(c(-c5cc(S(=O)(=O)[O-])ccc5F)c5ccc([nH]5)c(-c5cc(S(=O)(=O)[O-])ccc5F)c5nc(c(-c6cc(S(=O)(=O)[O-])ccc6F)c6ccc3[nH]6)C=C5)C=C4)cc2)ccc1F
REMARK SMILES IDX 17 1 16 2 15 3 14 4 13 5 11 6 12 7 10 8 8 9 9 10 7 11 5 12
REMARK SMILES IDX 4 13 1 14 2 15 3 16 90 17 89 18 91 19 88 20 6 21 18 25 19 26
REMARK SMILES IDX 20 27 21 28 22 29 23 30 24 31 25 32 26 33 87 34 27 35 86 36
REMARK SMILES IDX 28 37 29 38 30 39 80 40 31 41 85 42 79 43 81 44 32 45 84 46
REMARK SMILES IDX 78 47 77 48 33 50 65 51 45 52 64 53 46 54 49 55 63 56 82 57
REMARK SMILES IDX 47 58 48 59 62 61 83 62 50 63 34 64 35 65 43 66 36 67 42 68
REMARK SMILES IDX 44 69 41 70 37 71 38 72 39 73 40 74 66 75 67 76 75 77 68 78
REMARK SMILES IDX 74 79 76 80 73 81 69 82 70 83 71 84 72 85 51 86 52 87 60 88
REMARK SMILES IDX 53 89 59 90 61 91 58 92 54 93 55 94 56 95 57 96
REMARK H PARENT 6 22 6 23 6 24 81 49 49 60
REMARK Flexibility Score: inf
ROOT
ATOM      1  C   UNL     1      -3.209  -1.873   4.325  1.00  0.00     0.188 C 
ENDROOT
BRANCH   1   2
ATOM      2  O   UNL     1      -4.036  -2.922   4.842  1.00  0.00    -0.376 OA
BRANCH   2   3
ATOM      3  C   UNL     1      -4.887  -3.556   3.896  1.00  0.00     0.202 C 
BRANCH   3   4
ATOM      4  C   UNL     1      -6.074  -2.708   3.429  1.00  0.00     0.261 C 
BRANCH   4   5
ATOM      5  O   UNL     1      -5.696  -1.377   3.041  1.00  0.00    -0.463 OA
BRANCH   5   6
ATOM      6  C   UNL     1      -6.094  -0.360   3.853  1.00  0.00     0.306 C 
ATOM      7  O   UNL     1      -6.898  -0.478   4.771  1.00  0.00    -0.252 OA
BRANCH   6   8
ATOM      8  C   UNL     1      -5.369   0.953   3.571  1.00  0.00     0.126 C 
BRANCH   8   9
ATOM      9  C   UNL     1      -4.558   1.038   2.260  1.00  0.00     0.003 C 
ATOM     10  C   UNL     1      -5.506   0.881   1.063  1.00  0.00     0.008 C 
BRANCH   9  11
ATOM     11  C   UNL     1      -3.742   2.358   2.214  1.00  0.00     0.074 C 
BRANCH  11  12
ATOM     12  C   UNL     1      -2.504   2.346   1.279  1.00  0.00     0.212 C 
BRANCH  12  13
ATOM     13  C   UNL     1      -2.835   2.104  -0.184  1.00  0.00     0.010 A 
ATOM     14  C   UNL     1      -3.055  -0.838  -2.609  1.00  0.00     0.047 C 
ATOM     15  C   UNL     1      -3.110   0.547  -2.046  1.00  0.00    -0.015 A 
ATOM     16  C   UNL     1      -2.707   0.813  -0.731  1.00  0.00     0.016 A 
ATOM     17  C   UNL     1      -3.625   1.595  -2.813  1.00  0.00     0.126 A 
ATOM     18  C   UNL     1      -3.724   2.885  -2.306  1.00  0.00     0.040 A 
ATOM     19  F   UNL     1      -4.052   1.357  -4.063  1.00  0.00    -0.207 F 
ATOM     20  C   UNL     1      -3.331   3.138  -0.994  1.00  0.00     0.013 A 
ENDBRANCH  12  13
BRANCH  12  21
ATOM     21  N   UNL     1      -1.811   3.631   1.435  1.00  0.00    -0.351 N 
ATOM     22  H   UNL     1      -2.432   4.388   1.151  1.00  0.00     0.345 HD
ATOM     23  H   UNL     1      -0.975   3.639   0.852  1.00  0.00     0.345 HD
ATOM     24  H   UNL     1      -1.546   3.757   2.412  1.00  0.00     0.345 HD
ENDBRANCH  12  21
ENDBRANCH  11  12
ENDBRANCH   9  11
ENDBRANCH   8   9
ENDBRANCH   6   8
ENDBRANCH   5   6
ENDBRANCH   4   5
ENDBRANCH   3   4
ENDBRANCH   2   3
ENDBRANCH   1   2
BRANCH   1  25
ATOM     25  C   UNL     1      -2.498  -2.199   3.012  1.00  0.00     0.188 C 
BRANCH  25  26
ATOM     26  O   UNL     1      -3.211  -2.256   1.782  1.00  0.00    -0.376 OA
BRANCH  26  27
ATOM     27  C   UNL     1      -2.837  -3.294   0.860  1.00  0.00     0.202 C 
BRANCH  27  28
ATOM     28  C   UNL     1      -1.391  -3.811   0.661  1.00  0.00     0.261 C 
BRANCH  28  29
ATOM     29  O   UNL     1      -0.674  -4.017   1.874  1.00  0.00    -0.460 OA
BRANCH  29  30
ATOM     30  C   UNL     1       0.119  -2.962   2.160  1.00  0.00     0.338 C 
ATOM     31  O   UNL     1       0.442  -2.065   1.381  1.00  0.00    -0.246 OA
BRANCH  30  32
ATOM     32  C   UNL     1       0.422  -2.922   3.608  1.00  0.00     0.060 A 
ATOM     33  C   UNL     1       0.550  -1.610   4.106  1.00  0.00     0.016 A 
ATOM     34  C   UNL     1       1.262  -3.952   4.003  1.00  0.00     0.016 A 
ATOM     35  C   UNL     1       1.794  -1.196   4.484  1.00  0.00     0.010 A 
ATOM     36  C   UNL     1       2.505  -3.546   4.393  1.00  0.00     0.010 A 
ATOM     37  C   UNL     1       2.773  -2.164   4.447  1.00  0.00    -0.014 A 
BRANCH  37  38
ATOM     38  C   UNL     1       4.156  -1.814   4.318  1.00  0.00     0.031 A 
ATOM     39  C   UNL     1       4.917  -1.662   5.548  1.00  0.00     0.074 A 
ATOM     40  C   UNL     1       4.685  -1.975   3.086  1.00  0.00     0.049 A 
ATOM     41  N   UNL     1       6.147  -1.312   5.586  1.00  0.00    -0.248 NA
ATOM     42  C   UNL     1       4.309  -1.861   6.860  1.00  0.00     0.031 C 
ATOM     43  C   UNL     1       6.042  -2.372   2.763  1.00  0.00     0.029 A 
ATOM     44  N   UNL     1       4.104  -1.679   1.845  1.00  0.00    -0.354 N 
ATOM     45  C   UNL     1       6.583  -1.597   6.857  1.00  0.00     0.074 A 
ATOM     46  C   UNL     1       5.387  -1.791   7.643  1.00  0.00     0.031 C 
ATOM     47  C   UNL     1       6.278  -2.084   1.473  1.00  0.00     0.029 A 
ATOM     48  C   UNL     1       5.159  -1.281   1.003  1.00  0.00     0.049 A 
ATOM     49  H   UNL     1       3.150  -1.739   1.609  1.00  0.00     0.167 HD
ATOM     50  C   UNL     1       7.912  -1.830   7.034  1.00  0.00     0.034 A 
ATOM     51  C   UNL     1       5.277  -0.017   0.491  1.00  0.00     0.034 A 
ATOM     52  C   UNL     1       8.652  -1.564   5.793  1.00  0.00     0.049 A 
ATOM     53  C   UNL     1       6.507   0.724   1.000  1.00  0.00     0.074 A 
ATOM     54  C   UNL     1       9.138  -2.364   4.771  1.00  0.00     0.029 A 
ATOM     55  N   UNL     1       8.640  -0.273   5.285  1.00  0.00    -0.354 N 
ATOM     56  N   UNL     1       7.357   0.239   1.861  1.00  0.00    -0.248 NA
ATOM     57  C   UNL     1       6.795   2.120   0.665  1.00  0.00     0.031 C 
ATOM     58  C   UNL     1       9.405  -1.533   3.641  1.00  0.00     0.029 A 
ATOM     59  C   UNL     1       9.098  -0.228   3.980  1.00  0.00     0.049 A 
ATOM     60  H   UNL     1       8.341   0.516   5.793  1.00  0.00     0.167 HD
ATOM     61  C   UNL     1       8.204   1.228   2.277  1.00  0.00     0.074 A 
ATOM     62  C   UNL     1       7.830   2.384   1.481  1.00  0.00     0.031 C 
ATOM     63  C   UNL     1       9.109   1.052   3.283  1.00  0.00     0.034 A 
BRANCH  50  64
ATOM     64  C   UNL     1       8.470  -2.560   8.233  1.00  0.00     0.023 A 
ATOM     65  C   UNL     1       7.795  -2.701   9.466  1.00  0.00     0.031 A 
ATOM     66  C   UNL     1       9.711  -3.221   8.148  1.00  0.00     0.131 A 
ATOM     67  C   UNL     1       8.281  -3.537  10.487  1.00  0.00     0.055 A 
ATOM     68  C   UNL     1      10.222  -4.012   9.183  1.00  0.00     0.041 A 
ATOM     69  F   UNL     1      10.468  -3.160   7.044  1.00  0.00    -0.206 F 
ATOM     70  C   UNL     1       9.498  -4.194  10.351  1.00  0.00     0.022 A 
BRANCH  67  71
ATOM     71  S   UNL     1       7.302  -3.861  11.984  1.00  0.00     0.124 S 
ATOM     72  O   UNL     1       7.239  -5.321  12.003  1.00  0.00    -0.237 OA
ATOM     73  O   UNL     1       8.122  -3.259  13.030  1.00  0.00    -0.237 OA
ATOM     74  O   UNL     1       6.027  -3.198  11.721  1.00  0.00    -0.744 OA
ENDBRANCH  67  71
ENDBRANCH  50  64
BRANCH  51  75
ATOM     75  C   UNL     1       3.977   0.661   0.252  1.00  0.00     0.023 A 
ATOM     76  C   UNL     1       3.427   1.455   1.269  1.00  0.00     0.031 A 
ATOM     77  C   UNL     1       3.135   0.201  -0.779  1.00  0.00     0.131 A 
ATOM     78  C   UNL     1       2.042   1.646   1.315  1.00  0.00     0.055 A 
ATOM     79  C   UNL     1       1.758   0.417  -0.742  1.00  0.00     0.041 A 
ATOM     80  F   UNL     1       3.629  -0.555  -1.773  1.00  0.00    -0.206 F 
ATOM     81  C   UNL     1       1.205   1.110   0.332  1.00  0.00     0.022 A 
BRANCH  78  82
ATOM     82  S   UNL     1       1.303   2.436   2.767  1.00  0.00     0.124 S 
ATOM     83  O   UNL     1       0.960   3.752   2.236  1.00  0.00    -0.237 OA
ATOM     84  O   UNL     1       0.156   1.576   3.062  1.00  0.00    -0.237 OA
ATOM     85  O   UNL     1       2.361   2.399   3.759  1.00  0.00    -0.744 OA
ENDBRANCH  78  82
ENDBRANCH  51  75
BRANCH  63  86
ATOM     86  C   UNL     1      10.088   2.111   3.709  1.00  0.00     0.023 A 
ATOM     87  C   UNL     1      10.454   2.237   5.066  1.00  0.00     0.031 A 
ATOM     88  C   UNL     1      10.800   2.901   2.792  1.00  0.00     0.131 A 
ATOM     89  C   UNL     1      11.464   3.114   5.470  1.00  0.00     0.055 A 
ATOM     90  C   UNL     1      11.776   3.817   3.201  1.00  0.00     0.041 A 
ATOM     91  F   UNL     1      10.609   2.771   1.470  1.00  0.00    -0.206 F 
ATOM     92  C   UNL     1      12.116   3.924   4.545  1.00  0.00     0.022 A 
BRANCH  89  93
ATOM     93  S   UNL     1      12.026   3.146   7.194  1.00  0.00     0.124 S 
ATOM     94  O   UNL     1      13.459   2.897   7.048  1.00  0.00    -0.237 OA
ATOM     95  O   UNL     1      11.665   4.501   7.600  1.00  0.00    -0.237 OA
ATOM     96  O   UNL     1      11.267   2.075   7.829  1.00  0.00    -0.744 OA
ENDBRANCH  89  93
ENDBRANCH  63  86
ENDBRANCH  37  38
ENDBRANCH  30  32
ENDBRANCH  29  30
ENDBRANCH  28  29
ENDBRANCH  27  28
ENDBRANCH  26  27
ENDBRANCH  25  26
ENDBRANCH   1  25
TORSDOF 25
