REMARK SMILES Cc1ccc2c(c1)c(-c1ccnc3c(C)cccc13)c(C)n2CC(=O)OCCOCCOCCOC(=O)c1ccc(-c2c3nc(c(-c4cc(S(=O)(=O)[O-])ccc4F)c4ccc([nH]4)c(-c4cc(S(=O)(=O)[O-])ccc4F)c4nc(c(-c5cc(S(=O)(=O)[O-])ccc5F)c5ccc2[nH]5)C=C4)C=C3)cc1
REMARK SMILES IDX 31 1 30 2 29 3 28 4 27 5 26 6 24 7 25 8 23 9 22 10 1 11 2 12
REMARK SMILES IDX 3 13 7 14 4 15 6 16 5 17 8 18 20 19 21 20 9 21 10 22 19 23
REMARK SMILES IDX 11 24 13 25 18 26 12 27 14 28 17 29 15 30 16 31 32 32 33 33
REMARK SMILES IDX 34 34 35 35 36 36 37 37 38 38 39 39 100 40 40 41 99 42 41 43
REMARK SMILES IDX 42 44 43 45 93 46 44 47 98 48 92 49 94 50 45 51 97 52 91 53
REMARK SMILES IDX 90 54 46 56 78 57 58 58 77 59 59 60 62 61 76 62 95 63 60 64
REMARK SMILES IDX 61 65 75 67 96 68 63 69 47 70 48 71 56 72 49 73 55 74 57 75
REMARK SMILES IDX 54 76 50 77 51 78 52 79 53 80 79 81 80 82 88 83 81 84 87 85
REMARK SMILES IDX 89 86 86 87 82 88 83 89 84 90 85 91 64 92 65 93 73 94 66 95
REMARK SMILES IDX 72 96 74 97 71 98 67 99 68 100 69 101 70 102
REMARK H PARENT 94 55 62 66
REMARK Flexibility Score: inf
ROOT
ATOM      1  C   UNL     1       0.667   1.758   7.794  1.00  0.00     0.188 C 
ENDROOT
BRANCH   1   2
ATOM      2  C   UNL     1       0.221   0.808   8.919  1.00  0.00     0.188 C 
BRANCH   2   3
ATOM      3  O   UNL     1       1.171   0.300   9.835  1.00  0.00    -0.376 OA
BRANCH   3   4
ATOM      4  C   UNL     1       2.319  -0.333   9.303  1.00  0.00     0.202 C 
BRANCH   4   5
ATOM      5  C   UNL     1       2.058  -1.421   8.258  1.00  0.00     0.261 C 
BRANCH   5   6
ATOM      6  O   UNL     1       1.526  -0.868   7.027  1.00  0.00    -0.462 OA
BRANCH   6   7
ATOM      7  C   UNL     1       0.653  -1.669   6.360  1.00  0.00     0.326 C 
ATOM      8  O   UNL     1       0.516  -2.860   6.633  1.00  0.00    -0.250 OA
BRANCH   7   9
ATOM      9  C   UNL     1      -0.341  -0.949   5.477  1.00  0.00     0.244 C 
BRANCH   9  10
ATOM     10  N   UNL     1       0.040   0.096   4.532  1.00  0.00    -0.333 N 
ATOM     11  C   UNL     1       1.317  -0.178  -0.926  1.00  0.00     0.044 C 
ATOM     12  C   UNL     1       1.051  -0.166   0.546  1.00  0.00    -0.050 A 
ATOM     13  C   UNL     1       0.917  -1.375   1.236  1.00  0.00     0.005 A 
ATOM     14  C   UNL     1       0.930   1.058   1.225  1.00  0.00     0.014 A 
ATOM     15  C   UNL     1       0.650  -1.402   2.601  1.00  0.00     0.027 A 
ATOM     16  C   UNL     1       0.569   1.057   2.582  1.00  0.00     0.008 A 
ATOM     17  C   UNL     1       0.459  -0.174   3.244  1.00  0.00     0.049 A 
ATOM     18  C   UNL     1       0.162   2.068   3.492  1.00  0.00     0.011 A 
ATOM     19  C   UNL     1      -0.468   1.384   4.512  1.00  0.00     0.024 A 
ATOM     20  C   UNL     1      -1.581   1.883   5.337  1.00  0.00     0.065 C 
BRANCH  18  21
ATOM     21  C   UNL     1      -0.010   3.516   3.375  1.00  0.00    -0.005 A 
ATOM     22  C   UNL     1      -1.136   4.028   2.734  1.00  0.00     0.029 A 
ATOM     23  C   UNL     1       0.854   4.388   4.088  1.00  0.00     0.008 A 
ATOM     24  C   UNL     1      -1.355   5.388   2.812  1.00  0.00     0.112 A 
ATOM     25  C   UNL     1       0.551   5.771   4.092  1.00  0.00     0.074 A 
ATOM     26  C   UNL     1       1.976   3.925   4.815  1.00  0.00     0.011 A 
ATOM     27  N   UNL     1      -0.536   6.252   3.452  1.00  0.00    -0.256 NA
ATOM     28  C   UNL     1       1.401   6.639   4.800  1.00  0.00    -0.025 A 
ATOM     29  C   UNL     1       2.799   4.795   5.516  1.00  0.00     0.001 A 
ATOM     30  C   UNL     1       1.156   8.125   4.849  1.00  0.00     0.047 C 
ATOM     31  C   UNL     1       2.517   6.150   5.504  1.00  0.00     0.005 A 
ENDBRANCH  18  21
ENDBRANCH   9  10
ENDBRANCH   7   9
ENDBRANCH   6   7
ENDBRANCH   5   6
ENDBRANCH   4   5
ENDBRANCH   3   4
ENDBRANCH   2   3
ENDBRANCH   1   2
BRANCH   1  32
ATOM     32  O   UNL     1       1.908   2.425   7.918  1.00  0.00    -0.376 OA
BRANCH  32  33
ATOM     33  C   UNL     1       2.050   3.284   9.041  1.00  0.00     0.202 C 
BRANCH  33  34
ATOM     34  C   UNL     1       0.925   4.311   9.255  1.00  0.00     0.261 C 
BRANCH  34  35
ATOM     35  O   UNL     1      -0.297   3.665   9.691  1.00  0.00    -0.460 OA
BRANCH  35  36
ATOM     36  C   UNL     1      -1.462   4.239   9.266  1.00  0.00     0.338 C 
ATOM     37  O   UNL     1      -1.578   5.381   8.875  1.00  0.00    -0.246 OA
BRANCH  36  38
ATOM     38  C   UNL     1      -2.480   3.160   9.028  1.00  0.00     0.060 A 
ATOM     39  C   UNL     1      -2.660   2.041   9.851  1.00  0.00     0.016 A 
ATOM     40  C   UNL     1      -3.133   3.184   7.799  1.00  0.00     0.016 A 
ATOM     41  C   UNL     1      -3.273   0.867   9.346  1.00  0.00     0.010 A 
ATOM     42  C   UNL     1      -3.770   2.028   7.324  1.00  0.00     0.010 A 
ATOM     43  C   UNL     1      -3.744   0.811   8.029  1.00  0.00    -0.014 A 
BRANCH  43  44
ATOM     44  C   UNL     1      -4.531  -0.332   7.489  1.00  0.00     0.031 A 
ATOM     45  C   UNL     1      -5.949  -0.122   7.781  1.00  0.00     0.074 A 
ATOM     46  C   UNL     1      -4.273  -1.484   6.814  1.00  0.00     0.049 A 
ATOM     47  N   UNL     1      -6.508  -0.586   8.846  1.00  0.00    -0.248 NA
ATOM     48  C   UNL     1      -6.749   0.821   7.005  1.00  0.00     0.031 C 
ATOM     49  C   UNL     1      -3.002  -2.055   6.425  1.00  0.00     0.029 A 
ATOM     50  N   UNL     1      -5.149  -2.414   6.286  1.00  0.00    -0.354 N 
ATOM     51  C   UNL     1      -7.819  -0.188   8.753  1.00  0.00     0.074 A 
ATOM     52  C   UNL     1      -7.839   0.875   7.773  1.00  0.00     0.031 C 
ATOM     53  C   UNL     1      -3.160  -3.025   5.488  1.00  0.00     0.029 A 
ATOM     54  C   UNL     1      -4.581  -3.315   5.380  1.00  0.00     0.049 A 
ATOM     55  H   UNL     1      -6.103  -2.440   6.529  1.00  0.00     0.167 HD
ATOM     56  C   UNL     1      -8.807  -0.960   9.277  1.00  0.00     0.034 A 
ATOM     57  C   UNL     1      -5.072  -4.471   4.849  1.00  0.00     0.034 A 
ATOM     58  C   UNL     1      -8.279  -2.012  10.119  1.00  0.00     0.049 A 
ATOM     59  C   UNL     1      -6.084  -4.999   5.781  1.00  0.00     0.074 A 
ATOM     60  C   UNL     1      -7.453  -2.049  11.227  1.00  0.00     0.029 A 
ATOM     61  N   UNL     1      -8.282  -3.293   9.619  1.00  0.00    -0.354 N 
ATOM     62  N   UNL     1      -5.792  -5.585   6.905  1.00  0.00    -0.248 NA
ATOM     63  C   UNL     1      -7.448  -4.524   5.652  1.00  0.00     0.031 C 
ATOM     64  C   UNL     1      -6.668  -3.229  11.085  1.00  0.00     0.029 A 
ATOM     65  C   UNL     1      -7.083  -3.888   9.928  1.00  0.00     0.049 A 
ATOM     66  H   UNL     1      -9.020  -3.714   9.122  1.00  0.00     0.167 HD
ATOM     67  C   UNL     1      -6.731  -5.084   7.786  1.00  0.00     0.074 A 
ATOM     68  C   UNL     1      -7.799  -4.558   6.939  1.00  0.00     0.031 C 
ATOM     69  C   UNL     1      -6.421  -4.881   9.100  1.00  0.00     0.034 A 
BRANCH  56  70
ATOM     70  C   UNL     1     -10.202  -0.949   8.726  1.00  0.00     0.023 A 
ATOM     71  C   UNL     1     -10.518  -0.421   7.460  1.00  0.00     0.031 A 
ATOM     72  C   UNL     1     -11.239  -1.620   9.391  1.00  0.00     0.131 A 
ATOM     73  C   UNL     1     -11.808  -0.480   6.936  1.00  0.00     0.055 A 
ATOM     74  C   UNL     1     -12.512  -1.762   8.828  1.00  0.00     0.041 A 
ATOM     75  F   UNL     1     -11.031  -2.196  10.585  1.00  0.00    -0.206 F 
ATOM     76  C   UNL     1     -12.808  -1.177   7.601  1.00  0.00     0.022 A 
BRANCH  73  77
ATOM     77  S   UNL     1     -12.194   0.378   5.386  1.00  0.00     0.124 S 
ATOM     78  O   UNL     1     -12.601  -0.727   4.526  1.00  0.00    -0.237 OA
ATOM     79  O   UNL     1     -13.260   1.284   5.808  1.00  0.00    -0.237 OA
ATOM     80  O   UNL     1     -10.936   1.031   5.034  1.00  0.00    -0.744 OA
ENDBRANCH  73  77
ENDBRANCH  56  70
BRANCH  57  81
ATOM     81  C   UNL     1      -5.059  -4.908   3.426  1.00  0.00     0.023 A 
ATOM     82  C   UNL     1      -4.876  -3.969   2.397  1.00  0.00     0.031 A 
ATOM     83  C   UNL     1      -5.526  -6.188   3.052  1.00  0.00     0.131 A 
ATOM     84  C   UNL     1      -5.241  -4.286   1.076  1.00  0.00     0.055 A 
ATOM     85  C   UNL     1      -5.863  -6.508   1.730  1.00  0.00     0.041 A 
ATOM     86  F   UNL     1      -5.736  -7.137   3.978  1.00  0.00    -0.206 F 
ATOM     87  C   UNL     1      -5.740  -5.545   0.736  1.00  0.00     0.022 A 
BRANCH  84  88
ATOM     88  S   UNL     1      -5.163  -3.022  -0.224  1.00  0.00     0.124 S 
ATOM     89  O   UNL     1      -4.555  -3.753  -1.334  1.00  0.00    -0.237 OA
ATOM     90  O   UNL     1      -6.572  -2.684  -0.392  1.00  0.00    -0.237 OA
ATOM     91  O   UNL     1      -4.325  -1.983   0.365  1.00  0.00    -0.744 OA
ENDBRANCH  84  88
ENDBRANCH  57  81
BRANCH  69  92
ATOM     92  C   UNL     1      -5.173  -5.534   9.672  1.00  0.00     0.023 A 
ATOM     93  C   UNL     1      -5.306  -6.197  10.906  1.00  0.00     0.031 A 
ATOM     94  C   UNL     1      -3.866  -5.390   9.162  1.00  0.00     0.131 A 
ATOM     95  C   UNL     1      -4.178  -6.653  11.601  1.00  0.00     0.055 A 
ATOM     96  C   UNL     1      -2.746  -5.910   9.825  1.00  0.00     0.041 A 
ATOM     97  F   UNL     1      -3.616  -4.682   8.053  1.00  0.00    -0.206 F 
ATOM     98  C   UNL     1      -2.897  -6.530  11.060  1.00  0.00     0.022 A 
BRANCH  95  99
ATOM     99  S   UNL     1      -4.338  -7.284  13.292  1.00  0.00     0.124 S 
ATOM    100  O   UNL     1      -3.929  -8.678  13.142  1.00  0.00    -0.237 OA
ATOM    101  O   UNL     1      -3.405  -6.434  14.030  1.00  0.00    -0.237 OA
ATOM    102  O   UNL     1      -5.746  -7.077  13.615  1.00  0.00    -0.744 OA
ENDBRANCH  95  99
ENDBRANCH  69  92
ENDBRANCH  43  44
ENDBRANCH  36  38
ENDBRANCH  35  36
ENDBRANCH  34  35
ENDBRANCH  33  34
ENDBRANCH  32  33
ENDBRANCH   1  32
TORSDOF 22
