REMARK SMILES CCN1C[C@@H](C(=O)OCCOCCOCCOC(=O)c2ccc(-c3c4nc(c(-c5cc(S(=O)(=O)[O-])ccc5F)c5ccc([nH]5)c(-c5cc(S(=O)(=O)[O-])ccc5F)c5nc(c(-c6cc(S(=O)(=O)[O-])ccc6F)c6ccc3[nH]6)C=C5)C=C4)cc2)CC1=O
REMARK SMILES IDX 13 1 12 2 11 3 10 4 9 5 8 6 6 7 7 8 5 9 3 10 4 11 84 12
REMARK SMILES IDX 83 13 85 14 2 15 1 16 14 17 15 18 16 19 17 20 18 21 19 22
REMARK SMILES IDX 20 23 21 24 82 25 22 26 81 27 23 28 24 29 25 30 75 31 26 32
REMARK SMILES IDX 80 33 74 34 76 35 27 36 79 37 73 38 72 39 28 41 60 42 40 43
REMARK SMILES IDX 59 44 41 45 44 46 58 47 77 48 42 49 43 50 57 52 78 53 45 54
REMARK SMILES IDX 29 55 30 56 38 57 31 58 37 59 39 60 36 61 32 62 33 63 34 64
REMARK SMILES IDX 35 65 61 66 62 67 70 68 63 69 69 70 71 71 68 72 64 73 65 74
REMARK SMILES IDX 66 75 67 76 46 77 47 78 55 79 48 80 54 81 56 82 53 83 49 84
REMARK SMILES IDX 50 85 51 86 52 87
REMARK H PARENT 76 40 44 51
REMARK Flexibility Score: inf
ROOT
ATOM      1  C   UNL     1       2.790   3.738  -6.129  1.00  0.00     0.188 C 
ENDROOT
BRANCH   1   2
ATOM      2  C   UNL     1       1.829   4.908  -6.398  1.00  0.00     0.188 C 
BRANCH   2   3
ATOM      3  O   UNL     1       2.346   6.234  -6.436  1.00  0.00    -0.376 OA
BRANCH   3   4
ATOM      4  C   UNL     1       3.338   6.620  -5.491  1.00  0.00     0.202 C 
BRANCH   4   5
ATOM      5  C   UNL     1       3.059   6.391  -3.995  1.00  0.00     0.261 C 
BRANCH   5   6
ATOM      6  O   UNL     1       2.650   5.049  -3.648  1.00  0.00    -0.463 OA
BRANCH   6   7
ATOM      7  C   UNL     1       1.510   4.932  -2.925  1.00  0.00     0.311 C 
ATOM      8  O   UNL     1       0.885   5.885  -2.469  1.00  0.00    -0.252 OA
BRANCH   7   9
ATOM      9  C   UNL     1       1.011   3.511  -2.748  1.00  0.00     0.128 C 
ATOM     10  N   UNL     1       0.918   1.899  -1.038  1.00  0.00    -0.342 N 
ATOM     11  C   UNL     1       0.755   3.312  -1.266  1.00  0.00     0.135 C 
ATOM     12  C   UNL     1       1.559   1.272  -2.087  1.00  0.00     0.223 C 
ATOM     13  C   UNL     1       1.885   2.315  -3.118  1.00  0.00     0.117 C 
ATOM     14  O   UNL     1       1.851   0.093  -2.194  1.00  0.00    -0.275 OA
BRANCH  10  15
ATOM     15  C   UNL     1       0.381   1.284   0.164  1.00  0.00     0.116 C 
ATOM     16  C   UNL     1       0.915  -0.096   0.498  1.00  0.00     0.027 C 
ENDBRANCH  10  15
ENDBRANCH   7   9
ENDBRANCH   6   7
ENDBRANCH   5   6
ENDBRANCH   4   5
ENDBRANCH   3   4
ENDBRANCH   2   3
ENDBRANCH   1   2
BRANCH   1  17
ATOM     17  O   UNL     1       4.144   4.103  -6.003  1.00  0.00    -0.376 OA
BRANCH  17  18
ATOM     18  C   UNL     1       5.056   3.554  -6.932  1.00  0.00     0.202 C 
BRANCH  18  19
ATOM     19  C   UNL     1       4.789   3.780  -8.430  1.00  0.00     0.261 C 
BRANCH  19  20
ATOM     20  O   UNL     1       3.434   3.609  -8.884  1.00  0.00    -0.460 OA
BRANCH  20  21
ATOM     21  C   UNL     1       2.982   2.339  -9.023  1.00  0.00     0.338 C 
ATOM     22  O   UNL     1       3.615   1.319  -8.798  1.00  0.00    -0.246 OA
BRANCH  21  23
ATOM     23  C   UNL     1       1.520   2.398  -9.266  1.00  0.00     0.060 A 
ATOM     24  C   UNL     1       0.641   1.818  -8.338  1.00  0.00     0.016 A 
ATOM     25  C   UNL     1       1.014   3.034 -10.401  1.00  0.00     0.016 A 
ATOM     26  C   UNL     1      -0.741   1.857  -8.553  1.00  0.00     0.010 A 
ATOM     27  C   UNL     1      -0.368   3.049 -10.628  1.00  0.00     0.010 A 
ATOM     28  C   UNL     1      -1.254   2.440  -9.720  1.00  0.00    -0.014 A 
BRANCH  28  29
ATOM     29  C   UNL     1      -2.681   2.248 -10.099  1.00  0.00     0.031 A 
ATOM     30  C   UNL     1      -3.010   1.178 -11.108  1.00  0.00     0.074 A 
ATOM     31  C   UNL     1      -3.670   2.991  -9.566  1.00  0.00     0.049 A 
ATOM     32  N   UNL     1      -4.146   0.905 -11.695  1.00  0.00    -0.248 NA
ATOM     33  C   UNL     1      -1.898   0.301 -11.510  1.00  0.00     0.031 C 
ATOM     34  C   UNL     1      -3.501   4.011  -8.533  1.00  0.00     0.029 A 
ATOM     35  N   UNL     1      -5.019   3.010  -9.836  1.00  0.00    -0.354 N 
ATOM     36  C   UNL     1      -3.890  -0.176 -12.532  1.00  0.00     0.074 A 
ATOM     37  C   UNL     1      -2.479  -0.477 -12.410  1.00  0.00     0.031 C 
ATOM     38  C   UNL     1      -4.698   4.567  -8.269  1.00  0.00     0.029 A 
ATOM     39  C   UNL     1      -5.710   3.983  -9.149  1.00  0.00     0.049 A 
ATOM     40  H   UNL     1      -5.450   2.385 -10.463  1.00  0.00     0.167 HD
ATOM     41  C   UNL     1      -4.751  -0.866 -13.319  1.00  0.00     0.034 A 
ATOM     42  C   UNL     1      -6.998   4.379  -9.248  1.00  0.00     0.034 A 
ATOM     43  C   UNL     1      -6.152  -0.550 -13.450  1.00  0.00     0.049 A 
ATOM     44  C   UNL     1      -7.911   3.680 -10.237  1.00  0.00     0.074 A 
ATOM     45  C   UNL     1      -7.104  -1.170 -14.242  1.00  0.00     0.029 A 
ATOM     46  N   UNL     1      -6.803   0.472 -12.774  1.00  0.00    -0.354 N 
ATOM     47  N   UNL     1      -7.650   2.671 -11.038  1.00  0.00    -0.248 NA
ATOM     48  C   UNL     1      -9.294   4.170 -10.331  1.00  0.00     0.031 C 
ATOM     49  C   UNL     1      -8.311  -0.480 -14.098  1.00  0.00     0.029 A 
ATOM     50  C   UNL     1      -8.137   0.514 -13.150  1.00  0.00     0.049 A 
ATOM     51  H   UNL     1      -6.381   1.078 -12.124  1.00  0.00     0.167 HD
ATOM     52  C   UNL     1      -8.850   2.380 -11.687  1.00  0.00     0.074 A 
ATOM     53  C   UNL     1      -9.835   3.306 -11.175  1.00  0.00     0.031 C 
ATOM     54  C   UNL     1      -9.117   1.431 -12.620  1.00  0.00     0.034 A 
BRANCH  41  55
ATOM     55  C   UNL     1      -4.193  -2.012 -14.124  1.00  0.00     0.023 A 
ATOM     56  C   UNL     1      -3.678  -3.163 -13.503  1.00  0.00     0.031 A 
ATOM     57  C   UNL     1      -4.177  -1.957 -15.529  1.00  0.00     0.131 A 
ATOM     58  C   UNL     1      -3.122  -4.188 -14.281  1.00  0.00     0.055 A 
ATOM     59  C   UNL     1      -3.693  -3.015 -16.300  1.00  0.00     0.041 A 
ATOM     60  F   UNL     1      -4.632  -0.873 -16.176  1.00  0.00    -0.206 F 
ATOM     61  C   UNL     1      -3.152  -4.135 -15.676  1.00  0.00     0.022 A 
BRANCH  58  62
ATOM     62  S   UNL     1      -2.249  -5.537 -13.440  1.00  0.00     0.124 S 
ATOM     63  O   UNL     1      -1.192  -4.811 -12.740  1.00  0.00    -0.237 OA
ATOM     64  O   UNL     1      -3.293  -6.113 -12.600  1.00  0.00    -0.237 OA
ATOM     65  O   UNL     1      -1.792  -6.385 -14.538  1.00  0.00    -0.744 OA
ENDBRANCH  58  62
ENDBRANCH  41  55
BRANCH  42  66
ATOM     66  C   UNL     1      -7.520   5.530  -8.446  1.00  0.00     0.023 A 
ATOM     67  C   UNL     1      -8.623   5.375  -7.590  1.00  0.00     0.031 A 
ATOM     68  C   UNL     1      -7.008   6.829  -8.621  1.00  0.00     0.131 A 
ATOM     69  C   UNL     1      -9.230   6.503  -7.015  1.00  0.00     0.055 A 
ATOM     70  C   UNL     1      -7.566   7.938  -7.982  1.00  0.00     0.041 A 
ATOM     71  F   UNL     1      -5.963   7.044  -9.436  1.00  0.00    -0.206 F 
ATOM     72  C   UNL     1      -8.700   7.781  -7.191  1.00  0.00     0.022 A 
BRANCH  69  73
ATOM     73  S   UNL     1     -10.822   6.291  -6.167  1.00  0.00     0.124 S 
ATOM     74  O   UNL     1     -11.625   5.656  -7.205  1.00  0.00    -0.237 OA
ATOM     75  O   UNL     1     -10.450   5.447  -5.035  1.00  0.00    -0.237 OA
ATOM     76  O   UNL     1     -11.208   7.657  -5.824  1.00  0.00    -0.744 OA
ENDBRANCH  69  73
ENDBRANCH  42  66
BRANCH  54  77
ATOM     77  C   UNL     1     -10.548   1.294 -13.089  1.00  0.00     0.023 A 
ATOM     78  C   UNL     1     -11.200   2.310 -13.809  1.00  0.00     0.031 A 
ATOM     79  C   UNL     1     -11.272   0.121 -12.804  1.00  0.00     0.131 A 
ATOM     80  C   UNL     1     -12.549   2.159 -14.167  1.00  0.00     0.055 A 
ATOM     81  C   UNL     1     -12.592  -0.051 -13.222  1.00  0.00     0.041 A 
ATOM     82  F   UNL     1     -10.703  -0.883 -12.117  1.00  0.00    -0.206 F 
ATOM     83  C   UNL     1     -13.243   0.977 -13.895  1.00  0.00     0.022 A 
BRANCH  80  84
ATOM     84  S   UNL     1     -13.418   3.569 -14.908  1.00  0.00     0.124 S 
ATOM     85  O   UNL     1     -13.254   4.598 -13.886  1.00  0.00    -0.237 OA
ATOM     86  O   UNL     1     -12.676   3.777 -16.147  1.00  0.00    -0.237 OA
ATOM     87  O   UNL     1     -14.785   3.078 -15.080  1.00  0.00    -0.744 OA
ENDBRANCH  80  84
ENDBRANCH  54  77
ENDBRANCH  28  29
ENDBRANCH  21  23
ENDBRANCH  20  21
ENDBRANCH  19  20
ENDBRANCH  18  19
ENDBRANCH  17  18
ENDBRANCH   1  17
TORSDOF 21
