REMARK SMILES Cc1ncccc1C(=O)Nc1ccccc1C(=O)OCCOCCOCCOC(=O)c1ccc(-c2c3nc(c(-c4cc(S(=O)(=O)[O-])ccc4F)c4ccc([nH]4)c(-c4cc(S(=O)(=O)[O-])ccc4F)c4nc(c(-c5cc(S(=O)(=O)[O-])ccc5F)c5ccc2[nH]5)C=C4)C=C3)cc1
REMARK SMILES IDX 24 1 23 2 22 3 21 4 20 5 19 6 17 7 18 8 16 9 11 10 12 11
REMARK SMILES IDX 13 12 15 13 14 14 10 15 8 16 9 17 7 19 1 20 2 21 3 22 4 23
REMARK SMILES IDX 6 24 5 25 25 26 26 27 27 28 28 29 29 30 30 31 31 32 32 33
REMARK SMILES IDX 93 34 33 35 92 36 34 37 35 38 36 39 86 40 37 41 91 42 85 43
REMARK SMILES IDX 87 44 38 45 90 46 84 47 83 48 39 50 71 51 51 52 70 53 52 54
REMARK SMILES IDX 55 55 69 56 88 57 53 58 54 59 68 61 89 62 56 63 40 64 41 65
REMARK SMILES IDX 49 66 42 67 48 68 50 69 47 70 43 71 44 72 45 73 46 74 72 75
REMARK SMILES IDX 73 76 81 77 74 78 80 79 82 80 79 81 75 82 76 83 77 84 78 85
REMARK SMILES IDX 57 86 58 87 66 88 59 89 65 90 67 91 64 92 60 93 61 94 62 95
REMARK SMILES IDX 63 96
REMARK H PARENT 10 18 87 49 55 60
REMARK Flexibility Score: inf
ROOT
ATOM      1  C   UNL     1       2.412  -1.607   3.885  1.00  0.00     0.188 C 
ENDROOT
BRANCH   1   2
ATOM      2  C   UNL     1       1.544  -0.402   4.309  1.00  0.00     0.188 C 
BRANCH   2   3
ATOM      3  O   UNL     1       0.225  -0.646   4.745  1.00  0.00    -0.376 OA
BRANCH   3   4
ATOM      4  C   UNL     1      -0.759  -1.044   3.812  1.00  0.00     0.202 C 
BRANCH   4   5
ATOM      5  C   UNL     1      -0.637  -0.832   2.301  1.00  0.00     0.261 C 
BRANCH   5   6
ATOM      6  O   UNL     1       0.639  -1.063   1.689  1.00  0.00    -0.460 OA
BRANCH   6   7
ATOM      7  C   UNL     1       1.244   0.049   1.188  1.00  0.00     0.340 C 
ATOM      8  O   UNL     1       0.838   1.194   1.311  1.00  0.00    -0.246 OA
BRANCH   7   9
ATOM      9  C   UNL     1       2.579  -0.257   0.615  1.00  0.00     0.083 A 
ATOM     10  C   UNL     1       2.915  -1.387  -0.149  1.00  0.00     0.056 A 
ATOM     11  C   UNL     1       4.274  -1.599  -0.465  1.00  0.00     0.027 A 
ATOM     12  C   UNL     1       5.257  -0.663  -0.137  1.00  0.00     0.002 A 
ATOM     13  C   UNL     1       3.585   0.677   0.949  1.00  0.00     0.018 A 
ATOM     14  C   UNL     1       4.909   0.486   0.558  1.00  0.00     0.001 A 
BRANCH  10  15
ATOM     15  N   UNL     1       2.050  -2.338  -0.725  1.00  0.00    -0.321 N 
ATOM     16  C   UNL     1       0.757  -2.303  -1.185  1.00  0.00     0.257 C 
ATOM     17  O   UNL     1       0.243  -3.366  -1.547  1.00  0.00    -0.269 OA
ATOM     18  H   UNL     1       2.466  -3.226  -0.818  1.00  0.00     0.170 HD
BRANCH  16  19
ATOM     19  C   UNL     1      -0.058  -1.076  -1.300  1.00  0.00     0.061 A 
ATOM     20  C   UNL     1       1.681   0.428  -2.445  1.00  0.00     0.067 C 
ATOM     21  C   UNL     1       0.354   0.159  -1.806  1.00  0.00     0.050 A 
ATOM     22  N   UNL     1      -0.442   1.262  -1.724  1.00  0.00    -0.261 NA
ATOM     23  C   UNL     1      -1.659   1.141  -1.153  1.00  0.00     0.111 A 
ATOM     24  C   UNL     1      -1.379  -1.190  -0.838  1.00  0.00     0.017 A 
ATOM     25  C   UNL     1      -2.186  -0.063  -0.735  1.00  0.00     0.021 A 
ENDBRANCH  16  19
ENDBRANCH  10  15
ENDBRANCH   7   9
ENDBRANCH   6   7
ENDBRANCH   5   6
ENDBRANCH   4   5
ENDBRANCH   3   4
ENDBRANCH   2   3
ENDBRANCH   1   2
BRANCH   1  26
ATOM     26  O   UNL     1       1.870  -2.910   3.876  1.00  0.00    -0.376 OA
BRANCH  26  27
ATOM     27  C   UNL     1       1.326  -3.441   5.071  1.00  0.00     0.202 C 
BRANCH  27  28
ATOM     28  C   UNL     1       1.886  -3.135   6.475  1.00  0.00     0.261 C 
BRANCH  28  29
ATOM     29  O   UNL     1       2.393  -1.813   6.710  1.00  0.00    -0.460 OA
BRANCH  29  30
ATOM     30  C   UNL     1       3.751  -1.706   6.764  1.00  0.00     0.338 C 
ATOM     31  O   UNL     1       4.552  -2.611   6.672  1.00  0.00    -0.246 OA
BRANCH  30  32
ATOM     32  C   UNL     1       4.125  -0.269   6.699  1.00  0.00     0.060 A 
ATOM     33  C   UNL     1       4.908   0.172   5.619  1.00  0.00     0.016 A 
ATOM     34  C   UNL     1       3.704   0.634   7.674  1.00  0.00     0.016 A 
ATOM     35  C   UNL     1       5.300   1.509   5.527  1.00  0.00     0.010 A 
ATOM     36  C   UNL     1       4.130   1.966   7.602  1.00  0.00     0.010 A 
ATOM     37  C   UNL     1       4.961   2.401   6.551  1.00  0.00    -0.014 A 
BRANCH  37  38
ATOM     38  C   UNL     1       5.704   3.682   6.682  1.00  0.00     0.031 A 
ATOM     39  C   UNL     1       6.899   3.698   7.599  1.00  0.00     0.074 A 
ATOM     40  C   UNL     1       5.364   4.794   6.006  1.00  0.00     0.049 A 
ATOM     41  N   UNL     1       7.662   4.694   7.968  1.00  0.00    -0.248 NA
ATOM     42  C   UNL     1       7.273   2.402   8.187  1.00  0.00     0.031 C 
ATOM     43  C   UNL     1       4.282   4.897   5.030  1.00  0.00     0.029 A 
ATOM     44  N   UNL     1       5.901   6.058   6.050  1.00  0.00    -0.354 N 
ATOM     45  C   UNL     1       8.599   4.147   8.839  1.00  0.00     0.074 A 
ATOM     46  C   UNL     1       8.275   2.744   8.977  1.00  0.00     0.031 C 
ATOM     47  C   UNL     1       4.229   6.162   4.574  1.00  0.00     0.029 A 
ATOM     48  C   UNL     1       5.242   6.968   5.257  1.00  0.00     0.049 A 
ATOM     49  H   UNL     1       6.685   6.291   6.597  1.00  0.00     0.167 HD
ATOM     50  C   UNL     1       9.642   4.754   9.459  1.00  0.00     0.034 A 
ATOM     51  C   UNL     1       5.419   8.300   5.123  1.00  0.00     0.034 A 
ATOM     52  C   UNL     1       9.938   6.159   9.335  1.00  0.00     0.049 A 
ATOM     53  C   UNL     1       6.503   8.986   5.925  1.00  0.00     0.074 A 
ATOM     54  C   UNL     1      10.957   6.882   9.929  1.00  0.00     0.029 A 
ATOM     55  N   UNL     1       9.203   7.062   8.576  1.00  0.00    -0.354 N 
ATOM     56  N   UNL     1       7.374   8.467   6.761  1.00  0.00    -0.248 NA
ATOM     57  C   UNL     1       6.628  10.442   5.760  1.00  0.00     0.031 C 
ATOM     58  C   UNL     1      10.790   8.230   9.597  1.00  0.00     0.029 A 
ATOM     59  C   UNL     1       9.726   8.339   8.716  1.00  0.00     0.049 A 
ATOM     60  H   UNL     1       8.424   6.830   8.021  1.00  0.00     0.167 HD
ATOM     61  C   UNL     1       8.176   9.527   7.185  1.00  0.00     0.074 A 
ATOM     62  C   UNL     1       7.687  10.711   6.510  1.00  0.00     0.031 C 
ATOM     63  C   UNL     1       9.229   9.519   8.043  1.00  0.00     0.034 A 
BRANCH  50  64
ATOM     64  C   UNL     1      10.485   3.896  10.374  1.00  0.00     0.023 A 
ATOM     65  C   UNL     1      11.190   2.777   9.896  1.00  0.00     0.031 A 
ATOM     66  C   UNL     1      10.525   4.155  11.755  1.00  0.00     0.131 A 
ATOM     67  C   UNL     1      11.815   1.904  10.799  1.00  0.00     0.055 A 
ATOM     68  C   UNL     1      11.234   3.337  12.638  1.00  0.00     0.041 A 
ATOM     69  F   UNL     1       9.851   5.192  12.278  1.00  0.00    -0.206 F 
ATOM     70  C   UNL     1      11.866   2.192  12.164  1.00  0.00     0.022 A 
BRANCH  67  71
ATOM     71  S   UNL     1      12.386   0.294  10.187  1.00  0.00     0.124 S 
ATOM     72  O   UNL     1      11.158  -0.258   9.619  1.00  0.00    -0.237 OA
ATOM     73  O   UNL     1      13.420   0.670   9.230  1.00  0.00    -0.237 OA
ATOM     74  O   UNL     1      12.864  -0.380  11.392  1.00  0.00    -0.744 OA
ENDBRANCH  67  71
ENDBRANCH  50  64
BRANCH  51  75
ATOM     75  C   UNL     1       4.536   9.095   4.219  1.00  0.00     0.023 A 
ATOM     76  C   UNL     1       5.062   9.775   3.108  1.00  0.00     0.031 A 
ATOM     77  C   UNL     1       3.163   9.239   4.488  1.00  0.00     0.131 A 
ATOM     78  C   UNL     1       4.230  10.597   2.330  1.00  0.00     0.055 A 
ATOM     79  C   UNL     1       2.329  10.013   3.679  1.00  0.00     0.041 A 
ATOM     80  F   UNL     1       2.609   8.622   5.544  1.00  0.00    -0.206 F 
ATOM     81  C   UNL     1       2.864  10.707   2.598  1.00  0.00     0.022 A 
BRANCH  78  82
ATOM     82  S   UNL     1       4.978  11.589   1.008  1.00  0.00     0.124 S 
ATOM     83  O   UNL     1       5.919  12.415   1.755  1.00  0.00    -0.237 OA
ATOM     84  O   UNL     1       5.564  10.562   0.153  1.00  0.00    -0.237 OA
ATOM     85  O   UNL     1       3.840  12.302   0.432  1.00  0.00    -0.744 OA
ENDBRANCH  78  82
ENDBRANCH  51  75
BRANCH  63  86
ATOM     86  C   UNL     1       9.972  10.820   8.251  1.00  0.00     0.023 A 
ATOM     87  C   UNL     1       9.374  11.938   8.859  1.00  0.00     0.031 A 
ATOM     88  C   UNL     1      11.310  10.940   7.828  1.00  0.00     0.131 A 
ATOM     89  C   UNL     1      10.091  13.140   8.975  1.00  0.00     0.055 A 
ATOM     90  C   UNL     1      12.039  12.116   8.008  1.00  0.00     0.041 A 
ATOM     91  F   UNL     1      11.934   9.909   7.236  1.00  0.00    -0.206 F 
ATOM     92  C   UNL     1      11.426  13.229   8.572  1.00  0.00     0.022 A 
BRANCH  89  93
ATOM     93  S   UNL     1       9.225  14.621   9.565  1.00  0.00     0.124 S 
ATOM     94  O   UNL     1       8.129  14.734   8.607  1.00  0.00    -0.237 OA
ATOM     95  O   UNL     1       8.848  14.242  10.923  1.00  0.00    -0.237 OA
ATOM     96  O   UNL     1      10.238  15.671   9.474  1.00  0.00    -0.744 OA
ENDBRANCH  89  93
ENDBRANCH  63  86
ENDBRANCH  37  38
ENDBRANCH  30  32
ENDBRANCH  29  30
ENDBRANCH  28  29
ENDBRANCH  27  28
ENDBRANCH  26  27
ENDBRANCH   1  26
TORSDOF 22
