REMARK SMILES O=C(CNC(=O)OCC1=Cc2ccccc2S1(=O)=O)OCCOCCOCCOC(=O)c1ccc(-c2c3nc(c(-c4cc(S(=O)(=O)[O-])ccc4F)c4ccc([nH]4)c(-c4cc(S(=O)(=O)[O-])ccc4F)c4nc(c(-c5cc(S(=O)(=O)[O-])ccc5F)c5ccc2[nH]5)C=C4)C=C3)cc1
REMARK SMILES IDX 24 1 23 2 22 3 21 4 20 5 2 6 1 7 3 8 4 9 5 10 6 12 7 13 8 14
REMARK SMILES IDX 9 15 10 16 17 17 11 18 16 19 18 20 19 21 12 22 15 23 13 24
REMARK SMILES IDX 14 25 25 26 26 27 27 28 28 29 29 30 30 31 31 32 32 33 33 34
REMARK SMILES IDX 94 35 34 36 93 37 35 38 36 39 37 40 87 41 38 42 92 43 86 44
REMARK SMILES IDX 88 45 39 46 91 47 85 48 84 49 40 51 72 52 52 53 71 54 53 55
REMARK SMILES IDX 56 56 70 57 89 58 54 59 55 60 69 62 90 63 57 64 41 65 42 66
REMARK SMILES IDX 50 67 43 68 49 69 51 70 48 71 44 72 45 73 46 74 47 75 73 76
REMARK SMILES IDX 74 77 82 78 75 79 81 80 83 81 80 82 76 83 77 84 78 85 79 86
REMARK SMILES IDX 58 87 59 88 67 89 60 90 66 91 68 92 65 93 61 94 62 95 63 96
REMARK SMILES IDX 64 97
REMARK H PARENT 4 11 88 50 56 61
REMARK Flexibility Score: inf
ROOT
ATOM      1  C   UNL     1       2.894   1.614   0.547  1.00  0.00     0.188 C 
ENDROOT
BRANCH   1   2
ATOM      2  O   UNL     1       4.235   1.166   0.452  1.00  0.00    -0.376 OA
BRANCH   2   3
ATOM      3  C   UNL     1       4.734   0.682  -0.779  1.00  0.00     0.202 C 
BRANCH   3   4
ATOM      4  C   UNL     1       4.136  -0.565  -1.433  1.00  0.00     0.261 C 
BRANCH   4   5
ATOM      5  O   UNL     1       2.770  -0.882  -1.146  1.00  0.00    -0.462 OA
BRANCH   5   6
ATOM      6  C   UNL     1       2.285  -1.535  -0.062  1.00  0.00     0.325 C 
ATOM      7  O   UNL     1       1.065  -1.675   0.035  1.00  0.00    -0.250 OA
BRANCH   6   8
ATOM      8  C   UNL     1       3.200  -1.913   1.102  1.00  0.00     0.242 C 
BRANCH   8   9
ATOM      9  N   UNL     1       4.414  -2.585   0.702  1.00  0.00    -0.311 N 
ATOM     10  C   UNL     1       5.687  -2.179   0.925  1.00  0.00     0.407 C 
ATOM     11  H   UNL     1       4.304  -3.432   0.212  1.00  0.00     0.167 HD
ATOM     12  O   UNL     1       6.622  -2.695   0.326  1.00  0.00    -0.225 OA
BRANCH  10  13
ATOM     13  O   UNL     1       5.803  -1.168   1.818  1.00  0.00    -0.444 OA
BRANCH  13  14
ATOM     14  C   UNL     1       7.148  -0.744   2.081  1.00  0.00     0.283 C 
BRANCH  14  15
ATOM     15  C   UNL     1       7.733  -1.466   3.239  1.00  0.00     0.087 C 
ATOM     16  C   UNL     1       8.325  -0.952   4.336  1.00  0.00     0.029 C 
ATOM     17  S   UNL     1       7.732  -3.211   3.268  1.00  0.00     0.206 S 
ATOM     18  C   UNL     1       8.720  -1.979   5.296  1.00  0.00    -0.005 A 
ATOM     19  C   UNL     1       8.407  -3.266   4.871  1.00  0.00     0.079 A 
ATOM     20  O   UNL     1       6.389  -3.744   3.352  1.00  0.00    -0.219 OA
ATOM     21  O   UNL     1       8.742  -3.737   2.372  1.00  0.00    -0.219 OA
ATOM     22  C   UNL     1       9.290  -1.811   6.546  1.00  0.00     0.009 A 
ATOM     23  C   UNL     1       8.568  -4.401   5.642  1.00  0.00     0.021 A 
ATOM     24  C   UNL     1       9.487  -2.944   7.351  1.00  0.00     0.001 A 
ATOM     25  C   UNL     1       9.115  -4.227   6.908  1.00  0.00     0.001 A 
ENDBRANCH  14  15
ENDBRANCH  13  14
ENDBRANCH  10  13
ENDBRANCH   8   9
ENDBRANCH   6   8
ENDBRANCH   5   6
ENDBRANCH   4   5
ENDBRANCH   3   4
ENDBRANCH   2   3
ENDBRANCH   1   2
BRANCH   1  26
ATOM     26  C   UNL     1       2.353   2.789  -0.283  1.00  0.00     0.188 C 
BRANCH  26  27
ATOM     27  O   UNL     1       3.175   3.449  -1.222  1.00  0.00    -0.376 OA
BRANCH  27  28
ATOM     28  C   UNL     1       4.386   4.054  -0.798  1.00  0.00     0.202 C 
BRANCH  28  29
ATOM     29  C   UNL     1       4.463   4.886   0.485  1.00  0.00     0.261 C 
BRANCH  29  30
ATOM     30  O   UNL     1       4.064   4.193   1.678  1.00  0.00    -0.460 OA
BRANCH  30  31
ATOM     31  C   UNL     1       3.028   4.768   2.338  1.00  0.00     0.338 C 
ATOM     32  O   UNL     1       2.397   5.753   1.992  1.00  0.00    -0.246 OA
BRANCH  31  33
ATOM     33  C   UNL     1       2.662   3.984   3.528  1.00  0.00     0.060 A 
ATOM     34  C   UNL     1       1.417   3.343   3.547  1.00  0.00     0.016 A 
ATOM     35  C   UNL     1       3.458   4.024   4.673  1.00  0.00     0.016 A 
ATOM     36  C   UNL     1       0.943   2.775   4.730  1.00  0.00     0.010 A 
ATOM     37  C   UNL     1       2.975   3.464   5.862  1.00  0.00     0.010 A 
ATOM     38  C   UNL     1       1.697   2.874   5.907  1.00  0.00    -0.014 A 
BRANCH  38  39
ATOM     39  C   UNL     1       1.074   2.535   7.214  1.00  0.00     0.031 A 
ATOM     40  C   UNL     1       0.550   3.652   8.079  1.00  0.00     0.074 A 
ATOM     41  C   UNL     1       0.949   1.258   7.617  1.00  0.00     0.049 A 
ATOM     42  N   UNL     1       0.022   3.602   9.275  1.00  0.00    -0.248 NA
ATOM     43  C   UNL     1       0.641   5.008   7.516  1.00  0.00     0.031 C 
ATOM     44  C   UNL     1       1.364   0.086   6.849  1.00  0.00     0.029 A 
ATOM     45  N   UNL     1       0.438   0.735   8.779  1.00  0.00    -0.354 N 
ATOM     46  C   UNL     1      -0.279   4.918   9.612  1.00  0.00     0.074 A 
ATOM     47  C   UNL     1       0.167   5.744   8.509  1.00  0.00     0.031 C 
ATOM     48  C   UNL     1       1.098  -1.020   7.565  1.00  0.00     0.029 A 
ATOM     49  C   UNL     1       0.534  -0.635   8.858  1.00  0.00     0.049 A 
ATOM     50  H   UNL     1       0.040   1.289   9.490  1.00  0.00     0.167 HD
ATOM     51  C   UNL     1      -0.879   5.394  10.733  1.00  0.00     0.034 A 
ATOM     52  C   UNL     1       0.227  -1.477   9.867  1.00  0.00     0.034 A 
ATOM     53  C   UNL     1      -1.309   4.561  11.831  1.00  0.00     0.049 A 
ATOM     54  C   UNL     1      -0.349  -0.915  11.148  1.00  0.00     0.074 A 
ATOM     55  C   UNL     1      -1.935   4.940  13.006  1.00  0.00     0.029 A 
ATOM     56  N   UNL     1      -1.146   3.183  11.898  1.00  0.00    -0.354 N 
ATOM     57  N   UNL     1      -0.629   0.331  11.455  1.00  0.00    -0.248 NA
ATOM     58  C   UNL     1      -0.657  -1.878  12.214  1.00  0.00     0.031 C 
ATOM     59  C   UNL     1      -2.077   3.807  13.814  1.00  0.00     0.029 A 
ATOM     60  C   UNL     1      -1.625   2.704  13.109  1.00  0.00     0.049 A 
ATOM     61  H   UNL     1      -0.750   2.627  11.188  1.00  0.00     0.167 HD
ATOM     62  C   UNL     1      -1.182   0.293  12.734  1.00  0.00     0.074 A 
ATOM     63  C   UNL     1      -1.206  -1.099  13.133  1.00  0.00     0.031 C 
ATOM     64  C   UNL     1      -1.637   1.314  13.506  1.00  0.00     0.034 A 
BRANCH  51  65
ATOM     65  C   UNL     1      -1.050   6.891  10.846  1.00  0.00     0.023 A 
ATOM     66  C   UNL     1      -1.856   7.617   9.951  1.00  0.00     0.031 A 
ATOM     67  C   UNL     1      -0.373   7.608  11.849  1.00  0.00     0.131 A 
ATOM     68  C   UNL     1      -1.905   9.017  10.030  1.00  0.00     0.055 A 
ATOM     69  C   UNL     1      -0.494   8.993  11.976  1.00  0.00     0.041 A 
ATOM     70  F   UNL     1       0.430   6.974  12.718  1.00  0.00    -0.206 F 
ATOM     71  C   UNL     1      -1.251   9.708  11.053  1.00  0.00     0.022 A 
BRANCH  68  72
ATOM     72  S   UNL     1      -2.709   9.935   8.688  1.00  0.00     0.124 S 
ATOM     73  O   UNL     1      -1.952   9.479   7.525  1.00  0.00    -0.237 OA
ATOM     74  O   UNL     1      -4.090   9.474   8.774  1.00  0.00    -0.237 OA
ATOM     75  O   UNL     1      -2.494  11.334   9.052  1.00  0.00    -0.744 OA
ENDBRANCH  68  72
ENDBRANCH  51  65
BRANCH  52  76
ATOM     76  C   UNL     1       0.492  -2.940   9.739  1.00  0.00     0.023 A 
ATOM     77  C   UNL     1      -0.553  -3.876   9.799  1.00  0.00     0.031 A 
ATOM     78  C   UNL     1       1.807  -3.428   9.625  1.00  0.00     0.131 A 
ATOM     79  C   UNL     1      -0.262  -5.250   9.798  1.00  0.00     0.055 A 
ATOM     80  C   UNL     1       2.085  -4.794   9.562  1.00  0.00     0.041 A 
ATOM     81  F   UNL     1       2.845  -2.577   9.572  1.00  0.00    -0.206 F 
ATOM     82  C   UNL     1       1.048  -5.715   9.664  1.00  0.00     0.022 A 
BRANCH  79  83
ATOM     83  S   UNL     1      -1.617  -6.424  10.078  1.00  0.00     0.124 S 
ATOM     84  O   UNL     1      -2.116  -5.995  11.379  1.00  0.00    -0.237 OA
ATOM     85  O   UNL     1      -2.487  -6.161   8.937  1.00  0.00    -0.237 OA
ATOM     86  O   UNL     1      -0.948  -7.724  10.064  1.00  0.00    -0.744 OA
ENDBRANCH  79  83
ENDBRANCH  52  76
BRANCH  64  87
ATOM     87  C   UNL     1      -2.252   0.955  14.840  1.00  0.00     0.023 A 
ATOM     88  C   UNL     1      -1.499   0.377  15.878  1.00  0.00     0.031 A 
ATOM     89  C   UNL     1      -3.622   1.183  15.069  1.00  0.00     0.131 A 
ATOM     90  C   UNL     1      -2.131  -0.008  17.071  1.00  0.00     0.055 A 
ATOM     91  C   UNL     1      -4.230   0.860  16.283  1.00  0.00     0.041 A 
ATOM     92  F   UNL     1      -4.393   1.729  14.116  1.00  0.00    -0.206 F 
ATOM     93  C   UNL     1      -3.488   0.247  17.287  1.00  0.00     0.022 A 
BRANCH  90  94
ATOM     94  S   UNL     1      -1.179  -0.945  18.300  1.00  0.00     0.124 S 
ATOM     95  O   UNL     1      -0.734  -2.098  17.524  1.00  0.00    -0.237 OA
ATOM     96  O   UNL     1      -0.141   0.007  18.681  1.00  0.00    -0.237 OA
ATOM     97  O   UNL     1      -2.161  -1.240  19.342  1.00  0.00    -0.744 OA
ENDBRANCH  90  94
ENDBRANCH  64  87
ENDBRANCH  38  39
ENDBRANCH  31  33
ENDBRANCH  30  31
ENDBRANCH  29  30
ENDBRANCH  28  29
ENDBRANCH  27  28
ENDBRANCH  26  27
ENDBRANCH   1  26
TORSDOF 24
