REMARK SMILES Cc1cccc(-c2ncc(C[NH+]3CCC4(CC3)NC(=O)C[C@H]4C(=O)OCCOCCOCCOC(=O)c3ccc(-c4c5nc(c(-c6cc(S(=O)(=O)[O-])ccc6F)c6ccc([nH]6)c(-c6cc(S(=O)(=O)[O-])ccc6F)c6nc(c(-c7cc(S(=O)(=O)[O-])ccc7F)c7ccc4[nH]7)C=C6)C=C5)cc3)cn2)c1
REMARK SMILES IDX 29 1 28 2 27 3 26 4 25 5 23 6 24 7 22 8 12 9 13 10 17 11
REMARK SMILES IDX 14 13 16 14 15 15 18 16 19 17 21 19 20 20 11 21 10 22 7 23
REMARK SMILES IDX 8 24 101 25 9 26 100 27 6 28 1 29 2 30 3 31 102 32 4 33 5 34
REMARK SMILES IDX 30 35 31 36 32 37 33 38 34 39 35 40 36 41 37 42 38 43 99 44
REMARK SMILES IDX 39 45 98 46 40 47 41 48 42 49 92 50 43 51 97 52 91 53 93 54
REMARK SMILES IDX 44 55 96 56 90 57 89 58 45 60 77 61 57 62 76 63 58 64 61 65
REMARK SMILES IDX 75 66 94 67 59 68 60 69 74 71 95 72 62 73 46 74 47 75 55 76
REMARK SMILES IDX 48 77 54 78 56 79 53 80 49 81 50 82 51 83 52 84 78 85 79 86
REMARK SMILES IDX 87 87 80 88 86 89 88 90 85 91 81 92 82 93 83 94 84 95 63 96
REMARK SMILES IDX 64 97 72 98 65 99 71 100 73 101 70 102 66 103 67 104 68 105
REMARK SMILES IDX 69 106
REMARK H PARENT 12 12 18 18 93 59 61 70
REMARK Flexibility Score: inf
ROOT
ATOM      1  C   UNL     1      -2.251   7.458  -5.735  1.00  0.00     0.188 C 
ENDROOT
BRANCH   1   2
ATOM      2  O   UNL     1      -1.049   6.732  -6.121  1.00  0.00    -0.376 OA
BRANCH   2   3
ATOM      3  C   UNL     1      -0.529   5.418  -5.752  1.00  0.00     0.202 C 
BRANCH   3   4
ATOM      4  C   UNL     1       0.018   4.579  -4.257  1.00  0.00     0.261 C 
BRANCH   4   5
ATOM      5  O   UNL     1       0.626   4.839  -2.519  1.00  0.00    -0.463 OA
BRANCH   5   6
ATOM      6  C   UNL     1       1.442   5.642  -1.463  1.00  0.00     0.311 C 
ATOM      7  O   UNL     1       2.123   6.677  -1.605  1.00  0.00    -0.252 OA
BRANCH   6   8
ATOM      8  C   UNL     1       1.254   5.470  -0.019  1.00  0.00     0.134 C 
ATOM      9  N   UNL     1      -3.401   7.370   0.293  1.00  0.00    -0.331 N 
ATOM     10  C   UNL     1      -2.092   7.611   1.335  1.00  0.00     0.264 C 
ATOM     11  C   UNL     1      -2.685   6.808  -1.398  1.00  0.00     0.264 C 
ATOM     12  H   UNL     1      -3.977   8.178   0.059  1.00  0.00     0.348 HD
ATOM     13  C   UNL     1      -0.711   6.451   1.620  1.00  0.00     0.091 C 
ATOM     14  C   UNL     1      -1.250   5.096  -1.298  1.00  0.00     0.091 C 
ATOM     15  C   UNL     1      -0.159   5.178   0.350  1.00  0.00     0.064 C 
ATOM     16  N   UNL     1       0.055   3.966   1.103  1.00  0.00    -0.349 N 
ATOM     17  C   UNL     1       1.380   3.670   1.393  1.00  0.00     0.221 C 
ATOM     18  H   UNL     1      -0.688   3.388   1.393  1.00  0.00     0.164 HD
ATOM     19  C   UNL     1       2.263   4.667   0.743  1.00  0.00     0.117 C 
ATOM     20  O   UNL     1       1.761   2.756   2.104  1.00  0.00    -0.275 OA
BRANCH   9  21
ATOM     21  C   UNL     1      -4.432   6.226   1.170  1.00  0.00     0.302 C 
BRANCH  21  22
ATOM     22  C   UNL     1      -4.207   4.592   1.471  1.00  0.00     0.043 A 
ATOM     23  C   UNL     1      -2.916   2.099   1.062  1.00  0.00     0.159 A 
ATOM     24  N   UNL     1      -2.494   2.914   2.055  1.00  0.00    -0.236 NA
ATOM     25  N   UNL     1      -4.105   2.325   0.470  1.00  0.00    -0.236 NA
ATOM     26  C   UNL     1      -3.210   4.079   2.296  1.00  0.00     0.124 A 
ATOM     27  C   UNL     1      -4.733   3.540   0.724  1.00  0.00     0.124 A 
BRANCH  23  28
ATOM     28  C   UNL     1      -2.048   0.922   0.624  1.00  0.00     0.019 A 
ATOM     29  C   UNL     1       1.717   0.006   0.135  1.00  0.00     0.044 C 
ATOM     30  C   UNL     1       0.211  -0.127   0.178  1.00  0.00    -0.050 A 
ATOM     31  C   UNL     1      -0.380  -1.366   0.005  1.00  0.00     0.003 A 
ATOM     32  C   UNL     1      -0.636   0.976   0.457  1.00  0.00     0.015 A 
ATOM     33  C   UNL     1      -1.771  -1.465   0.059  1.00  0.00     0.001 A 
ATOM     34  C   UNL     1      -2.586  -0.344   0.353  1.00  0.00     0.012 A 
ENDBRANCH  23  28
ENDBRANCH  21  22
ENDBRANCH   9  21
ENDBRANCH   6   8
ENDBRANCH   5   6
ENDBRANCH   4   5
ENDBRANCH   3   4
ENDBRANCH   2   3
ENDBRANCH   1   2
BRANCH   1  35
ATOM     35  C   UNL     1      -3.646   6.811  -5.585  1.00  0.00     0.188 C 
BRANCH  35  36
ATOM     36  O   UNL     1      -3.590   5.390  -5.517  1.00  0.00    -0.376 OA
BRANCH  36  37
ATOM     37  C   UNL     1      -4.833   4.705  -5.312  1.00  0.00     0.202 C 
BRANCH  37  38
ATOM     38  C   UNL     1      -5.659   5.012  -4.016  1.00  0.00     0.261 C 
BRANCH  38  39
ATOM     39  O   UNL     1      -5.150   4.275  -2.844  1.00  0.00    -0.460 OA
BRANCH  39  40
ATOM     40  C   UNL     1      -4.908   5.005  -1.690  1.00  0.00     0.338 C 
ATOM     41  O   UNL     1      -5.743   5.769  -1.246  1.00  0.00    -0.246 OA
BRANCH  40  42
ATOM     42  C   UNL     1      -3.357   4.853  -1.269  1.00  0.00     0.060 A 
ATOM     43  C   UNL     1      -2.277   5.720  -0.031  1.00  0.00     0.016 A 
ATOM     44  C   UNL     1      -2.846   5.043  -2.802  1.00  0.00     0.016 A 
ATOM     45  C   UNL     1      -0.874   6.884  -0.789  1.00  0.00     0.010 A 
ATOM     46  C   UNL     1      -1.658   6.084  -3.288  1.00  0.00     0.010 A 
ATOM     47  C   UNL     1      -0.510   6.900  -2.538  1.00  0.00    -0.014 A 
BRANCH  47  48
ATOM     48  C   UNL     1       1.039   6.753  -3.608  1.00  0.00     0.031 A 
ATOM     49  C   UNL     1       2.415   5.429  -3.606  1.00  0.00     0.074 A 
ATOM     50  C   UNL     1       1.165   7.565  -4.669  1.00  0.00     0.049 A 
ATOM     51  N   UNL     1       3.652   5.593  -3.151  1.00  0.00    -0.248 NA
ATOM     52  C   UNL     1       2.277   3.767  -3.479  1.00  0.00     0.031 C 
ATOM     53  C   UNL     1       2.120   7.512  -5.774  1.00  0.00     0.029 A 
ATOM     54  N   UNL     1       0.417   8.694  -4.949  1.00  0.00    -0.354 N 
ATOM     55  C   UNL     1       4.238   4.305  -2.953  1.00  0.00     0.074 A 
ATOM     56  C   UNL     1       3.212   3.420  -2.618  1.00  0.00     0.031 C 
ATOM     57  C   UNL     1       2.155   8.732  -6.352  1.00  0.00     0.029 A 
ATOM     58  C   UNL     1       1.305   9.600  -5.543  1.00  0.00     0.049 A 
ATOM     59  H   UNL     1      -0.541   8.832  -4.768  1.00  0.00     0.167 HD
ATOM     60  C   UNL     1       5.292   3.838  -3.691  1.00  0.00     0.034 A 
ATOM     61  C   UNL     1       1.698  10.641  -4.756  1.00  0.00     0.034 A 
ATOM     62  C   UNL     1       5.636   4.906  -4.591  1.00  0.00     0.049 A 
ATOM     63  C   UNL     1       3.166  10.426  -4.403  1.00  0.00     0.074 A 
ATOM     64  C   UNL     1       5.290   5.202  -5.896  1.00  0.00     0.029 A 
ATOM     65  N   UNL     1       5.950   6.094  -3.980  1.00  0.00    -0.354 N 
ATOM     66  N   UNL     1       3.771   9.262  -4.308  1.00  0.00    -0.248 NA
ATOM     67  C   UNL     1       4.100  11.542  -4.359  1.00  0.00     0.031 C 
ATOM     68  C   UNL     1       5.359   6.627  -6.027  1.00  0.00     0.029 A 
ATOM     69  C   UNL     1       5.739   7.163  -4.807  1.00  0.00     0.049 A 
ATOM     70  H   UNL     1       6.286   6.168  -3.058  1.00  0.00     0.167 HD
ATOM     71  C   UNL     1       5.131   9.451  -4.264  1.00  0.00     0.074 A 
ATOM     72  C   UNL     1       5.276  10.898  -4.296  1.00  0.00     0.031 C 
ATOM     73  C   UNL     1       6.077   8.457  -4.259  1.00  0.00     0.034 A 
BRANCH  60  74
ATOM     74  C   UNL     1       5.692   2.368  -3.878  1.00  0.00     0.023 A 
ATOM     75  C   UNL     1       6.501   2.059  -4.984  1.00  0.00     0.031 A 
ATOM     76  C   UNL     1       5.364   1.248  -3.064  1.00  0.00     0.131 A 
ATOM     77  C   UNL     1       6.894   0.739  -5.279  1.00  0.00     0.055 A 
ATOM     78  C   UNL     1       5.693  -0.080  -3.398  1.00  0.00     0.041 A 
ATOM     79  F   UNL     1       4.764   1.374  -1.872  1.00  0.00    -0.206 F 
ATOM     80  C   UNL     1       6.469  -0.341  -4.513  1.00  0.00     0.022 A 
BRANCH  77  81
ATOM     81  S   UNL     1       8.037   0.476  -6.657  1.00  0.00     0.124 S 
ATOM     82  O   UNL     1       7.221   0.866  -7.803  1.00  0.00    -0.237 OA
ATOM     83  O   UNL     1       9.140   1.365  -6.313  1.00  0.00    -0.237 OA
ATOM     84  O   UNL     1       8.347  -0.951  -6.574  1.00  0.00    -0.744 OA
ENDBRANCH  77  81
ENDBRANCH  60  74
BRANCH  61  85
ATOM     85  C   UNL     1       0.534  11.098  -3.886  1.00  0.00     0.023 A 
ATOM     86  C   UNL     1      -0.696  11.415  -4.548  1.00  0.00     0.031 A 
ATOM     87  C   UNL     1       0.445  10.789  -2.522  1.00  0.00     0.131 A 
ATOM     88  C   UNL     1      -1.941  11.252  -3.904  1.00  0.00     0.055 A 
ATOM     89  C   UNL     1      -0.799  10.679  -1.870  1.00  0.00     0.041 A 
ATOM     90  F   UNL     1       1.543  10.480  -1.818  1.00  0.00    -0.206 F 
ATOM     91  C   UNL     1      -1.996  10.866  -2.567  1.00  0.00     0.022 A 
BRANCH  88  92
ATOM     92  S   UNL     1      -3.487  11.271  -4.880  1.00  0.00     0.124 S 
ATOM     93  O   UNL     1      -3.887  12.672  -4.801  1.00  0.00    -0.237 OA
ATOM     94  O   UNL     1      -3.059  10.807  -6.197  1.00  0.00    -0.237 OA
ATOM     95  O   UNL     1      -4.351  10.325  -4.175  1.00  0.00    -0.744 OA
ENDBRANCH  88  92
ENDBRANCH  61  85
BRANCH  73  96
ATOM     96  C   UNL     1       7.475   8.603  -3.661  1.00  0.00     0.023 A 
ATOM     97  C   UNL     1       7.853   9.757  -2.987  1.00  0.00     0.031 A 
ATOM     98  C   UNL     1       8.443   7.554  -3.636  1.00  0.00     0.131 A 
ATOM     99  C   UNL     1       9.152   9.914  -2.494  1.00  0.00     0.055 A 
ATOM    100  C   UNL     1       9.665   7.646  -2.970  1.00  0.00     0.041 A 
ATOM    101  F   UNL     1       8.268   6.377  -4.252  1.00  0.00    -0.206 F 
ATOM    102  C   UNL     1      10.051   8.856  -2.434  1.00  0.00     0.022 A 
BRANCH  99 103
ATOM    103  S   UNL     1       9.669  11.601  -2.134  1.00  0.00     0.124 S 
ATOM    104  O   UNL     1       9.448  12.255  -3.423  1.00  0.00    -0.237 OA
ATOM    105  O   UNL     1       8.756  11.988  -1.065  1.00  0.00    -0.237 OA
ATOM    106  O   UNL     1      11.069  11.452  -1.746  1.00  0.00    -0.744 OA
ENDBRANCH  99 103
ENDBRANCH  73  96
ENDBRANCH  47  48
ENDBRANCH  40  42
ENDBRANCH  39  40
ENDBRANCH  38  39
ENDBRANCH  37  38
ENDBRANCH  36  37
ENDBRANCH  35  36
ENDBRANCH   1  35
TORSDOF 23
