REMARK SMILES COc1ccc(/C=C2/C(=O)N(c3ccccc3)C(=O)N=C2OCCOCCOCCOC(=O)c2ccc(-c3c4nc(c(-c5cc(S(=O)(=O)[O-])ccc5F)c5ccc([nH]5)c(-c5cc(S(=O)(=O)[O-])ccc5F)c5nc(c(-c6cc(S(=O)(=O)[O-])ccc6F)c6ccc3[nH]6)C=C5)C=C4)cc2)cc1C(=O)[O-]
REMARK SMILES IDX 27 1 26 2 25 3 24 4 23 5 22 6 21 7 7 8 8 9 9 10 10 11 11 12
REMARK SMILES IDX 20 13 18 14 19 15 6 16 3 17 4 18 98 19 5 20 97 21 2 22 1 23
REMARK SMILES IDX 99 24 100 25 101 26 12 27 13 28 17 29 14 30 16 31 15 32
REMARK SMILES IDX 28 33 29 34 30 35 31 36 32 37 33 38 34 39 35 40 96 41 36 42
REMARK SMILES IDX 95 43 37 44 38 45 39 46 89 47 40 48 94 49 88 50 90 51 41 52
REMARK SMILES IDX 93 53 87 54 86 55 42 57 74 58 54 59 73 60 55 61 58 62 72 63
REMARK SMILES IDX 91 64 56 65 57 66 71 68 92 69 59 70 43 71 44 72 52 73 45 74
REMARK SMILES IDX 51 75 53 76 50 77 46 78 47 79 48 80 49 81 75 82 76 83 84 84
REMARK SMILES IDX 77 85 83 86 85 87 82 88 78 89 79 90 80 91 81 92 60 93 61 94
REMARK SMILES IDX 69 95 62 96 68 97 70 98 67 99 63 100 64 101 65 102 66 103
REMARK H PARENT 90 56 58 67
REMARK Flexibility Score: inf
ROOT
ATOM      1  C   UNL     1      -1.432   6.694   0.456  1.00  0.00     0.188 C 
ENDROOT
BRANCH   1   2
ATOM      2  C   UNL     1      -2.410   7.526  -0.397  1.00  0.00     0.188 C 
BRANCH   2   3
ATOM      3  O   UNL     1      -3.477   6.887  -1.078  1.00  0.00    -0.376 OA
BRANCH   3   4
ATOM      4  C   UNL     1      -3.197   5.788  -1.934  1.00  0.00     0.201 C 
BRANCH   4   5
ATOM      5  C   UNL     1      -2.316   6.084  -3.138  1.00  0.00     0.260 C 
BRANCH   5   6
ATOM      6  O   UNL     1      -0.926   6.101  -2.740  1.00  0.00    -0.475 OA
BRANCH   6   7
ATOM      7  C   UNL     1      -0.211   7.229  -2.882  1.00  0.00     0.231 C 
ATOM      8  C   UNL     1       1.891   6.096  -1.923  1.00  0.00     0.027 C 
ATOM      9  C   UNL     1       1.161   7.157  -2.355  1.00  0.00     0.103 C 
ATOM     10  C   UNL     1       1.817   8.512  -2.218  1.00  0.00     0.272 C 
ATOM     11  O   UNL     1       2.962   8.611  -1.776  1.00  0.00    -0.268 OA
ATOM     12  N   UNL     1       1.016   9.592  -2.578  1.00  0.00    -0.226 N 
ATOM     13  N   UNL     1      -0.781   8.268  -3.360  1.00  0.00    -0.156 NA
ATOM     14  C   UNL     1      -0.169   9.479  -3.305  1.00  0.00     0.358 C 
ATOM     15  O   UNL     1      -0.697  10.430  -3.877  1.00  0.00    -0.245 OA
BRANCH   8  16
ATOM     16  C   UNL     1       1.687   4.625  -1.772  1.00  0.00    -0.024 A 
ATOM     17  C   UNL     1       1.398   1.830  -1.291  1.00  0.00     0.127 A 
ATOM     18  C   UNL     1       0.558   2.496  -2.179  1.00  0.00     0.048 A 
ATOM     19  C   UNL     1       2.474   2.523  -0.737  1.00  0.00     0.040 A 
ATOM     20  C   UNL     1       0.740   3.859  -2.453  1.00  0.00     0.012 A 
ATOM     21  C   UNL     1       2.576   3.919  -0.933  1.00  0.00     0.022 A 
BRANCH  17  22
ATOM     22  O   UNL     1       1.119   0.504  -1.091  1.00  0.00    -0.496 OA
ATOM     23  C   UNL     1       0.764   0.231   0.266  1.00  0.00     0.278 C 
ENDBRANCH  17  22
BRANCH  19  24
ATOM     24  C   UNL     1       3.583   1.861  -0.014  1.00  0.00     0.075 C 
ATOM     25  O   UNL     1       4.287   2.371   0.838  1.00  0.00    -0.545 OA
ATOM     26  O   UNL     1       3.849   0.630  -0.488  1.00  0.00    -0.545 OA
ENDBRANCH  19  24
ENDBRANCH   8  16
BRANCH  12  27
ATOM     27  C   UNL     1       1.451  10.915  -2.284  1.00  0.00     0.054 A 
ATOM     28  C   UNL     1       0.695  11.694  -1.396  1.00  0.00     0.027 A 
ATOM     29  C   UNL     1       2.549  11.476  -2.937  1.00  0.00     0.027 A 
ATOM     30  C   UNL     1       1.037  13.026  -1.165  1.00  0.00     0.002 A 
ATOM     31  C   UNL     1       2.860  12.823  -2.733  1.00  0.00     0.002 A 
ATOM     32  C   UNL     1       2.106  13.595  -1.849  1.00  0.00     0.000 A 
ENDBRANCH  12  27
ENDBRANCH   6   7
ENDBRANCH   5   6
ENDBRANCH   4   5
ENDBRANCH   3   4
ENDBRANCH   2   3
ENDBRANCH   1   2
BRANCH   1  33
ATOM     33  O   UNL     1      -1.788   5.389   0.886  1.00  0.00    -0.376 OA
BRANCH  33  34
ATOM     34  C   UNL     1      -3.079   5.176   1.441  1.00  0.00     0.202 C 
BRANCH  34  35
ATOM     35  C   UNL     1      -3.443   5.952   2.706  1.00  0.00     0.261 C 
BRANCH  35  36
ATOM     36  O   UNL     1      -3.542   7.366   2.466  1.00  0.00    -0.460 OA
BRANCH  36  37
ATOM     37  C   UNL     1      -2.724   8.143   3.220  1.00  0.00     0.338 C 
ATOM     38  O   UNL     1      -1.984   7.767   4.113  1.00  0.00    -0.246 OA
BRANCH  37  39
ATOM     39  C   UNL     1      -2.699   9.518   2.676  1.00  0.00     0.060 A 
ATOM     40  C   UNL     1      -1.447  10.110   2.465  1.00  0.00     0.016 A 
ATOM     41  C   UNL     1      -3.869  10.227   2.388  1.00  0.00     0.016 A 
ATOM     42  C   UNL     1      -1.363  11.422   1.999  1.00  0.00     0.010 A 
ATOM     43  C   UNL     1      -3.783  11.552   1.941  1.00  0.00     0.010 A 
ATOM     44  C   UNL     1      -2.531  12.164   1.768  1.00  0.00    -0.014 A 
BRANCH  44  45
ATOM     45  C   UNL     1      -2.425  13.626   1.526  1.00  0.00     0.031 A 
ATOM     46  C   UNL     1      -2.279  14.538   2.714  1.00  0.00     0.074 A 
ATOM     47  C   UNL     1      -2.412  14.134   0.281  1.00  0.00     0.049 A 
ATOM     48  N   UNL     1      -2.131  15.837   2.754  1.00  0.00    -0.248 NA
ATOM     49  C   UNL     1      -2.307  13.891   4.035  1.00  0.00     0.031 C 
ATOM     50  C   UNL     1      -2.507  13.352  -0.949  1.00  0.00     0.029 A 
ATOM     51  N   UNL     1      -2.275  15.430  -0.154  1.00  0.00    -0.354 N 
ATOM     52  C   UNL     1      -2.056  16.167   4.103  1.00  0.00     0.074 A 
ATOM     53  C   UNL     1      -2.181  14.929   4.845  1.00  0.00     0.031 C 
ATOM     54  C   UNL     1      -2.376  14.180  -2.002  1.00  0.00     0.029 A 
ATOM     55  C   UNL     1      -2.246  15.556  -1.525  1.00  0.00     0.049 A 
ATOM     56  H   UNL     1      -2.204  16.198   0.458  1.00  0.00     0.167 HD
ATOM     57  C   UNL     1      -1.915  17.389   4.674  1.00  0.00     0.034 A 
ATOM     58  C   UNL     1      -2.138  16.657  -2.300  1.00  0.00     0.034 A 
ATOM     59  C   UNL     1      -1.848  18.622   3.931  1.00  0.00     0.049 A 
ATOM     60  C   UNL     1      -2.053  18.015  -1.637  1.00  0.00     0.074 A 
ATOM     61  C   UNL     1      -1.752  19.916   4.413  1.00  0.00     0.029 A 
ATOM     62  N   UNL     1      -1.893  18.719   2.546  1.00  0.00    -0.354 N 
ATOM     63  N   UNL     1      -1.991  18.314  -0.359  1.00  0.00    -0.248 NA
ATOM     64  C   UNL     1      -2.037  19.187  -2.525  1.00  0.00     0.031 C 
ATOM     65  C   UNL     1      -1.810  20.796   3.326  1.00  0.00     0.029 A 
ATOM     66  C   UNL     1      -1.862  20.051   2.160  1.00  0.00     0.049 A 
ATOM     67  H   UNL     1      -1.939  17.954   1.929  1.00  0.00     0.167 HD
ATOM     68  C   UNL     1      -1.920  19.705  -0.296  1.00  0.00     0.074 A 
ATOM     69  C   UNL     1      -1.912  20.184  -1.661  1.00  0.00     0.031 C 
ATOM     70  C   UNL     1      -1.873  20.516   0.792  1.00  0.00     0.034 A 
BRANCH  57  71
ATOM     71  C   UNL     1      -1.923  17.439   6.181  1.00  0.00     0.023 A 
ATOM     72  C   UNL     1      -0.898  16.855   6.946  1.00  0.00     0.031 A 
ATOM     73  C   UNL     1      -3.006  18.020   6.862  1.00  0.00     0.131 A 
ATOM     74  C   UNL     1      -1.017  16.797   8.343  1.00  0.00     0.055 A 
ATOM     75  C   UNL     1      -3.080  18.029   8.256  1.00  0.00     0.041 A 
ATOM     76  F   UNL     1      -4.027  18.567   6.182  1.00  0.00    -0.206 F 
ATOM     77  C   UNL     1      -2.090  17.401   9.004  1.00  0.00     0.022 A 
BRANCH  74  78
ATOM     78  S   UNL     1       0.168  15.786   9.273  1.00  0.00     0.124 S 
ATOM     79  O   UNL     1      -0.023  14.473   8.662  1.00  0.00    -0.237 OA
ATOM     80  O   UNL     1       1.437  16.446   8.990  1.00  0.00    -0.237 OA
ATOM     81  O   UNL     1      -0.299  15.895  10.654  1.00  0.00    -0.744 OA
ENDBRANCH  74  78
ENDBRANCH  57  71
BRANCH  58  82
ATOM     82  C   UNL     1      -2.153  16.553  -3.790  1.00  0.00     0.023 A 
ATOM     83  C   UNL     1      -1.069  17.009  -4.559  1.00  0.00     0.031 A 
ATOM     84  C   UNL     1      -3.287  16.078  -4.473  1.00  0.00     0.131 A 
ATOM     85  C   UNL     1      -1.161  17.030  -5.960  1.00  0.00     0.055 A 
ATOM     86  C   UNL     1      -3.350  16.043  -5.867  1.00  0.00     0.041 A 
ATOM     87  F   UNL     1      -4.361  15.648  -3.791  1.00  0.00    -0.206 F 
ATOM     88  C   UNL     1      -2.288  16.535  -6.620  1.00  0.00     0.022 A 
BRANCH  85  89
ATOM     89  S   UNL     1       0.169  17.820  -6.910  1.00  0.00     0.124 S 
ATOM     90  O   UNL     1       0.151  19.176  -6.374  1.00  0.00    -0.237 OA
ATOM     91  O   UNL     1       1.326  17.006  -6.553  1.00  0.00    -0.237 OA
ATOM     92  O   UNL     1      -0.278  17.691  -8.296  1.00  0.00    -0.744 OA
ENDBRANCH  85  89
ENDBRANCH  58  82
BRANCH  70  93
ATOM     93  C   UNL     1      -1.788  22.005   0.545  1.00  0.00     0.023 A 
ATOM     94  C   UNL     1      -2.853  22.723  -0.029  1.00  0.00     0.031 A 
ATOM     95  C   UNL     1      -0.627  22.716   0.898  1.00  0.00     0.131 A 
ATOM     96  C   UNL     1      -2.718  24.098  -0.276  1.00  0.00     0.055 A 
ATOM     97  C   UNL     1      -0.519  24.094   0.701  1.00  0.00     0.041 A 
ATOM     98  F   UNL     1       0.420  22.083   1.451  1.00  0.00    -0.206 F 
ATOM     99  C   UNL     1      -1.564  24.791   0.101  1.00  0.00     0.022 A 
BRANCH  96 100
ATOM    100  S   UNL     1      -4.043  24.963  -1.163  1.00  0.00     0.124 S 
ATOM    101  O   UNL     1      -4.104  24.223  -2.419  1.00  0.00    -0.237 OA
ATOM    102  O   UNL     1      -5.183  24.792  -0.267  1.00  0.00    -0.237 OA
ATOM    103  O   UNL     1      -3.546  26.333  -1.274  1.00  0.00    -0.744 OA
ENDBRANCH  96 100
ENDBRANCH  70  93
ENDBRANCH  44  45
ENDBRANCH  37  39
ENDBRANCH  36  37
ENDBRANCH  35  36
ENDBRANCH  34  35
ENDBRANCH  33  34
ENDBRANCH   1  33
TORSDOF 23
