REMARK SMILES CC[C@@H]1CC[C@H]([C@@H](C)C(=O)OCCOCCOCCOC(=O)c2ccc(-c3c4nc(c(-c5cc(S(=O)(=O)[O-])ccc5F)c5ccc([nH]5)c(-c5cc(S(=O)(=O)[O-])ccc5F)c5nc(c(-c6cc(S(=O)(=O)[O-])ccc6F)c6ccc3[nH]6)C=C5)C=C4)cc2)C1
REMARK SMILES IDX 16 1 15 2 14 3 13 4 12 5 11 6 9 7 10 8 7 9 8 10 6 11 3 12
REMARK SMILES IDX 4 13 86 14 5 15 2 16 1 17 17 18 18 19 19 20 20 21 21 22
REMARK SMILES IDX 22 23 23 24 24 25 85 26 25 27 84 28 26 29 27 30 28 31 78 32
REMARK SMILES IDX 29 33 83 34 77 35 79 36 30 37 82 38 76 39 75 40 31 42 63 43
REMARK SMILES IDX 43 44 62 45 44 46 47 47 61 48 80 49 45 50 46 51 60 53 81 54
REMARK SMILES IDX 48 55 32 56 33 57 41 58 34 59 40 60 42 61 39 62 35 63 36 64
REMARK SMILES IDX 37 65 38 66 64 67 65 68 73 69 66 70 72 71 74 72 71 73 67 74
REMARK SMILES IDX 68 75 69 76 70 77 49 78 50 79 58 80 51 81 57 82 59 83 56 84
REMARK SMILES IDX 52 85 53 86 54 87 55 88
REMARK H PARENT 79 41 47 52
REMARK Flexibility Score: inf
ROOT
ATOM      1  C   UNL     1      -1.326   1.330  -3.977  1.00  0.00     0.188 C 
ENDROOT
BRANCH   1   2
ATOM      2  C   UNL     1      -2.597   1.754  -4.710  1.00  0.00     0.188 C 
BRANCH   2   3
ATOM      3  O   UNL     1      -2.536   2.030  -6.103  1.00  0.00    -0.376 OA
BRANCH   3   4
ATOM      4  C   UNL     1      -1.334   2.527  -6.672  1.00  0.00     0.202 C 
BRANCH   4   5
ATOM      5  C   UNL     1      -0.841   3.908  -6.219  1.00  0.00     0.261 C 
BRANCH   5   6
ATOM      6  O   UNL     1      -0.310   4.025  -4.870  1.00  0.00    -0.463 OA
BRANCH   6   7
ATOM      7  C   UNL     1      -1.124   4.671  -3.993  1.00  0.00     0.309 C 
ATOM      8  O   UNL     1      -2.280   4.992  -4.262  1.00  0.00    -0.252 OA
BRANCH   7   9
ATOM      9  C   UNL     1      -0.483   5.148  -2.686  1.00  0.00     0.099 C 
ATOM     10  C   UNL     1      -0.120   6.620  -2.976  1.00  0.00     0.020 C 
BRANCH   9  11
ATOM     11  C   UNL     1       0.694   4.424  -1.968  1.00  0.00     0.003 C 
ATOM     12  C   UNL     1       1.344   2.855  -0.189  1.00  0.00    -0.011 C 
ATOM     13  C   UNL     1       1.116   4.197   0.476  1.00  0.00     0.004 C 
ATOM     14  C   UNL     1       0.465   2.986  -1.449  1.00  0.00     0.008 C 
ATOM     15  C   UNL     1       1.088   5.193  -0.672  1.00  0.00     0.005 C 
BRANCH  12  16
ATOM     16  C   UNL     1       0.986   1.710   0.767  1.00  0.00     0.000 C 
ATOM     17  C   UNL     1       1.742   0.424   0.470  1.00  0.00     0.004 C 
ENDBRANCH  12  16
ENDBRANCH   9  11
ENDBRANCH   7   9
ENDBRANCH   6   7
ENDBRANCH   5   6
ENDBRANCH   4   5
ENDBRANCH   3   4
ENDBRANCH   2   3
ENDBRANCH   1   2
BRANCH   1  18
ATOM     18  O   UNL     1      -0.390   0.675  -4.817  1.00  0.00    -0.376 OA
BRANCH  18  19
ATOM     19  C   UNL     1       0.471  -0.251  -4.170  1.00  0.00     0.202 C 
BRANCH  19  20
ATOM     20  C   UNL     1      -0.212  -1.621  -4.134  1.00  0.00     0.261 C 
BRANCH  20  21
ATOM     21  O   UNL     1      -1.357  -1.650  -3.263  1.00  0.00    -0.460 OA
BRANCH  21  22
ATOM     22  C   UNL     1      -1.072  -1.490  -1.949  1.00  0.00     0.338 C 
ATOM     23  O   UNL     1       0.039  -1.466  -1.448  1.00  0.00    -0.246 OA
BRANCH  22  24
ATOM     24  C   UNL     1      -2.309  -1.109  -1.243  1.00  0.00     0.060 A 
ATOM     25  C   UNL     1      -2.350   0.128  -0.590  1.00  0.00     0.016 A 
ATOM     26  C   UNL     1      -3.411  -1.958  -1.217  1.00  0.00     0.016 A 
ATOM     27  C   UNL     1      -3.473   0.506   0.141  1.00  0.00     0.010 A 
ATOM     28  C   UNL     1      -4.538  -1.584  -0.482  1.00  0.00     0.010 A 
ATOM     29  C   UNL     1      -4.562  -0.367   0.228  1.00  0.00    -0.014 A 
BRANCH  29  30
ATOM     30  C   UNL     1      -5.653  -0.108   1.198  1.00  0.00     0.031 A 
ATOM     31  C   UNL     1      -5.664  -0.892   2.480  1.00  0.00     0.074 A 
ATOM     32  C   UNL     1      -6.605   0.809   0.957  1.00  0.00     0.049 A 
ATOM     33  N   UNL     1      -6.581  -0.966   3.408  1.00  0.00    -0.248 NA
ATOM     34  C   UNL     1      -4.473  -1.714   2.738  1.00  0.00     0.031 C 
ATOM     35  C   UNL     1      -6.648   1.701  -0.200  1.00  0.00     0.029 A 
ATOM     36  N   UNL     1      -7.726   1.135   1.678  1.00  0.00    -0.354 N 
ATOM     37  C   UNL     1      -6.089  -1.859   4.353  1.00  0.00     0.074 A 
ATOM     38  C   UNL     1      -4.809  -2.327   3.860  1.00  0.00     0.031 C 
ATOM     39  C   UNL     1      -7.745   2.474  -0.112  1.00  0.00     0.029 A 
ATOM     40  C   UNL     1      -8.510   2.088   1.073  1.00  0.00     0.049 A 
ATOM     41  H   UNL     1      -7.947   0.726   2.545  1.00  0.00     0.167 HD
ATOM     42  C   UNL     1      -6.650  -2.248   5.526  1.00  0.00     0.034 A 
ATOM     43  C   UNL     1      -9.724   2.563   1.418  1.00  0.00     0.034 A 
ATOM     44  C   UNL     1      -7.935  -1.780   5.987  1.00  0.00     0.049 A 
ATOM     45  C   UNL     1     -10.400   2.012   2.651  1.00  0.00     0.074 A 
ATOM     46  C   UNL     1      -8.615  -2.118   7.144  1.00  0.00     0.029 A 
ATOM     47  N   UNL     1      -8.743  -0.877   5.304  1.00  0.00    -0.354 N 
ATOM     48  N   UNL     1      -9.957   1.128   3.515  1.00  0.00    -0.248 NA
ATOM     49  C   UNL     1     -11.746   2.521   2.947  1.00  0.00     0.031 C 
ATOM     50  C   UNL     1      -9.861  -1.479   7.123  1.00  0.00     0.029 A 
ATOM     51  C   UNL     1      -9.927  -0.674   5.997  1.00  0.00     0.049 A 
ATOM     52  H   UNL     1      -8.508  -0.444   4.452  1.00  0.00     0.167 HD
ATOM     53  C   UNL     1     -10.958   1.000   4.477  1.00  0.00     0.074 A 
ATOM     54  C   UNL     1     -12.022   1.903   4.087  1.00  0.00     0.031 C 
ATOM     55  C   UNL     1     -10.989   0.217   5.587  1.00  0.00     0.034 A 
BRANCH  42  56
ATOM     56  C   UNL     1      -5.897  -3.282   6.331  1.00  0.00     0.023 A 
ATOM     57  C   UNL     1      -4.604  -3.036   6.828  1.00  0.00     0.031 A 
ATOM     58  C   UNL     1      -6.440  -4.564   6.524  1.00  0.00     0.131 A 
ATOM     59  C   UNL     1      -3.860  -4.083   7.391  1.00  0.00     0.055 A 
ATOM     60  C   UNL     1      -5.730  -5.575   7.176  1.00  0.00     0.041 A 
ATOM     61  F   UNL     1      -7.659  -4.870   6.052  1.00  0.00    -0.206 F 
ATOM     62  C   UNL     1      -4.423  -5.345   7.592  1.00  0.00     0.022 A 
BRANCH  59  63
ATOM     63  S   UNL     1      -2.083  -3.829   7.663  1.00  0.00     0.124 S 
ATOM     64  O   UNL     1      -1.632  -3.441   6.329  1.00  0.00    -0.237 OA
ATOM     65  O   UNL     1      -2.066  -2.779   8.675  1.00  0.00    -0.237 OA
ATOM     66  O   UNL     1      -1.614  -5.139   8.113  1.00  0.00    -0.744 OA
ENDBRANCH  59  63
ENDBRANCH  42  56
BRANCH  43  67
ATOM     67  C   UNL     1     -10.405   3.582   0.570  1.00  0.00     0.023 A 
ATOM     68  C   UNL     1     -10.680   4.865   1.068  1.00  0.00     0.031 A 
ATOM     69  C   UNL     1     -10.826   3.277  -0.737  1.00  0.00     0.131 A 
ATOM     70  C   UNL     1     -11.383   5.787   0.276  1.00  0.00     0.055 A 
ATOM     71  C   UNL     1     -11.481   4.213  -1.538  1.00  0.00     0.041 A 
ATOM     72  F   UNL     1     -10.595   2.061  -1.259  1.00  0.00    -0.206 F 
ATOM     73  C   UNL     1     -11.772   5.475  -1.029  1.00  0.00     0.022 A 
BRANCH  70  74
ATOM     74  S   UNL     1     -11.839   7.385   1.002  1.00  0.00     0.124 S 
ATOM     75  O   UNL     1     -12.691   6.975   2.113  1.00  0.00    -0.237 OA
ATOM     76  O   UNL     1     -10.538   7.939   1.361  1.00  0.00    -0.237 OA
ATOM     77  O   UNL     1     -12.525   8.072  -0.091  1.00  0.00    -0.744 OA
ENDBRANCH  70  74
ENDBRANCH  43  67
BRANCH  55  78
ATOM     78  C   UNL     1     -12.198   0.346   6.484  1.00  0.00     0.023 A 
ATOM     79  C   UNL     1     -13.479  -0.061   6.071  1.00  0.00     0.031 A 
ATOM     80  C   UNL     1     -12.064   0.900   7.770  1.00  0.00     0.131 A 
ATOM     81  C   UNL     1     -14.583   0.142   6.915  1.00  0.00     0.055 A 
ATOM     82  C   UNL     1     -13.155   1.041   8.629  1.00  0.00     0.041 A 
ATOM     83  F   UNL     1     -10.866   1.309   8.216  1.00  0.00    -0.206 F 
ATOM     84  C   UNL     1     -14.426   0.674   8.197  1.00  0.00     0.022 A 
BRANCH  81  85
ATOM     85  S   UNL     1     -16.245  -0.212   6.279  1.00  0.00     0.124 S 
ATOM     86  O   UNL     1     -16.316   0.662   5.113  1.00  0.00    -0.237 OA
ATOM     87  O   UNL     1     -16.175  -1.643   6.001  1.00  0.00    -0.237 OA
ATOM     88  O   UNL     1     -17.123   0.160   7.387  1.00  0.00    -0.744 OA
ENDBRANCH  81  85
ENDBRANCH  55  78
ENDBRANCH  29  30
ENDBRANCH  22  24
ENDBRANCH  21  22
ENDBRANCH  20  21
ENDBRANCH  19  20
ENDBRANCH  18  19
ENDBRANCH   1  18
TORSDOF 22
