REMARK SMILES CCCN1CCC[C@@]2(CCN(c3ccc(C(=O)OCCOCCOCCOC(=O)c4ccc(-c5c6nc(c(-c7cc(S(=O)(=O)[O-])ccc7F)c7ccc([nH]7)c(-c7cc(S(=O)(=O)[O-])ccc7F)c7nc(c(-c8cc(S(=O)(=O)[O-])ccc8F)c8ccc5[nH]8)C=C7)C=C6)cc4)cn3)C2)C1=O
REMARK SMILES IDX 22 1 21 2 20 3 19 4 18 5 16 6 17 7 15 8 12 9 13 10 94 11
REMARK SMILES IDX 14 12 93 13 11 14 4 15 5 16 96 17 6 18 8 19 97 20 7 21 9 22
REMARK SMILES IDX 95 23 10 24 3 25 2 26 1 27 23 28 24 29 25 30 26 31 27 32
REMARK SMILES IDX 28 33 29 34 30 35 31 36 92 37 32 38 91 39 33 40 34 41 35 42
REMARK SMILES IDX 85 43 36 44 90 45 84 46 86 47 37 48 89 49 83 50 82 51 38 53
REMARK SMILES IDX 70 54 50 55 69 56 51 57 54 58 68 59 87 60 52 61 53 62 67 64
REMARK SMILES IDX 88 65 55 66 39 67 40 68 48 69 41 70 47 71 49 72 46 73 42 74
REMARK SMILES IDX 43 75 44 76 45 77 71 78 72 79 80 80 73 81 79 82 81 83 78 84
REMARK SMILES IDX 74 85 75 86 76 87 77 88 56 89 57 90 65 91 58 92 64 93 66 94
REMARK SMILES IDX 63 95 59 96 60 97 61 98 62 99
REMARK H PARENT 86 52 54 63
REMARK Flexibility Score: inf
ROOT
ATOM      1  C   UNL     1       6.754   5.485   9.854  1.00  0.00     0.188 C 
ENDROOT
BRANCH   1   2
ATOM      2  O   UNL     1       8.130   5.363  10.201  1.00  0.00    -0.376 OA
BRANCH   2   3
ATOM      3  C   UNL     1       9.136   5.769   9.283  1.00  0.00     0.202 C 
BRANCH   3   4
ATOM      4  C   UNL     1       9.131   5.203   7.855  1.00  0.00     0.261 C 
BRANCH   4   5
ATOM      5  O   UNL     1       7.878   5.319   7.162  1.00  0.00    -0.460 OA
BRANCH   5   6
ATOM      6  C   UNL     1       7.246   4.141   6.896  1.00  0.00     0.339 C 
ATOM      7  O   UNL     1       7.659   3.027   7.106  1.00  0.00    -0.246 OA
BRANCH   6   8
ATOM      8  C   UNL     1       5.874   4.419   6.427  1.00  0.00     0.078 A 
ATOM      9  C   UNL     1       3.248   4.746   5.643  1.00  0.00     0.128 A 
ATOM     10  C   UNL     1       4.244   5.576   5.117  1.00  0.00     0.048 A 
ATOM     11  N   UNL     1       3.533   3.818   6.575  1.00  0.00    -0.238 NA
ATOM     12  C   UNL     1       5.570   5.425   5.519  1.00  0.00     0.021 A 
ATOM     13  C   UNL     1       4.832   3.655   6.931  1.00  0.00     0.129 A 
BRANCH   9  14
ATOM     14  N   UNL     1       1.982   4.799   5.086  1.00  0.00    -0.356 N 
ATOM     15  N   UNL     1       0.578   1.815   2.212  1.00  0.00    -0.342 N 
ATOM     16  C   UNL     1       0.439   2.518   0.946  1.00  0.00     0.119 C 
ATOM     17  C   UNL     1       0.191   2.394   3.421  1.00  0.00     0.230 C 
ATOM     18  C   UNL     1       0.611   4.025   1.025  1.00  0.00     0.023 C 
ATOM     19  C   UNL     1       0.391   3.910   3.523  1.00  0.00     0.069 C 
ATOM     20  O   UNL     1      -0.154   1.725   4.393  1.00  0.00    -0.274 OA
ATOM     21  C   UNL     1      -0.096   4.597   2.245  1.00  0.00     0.021 C 
ATOM     22  C   UNL     1      -0.289   4.490   4.784  1.00  0.00     0.040 C 
ATOM     23  C   UNL     1       1.900   4.160   3.772  1.00  0.00     0.135 C 
ATOM     24  C   UNL     1       0.803   4.432   5.859  1.00  0.00     0.119 C 
BRANCH  15  25
ATOM     25  C   UNL     1       0.993   0.406   2.221  1.00  0.00     0.119 C 
BRANCH  25  26
ATOM     26  C   UNL     1       0.328  -0.537   1.213  1.00  0.00     0.018 C 
ATOM     27  C   UNL     1       0.932  -0.486  -0.186  1.00  0.00     0.006 C 
ENDBRANCH  25  26
ENDBRANCH  15  25
ENDBRANCH   9  14
ENDBRANCH   6   8
ENDBRANCH   5   6
ENDBRANCH   4   5
ENDBRANCH   3   4
ENDBRANCH   2   3
ENDBRANCH   1   2
BRANCH   1  28
ATOM     28  C   UNL     1       6.242   6.774   9.173  1.00  0.00     0.188 C 
BRANCH  28  29
ATOM     29  O   UNL     1       7.252   7.738   8.965  1.00  0.00    -0.376 OA
BRANCH  29  30
ATOM     30  C   UNL     1       7.266   8.881   9.803  1.00  0.00     0.202 C 
BRANCH  30  31
ATOM     31  C   UNL     1       7.143   8.766  11.335  1.00  0.00     0.261 C 
BRANCH  31  32
ATOM     32  O   UNL     1       6.348   7.699  11.868  1.00  0.00    -0.460 OA
BRANCH  32  33
ATOM     33  C   UNL     1       5.016   7.919  11.967  1.00  0.00     0.338 C 
ATOM     34  O   UNL     1       4.416   8.910  11.591  1.00  0.00    -0.246 OA
BRANCH  33  35
ATOM     35  C   UNL     1       4.379   6.674  12.451  1.00  0.00     0.060 A 
ATOM     36  C   UNL     1       3.467   6.010  11.622  1.00  0.00     0.016 A 
ATOM     37  C   UNL     1       4.666   6.178  13.726  1.00  0.00     0.016 A 
ATOM     38  C   UNL     1       2.800   4.873  12.085  1.00  0.00     0.010 A 
ATOM     39  C   UNL     1       3.985   5.049  14.195  1.00  0.00     0.010 A 
ATOM     40  C   UNL     1       3.017   4.417  13.393  1.00  0.00    -0.014 A 
BRANCH  40  41
ATOM     41  C   UNL     1       2.071   3.442  13.998  1.00  0.00     0.031 A 
ATOM     42  C   UNL     1       0.959   3.979  14.862  1.00  0.00     0.074 A 
ATOM     43  C   UNL     1       2.163   2.121  13.765  1.00  0.00     0.049 A 
ATOM     44  N   UNL     1       0.031   3.341  15.527  1.00  0.00    -0.248 NA
ATOM     45  C   UNL     1       0.897   5.443  14.994  1.00  0.00     0.031 C 
ATOM     46  C   UNL     1       3.154   1.482  12.902  1.00  0.00     0.029 A 
ATOM     47  N   UNL     1       1.404   1.078  14.237  1.00  0.00    -0.354 N 
ATOM     48  C   UNL     1      -0.727   4.325  16.155  1.00  0.00     0.074 A 
ATOM     49  C   UNL     1      -0.110   5.595  15.837  1.00  0.00     0.031 C 
ATOM     50  C   UNL     1       2.937   0.154  12.901  1.00  0.00     0.029 A 
ATOM     51  C   UNL     1       1.819  -0.155  13.793  1.00  0.00     0.049 A 
ATOM     52  H   UNL     1       0.634   1.202  14.838  1.00  0.00     0.167 HD
ATOM     53  C   UNL     1      -1.846   4.187  16.910  1.00  0.00     0.034 A 
ATOM     54  C   UNL     1       1.357  -1.389  14.085  1.00  0.00     0.034 A 
ATOM     55  C   UNL     1      -2.434   2.912  17.242  1.00  0.00     0.049 A 
ATOM     56  C   UNL     1       0.184  -1.530  15.029  1.00  0.00     0.074 A 
ATOM     57  C   UNL     1      -3.552   2.650  18.014  1.00  0.00     0.029 A 
ATOM     58  N   UNL     1      -1.942   1.679  16.830  1.00  0.00    -0.354 N 
ATOM     59  N   UNL     1      -0.519  -0.596  15.628  1.00  0.00    -0.248 NA
ATOM     60  C   UNL     1      -0.261  -2.898  15.328  1.00  0.00     0.031 C 
ATOM     61  C   UNL     1      -3.691   1.262  18.131  1.00  0.00     0.029 A 
ATOM     62  C   UNL     1      -2.716   0.655  17.357  1.00  0.00     0.049 A 
ATOM     63  H   UNL     1      -1.159   1.550  16.248  1.00  0.00     0.167 HD
ATOM     64  C   UNL     1      -1.519  -1.264  16.333  1.00  0.00     0.074 A 
ATOM     65  C   UNL     1      -1.327  -2.678  16.082  1.00  0.00     0.031 C 
ATOM     66  C   UNL     1      -2.515  -0.755  17.105  1.00  0.00     0.034 A 
BRANCH  53  67
ATOM     67  C   UNL     1      -2.455   5.454  17.469  1.00  0.00     0.023 A 
ATOM     68  C   UNL     1      -2.933   6.476  16.628  1.00  0.00     0.031 A 
ATOM     69  C   UNL     1      -2.491   5.677  18.856  1.00  0.00     0.131 A 
ATOM     70  C   UNL     1      -3.330   7.705  17.174  1.00  0.00     0.055 A 
ATOM     71  C   UNL     1      -2.980   6.867  19.399  1.00  0.00     0.041 A 
ATOM     72  F   UNL     1      -2.026   4.752  19.711  1.00  0.00    -0.206 F 
ATOM     73  C   UNL     1      -3.383   7.899  18.556  1.00  0.00     0.022 A 
BRANCH  70  74
ATOM     74  S   UNL     1      -3.593   9.107  16.052  1.00  0.00     0.124 S 
ATOM     75  O   UNL     1      -2.303   9.184  15.370  1.00  0.00    -0.237 OA
ATOM     76  O   UNL     1      -4.718   8.657  15.242  1.00  0.00    -0.237 OA
ATOM     77  O   UNL     1      -3.878  10.220  16.954  1.00  0.00    -0.744 OA
ENDBRANCH  70  74
ENDBRANCH  53  67
BRANCH  54  78
ATOM     78  C   UNL     1       2.003  -2.600  13.500  1.00  0.00     0.023 A 
ATOM     79  C   UNL     1       1.291  -3.463  12.651  1.00  0.00     0.031 A 
ATOM     80  C   UNL     1       3.325  -2.949  13.833  1.00  0.00     0.131 A 
ATOM     81  C   UNL     1       1.885  -4.653  12.201  1.00  0.00     0.055 A 
ATOM     82  C   UNL     1       3.930  -4.105  13.337  1.00  0.00     0.041 A 
ATOM     83  F   UNL     1       4.049  -2.166  14.648  1.00  0.00    -0.206 F 
ATOM     84  C   UNL     1       3.205  -4.972  12.527  1.00  0.00     0.022 A 
BRANCH  81  85
ATOM     85  S   UNL     1       0.874  -5.830  11.259  1.00  0.00     0.124 S 
ATOM     86  O   UNL     1      -0.193  -6.129  12.207  1.00  0.00    -0.237 OA
ATOM     87  O   UNL     1       0.495  -5.040  10.092  1.00  0.00    -0.237 OA
ATOM     88  O   UNL     1       1.796  -6.931  10.990  1.00  0.00    -0.744 OA
ENDBRANCH  81  85
ENDBRANCH  54  78
BRANCH  66  89
ATOM     89  C   UNL     1      -3.518  -1.732  17.677  1.00  0.00     0.023 A 
ATOM     90  C   UNL     1      -3.160  -2.710  18.621  1.00  0.00     0.031 A 
ATOM     91  C   UNL     1      -4.859  -1.687  17.252  1.00  0.00     0.131 A 
ATOM     92  C   UNL     1      -4.115  -3.640  19.062  1.00  0.00     0.055 A 
ATOM     93  C   UNL     1      -5.819  -2.572  17.745  1.00  0.00     0.041 A 
ATOM     94  F   UNL     1      -5.262  -0.778  16.350  1.00  0.00    -0.206 F 
ATOM     95  C   UNL     1      -5.446  -3.566  18.644  1.00  0.00     0.022 A 
BRANCH  92  96
ATOM     96  S   UNL     1      -3.572  -5.020  20.109  1.00  0.00     0.124 S 
ATOM     97  O   UNL     1      -2.538  -5.639  19.287  1.00  0.00    -0.237 OA
ATOM     98  O   UNL     1      -3.106  -4.335  21.311  1.00  0.00    -0.237 OA
ATOM     99  O   UNL     1      -4.785  -5.817  20.283  1.00  0.00    -0.744 OA
ENDBRANCH  92  96
ENDBRANCH  66  89
ENDBRANCH  40  41
ENDBRANCH  33  35
ENDBRANCH  32  33
ENDBRANCH  31  32
ENDBRANCH  30  31
ENDBRANCH  29  30
ENDBRANCH  28  29
ENDBRANCH   1  28
TORSDOF 23
