REMARK SMILES O=C(CCC(=O)N1CCc2sccc2C1)NC1(C(=O)OCCOCCOCCOC(=O)c2ccc(-c3c4nc(c(-c5cc(S(=O)(=O)[O-])ccc5F)c5ccc([nH]5)c(-c5cc(S(=O)(=O)[O-])ccc5F)c5nc(c(-c6cc(S(=O)(=O)[O-])ccc6F)c6ccc3[nH]6)C=C5)C=C4)cc2)CCCCC1
REMARK SMILES IDX 24 1 23 2 22 3 21 4 20 5 18 6 19 7 17 8 95 9 99 10 96 11
REMARK SMILES IDX 98 12 97 13 16 14 1 15 2 16 3 18 4 19 5 20 6 21 7 22 8 23
REMARK SMILES IDX 15 24 9 25 14 26 10 27 13 28 11 29 12 30 25 31 26 32 27 33
REMARK SMILES IDX 28 34 29 35 30 36 31 37 32 38 33 39 94 40 34 41 93 42 35 43
REMARK SMILES IDX 36 44 37 45 87 46 38 47 92 48 86 49 88 50 39 51 91 52 85 53
REMARK SMILES IDX 84 54 40 56 72 57 52 58 71 59 53 60 56 61 70 62 89 63 54 64
REMARK SMILES IDX 55 65 69 67 90 68 57 69 41 70 42 71 50 72 43 73 49 74 51 75
REMARK SMILES IDX 48 76 44 77 45 78 46 79 47 80 73 81 74 82 82 83 75 84 81 85
REMARK SMILES IDX 83 86 80 87 76 88 77 89 78 90 79 91 58 92 59 93 67 94 60 95
REMARK SMILES IDX 66 96 68 97 65 98 61 99 62 100 63 101 64 102
REMARK H PARENT 16 17 88 55 56 66
REMARK Flexibility Score: inf
ROOT
ATOM      1  C   UNL     1       3.726   2.355  -4.873  1.00  0.00     0.188 C 
ENDROOT
BRANCH   1   2
ATOM      2  O   UNL     1       3.049   1.848  -6.020  1.00  0.00    -0.376 OA
BRANCH   2   3
ATOM      3  C   UNL     1       1.711   2.291  -6.226  1.00  0.00     0.202 C 
BRANCH   3   4
ATOM      4  C   UNL     1       0.644   1.802  -5.240  1.00  0.00     0.261 C 
BRANCH   4   5
ATOM      5  O   UNL     1       0.744   2.329  -3.900  1.00  0.00    -0.461 OA
BRANCH   5   6
ATOM      6  C   UNL     1       0.867   1.378  -2.913  1.00  0.00     0.331 C 
ATOM      7  O   UNL     1       1.182   0.230  -3.155  1.00  0.00    -0.249 OA
BRANCH   6   8
ATOM      8  C   UNL     1       0.520   1.950  -1.480  1.00  0.00     0.138 C 
ATOM      9  C   UNL     1      -0.984   2.173  -1.275  1.00  0.00     0.040 C 
ATOM     10  C   UNL     1       1.314   3.284  -1.261  1.00  0.00     0.040 C 
ATOM     11  C   UNL     1      -1.528   3.437  -1.941  1.00  0.00     0.003 C 
ATOM     12  C   UNL     1       0.709   4.559  -1.838  1.00  0.00     0.003 C 
ATOM     13  C   UNL     1      -0.765   4.685  -1.516  1.00  0.00     0.000 C 
BRANCH   8  14
ATOM     14  N   UNL     1       1.007   0.977  -0.434  1.00  0.00    -0.340 N 
ATOM     15  O   UNL     1      -0.089  -0.946  -1.031  1.00  0.00    -0.275 OA
ATOM     16  C   UNL     1       0.794  -0.388  -0.389  1.00  0.00     0.221 C 
ATOM     17  H   UNL     1       1.539   1.359   0.301  1.00  0.00     0.164 HD
BRANCH  16  18
ATOM     18  C   UNL     1       1.769  -1.169   0.512  1.00  0.00     0.110 C 
BRANCH  18  19
ATOM     19  C   UNL     1       2.956  -1.767  -0.259  1.00  0.00     0.110 C 
BRANCH  19  20
ATOM     20  C   UNL     1       4.327  -1.079  -0.236  1.00  0.00     0.223 C 
ATOM     21  O   UNL     1       5.309  -1.636   0.238  1.00  0.00    -0.275 OA
BRANCH  20  22
ATOM     22  N   UNL     1       4.426   0.170  -0.805  1.00  0.00    -0.338 N 
ATOM     23  C   UNL     1       3.779   1.218  -0.066  1.00  0.00     0.125 C 
ATOM     24  C   UNL     1       5.566   0.571  -1.657  1.00  0.00     0.156 C 
ATOM     25  C   UNL     1       4.710   2.210   0.611  1.00  0.00     0.068 C 
ATOM     26  C   UNL     1       5.732   2.076  -1.625  1.00  0.00    -0.015 A 
ATOM     27  C   UNL     1       5.407   2.831  -0.518  1.00  0.00     0.011 A 
ATOM     28  C   UNL     1       6.112   2.946  -2.663  1.00  0.00     0.017 A 
ATOM     29  S   UNL     1       5.620   4.495  -0.676  1.00  0.00    -0.149 S 
ATOM     30  C   UNL     1       6.131   4.278  -2.283  1.00  0.00     0.065 A 
ENDBRANCH  20  22
ENDBRANCH  19  20
ENDBRANCH  18  19
ENDBRANCH  16  18
ENDBRANCH   8  14
ENDBRANCH   6   8
ENDBRANCH   5   6
ENDBRANCH   4   5
ENDBRANCH   3   4
ENDBRANCH   2   3
ENDBRANCH   1   2
BRANCH   1  31
ATOM     31  C   UNL     1       3.836   3.891  -4.829  1.00  0.00     0.188 C 
BRANCH  31  32
ATOM     32  O   UNL     1       5.159   4.424  -4.915  1.00  0.00    -0.376 OA
BRANCH  32  33
ATOM     33  C   UNL     1       5.942   4.114  -6.066  1.00  0.00     0.202 C 
BRANCH  33  34
ATOM     34  C   UNL     1       7.430   4.444  -5.769  1.00  0.00     0.261 C 
BRANCH  34  35
ATOM     35  O   UNL     1       8.083   3.385  -5.001  1.00  0.00    -0.460 OA
BRANCH  35  36
ATOM     36  C   UNL     1       8.938   3.774  -4.008  1.00  0.00     0.338 C 
ATOM     37  O   UNL     1       9.303   4.929  -3.805  1.00  0.00    -0.246 OA
BRANCH  36  38
ATOM     38  C   UNL     1       9.220   2.653  -3.051  1.00  0.00     0.060 A 
ATOM     39  C   UNL     1       8.990   2.880  -1.688  1.00  0.00     0.016 A 
ATOM     40  C   UNL     1       9.629   1.377  -3.448  1.00  0.00     0.016 A 
ATOM     41  C   UNL     1       9.036   1.827  -0.760  1.00  0.00     0.010 A 
ATOM     42  C   UNL     1       9.802   0.347  -2.489  1.00  0.00     0.010 A 
ATOM     43  C   UNL     1       9.497   0.552  -1.132  1.00  0.00    -0.014 A 
BRANCH  43  44
ATOM     44  C   UNL     1       9.844  -0.429  -0.041  1.00  0.00     0.031 A 
ATOM     45  C   UNL     1      10.941  -0.033   0.923  1.00  0.00     0.074 A 
ATOM     46  C   UNL     1       9.205  -1.603   0.164  1.00  0.00     0.049 A 
ATOM     47  N   UNL     1      11.383  -0.644   1.993  1.00  0.00    -0.248 NA
ATOM     48  C   UNL     1      11.638   1.229   0.627  1.00  0.00     0.031 C 
ATOM     49  C   UNL     1       8.129  -2.125  -0.665  1.00  0.00     0.029 A 
ATOM     50  N   UNL     1       9.328  -2.551   1.165  1.00  0.00    -0.354 N 
ATOM     51  C   UNL     1      12.411   0.153   2.487  1.00  0.00     0.074 A 
ATOM     52  C   UNL     1      12.495   1.312   1.628  1.00  0.00     0.031 C 
ATOM     53  C   UNL     1       7.623  -3.233  -0.092  1.00  0.00     0.029 A 
ATOM     54  C   UNL     1       8.376  -3.557   1.114  1.00  0.00     0.049 A 
ATOM     55  H   UNL     1      10.030  -2.514   1.853  1.00  0.00     0.167 HD
ATOM     56  C   UNL     1      13.258  -0.080   3.519  1.00  0.00     0.034 A 
ATOM     57  C   UNL     1       8.137  -4.613   1.932  1.00  0.00     0.034 A 
ATOM     58  C   UNL     1      13.255  -1.290   4.300  1.00  0.00     0.049 A 
ATOM     59  C   UNL     1       9.114  -4.863   3.065  1.00  0.00     0.074 A 
ATOM     60  C   UNL     1      14.152  -1.691   5.274  1.00  0.00     0.029 A 
ATOM     61  N   UNL     1      12.324  -2.313   4.174  1.00  0.00    -0.354 N 
ATOM     62  N   UNL     1      10.121  -4.124   3.473  1.00  0.00    -0.248 NA
ATOM     63  C   UNL     1       8.956  -6.119   3.814  1.00  0.00     0.031 C 
ATOM     64  C   UNL     1      13.805  -2.982   5.687  1.00  0.00     0.029 A 
ATOM     65  C   UNL     1      12.638  -3.352   5.038  1.00  0.00     0.049 A 
ATOM     66  H   UNL     1      11.553  -2.303   3.562  1.00  0.00     0.167 HD
ATOM     67  C   UNL     1      10.723  -4.837   4.508  1.00  0.00     0.074 A 
ATOM     68  C   UNL     1       9.925  -6.027   4.710  1.00  0.00     0.031 C 
ATOM     69  C   UNL     1      11.852  -4.552   5.207  1.00  0.00     0.034 A 
BRANCH  56  70
ATOM     70  C   UNL     1      14.351   0.941   3.725  1.00  0.00     0.023 A 
ATOM     71  C   UNL     1      14.069   2.262   4.119  1.00  0.00     0.031 A 
ATOM     72  C   UNL     1      15.679   0.619   3.393  1.00  0.00     0.131 A 
ATOM     73  C   UNL     1      15.085   3.229   4.085  1.00  0.00     0.055 A 
ATOM     74  C   UNL     1      16.701   1.566   3.446  1.00  0.00     0.041 A 
ATOM     75  F   UNL     1      15.998  -0.615   2.969  1.00  0.00    -0.206 F 
ATOM     76  C   UNL     1      16.404   2.885   3.775  1.00  0.00     0.022 A 
BRANCH  73  77
ATOM     77  S   UNL     1      14.630   4.976   4.271  1.00  0.00     0.124 S 
ATOM     78  O   UNL     1      13.723   5.166   3.141  1.00  0.00    -0.237 OA
ATOM     79  O   UNL     1      14.017   5.005   5.594  1.00  0.00    -0.237 OA
ATOM     80  O   UNL     1      15.907   5.678   4.161  1.00  0.00    -0.744 OA
ENDBRANCH  73  77
ENDBRANCH  56  70
BRANCH  57  81
ATOM     81  C   UNL     1       7.006  -5.587   1.696  1.00  0.00     0.023 A 
ATOM     82  C   UNL     1       6.080  -5.915   2.712  1.00  0.00     0.031 A 
ATOM     83  C   UNL     1       6.897  -6.297   0.486  1.00  0.00     0.131 A 
ATOM     84  C   UNL     1       5.132  -6.941   2.512  1.00  0.00     0.055 A 
ATOM     85  C   UNL     1       5.904  -7.257   0.265  1.00  0.00     0.041 A 
ATOM     86  F   UNL     1       7.771  -6.086  -0.511  1.00  0.00    -0.206 F 
ATOM     87  C   UNL     1       5.024  -7.595   1.286  1.00  0.00     0.022 A 
BRANCH  84  88
ATOM     88  S   UNL     1       4.119  -7.510   3.914  1.00  0.00     0.124 S 
ATOM     89  O   UNL     1       5.137  -7.914   4.876  1.00  0.00    -0.237 OA
ATOM     90  O   UNL     1       3.356  -6.312   4.251  1.00  0.00    -0.237 OA
ATOM     91  O   UNL     1       3.332  -8.604   3.347  1.00  0.00    -0.744 OA
ENDBRANCH  84  88
ENDBRANCH  57  81
BRANCH  69  92
ATOM     92  C   UNL     1      12.281  -5.554   6.255  1.00  0.00     0.023 A 
ATOM     93  C   UNL     1      12.650  -6.868   5.913  1.00  0.00     0.031 A 
ATOM     94  C   UNL     1      12.290  -5.202   7.616  1.00  0.00     0.131 A 
ATOM     95  C   UNL     1      12.933  -7.802   6.921  1.00  0.00     0.055 A 
ATOM     96  C   UNL     1      12.643  -6.116   8.611  1.00  0.00     0.041 A 
ATOM     97  F   UNL     1      11.948  -3.963   8.005  1.00  0.00    -0.206 F 
ATOM     98  C   UNL     1      12.948  -7.429   8.267  1.00  0.00     0.022 A 
BRANCH  95  99
ATOM     99  S   UNL     1      13.151  -9.544   6.460  1.00  0.00     0.124 S 
ATOM    100  O   UNL     1      11.918  -9.823   5.731  1.00  0.00    -0.237 OA
ATOM    101  O   UNL     1      14.370  -9.505   5.660  1.00  0.00    -0.237 OA
ATOM    102  O   UNL     1      13.277 -10.226   7.747  1.00  0.00    -0.744 OA
ENDBRANCH  95  99
ENDBRANCH  69  92
ENDBRANCH  43  44
ENDBRANCH  36  38
ENDBRANCH  35  36
ENDBRANCH  34  35
ENDBRANCH  33  34
ENDBRANCH  32  33
ENDBRANCH  31  32
ENDBRANCH   1  31
TORSDOF 25
