REMARK SMILES COc1cccc([C@@H]2CC(c3cccc(C)c3)=NN2C(=O)CCC(=O)OCCOCCOCCOC(=O)c2ccc(-c3c4nc(c(-c5cc(S(=O)(=O)[O-])ccc5F)c5ccc([nH]5)c(-c5cc(S(=O)(=O)[O-])ccc5F)c5nc(c(-c6cc(S(=O)(=O)[O-])ccc6F)c6ccc3[nH]6)C=C5)C=C4)cc2)c1
REMARK SMILES IDX 30 1 29 2 28 3 27 4 26 5 24 6 25 7 23 8 22 9 20 10 21 11
REMARK SMILES IDX 19 12 8 13 9 14 10 15 18 16 7 17 3 18 4 19 101 20 5 21 6 22
REMARK SMILES IDX 2 23 1 24 11 25 12 26 17 27 13 28 15 29 14 30 16 31 31 32
REMARK SMILES IDX 32 33 33 34 34 35 35 36 36 37 37 38 38 39 39 40 100 41 40 42
REMARK SMILES IDX 99 43 41 44 42 45 43 46 93 47 44 48 98 49 92 50 94 51 45 52
REMARK SMILES IDX 97 53 91 54 90 55 46 57 78 58 58 59 77 60 59 61 62 62 76 63
REMARK SMILES IDX 95 64 60 65 61 66 75 68 96 69 63 70 47 71 48 72 56 73 49 74
REMARK SMILES IDX 55 75 57 76 54 77 50 78 51 79 52 80 53 81 79 82 80 83 88 84
REMARK SMILES IDX 81 85 87 86 89 87 86 88 82 89 83 90 84 91 85 92 64 93 65 94
REMARK SMILES IDX 73 95 66 96 72 97 74 98 71 99 67 100 68 101 69 102 70 103
REMARK H PARENT 94 56 62 67
REMARK Flexibility Score: inf
ROOT
ATOM      1  C   UNL     1       3.416  -3.879   3.720  1.00  0.00     0.188 C 
ENDROOT
BRANCH   1   2
ATOM      2  O   UNL     1       2.110  -4.193   3.167  1.00  0.00    -0.376 OA
BRANCH   2   3
ATOM      3  C   UNL     1       1.170  -3.582   2.219  1.00  0.00     0.202 C 
BRANCH   3   4
ATOM      4  C   UNL     1       1.339  -2.340   1.291  1.00  0.00     0.261 C 
BRANCH   4   5
ATOM      5  O   UNL     1       2.010  -1.274   1.911  1.00  0.00    -0.463 OA
BRANCH   5   6
ATOM      6  C   UNL     1       1.456  -0.976   3.095  1.00  0.00     0.306 C 
ATOM      7  O   UNL     1       0.252  -0.966   3.312  1.00  0.00    -0.252 OA
BRANCH   6   8
ATOM      8  C   UNL     1       2.514  -0.830   4.139  1.00  0.00     0.132 C 
BRANCH   8   9
ATOM      9  C   UNL     1       3.995  -1.109   3.756  1.00  0.00     0.114 C 
BRANCH   9  10
ATOM     10  C   UNL     1       4.522  -1.504   2.271  1.00  0.00     0.243 C 
ATOM     11  O   UNL     1       5.035  -0.489   1.736  1.00  0.00    -0.273 OA
BRANCH  10  12
ATOM     12  N   UNL     1       4.661  -2.808   1.591  1.00  0.00    -0.225 N 
ATOM     13  C   UNL     1       3.929  -4.351   1.068  1.00  0.00     0.147 C 
ATOM     14  C   UNL     1       4.485  -4.375  -0.393  1.00  0.00     0.091 C 
ATOM     15  C   UNL     1       5.607  -3.361  -0.335  1.00  0.00     0.071 C 
ATOM     16  N   UNL     1       5.707  -2.617   0.706  1.00  0.00    -0.174 NA
BRANCH  13  17
ATOM     17  C   UNL     1       3.467  -5.861   1.939  1.00  0.00    -0.019 A 
ATOM     18  C   UNL     1       1.475  -6.786   3.058  1.00  0.00     0.119 A 
ATOM     19  C   UNL     1       2.099  -6.871   4.305  1.00  0.00     0.046 A 
ATOM     20  C   UNL     1       2.155  -6.364   1.848  1.00  0.00     0.052 A 
ATOM     21  C   UNL     1       3.444  -6.825   4.323  1.00  0.00     0.004 A 
ATOM     22  C   UNL     1       4.059  -6.427   3.140  1.00  0.00     0.006 A 
BRANCH  18  23
ATOM     23  O   UNL     1       0.143  -7.004   3.227  1.00  0.00    -0.497 OA
ATOM     24  C   UNL     1      -0.615  -7.257   2.079  1.00  0.00     0.278 C 
ENDBRANCH  18  23
ENDBRANCH  13  17
BRANCH  15  25
ATOM     25  C   UNL     1       6.483  -2.983  -1.464  1.00  0.00    -0.002 A 
ATOM     26  C   UNL     1       7.865  -3.165  -1.359  1.00  0.00     0.010 A 
ATOM     27  C   UNL     1       5.971  -2.100  -2.426  1.00  0.00     0.013 A 
ATOM     28  C   UNL     1       8.720  -2.559  -2.285  1.00  0.00     0.001 A 
ATOM     29  C   UNL     1       6.826  -1.470  -3.344  1.00  0.00    -0.050 A 
ATOM     30  C   UNL     1       8.201  -1.731  -3.284  1.00  0.00     0.003 A 
ATOM     31  C   UNL     1       6.294  -0.498  -4.358  1.00  0.00     0.044 C 
ENDBRANCH  15  25
ENDBRANCH  10  12
ENDBRANCH   9  10
ENDBRANCH   8   9
ENDBRANCH   6   8
ENDBRANCH   5   6
ENDBRANCH   4   5
ENDBRANCH   3   4
ENDBRANCH   2   3
ENDBRANCH   1   2
BRANCH   1  32
ATOM     32  C   UNL     1       5.189  -4.409   3.578  1.00  0.00     0.188 C 
BRANCH  32  33
ATOM     33  O   UNL     1       6.066  -4.992   2.449  1.00  0.00    -0.376 OA
BRANCH  33  34
ATOM     34  C   UNL     1       6.263  -6.245   1.608  1.00  0.00     0.202 C 
BRANCH  34  35
ATOM     35  C   UNL     1       5.857  -7.922   1.613  1.00  0.00     0.261 C 
BRANCH  35  36
ATOM     36  O   UNL     1       4.488  -8.464   1.863  1.00  0.00    -0.460 OA
BRANCH  36  37
ATOM     37  C   UNL     1       4.335  -9.704   2.476  1.00  0.00     0.338 C 
ATOM     38  O   UNL     1       5.211 -10.522   2.542  1.00  0.00    -0.246 OA
BRANCH  37  39
ATOM     39  C   UNL     1       3.030  -9.878   3.280  1.00  0.00     0.060 A 
ATOM     40  C   UNL     1       3.124  -9.744   4.673  1.00  0.00     0.016 A 
ATOM     41  C   UNL     1       1.763 -10.232   2.785  1.00  0.00     0.016 A 
ATOM     42  C   UNL     1       1.978  -9.760   5.516  1.00  0.00     0.010 A 
ATOM     43  C   UNL     1       0.618 -10.357   3.660  1.00  0.00     0.010 A 
ATOM     44  C   UNL     1       0.693 -10.086   5.043  1.00  0.00    -0.014 A 
BRANCH  44  45
ATOM     45  C   UNL     1      -0.417 -10.390   6.057  1.00  0.00     0.031 A 
ATOM     46  C   UNL     1      -0.161 -11.543   7.023  1.00  0.00     0.074 A 
ATOM     47  C   UNL     1      -1.562  -9.684   6.263  1.00  0.00     0.049 A 
ATOM     48  N   UNL     1      -0.872 -11.976   8.037  1.00  0.00    -0.248 NA
ATOM     49  C   UNL     1       1.111 -12.258   6.847  1.00  0.00     0.031 C 
ATOM     50  C   UNL     1      -1.932  -8.432   5.608  1.00  0.00     0.029 A 
ATOM     51  N   UNL     1      -2.636  -9.908   7.120  1.00  0.00    -0.354 N 
ATOM     52  C   UNL     1      -0.095 -12.953   8.655  1.00  0.00     0.074 A 
ATOM     53  C   UNL     1       1.138 -13.043   7.907  1.00  0.00     0.031 C 
ATOM     54  C   UNL     1      -3.144  -8.029   6.042  1.00  0.00     0.029 A 
ATOM     55  C   UNL     1      -3.676  -8.998   7.001  1.00  0.00     0.049 A 
ATOM     56  H   UNL     1      -2.656 -10.654   7.762  1.00  0.00     0.167 HD
ATOM     57  C   UNL     1      -0.369 -13.747   9.721  1.00  0.00     0.034 A 
ATOM     58  C   UNL     1      -4.911  -8.951   7.569  1.00  0.00     0.034 A 
ATOM     59  C   UNL     1      -1.651 -13.818  10.367  1.00  0.00     0.049 A 
ATOM     60  C   UNL     1      -5.309 -10.025   8.570  1.00  0.00     0.074 A 
ATOM     61  C   UNL     1      -2.087 -14.718  11.324  1.00  0.00     0.029 A 
ATOM     62  N   UNL     1      -2.726 -12.989  10.082  1.00  0.00    -0.354 N 
ATOM     63  N   UNL     1      -4.578 -10.987   9.084  1.00  0.00    -0.248 NA
ATOM     64  C   UNL     1      -6.697 -10.008   9.067  1.00  0.00     0.031 C 
ATOM     65  C   UNL     1      -3.447 -14.484  11.558  1.00  0.00     0.029 A 
ATOM     66  C   UNL     1      -3.833 -13.379  10.819  1.00  0.00     0.049 A 
ATOM     67  H   UNL     1      -2.706 -12.235   9.449  1.00  0.00     0.167 HD
ATOM     68  C   UNL     1      -5.401 -11.652   9.995  1.00  0.00     0.074 A 
ATOM     69  C   UNL     1      -6.683 -10.984   9.964  1.00  0.00     0.031 C 
ATOM     70  C   UNL     1      -5.114 -12.714  10.792  1.00  0.00     0.034 A 
BRANCH  57  71
ATOM     71  C   UNL     1       0.724 -14.708  10.121  1.00  0.00     0.023 A 
ATOM     72  C   UNL     1       1.949 -14.248  10.642  1.00  0.00     0.031 A 
ATOM     73  C   UNL     1       0.598 -16.078   9.836  1.00  0.00     0.131 A 
ATOM     74  C   UNL     1       3.027 -15.136  10.769  1.00  0.00     0.055 A 
ATOM     75  C   UNL     1       1.649 -16.971  10.046  1.00  0.00     0.041 A 
ATOM     76  F   UNL     1      -0.532 -16.563   9.298  1.00  0.00    -0.206 F 
ATOM     77  C   UNL     1       2.879 -16.499  10.496  1.00  0.00     0.022 A 
BRANCH  74  78
ATOM     78  S   UNL     1       4.677 -14.457  11.104  1.00  0.00     0.124 S 
ATOM     79  O   UNL     1       4.869 -13.569   9.960  1.00  0.00    -0.237 OA
ATOM     80  O   UNL     1       4.495 -13.805  12.396  1.00  0.00    -0.237 OA
ATOM     81  O   UNL     1       5.538 -15.638  11.117  1.00  0.00    -0.744 OA
ENDBRANCH  74  78
ENDBRANCH  57  71
BRANCH  58  82
ATOM     82  C   UNL     1      -5.945  -7.925   7.162  1.00  0.00     0.023 A 
ATOM     83  C   UNL     1      -6.571  -7.066   8.092  1.00  0.00     0.031 A 
ATOM     84  C   UNL     1      -6.432  -7.898   5.841  1.00  0.00     0.131 A 
ATOM     85  C   UNL     1      -7.662  -6.261   7.698  1.00  0.00     0.055 A 
ATOM     86  C   UNL     1      -7.480  -7.060   5.444  1.00  0.00     0.041 A 
ATOM     87  F   UNL     1      -5.913  -8.714   4.910  1.00  0.00    -0.206 F 
ATOM     88  C   UNL     1      -8.110  -6.244   6.376  1.00  0.00     0.022 A 
BRANCH  85  89
ATOM     89  S   UNL     1      -8.571  -5.306   8.954  1.00  0.00     0.124 S 
ATOM     90  O   UNL     1      -9.026  -6.357   9.857  1.00  0.00    -0.237 OA
ATOM     91  O   UNL     1      -7.534  -4.418   9.470  1.00  0.00    -0.237 OA
ATOM     92  O   UNL     1      -9.625  -4.645   8.186  1.00  0.00    -0.744 OA
ENDBRANCH  85  89
ENDBRANCH  58  82
BRANCH  70  93
ATOM     93  C   UNL     1      -6.180 -13.187  11.753  1.00  0.00     0.023 A 
ATOM     94  C   UNL     1      -7.388 -13.757  11.315  1.00  0.00     0.031 A 
ATOM     95  C   UNL     1      -5.971 -13.074  13.141  1.00  0.00     0.131 A 
ATOM     96  C   UNL     1      -8.361 -14.142  12.252  1.00  0.00     0.055 A 
ATOM     97  C   UNL     1      -6.915 -13.515  14.069  1.00  0.00     0.041 A 
ATOM     98  F   UNL     1      -4.836 -12.538  13.619  1.00  0.00    -0.206 F 
ATOM     99  C   UNL     1      -8.125 -14.041  13.626  1.00  0.00     0.022 A 
BRANCH  96 100
ATOM    100  S   UNL     1      -9.983 -14.693  11.653  1.00  0.00     0.124 S 
ATOM    101  O   UNL     1     -10.415 -13.553  10.851  1.00  0.00    -0.237 OA
ATOM    102  O   UNL     1      -9.646 -15.903  10.910  1.00  0.00    -0.237 OA
ATOM    103  O   UNL     1     -10.746 -14.913  12.880  1.00  0.00    -0.744 OA
ENDBRANCH  96 100
ENDBRANCH  70  93
ENDBRANCH  44  45
ENDBRANCH  37  39
ENDBRANCH  36  37
ENDBRANCH  35  36
ENDBRANCH  34  35
ENDBRANCH  33  34
ENDBRANCH  32  33
ENDBRANCH   1  32
TORSDOF 26
