REMARK SMILES Cc1ccccc1/C=C1\SC(=O)N(CC(=O)Nc2ccccc2C(=O)OCCOCCOCCOC(=O)c2ccc(-c3c4nc(c(-c5cc(S(=O)(=O)[O-])ccc5F)c5ccc([nH]5)c(-c5cc(S(=O)(=O)[O-])ccc5F)c5nc(c(-c6cc(S(=O)(=O)[O-])ccc6F)c6ccc3[nH]6)C=C5)C=C4)cc2)C1=O
REMARK SMILES IDX 30 1 29 2 28 3 27 4 26 5 24 6 25 7 23 8 18 9 19 10 20 11
REMARK SMILES IDX 22 12 21 13 17 14 15 15 16 16 14 18 13 19 8 20 9 21 10 22
REMARK SMILES IDX 101 23 11 24 102 25 12 26 7 27 1 28 2 29 3 30 4 31 6 32 5 33
REMARK SMILES IDX 31 34 32 35 33 36 34 37 35 38 36 39 37 40 38 41 39 42 100 43
REMARK SMILES IDX 40 44 99 45 41 46 42 47 43 48 93 49 44 50 98 51 92 52 94 53
REMARK SMILES IDX 45 54 97 55 91 56 90 57 46 59 78 60 58 61 77 62 59 63 62 64
REMARK SMILES IDX 76 65 95 66 60 67 61 68 75 70 96 71 63 72 47 73 48 74 56 75
REMARK SMILES IDX 49 76 55 77 57 78 54 79 50 80 51 81 52 82 53 83 79 84 80 85
REMARK SMILES IDX 88 86 81 87 87 88 89 89 86 90 82 91 83 92 84 93 85 94 64 95
REMARK SMILES IDX 65 96 73 97 66 98 72 99 74 100 71 101 67 102 68 103 69 104
REMARK SMILES IDX 70 105
REMARK H PARENT 17 17 94 58 62 69
REMARK Flexibility Score: inf
ROOT
ATOM      1  C   UNL     1       7.690   3.733   0.465  1.00  0.00     0.188 C 
ENDROOT
BRANCH   1   2
ATOM      2  O   UNL     1       7.106   2.794   1.354  1.00  0.00    -0.376 OA
BRANCH   2   3
ATOM      3  C   UNL     1       5.673   2.750   1.295  1.00  0.00     0.202 C 
BRANCH   3   4
ATOM      4  C   UNL     1       4.999   2.371  -0.180  1.00  0.00     0.261 C 
BRANCH   4   5
ATOM      5  O   UNL     1       3.660   3.210  -1.495  1.00  0.00    -0.460 OA
BRANCH   5   6
ATOM      6  C   UNL     1       3.238   4.617  -2.234  1.00  0.00     0.340 C 
ATOM      7  O   UNL     1       3.343   5.659  -1.567  1.00  0.00    -0.246 OA
BRANCH   6   8
ATOM      8  C   UNL     1       2.650   5.094  -3.607  1.00  0.00     0.083 A 
ATOM      9  C   UNL     1       3.377   6.085  -4.266  1.00  0.00     0.055 A 
ATOM     10  C   UNL     1       2.883   6.654  -5.496  1.00  0.00     0.027 A 
ATOM     11  C   UNL     1       1.706   6.239  -6.125  1.00  0.00     0.002 A 
ATOM     12  C   UNL     1       1.317   4.941  -4.164  1.00  0.00     0.018 A 
ATOM     13  C   UNL     1       0.894   5.380  -5.436  1.00  0.00     0.001 A 
BRANCH   9  14
ATOM     14  N   UNL     1       4.535   6.702  -3.768  1.00  0.00    -0.324 N 
ATOM     15  C   UNL     1       5.412   6.581  -2.735  1.00  0.00     0.244 C 
ATOM     16  O   UNL     1       6.186   7.566  -2.723  1.00  0.00    -0.273 OA
ATOM     17  H   UNL     1       4.793   7.457  -4.345  1.00  0.00     0.170 HD
BRANCH  15  18
ATOM     18  C   UNL     1       5.813   5.366  -1.769  1.00  0.00     0.230 C 
BRANCH  18  19
ATOM     19  N   UNL     1       5.182   4.126  -1.174  1.00  0.00    -0.259 N 
ATOM     20  C   UNL     1       2.112   1.728   0.976  1.00  0.00     0.029 C 
ATOM     21  C   UNL     1       2.922   2.339   0.046  1.00  0.00     0.083 C 
ATOM     22  S   UNL     1       3.763   1.130  -1.652  1.00  0.00    -0.022 SA
ATOM     23  C   UNL     1       3.924   4.047   0.125  1.00  0.00     0.268 C 
ATOM     24  C   UNL     1       5.269   2.777  -2.250  1.00  0.00     0.294 C 
ATOM     25  O   UNL     1       3.856   4.758   1.110  1.00  0.00    -0.268 OA
ATOM     26  O   UNL     1       6.057   2.674  -3.171  1.00  0.00    -0.261 OA
BRANCH  20  27
ATOM     27  C   UNL     1       1.273   0.460   0.981  1.00  0.00    -0.021 A 
ATOM     28  C   UNL     1       3.114  -1.279   0.643  1.00  0.00     0.045 C 
ATOM     29  C   UNL     1       1.681  -0.850   0.683  1.00  0.00    -0.044 A 
ATOM     30  C   UNL     1       0.722  -1.889   0.517  1.00  0.00     0.004 A 
ATOM     31  C   UNL     1      -0.630  -1.690   0.771  1.00  0.00     0.000 A 
ATOM     32  C   UNL     1      -0.086   0.579   1.379  1.00  0.00     0.008 A 
ATOM     33  C   UNL     1      -1.026  -0.461   1.259  1.00  0.00     0.001 A 
ENDBRANCH  20  27
ENDBRANCH  18  19
ENDBRANCH  15  18
ENDBRANCH   9  14
ENDBRANCH   6   8
ENDBRANCH   5   6
ENDBRANCH   4   5
ENDBRANCH   3   4
ENDBRANCH   2   3
ENDBRANCH   1   2
BRANCH   1  34
ATOM     34  C   UNL     1       8.290   3.011  -0.779  1.00  0.00     0.188 C 
BRANCH  34  35
ATOM     35  O   UNL     1       7.683   1.736  -0.942  1.00  0.00    -0.376 OA
BRANCH  35  36
ATOM     36  C   UNL     1       8.175   0.711  -1.783  1.00  0.00     0.202 C 
BRANCH  36  37
ATOM     37  C   UNL     1       8.332   0.993  -3.296  1.00  0.00     0.261 C 
BRANCH  37  38
ATOM     38  O   UNL     1       7.144   0.561  -4.048  1.00  0.00    -0.460 OA
BRANCH  38  39
ATOM     39  C   UNL     1       6.765   1.321  -5.134  1.00  0.00     0.338 C 
ATOM     40  O   UNL     1       7.512   2.057  -5.766  1.00  0.00    -0.246 OA
BRANCH  39  41
ATOM     41  C   UNL     1       5.239   1.360  -5.247  1.00  0.00     0.060 A 
ATOM     42  C   UNL     1       4.607   2.566  -5.540  1.00  0.00     0.016 A 
ATOM     43  C   UNL     1       4.404   0.359  -4.768  1.00  0.00     0.016 A 
ATOM     44  C   UNL     1       3.268   2.820  -5.092  1.00  0.00     0.010 A 
ATOM     45  C   UNL     1       3.070   0.665  -4.317  1.00  0.00     0.010 A 
ATOM     46  C   UNL     1       2.540   1.986  -4.223  1.00  0.00    -0.014 A 
BRANCH  46  47
ATOM     47  C   UNL     1       1.243   2.273  -3.165  1.00  0.00     0.031 A 
ATOM     48  C   UNL     1      -0.007   1.743  -3.782  1.00  0.00     0.074 A 
ATOM     49  C   UNL     1       0.863   3.016  -1.971  1.00  0.00     0.049 A 
ATOM     50  N   UNL     1      -1.186   2.266  -3.612  1.00  0.00    -0.248 NA
ATOM     51  C   UNL     1      -0.005   0.716  -4.830  1.00  0.00     0.031 C 
ATOM     52  C   UNL     1      -0.179   2.676  -0.979  1.00  0.00     0.029 A 
ATOM     53  N   UNL     1       1.274   4.225  -1.311  1.00  0.00    -0.354 N 
ATOM     54  C   UNL     1      -2.032   1.269  -4.022  1.00  0.00     0.074 A 
ATOM     55  C   UNL     1      -1.311   0.638  -5.082  1.00  0.00     0.031 C 
ATOM     56  C   UNL     1      -0.183   3.520   0.096  1.00  0.00     0.029 A 
ATOM     57  C   UNL     1       0.843   4.566  -0.019  1.00  0.00     0.049 A 
ATOM     58  H   UNL     1       1.882   4.838  -1.784  1.00  0.00     0.167 HD
ATOM     59  C   UNL     1      -2.950   0.793  -3.131  1.00  0.00     0.034 A 
ATOM     60  C   UNL     1       0.847   5.855   0.525  1.00  0.00     0.034 A 
ATOM     61  C   UNL     1      -3.280   1.782  -2.057  1.00  0.00     0.049 A 
ATOM     62  C   UNL     1      -0.522   6.352   0.136  1.00  0.00     0.074 A 
ATOM     63  C   UNL     1      -3.511   1.687  -0.692  1.00  0.00     0.029 A 
ATOM     64  N   UNL     1      -3.236   3.176  -2.309  1.00  0.00    -0.354 N 
ATOM     65  N   UNL     1      -1.244   5.700  -0.732  1.00  0.00    -0.248 NA
ATOM     66  C   UNL     1      -1.204   7.518   0.680  1.00  0.00     0.031 C 
ATOM     67  C   UNL     1      -3.539   2.998  -0.134  1.00  0.00     0.029 A 
ATOM     68  C   UNL     1      -3.381   3.924  -1.153  1.00  0.00     0.049 A 
ATOM     69  H   UNL     1      -3.115   3.568  -3.205  1.00  0.00     0.167 HD
ATOM     70  C   UNL     1      -2.515   6.132  -0.650  1.00  0.00     0.074 A 
ATOM     71  C   UNL     1      -2.426   7.361   0.135  1.00  0.00     0.031 C 
ATOM     72  C   UNL     1      -3.539   5.385  -1.150  1.00  0.00     0.034 A 
BRANCH  59  73
ATOM     73  C   UNL     1      -3.293  -0.726  -3.078  1.00  0.00     0.023 A 
ATOM     74  C   UNL     1      -4.225  -1.188  -2.128  1.00  0.00     0.031 A 
ATOM     75  C   UNL     1      -2.677  -1.784  -3.817  1.00  0.00     0.131 A 
ATOM     76  C   UNL     1      -4.457  -2.570  -1.917  1.00  0.00     0.055 A 
ATOM     77  C   UNL     1      -2.969  -3.145  -3.661  1.00  0.00     0.041 A 
ATOM     78  F   UNL     1      -1.709  -1.611  -4.720  1.00  0.00    -0.206 F 
ATOM     79  C   UNL     1      -3.854  -3.551  -2.696  1.00  0.00     0.022 A 
BRANCH  76  80
ATOM     80  S   UNL     1      -5.528  -3.113  -0.563  1.00  0.00     0.124 S 
ATOM     81  O   UNL     1      -4.627  -3.001   0.580  1.00  0.00    -0.237 OA
ATOM     82  O   UNL     1      -6.627  -2.156  -0.619  1.00  0.00    -0.237 OA
ATOM     83  O   UNL     1      -5.881  -4.480  -0.945  1.00  0.00    -0.744 OA
ENDBRANCH  76  80
ENDBRANCH  59  73
BRANCH  60  84
ATOM     84  C   UNL     1       2.029   6.884   0.680  1.00  0.00     0.023 A 
ATOM     85  C   UNL     1       2.977   6.870   1.765  1.00  0.00     0.031 A 
ATOM     86  C   UNL     1       2.362   7.782  -0.353  1.00  0.00     0.131 A 
ATOM     87  C   UNL     1       4.286   7.456   1.634  1.00  0.00     0.055 A 
ATOM     88  C   UNL     1       3.622   8.427  -0.442  1.00  0.00     0.041 A 
ATOM     89  F   UNL     1       1.523   7.955  -1.385  1.00  0.00    -0.206 F 
ATOM     90  C   UNL     1       4.612   8.210   0.510  1.00  0.00     0.022 A 
BRANCH  87  91
ATOM     91  S   UNL     1       5.725   7.012   2.724  1.00  0.00     0.124 S 
ATOM     92  O   UNL     1       5.888   8.224   3.524  1.00  0.00    -0.237 OA
ATOM     93  O   UNL     1       5.296   5.835   3.472  1.00  0.00    -0.237 OA
ATOM     94  O   UNL     1       6.810   6.770   1.766  1.00  0.00    -0.744 OA
ENDBRANCH  87  91
ENDBRANCH  60  84
BRANCH  72  95
ATOM     95  C   UNL     1      -4.878   5.977  -1.413  1.00  0.00     0.023 A 
ATOM     96  C   UNL     1      -5.050   7.356  -1.568  1.00  0.00     0.031 A 
ATOM     97  C   UNL     1      -6.012   5.165  -1.608  1.00  0.00     0.131 A 
ATOM     98  C   UNL     1      -6.324   7.894  -1.746  1.00  0.00     0.055 A 
ATOM     99  C   UNL     1      -7.264   5.698  -1.887  1.00  0.00     0.041 A 
ATOM    100  F   UNL     1      -5.951   3.827  -1.554  1.00  0.00    -0.206 F 
ATOM    101  C   UNL     1      -7.434   7.074  -1.930  1.00  0.00     0.022 A 
BRANCH  98 102
ATOM    102  S   UNL     1      -6.495   9.687  -1.630  1.00  0.00     0.124 S 
ATOM    103  O   UNL     1      -6.161   9.923  -0.228  1.00  0.00    -0.237 OA
ATOM    104  O   UNL     1      -5.515  10.162  -2.602  1.00  0.00    -0.237 OA
ATOM    105  O   UNL     1      -7.891   9.917  -1.988  1.00  0.00    -0.744 OA
ENDBRANCH  98 102
ENDBRANCH  72  95
ENDBRANCH  46  47
ENDBRANCH  39  41
ENDBRANCH  38  39
ENDBRANCH  37  38
ENDBRANCH  36  37
ENDBRANCH  35  36
ENDBRANCH  34  35
ENDBRANCH   1  34
TORSDOF 24
