REMARK SMILES C[C@H]1[C@@H](C(=O)OCCOCCOCCOC(=O)c2ccc(-c3c4nc(c(-c5cc(S(=O)(=O)[O-])ccc5F)c5ccc([nH]5)c(-c5cc(S(=O)(=O)[O-])ccc5F)c5nc(c(-c6cc(S(=O)(=O)[O-])ccc6F)c6ccc3[nH]6)C=C5)C=C4)cc2)CCN1C(=O)NC1CCCCC1
REMARK SMILES IDX 11 1 10 2 9 3 8 4 7 5 6 6 4 7 5 8 3 9 1 10 2 11 83 12 81 13
REMARK SMILES IDX 82 14 84 15 85 16 86 17 87 19 88 20 92 21 89 22 91 23 90 24
REMARK SMILES IDX 12 25 13 26 14 27 15 28 16 29 17 30 18 31 19 32 80 33 20 34
REMARK SMILES IDX 79 35 21 36 22 37 23 38 73 39 24 40 78 41 72 42 74 43 25 44
REMARK SMILES IDX 77 45 71 46 70 47 26 49 58 50 38 51 57 52 39 53 42 54 56 55
REMARK SMILES IDX 75 56 40 57 41 58 55 60 76 61 43 62 27 63 28 64 36 65 29 66
REMARK SMILES IDX 35 67 37 68 34 69 30 70 31 71 32 72 33 73 59 74 60 75 68 76
REMARK SMILES IDX 61 77 67 78 69 79 66 80 62 81 63 82 64 83 65 84 44 85 45 86
REMARK SMILES IDX 53 87 46 88 52 89 54 90 51 91 47 92 48 93 49 94 50 95
REMARK H PARENT 86 18 74 48 42 59
REMARK Flexibility Score: inf
ROOT
ATOM      1  C   UNL     1      -0.042   0.303  -3.270  1.00  0.00     0.188 C 
ENDROOT
BRANCH   1   2
ATOM      2  C   UNL     1      -0.577   1.641  -3.804  1.00  0.00     0.188 C 
BRANCH   2   3
ATOM      3  O   UNL     1       0.285   2.514  -4.516  1.00  0.00    -0.376 OA
BRANCH   3   4
ATOM      4  C   UNL     1       1.531   2.891  -3.945  1.00  0.00     0.202 C 
BRANCH   4   5
ATOM      5  C   UNL     1       1.508   3.540  -2.562  1.00  0.00     0.261 C 
BRANCH   5   6
ATOM      6  O   UNL     1       1.177   2.569  -1.559  1.00  0.00    -0.463 OA
BRANCH   6   7
ATOM      7  C   UNL     1       0.136   2.815  -0.737  1.00  0.00     0.311 C 
ATOM      8  O   UNL     1      -0.529   3.843  -0.758  1.00  0.00    -0.252 OA
BRANCH   7   9
ATOM      9  C   UNL     1      -0.163   1.672   0.213  1.00  0.00     0.123 C 
ATOM     10  C   UNL     1       2.071   0.339  -0.452  1.00  0.00     0.032 C 
ATOM     11  C   UNL     1       0.858   0.553   0.467  1.00  0.00     0.098 C 
ATOM     12  N   UNL     1       0.114  -0.678   0.674  1.00  0.00    -0.321 N 
ATOM     13  C   UNL     1      -1.497   0.969  -0.026  1.00  0.00     0.039 C 
ATOM     14  C   UNL     1      -1.256  -0.518   0.216  1.00  0.00     0.122 C 
BRANCH  12  15
ATOM     15  C   UNL     1       0.482  -1.882   1.193  1.00  0.00     0.317 C 
ATOM     16  O   UNL     1      -0.281  -2.854   1.107  1.00  0.00    -0.249 OA
ATOM     17  N   UNL     1       1.627  -2.143   1.853  1.00  0.00    -0.335 N 
ATOM     18  H   UNL     1       1.594  -3.072   2.176  1.00  0.00     0.165 HD
BRANCH  17  19
ATOM     19  C   UNL     1       2.923  -1.546   2.272  1.00  0.00     0.083 C 
ATOM     20  C   UNL     1       2.873  -0.068   2.611  1.00  0.00     0.025 C 
ATOM     21  C   UNL     1       3.481  -2.311   3.492  1.00  0.00     0.025 C 
ATOM     22  C   UNL     1       4.074   0.574   3.256  1.00  0.00     0.002 C 
ATOM     23  C   UNL     1       4.742  -1.658   4.076  1.00  0.00     0.002 C 
ATOM     24  C   UNL     1       4.510  -0.203   4.465  1.00  0.00     0.000 C 
ENDBRANCH  17  19
ENDBRANCH  12  15
ENDBRANCH   7   9
ENDBRANCH   6   7
ENDBRANCH   5   6
ENDBRANCH   4   5
ENDBRANCH   3   4
ENDBRANCH   2   3
ENDBRANCH   1   2
BRANCH   1  25
ATOM     25  O   UNL     1       1.147  -0.275  -3.775  1.00  0.00    -0.376 OA
BRANCH  25  26
ATOM     26  C   UNL     1       1.292  -0.390  -5.179  1.00  0.00     0.202 C 
BRANCH  26  27
ATOM     27  C   UNL     1       0.244  -1.186  -5.965  1.00  0.00     0.261 C 
BRANCH  27  28
ATOM     28  O   UNL     1      -1.108  -0.758  -5.741  1.00  0.00    -0.460 OA
BRANCH  28  29
ATOM     29  C   UNL     1      -1.887  -1.617  -5.031  1.00  0.00     0.338 C 
ATOM     30  O   UNL     1      -1.567  -2.714  -4.601  1.00  0.00    -0.246 OA
BRANCH  29  31
ATOM     31  C   UNL     1      -3.136  -0.923  -4.657  1.00  0.00     0.060 A 
ATOM     32  C   UNL     1      -3.467  -0.790  -3.298  1.00  0.00     0.016 A 
ATOM     33  C   UNL     1      -3.978  -0.413  -5.642  1.00  0.00     0.016 A 
ATOM     34  C   UNL     1      -4.644  -0.143  -2.918  1.00  0.00     0.010 A 
ATOM     35  C   UNL     1      -5.175   0.194  -5.263  1.00  0.00     0.010 A 
ATOM     36  C   UNL     1      -5.524   0.313  -3.904  1.00  0.00    -0.014 A 
BRANCH  36  37
ATOM     37  C   UNL     1      -6.913   0.703  -3.567  1.00  0.00     0.031 A 
ATOM     38  C   UNL     1      -7.983  -0.337  -3.739  1.00  0.00     0.074 A 
ATOM     39  C   UNL     1      -7.228   1.952  -3.184  1.00  0.00     0.049 A 
ATOM     40  N   UNL     1      -9.279  -0.197  -3.792  1.00  0.00    -0.248 NA
ATOM     41  C   UNL     1      -7.514  -1.723  -3.892  1.00  0.00     0.031 C 
ATOM     42  C   UNL     1      -6.270   3.014  -2.886  1.00  0.00     0.029 A 
ATOM     43  N   UNL     1      -8.455   2.545  -3.013  1.00  0.00    -0.354 N 
ATOM     44  C   UNL     1      -9.783  -1.473  -4.018  1.00  0.00     0.074 A 
ATOM     45  C   UNL     1      -8.649  -2.368  -4.103  1.00  0.00     0.031 C 
ATOM     46  C   UNL     1      -6.947   4.141  -2.603  1.00  0.00     0.029 A 
ATOM     47  C   UNL     1      -8.380   3.897  -2.771  1.00  0.00     0.049 A 
ATOM     48  H   UNL     1      -9.305   2.050  -3.059  1.00  0.00     0.167 HD
ATOM     49  C   UNL     1     -11.076  -1.854  -4.156  1.00  0.00     0.034 A 
ATOM     50  C   UNL     1      -9.351   4.834  -2.753  1.00  0.00     0.034 A 
ATOM     51  C   UNL     1     -12.183  -0.935  -4.082  1.00  0.00     0.049 A 
ATOM     52  C   UNL     1     -10.779   4.412  -3.029  1.00  0.00     0.074 A 
ATOM     53  C   UNL     1     -13.534  -1.201  -4.216  1.00  0.00     0.029 A 
ATOM     54  N   UNL     1     -12.065   0.433  -3.868  1.00  0.00    -0.354 N 
ATOM     55  N   UNL     1     -11.252   3.214  -3.293  1.00  0.00    -0.248 NA
ATOM     56  C   UNL     1     -11.804   5.466  -3.016  1.00  0.00     0.031 C 
ATOM     57  C   UNL     1     -14.224   0.013  -4.163  1.00  0.00     0.029 A 
ATOM     58  C   UNL     1     -13.316   1.026  -3.897  1.00  0.00     0.049 A 
ATOM     59  H   UNL     1     -11.217   0.909  -3.716  1.00  0.00     0.167 HD
ATOM     60  C   UNL     1     -12.631   3.367  -3.427  1.00  0.00     0.074 A 
ATOM     61  C   UNL     1     -12.914   4.772  -3.226  1.00  0.00     0.031 C 
ATOM     62  C   UNL     1     -13.579   2.430  -3.679  1.00  0.00     0.034 A 
BRANCH  49  63
ATOM     63  C   UNL     1     -11.342  -3.303  -4.478  1.00  0.00     0.023 A 
ATOM     64  C   UNL     1     -11.004  -4.338  -3.590  1.00  0.00     0.031 A 
ATOM     65  C   UNL     1     -11.909  -3.656  -5.716  1.00  0.00     0.131 A 
ATOM     66  C   UNL     1     -11.168  -5.676  -3.982  1.00  0.00     0.055 A 
ATOM     67  C   UNL     1     -12.149  -4.985  -6.065  1.00  0.00     0.041 A 
ATOM     68  F   UNL     1     -12.224  -2.712  -6.618  1.00  0.00    -0.206 F 
ATOM     69  C   UNL     1     -11.764  -6.006  -5.202  1.00  0.00     0.022 A 
BRANCH  66  70
ATOM     70  S   UNL     1     -10.450  -6.976  -2.942  1.00  0.00     0.124 S 
ATOM     71  O   UNL     1      -9.040  -6.594  -2.923  1.00  0.00    -0.237 OA
ATOM     72  O   UNL     1     -11.174  -6.811  -1.687  1.00  0.00    -0.237 OA
ATOM     73  O   UNL     1     -10.746  -8.205  -3.677  1.00  0.00    -0.744 OA
ENDBRANCH  66  70
ENDBRANCH  49  63
BRANCH  50  74
ATOM     74  C   UNL     1      -9.016   6.274  -2.539  1.00  0.00     0.023 A 
ATOM     75  C   UNL     1      -9.532   6.983  -1.443  1.00  0.00     0.031 A 
ATOM     76  C   UNL     1      -8.224   6.980  -3.463  1.00  0.00     0.131 A 
ATOM     77  C   UNL     1      -9.291   8.362  -1.323  1.00  0.00     0.055 A 
ATOM     78  C   UNL     1      -7.935   8.337  -3.306  1.00  0.00     0.041 A 
ATOM     79  F   UNL     1      -7.713   6.357  -4.537  1.00  0.00    -0.206 F 
ATOM     80  C   UNL     1      -8.482   9.040  -2.237  1.00  0.00     0.022 A 
BRANCH  77  81
ATOM     81  S   UNL     1     -10.138   9.280  -0.008  1.00  0.00     0.124 S 
ATOM     82  O   UNL     1     -11.539   9.014  -0.317  1.00  0.00    -0.237 OA
ATOM     83  O   UNL     1      -9.613   8.643   1.194  1.00  0.00    -0.237 OA
ATOM     84  O   UNL     1      -9.703  10.659  -0.222  1.00  0.00    -0.744 OA
ENDBRANCH  77  81
ENDBRANCH  50  74
BRANCH  62  85
ATOM     85  C   UNL     1     -15.024   2.866  -3.661  1.00  0.00     0.023 A 
ATOM     86  C   UNL     1     -15.577   3.686  -4.659  1.00  0.00     0.031 A 
ATOM     87  C   UNL     1     -15.875   2.393  -2.643  1.00  0.00     0.131 A 
ATOM     88  C   UNL     1     -16.938   4.028  -4.603  1.00  0.00     0.055 A 
ATOM     89  C   UNL     1     -17.237   2.691  -2.625  1.00  0.00     0.041 A 
ATOM     90  F   UNL     1     -15.397   1.608  -1.664  1.00  0.00    -0.206 F 
ATOM     91  C   UNL     1     -17.775   3.518  -3.606  1.00  0.00     0.022 A 
BRANCH  88  92
ATOM     92  S   UNL     1     -17.601   5.192  -5.826  1.00  0.00     0.124 S 
ATOM     93  O   UNL     1     -16.806   6.388  -5.568  1.00  0.00    -0.237 OA
ATOM     94  O   UNL     1     -17.334   4.509  -7.088  1.00  0.00    -0.237 OA
ATOM     95  O   UNL     1     -19.015   5.299  -5.469  1.00  0.00    -0.744 OA
ENDBRANCH  88  92
ENDBRANCH  62  85
ENDBRANCH  36  37
ENDBRANCH  29  31
ENDBRANCH  28  29
ENDBRANCH  27  28
ENDBRANCH  26  27
ENDBRANCH  25  26
ENDBRANCH   1  25
TORSDOF 22
