REMARK SMILES Cc1cc(S(F)(F)(F)(F)F)cc2c1O[C@H](C(F)(F)F)C(C(=O)OCCOCCOCCOC(=O)c1ccc(-c3c4nc(c(-c5cc(S(=O)(=O)[O-])ccc5F)c5ccc([nH]5)c(-c5cc(S(=O)(=O)[O-])ccc5F)c5nc(c(-c6cc(S(=O)(=O)[O-])ccc6F)c6ccc3[nH]6)C=C5)C=C4)cc1)=C2
REMARK SMILES IDX 28 1 27 2 26 3 25 4 24 5 23 6 21 7 22 8 20 9 1 10 2 11 3 12
REMARK SMILES IDX 13 13 4 14 12 15 14 16 11 17 98 18 15 19 5 20 6 21 7 22 8 23
REMARK SMILES IDX 9 24 10 25 16 26 17 27 18 28 19 29 29 30 30 31 31 32 32 33
REMARK SMILES IDX 33 34 34 35 35 36 36 37 97 38 37 39 96 40 38 41 39 42 40 43
REMARK SMILES IDX 90 44 41 45 95 46 89 47 91 48 42 49 94 50 88 51 87 52 43 54
REMARK SMILES IDX 75 55 55 56 74 57 56 58 59 59 73 60 92 61 57 62 58 63 72 65
REMARK SMILES IDX 93 66 60 67 44 68 45 69 53 70 46 71 52 72 54 73 51 74 47 75
REMARK SMILES IDX 48 76 49 77 50 78 76 79 77 80 85 81 78 82 84 83 86 84 83 85
REMARK SMILES IDX 79 86 80 87 81 88 82 89 61 90 62 91 70 92 63 93 69 94 71 95
REMARK SMILES IDX 68 96 64 97 65 98 66 99 67 100
REMARK H PARENT 91 53 59 64
REMARK Flexibility Score: inf
ROOT
ATOM      1  C   UNL     1       1.688  -4.957   5.281  1.00  0.00     0.188 C 
ENDROOT
BRANCH   1   2
ATOM      2  C   UNL     1       0.226  -5.021   5.692  1.00  0.00     0.188 C 
BRANCH   2   3
ATOM      3  O   UNL     1      -0.021  -6.240   6.378  1.00  0.00    -0.376 OA
BRANCH   3   4
ATOM      4  C   UNL     1       0.278  -7.333   5.521  1.00  0.00     0.202 C 
BRANCH   4   5
ATOM      5  C   UNL     1      -0.600  -7.261   4.283  1.00  0.00     0.261 C 
BRANCH   5   6
ATOM      6  O   UNL     1      -0.354  -6.042   3.598  1.00  0.00    -0.460 OA
BRANCH   6   7
ATOM      7  C   UNL     1      -0.581  -4.802   4.251  1.00  0.00     0.338 C 
ATOM      8  O   UNL     1      -1.004  -4.783   5.449  1.00  0.00    -0.246 OA
BRANCH   7   9
ATOM      9  C   UNL     1      -0.317  -3.497   3.518  1.00  0.00     0.087 C 
ATOM     10  C   UNL     1       0.930   0.064   0.030  1.00  0.00     0.048 C 
ATOM     11  C   UNL     1       0.423   0.073   1.463  1.00  0.00    -0.007 A 
ATOM     12  C   UNL     1       0.198   1.266   2.114  1.00  0.00     0.031 A 
ATOM     13  C   UNL     1       0.181  -1.127   2.131  1.00  0.00     0.130 A 
ATOM     14  C   UNL     1      -0.260   1.285   3.425  1.00  0.00     0.108 A 
ATOM     15  C   UNL     1      -0.289  -1.104   3.464  1.00  0.00     0.019 A 
ATOM     16  O   UNL     1       0.402  -2.431   1.494  1.00  0.00    -0.475 OA
ATOM     17  C   UNL     1      -0.509   0.121   4.097  1.00  0.00     0.036 A 
ATOM     18  C   UNL     1      -0.533  -2.377   4.141  1.00  0.00     0.027 C 
ATOM     19  C   UNL     1       0.148  -3.550   2.203  1.00  0.00     0.316 C 
BRANCH  14  20
ATOM     20  S   UNL     1      -0.531   2.871   4.254  1.00  0.00     0.310 S 
ATOM     21  F   UNL     1       0.865   2.648   4.974  1.00  0.00    -0.094 F 
ATOM     22  F   UNL     1      -1.202   2.154   5.486  1.00  0.00    -0.094 F 
ATOM     23  F   UNL     1      -0.613   4.247   4.974  1.00  0.00    -0.094 F 
ATOM     24  F   UNL     1       0.269   3.546   3.071  1.00  0.00    -0.094 F 
ATOM     25  F   UNL     1      -0.339   1.463   3.561  1.00  0.00    -0.094 F 
ENDBRANCH  14  20
BRANCH  19  26
ATOM     26  C   UNL     1      -1.043  -4.138   1.464  1.00  0.00     0.430 C 
ATOM     27  F   UNL     1      -0.725  -4.321   0.185  1.00  0.00    -0.167 F 
ATOM     28  F   UNL     1      -1.373  -5.304   2.010  1.00  0.00    -0.167 F 
ATOM     29  F   UNL     1      -2.074  -3.301   1.548  1.00  0.00    -0.167 F 
ENDBRANCH  19  26
ENDBRANCH   7   9
ENDBRANCH   6   7
ENDBRANCH   5   6
ENDBRANCH   4   5
ENDBRANCH   3   4
ENDBRANCH   2   3
ENDBRANCH   1   2
BRANCH   1  30
ATOM     30  O   UNL     1       1.986  -6.050   4.425  1.00  0.00    -0.376 OA
BRANCH  30  31
ATOM     31  C   UNL     1       1.740  -7.269   5.110  1.00  0.00     0.202 C 
BRANCH  31  32
ATOM     32  C   UNL     1       2.618  -7.341   6.349  1.00  0.00     0.261 C 
BRANCH  32  33
ATOM     33  O   UNL     1       2.320  -6.248   7.205  1.00  0.00    -0.460 OA
BRANCH  33  34
ATOM     34  C   UNL     1       2.488  -4.916   6.741  1.00  0.00     0.338 C 
ATOM     35  O   UNL     1       2.906  -4.702   5.560  1.00  0.00    -0.246 OA
BRANCH  34  36
ATOM     36  C   UNL     1       2.168  -3.746   7.658  1.00  0.00     0.060 A 
ATOM     37  C   UNL     1       1.305  -2.737   7.246  1.00  0.00     0.016 A 
ATOM     38  C   UNL     1       2.576  -3.748   8.908  1.00  0.00     0.016 A 
ATOM     39  C   UNL     1       0.542  -2.108   8.255  1.00  0.00     0.010 A 
ATOM     40  C   UNL     1       2.160  -2.752   9.799  1.00  0.00     0.010 A 
ATOM     41  C   UNL     1       1.165  -1.947   9.491  1.00  0.00    -0.014 A 
BRANCH  41  42
ATOM     42  C   UNL     1       0.709  -0.868  10.459  1.00  0.00     0.031 A 
ATOM     43  C   UNL     1       1.584   0.135  10.881  1.00  0.00     0.074 A 
ATOM     44  C   UNL     1      -0.648  -0.876  10.732  1.00  0.00     0.049 A 
ATOM     45  N   UNL     1       1.285   1.240  11.566  1.00  0.00    -0.248 NA
ATOM     46  C   UNL     1       3.031   0.129  10.621  1.00  0.00     0.031 C 
ATOM     47  C   UNL     1      -1.539  -1.880  10.303  1.00  0.00     0.029 A 
ATOM     48  N   UNL     1      -1.372   0.051  11.448  1.00  0.00    -0.354 N 
ATOM     49  C   UNL     1       2.385   1.968  11.769  1.00  0.00     0.074 A 
ATOM     50  C   UNL     1       3.525   1.261  11.169  1.00  0.00     0.031 C 
ATOM     51  C   UNL     1      -2.779  -1.568  10.762  1.00  0.00     0.029 A 
ATOM     52  C   UNL     1      -2.685  -0.364  11.486  1.00  0.00     0.049 A 
ATOM     53  H   UNL     1      -1.013   0.870  11.861  1.00  0.00     0.167 HD
ATOM     54  C   UNL     1       2.482   3.195  12.428  1.00  0.00     0.034 A 
ATOM     55  C   UNL     1      -3.753   0.257  12.114  1.00  0.00     0.034 A 
ATOM     56  C   UNL     1       1.405   3.837  13.018  1.00  0.00     0.049 A 
ATOM     57  C   UNL     1      -3.646   1.455  12.824  1.00  0.00     0.074 A 
ATOM     58  C   UNL     1       1.484   5.078  13.679  1.00  0.00     0.029 A 
ATOM     59  N   UNL     1       0.097   3.410  13.077  1.00  0.00    -0.354 N 
ATOM     60  N   UNL     1      -2.554   2.202  12.992  1.00  0.00    -0.248 NA
ATOM     61  C   UNL     1      -4.764   2.105  13.519  1.00  0.00     0.031 C 
ATOM     62  C   UNL     1       0.242   5.390  14.139  1.00  0.00     0.029 A 
ATOM     63  C   UNL     1      -0.632   4.349  13.774  1.00  0.00     0.049 A 
ATOM     64  H   UNL     1      -0.257   2.577  12.689  1.00  0.00     0.167 HD
ATOM     65  C   UNL     1      -2.846   3.287  13.713  1.00  0.00     0.074 A 
ATOM     66  C   UNL     1      -4.271   3.236  14.069  1.00  0.00     0.031 C 
ATOM     67  C   UNL     1      -1.982   4.319  14.085  1.00  0.00     0.034 A 
BRANCH  54  68
ATOM     68  C   UNL     1       3.845   3.864  12.502  1.00  0.00     0.023 A 
ATOM     69  C   UNL     1       4.423   4.132  13.748  1.00  0.00     0.031 A 
ATOM     70  C   UNL     1       4.467   4.184  11.387  1.00  0.00     0.131 A 
ATOM     71  C   UNL     1       5.467   4.927  13.847  1.00  0.00     0.055 A 
ATOM     72  C   UNL     1       5.714   4.800  11.479  1.00  0.00     0.041 A 
ATOM     73  F   UNL     1       3.920   3.926  10.203  1.00  0.00    -0.206 F 
ATOM     74  C   UNL     1       5.987   5.485  12.684  1.00  0.00     0.022 A 
BRANCH  71  75
ATOM     75  S   UNL     1       6.209   5.285  15.459  1.00  0.00     0.124 S 
ATOM     76  O   UNL     1       7.669   4.825  15.462  1.00  0.00    -0.237 OA
ATOM     77  O   UNL     1       6.148   6.791  15.726  1.00  0.00    -0.237 OA
ATOM     78  O   UNL     1       5.348   4.454  16.680  1.00  0.00    -0.744 OA
ENDBRANCH  71  75
ENDBRANCH  54  68
BRANCH  55  79
ATOM     79  C   UNL     1      -5.119  -0.404  12.025  1.00  0.00     0.023 A 
ATOM     80  C   UNL     1      -5.304  -1.695  12.532  1.00  0.00     0.031 A 
ATOM     81  C   UNL     1      -6.117   0.251  11.470  1.00  0.00     0.131 A 
ATOM     82  C   UNL     1      -6.391  -2.381  12.248  1.00  0.00     0.055 A 
ATOM     83  C   UNL     1      -7.360  -0.375  11.397  1.00  0.00     0.041 A 
ATOM     84  F   UNL     1      -5.944   1.479  10.990  1.00  0.00    -0.206 F 
ATOM     85  C   UNL     1      -7.354  -1.787  11.439  1.00  0.00     0.022 A 
BRANCH  82  86
ATOM     86  S   UNL     1      -6.626  -4.055  12.893  1.00  0.00     0.124 S 
ATOM     87  O   UNL     1      -7.891  -4.098  13.753  1.00  0.00    -0.237 OA
ATOM     88  O   UNL     1      -6.768  -5.036  11.727  1.00  0.00    -0.237 OA
ATOM     89  O   UNL     1      -5.275  -4.494  13.846  1.00  0.00    -0.744 OA
ENDBRANCH  82  86
ENDBRANCH  55  79
BRANCH  67  90
ATOM     90  C   UNL     1      -2.558   5.479  14.880  1.00  0.00     0.023 A 
ATOM     91  C   UNL     1      -2.541   6.811  14.450  1.00  0.00     0.031 A 
ATOM     92  C   UNL     1      -3.182   5.136  15.987  1.00  0.00     0.131 A 
ATOM     93  C   UNL     1      -2.920   7.782  15.254  1.00  0.00     0.055 A 
ATOM     94  C   UNL     1      -3.821   6.133  16.722  1.00  0.00     0.041 A 
ATOM     95  F   UNL     1      -3.201   3.870  16.394  1.00  0.00    -0.206 F 
ATOM     96  C   UNL     1      -3.347   7.451  16.535  1.00  0.00     0.022 A 
BRANCH  93  97
ATOM     97  S   UNL     1      -2.888   9.506  14.704  1.00  0.00     0.124 S 
ATOM     98  O   UNL     1      -4.300  10.091  14.773  1.00  0.00    -0.237 OA
ATOM     99  O   UNL     1      -1.956  10.313  15.611  1.00  0.00    -0.237 OA
ATOM    100  O   UNL     1      -2.319   9.580  13.093  1.00  0.00    -0.744 OA
ENDBRANCH  93  97
ENDBRANCH  67  90
ENDBRANCH  41  42
ENDBRANCH  34  36
ENDBRANCH  33  34
ENDBRANCH  32  33
ENDBRANCH  31  32
ENDBRANCH  30  31
ENDBRANCH   1  30
TORSDOF 22
