REMARK SMILES COc1cccc(N(CC(=O)OCCOCCOCCOC(=O)c2ccc(-c3c4nc(c(-c5cc(S(=O)(=O)[O-])ccc5F)c5ccc([nH]5)c(-c5cc(S(=O)(=O)[O-])ccc5F)c5nc(c(-c6cc(S(=O)(=O)[O-])ccc6F)c6ccc3[nH]6)C=C5)C=C4)cc2)S(=O)(=O)c2ccc(C)cc2)c1
REMARK SMILES IDX 16 1 15 2 14 3 13 4 12 5 10 6 11 7 9 8 8 9 7 10 3 11 4 12
REMARK SMILES IDX 97 13 5 14 6 15 2 16 1 17 87 18 88 19 89 20 90 21 91 22
REMARK SMILES IDX 96 23 92 24 95 25 93 26 94 27 17 28 18 29 19 30 20 31 21 32
REMARK SMILES IDX 22 33 23 34 24 35 25 36 86 37 26 38 85 39 27 40 28 41 29 42
REMARK SMILES IDX 79 43 30 44 84 45 78 46 80 47 31 48 83 49 77 50 76 51 32 53
REMARK SMILES IDX 64 54 44 55 63 56 45 57 48 58 62 59 81 60 46 61 47 62 61 64
REMARK SMILES IDX 82 65 49 66 33 67 34 68 42 69 35 70 41 71 43 72 40 73 36 74
REMARK SMILES IDX 37 75 38 76 39 77 65 78 66 79 74 80 67 81 73 82 75 83 72 84
REMARK SMILES IDX 68 85 69 86 70 87 71 88 50 89 51 90 59 91 52 92 58 93 60 94
REMARK SMILES IDX 57 95 53 96 54 97 55 98 56 99
REMARK H PARENT 80 52 48 63
REMARK Flexibility Score: inf
ROOT
ATOM      1  C   UNL     1       6.305  -5.616  -2.574  1.00  0.00     0.188 C 
ENDROOT
BRANCH   1   2
ATOM      2  O   UNL     1       6.219  -6.375  -3.742  1.00  0.00    -0.376 OA
BRANCH   2   3
ATOM      3  C   UNL     1       4.922  -6.896  -3.938  1.00  0.00     0.202 C 
BRANCH   3   4
ATOM      4  C   UNL     1       4.110  -7.455  -2.709  1.00  0.00     0.261 C 
BRANCH   4   5
ATOM      5  O   UNL     1       3.715  -6.546  -1.599  1.00  0.00    -0.462 OA
BRANCH   5   6
ATOM      6  C   UNL     1       4.087  -6.823  -0.304  1.00  0.00     0.326 C 
ATOM      7  O   UNL     1       4.636  -7.887  -0.017  1.00  0.00    -0.250 OA
BRANCH   6   8
ATOM      8  C   UNL     1       3.884  -5.715   0.817  1.00  0.00     0.258 C 
BRANCH   8   9
ATOM      9  N   UNL     1       3.623  -4.230   0.490  1.00  0.00    -0.255 N 
BRANCH   9  10
ATOM     10  C   UNL     1       2.213  -3.792   0.847  1.00  0.00     0.056 A 
ATOM     11  C   UNL     1       0.488  -2.044   1.025  1.00  0.00     0.120 A 
ATOM     12  C   UNL     1      -0.466  -2.976   1.413  1.00  0.00     0.046 A 
ATOM     13  C   UNL     1       1.803  -2.456   0.745  1.00  0.00     0.073 A 
ATOM     14  C   UNL     1      -0.124  -4.316   1.455  1.00  0.00     0.006 A 
ATOM     15  C   UNL     1       1.183  -4.715   1.137  1.00  0.00     0.027 A 
BRANCH  11  16
ATOM     16  O   UNL     1       0.040  -0.750   0.974  1.00  0.00    -0.497 OA
ATOM     17  C   UNL     1       0.739   0.106   0.075  1.00  0.00     0.278 C 
ENDBRANCH  11  16
ENDBRANCH   9  10
BRANCH   9  18
ATOM     18  S   UNL     1       4.909  -2.907   1.151  1.00  0.00     0.264 S 
ATOM     19  O   UNL     1       4.641  -1.689   0.414  1.00  0.00    -0.201 OA
ATOM     20  O   UNL     1       4.817  -2.967   2.593  1.00  0.00    -0.201 OA
BRANCH  18  21
ATOM     21  C   UNL     1       6.601  -3.327   0.715  1.00  0.00     0.088 A 
ATOM     22  C   UNL     1       6.756  -4.936   0.028  1.00  0.00     0.022 A 
ATOM     23  C   UNL     1       8.191  -2.491   1.146  1.00  0.00     0.022 A 
ATOM     24  C   UNL     1       8.246  -5.824  -0.242  1.00  0.00     0.005 A 
ATOM     25  C   UNL     1       9.860  -3.617   0.832  1.00  0.00     0.005 A 
ATOM     26  C   UNL     1       9.761  -5.214   0.107  1.00  0.00    -0.051 A 
ATOM     27  C   UNL     1      11.003  -6.011  -0.118  1.00  0.00     0.044 C 
ENDBRANCH  18  21
ENDBRANCH   9  18
ENDBRANCH   8   9
ENDBRANCH   6   8
ENDBRANCH   5   6
ENDBRANCH   4   5
ENDBRANCH   3   4
ENDBRANCH   2   3
ENDBRANCH   1   2
BRANCH   1  28
ATOM     28  C   UNL     1       5.293  -4.444  -2.386  1.00  0.00     0.188 C 
BRANCH  28  29
ATOM     29  O   UNL     1       4.705  -3.908  -3.528  1.00  0.00    -0.376 OA
BRANCH  29  30
ATOM     30  C   UNL     1       5.582  -3.195  -4.366  1.00  0.00     0.202 C 
BRANCH  30  31
ATOM     31  C   UNL     1       6.950  -2.614  -3.896  1.00  0.00     0.261 C 
BRANCH  31  32
ATOM     32  O   UNL     1       7.733  -3.298  -2.871  1.00  0.00    -0.460 OA
BRANCH  32  33
ATOM     33  C   UNL     1       7.596  -2.802  -1.605  1.00  0.00     0.338 C 
ATOM     34  O   UNL     1       6.960  -1.771  -1.397  1.00  0.00    -0.246 OA
BRANCH  33  35
ATOM     35  C   UNL     1       8.473  -3.478  -0.440  1.00  0.00     0.060 A 
ATOM     36  C   UNL     1       8.238  -4.329   1.405  1.00  0.00     0.016 A 
ATOM     37  C   UNL     1       9.574  -2.033  -0.482  1.00  0.00     0.016 A 
ATOM     38  C   UNL     1       8.946  -3.571   2.833  1.00  0.00     0.010 A 
ATOM     39  C   UNL     1      10.319  -1.494   1.010  1.00  0.00     0.010 A 
ATOM     40  C   UNL     1      10.071  -2.313   2.586  1.00  0.00    -0.014 A 
BRANCH  40  41
ATOM     41  C   UNL     1      11.294  -2.662   3.451  1.00  0.00     0.031 A 
ATOM     42  C   UNL     1      12.126  -1.524   3.895  1.00  0.00     0.074 A 
ATOM     43  C   UNL     1      11.638  -3.955   3.785  1.00  0.00     0.049 A 
ATOM     44  N   UNL     1      13.137  -1.542   4.710  1.00  0.00    -0.248 NA
ATOM     45  C   UNL     1      11.807  -0.201   3.339  1.00  0.00     0.031 C 
ATOM     46  C   UNL     1      10.999  -5.206   3.328  1.00  0.00     0.029 A 
ATOM     47  N   UNL     1      12.591  -4.476   4.642  1.00  0.00    -0.354 N 
ATOM     48  C   UNL     1      13.517  -0.220   4.813  1.00  0.00     0.074 A 
ATOM     49  C   UNL     1      12.790   0.532   3.822  1.00  0.00     0.031 C 
ATOM     50  C   UNL     1      11.451  -6.281   3.969  1.00  0.00     0.029 A 
ATOM     51  C   UNL     1      12.498  -5.852   4.846  1.00  0.00     0.049 A 
ATOM     52  H   UNL     1      13.280  -3.919   5.072  1.00  0.00     0.167 HD
ATOM     53  C   UNL     1      14.304   0.332   5.755  1.00  0.00     0.034 A 
ATOM     54  C   UNL     1      13.146  -6.708   5.660  1.00  0.00     0.034 A 
ATOM     55  C   UNL     1      15.020  -0.450   6.715  1.00  0.00     0.049 A 
ATOM     56  C   UNL     1      14.148  -6.080   6.569  1.00  0.00     0.074 A 
ATOM     57  C   UNL     1      15.916  -0.018   7.668  1.00  0.00     0.029 A 
ATOM     58  N   UNL     1      14.942  -1.835   6.820  1.00  0.00    -0.354 N 
ATOM     59  N   UNL     1      14.440  -4.807   6.690  1.00  0.00    -0.248 NA
ATOM     60  C   UNL     1      14.889  -6.974   7.457  1.00  0.00     0.031 C 
ATOM     61  C   UNL     1      16.464  -1.149   8.273  1.00  0.00     0.029 A 
ATOM     62  C   UNL     1      15.819  -2.280   7.789  1.00  0.00     0.049 A 
ATOM     63  H   UNL     1      14.350  -2.412   6.284  1.00  0.00     0.167 HD
ATOM     64  C   UNL     1      15.374  -4.738   7.705  1.00  0.00     0.074 A 
ATOM     65  C   UNL     1      15.582  -6.099   8.168  1.00  0.00     0.031 C 
ATOM     66  C   UNL     1      15.999  -3.648   8.212  1.00  0.00     0.034 A 
BRANCH  53  67
ATOM     67  C   UNL     1      14.418   1.823   5.708  1.00  0.00     0.023 A 
ATOM     68  C   UNL     1      13.289   2.647   5.895  1.00  0.00     0.031 A 
ATOM     69  C   UNL     1      15.619   2.413   5.295  1.00  0.00     0.131 A 
ATOM     70  C   UNL     1      13.366   4.004   5.563  1.00  0.00     0.055 A 
ATOM     71  C   UNL     1      15.713   3.783   5.069  1.00  0.00     0.041 A 
ATOM     72  F   UNL     1      16.698   1.656   5.042  1.00  0.00    -0.206 F 
ATOM     73  C   UNL     1      14.579   4.584   5.185  1.00  0.00     0.022 A 
BRANCH  70  74
ATOM     74  S   UNL     1      11.822   4.947   5.415  1.00  0.00     0.124 S 
ATOM     75  O   UNL     1      11.150   4.239   4.328  1.00  0.00    -0.237 OA
ATOM     76  O   UNL     1      11.229   4.798   6.739  1.00  0.00    -0.237 OA
ATOM     77  O   UNL     1      12.279   6.295   5.083  1.00  0.00    -0.744 OA
ENDBRANCH  70  74
ENDBRANCH  53  67
BRANCH  54  78
ATOM     78  C   UNL     1      12.877  -8.190   5.679  1.00  0.00     0.023 A 
ATOM     79  C   UNL     1      12.460  -8.851   6.850  1.00  0.00     0.031 A 
ATOM     80  C   UNL     1      13.115  -8.989   4.543  1.00  0.00     0.131 A 
ATOM     81  C   UNL     1      12.373 -10.257   6.882  1.00  0.00     0.055 A 
ATOM     82  C   UNL     1      12.964 -10.381   4.561  1.00  0.00     0.041 A 
ATOM     83  F   UNL     1      13.504  -8.429   3.387  1.00  0.00    -0.206 F 
ATOM     84  C   UNL     1      12.612 -11.025   5.741  1.00  0.00     0.022 A 
BRANCH  81  85
ATOM     85  S   UNL     1      12.081 -11.085   8.474  1.00  0.00     0.124 S 
ATOM     86  O   UNL     1      13.178 -10.566   9.281  1.00  0.00    -0.237 OA
ATOM     87  O   UNL     1      10.745 -10.613   8.822  1.00  0.00    -0.237 OA
ATOM     88  O   UNL     1      12.169 -12.506   8.140  1.00  0.00    -0.744 OA
ENDBRANCH  81  85
ENDBRANCH  54  78
BRANCH  66  89
ATOM     89  C   UNL     1      16.930  -3.891   9.358  1.00  0.00     0.023 A 
ATOM     90  C   UNL     1      18.100  -4.647   9.204  1.00  0.00     0.031 A 
ATOM     91  C   UNL     1      16.646  -3.332  10.615  1.00  0.00     0.131 A 
ATOM     92  C   UNL     1      18.919  -4.876  10.312  1.00  0.00     0.055 A 
ATOM     93  C   UNL     1      17.518  -3.481  11.688  1.00  0.00     0.041 A 
ATOM     94  F   UNL     1      15.528  -2.614  10.809  1.00  0.00    -0.206 F 
ATOM     95  C   UNL     1      18.655  -4.269  11.543  1.00  0.00     0.022 A 
BRANCH  92  96
ATOM     96  S   UNL     1      20.259  -6.081  10.150  1.00  0.00     0.124 S 
ATOM     97  O   UNL     1      19.534  -7.284   9.750  1.00  0.00    -0.237 OA
ATOM     98  O   UNL     1      21.102  -5.476   9.124  1.00  0.00    -0.237 OA
ATOM     99  O   UNL     1      20.841  -6.123  11.489  1.00  0.00    -0.744 OA
ENDBRANCH  92  96
ENDBRANCH  66  89
ENDBRANCH  40  41
ENDBRANCH  33  35
ENDBRANCH  32  33
ENDBRANCH  31  32
ENDBRANCH  30  31
ENDBRANCH  29  30
ENDBRANCH  28  29
ENDBRANCH   1  28
TORSDOF 25
