REMARK SMILES C[C@@H](NC(=O)N1CC[N@@H+]2CCCC[C@H]2C1)C(=O)OCCOCCOCCOC(=O)c1ccc(-c2c3nc(c(-c4cc(S(=O)(=O)[O-])ccc4F)c4ccc([nH]4)c(-c4cc(S(=O)(=O)[O-])ccc4F)c4nc(c(-c5cc(S(=O)(=O)[O-])ccc5F)c5ccc2[nH]5)C=C4)C=C3)cc1
REMARK SMILES IDX 23 1 22 2 21 3 20 4 19 5 18 6 16 7 17 8 2 9 1 10 3 11 4 12
REMARK SMILES IDX 5 14 6 15 7 16 15 17 8 18 14 19 9 20 13 21 10 22 12 24 11 25
REMARK SMILES IDX 24 26 25 27 26 28 27 29 28 30 29 31 30 32 31 33 92 34 32 35
REMARK SMILES IDX 91 36 33 37 34 38 35 39 85 40 36 41 90 42 84 43 86 44 37 45
REMARK SMILES IDX 89 46 83 47 82 48 38 50 70 51 50 52 69 53 51 54 54 55 68 56
REMARK SMILES IDX 87 57 52 58 53 59 67 61 88 62 55 63 39 64 40 65 48 66 41 67
REMARK SMILES IDX 47 68 49 69 46 70 42 71 43 72 44 73 45 74 71 75 72 76 80 77
REMARK SMILES IDX 73 78 79 79 81 80 78 81 74 82 75 83 76 84 77 85 56 86 57 87
REMARK SMILES IDX 65 88 58 89 64 90 66 91 63 92 59 93 60 94 61 95 62 96
REMARK H PARENT 3 13 9 23 86 49 54 60
REMARK Flexibility Score: inf
ROOT
ATOM      1  C   UNL     1      -0.683   0.114   2.236  1.00  0.00     0.188 C 
ENDROOT
BRANCH   1   2
ATOM      2  C   UNL     1      -1.457   1.406   1.893  1.00  0.00     0.188 C 
BRANCH   2   3
ATOM      3  O   UNL     1      -2.847   1.220   1.734  1.00  0.00    -0.376 OA
BRANCH   3   4
ATOM      4  C   UNL     1      -3.235   1.137   0.380  1.00  0.00     0.202 C 
BRANCH   4   5
ATOM      5  C   UNL     1      -2.475   0.099  -0.447  1.00  0.00     0.261 C 
BRANCH   5   6
ATOM      6  O   UNL     1      -1.071   0.242  -0.654  1.00  0.00    -0.462 OA
BRANCH   6   7
ATOM      7  C   UNL     1      -0.657   1.337  -1.343  1.00  0.00     0.328 C 
ATOM      8  O   UNL     1      -1.306   2.368  -1.462  1.00  0.00    -0.250 OA
BRANCH   7   9
ATOM      9  C   UNL     1       0.669   1.067  -2.037  1.00  0.00     0.190 C 
ATOM     10  C   UNL     1       1.439  -0.122  -1.447  1.00  0.00     0.043 C 
BRANCH   9  11
ATOM     11  N   UNL     1       0.578   1.030  -3.507  1.00  0.00    -0.325 N 
ATOM     12  C   UNL     1      -0.240   0.276  -4.287  1.00  0.00     0.318 C 
ATOM     13  H   UNL     1       1.191   1.632  -3.988  1.00  0.00     0.166 HD
ATOM     14  O   UNL     1       0.265  -0.347  -5.221  1.00  0.00    -0.249 OA
BRANCH  12  15
ATOM     15  N   UNL     1      -1.589   0.248  -4.030  1.00  0.00    -0.313 N 
ATOM     16  C   UNL     1      -2.409   1.467  -4.073  1.00  0.00     0.183 C 
ATOM     17  C   UNL     1      -2.343  -0.915  -4.496  1.00  0.00     0.186 C 
ATOM     18  C   UNL     1      -3.817   1.313  -3.417  1.00  0.00     0.284 C 
ATOM     19  C   UNL     1      -3.525  -1.159  -3.551  1.00  0.00     0.203 C 
ATOM     20  N   UNL     1      -4.476  -0.024  -3.481  1.00  0.00    -0.330 N 
ATOM     21  C   UNL     1      -4.309  -2.429  -3.873  1.00  0.00     0.067 C 
ATOM     22  C   UNL     1      -5.446  -0.212  -2.384  1.00  0.00     0.262 C 
ATOM     23  H   UNL     1      -4.985  -0.028  -4.364  1.00  0.00     0.348 HD
ATOM     24  C   UNL     1      -5.203  -2.750  -2.676  1.00  0.00     0.012 C 
ATOM     25  C   UNL     1      -6.137  -1.583  -2.364  1.00  0.00     0.062 C 
ENDBRANCH  12  15
ENDBRANCH   9  11
ENDBRANCH   7   9
ENDBRANCH   6   7
ENDBRANCH   5   6
ENDBRANCH   4   5
ENDBRANCH   3   4
ENDBRANCH   2   3
ENDBRANCH   1   2
BRANCH   1  26
ATOM     26  O   UNL     1      -1.305  -1.160   2.109  1.00  0.00    -0.376 OA
BRANCH  26  27
ATOM     27  C   UNL     1      -2.589  -1.400   2.675  1.00  0.00     0.202 C 
BRANCH  27  28
ATOM     28  C   UNL     1      -2.938  -0.981   4.112  1.00  0.00     0.261 C 
BRANCH  28  29
ATOM     29  O   UNL     1      -2.665   0.390   4.430  1.00  0.00    -0.460 OA
BRANCH  29  30
ATOM     30  C   UNL     1      -1.593   0.603   5.234  1.00  0.00     0.338 C 
ATOM     31  O   UNL     1      -0.910  -0.251   5.776  1.00  0.00    -0.246 OA
BRANCH  30  32
ATOM     32  C   UNL     1      -1.189   2.022   5.111  1.00  0.00     0.060 A 
ATOM     33  C   UNL     1       0.137   2.289   4.723  1.00  0.00     0.016 A 
ATOM     34  C   UNL     1      -2.109   3.067   5.246  1.00  0.00     0.016 A 
ATOM     35  C   UNL     1       0.548   3.594   4.472  1.00  0.00     0.010 A 
ATOM     36  C   UNL     1      -1.675   4.386   5.078  1.00  0.00     0.010 A 
ATOM     37  C   UNL     1      -0.334   4.650   4.737  1.00  0.00    -0.014 A 
BRANCH  37  38
ATOM     38  C   UNL     1       0.276   5.950   5.109  1.00  0.00     0.031 A 
ATOM     39  C   UNL     1       0.758   6.059   6.534  1.00  0.00     0.074 A 
ATOM     40  C   UNL     1       0.459   6.955   4.237  1.00  0.00     0.049 A 
ATOM     41  N   UNL     1       1.356   7.044   7.146  1.00  0.00    -0.248 NA
ATOM     42  C   UNL     1       0.532   4.875   7.382  1.00  0.00     0.031 C 
ATOM     43  C   UNL     1       0.099   6.936   2.822  1.00  0.00     0.029 A 
ATOM     44  N   UNL     1       1.010   8.197   4.430  1.00  0.00    -0.354 N 
ATOM     45  C   UNL     1       1.582   6.592   8.443  1.00  0.00     0.074 A 
ATOM     46  C   UNL     1       1.024   5.266   8.541  1.00  0.00     0.031 C 
ATOM     47  C   UNL     1       0.434   8.120   2.274  1.00  0.00     0.029 A 
ATOM     48  C   UNL     1       1.004   8.988   3.305  1.00  0.00     0.049 A 
ATOM     49  H   UNL     1       1.376   8.495   5.294  1.00  0.00     0.167 HD
ATOM     50  C   UNL     1       2.203   7.224   9.466  1.00  0.00     0.034 A 
ATOM     51  C   UNL     1       1.401  10.267   3.145  1.00  0.00     0.034 A 
ATOM     52  C   UNL     1       2.701   8.569   9.368  1.00  0.00     0.049 A 
ATOM     53  C   UNL     1       1.980  11.004   4.335  1.00  0.00     0.074 A 
ATOM     54  C   UNL     1       3.321   9.331  10.340  1.00  0.00     0.029 A 
ATOM     55  N   UNL     1       2.608   9.364   8.232  1.00  0.00    -0.354 N 
ATOM     56  N   UNL     1       2.193  10.571   5.558  1.00  0.00    -0.248 NA
ATOM     57  C   UNL     1       2.380  12.399   4.116  1.00  0.00     0.031 C 
ATOM     58  C   UNL     1       3.526  10.613   9.818  1.00  0.00     0.029 A 
ATOM     59  C   UNL     1       3.128  10.621   8.489  1.00  0.00     0.049 A 
ATOM     60  H   UNL     1       2.227   9.076   7.371  1.00  0.00     0.167 HD
ATOM     61  C   UNL     1       2.798  11.628   6.238  1.00  0.00     0.074 A 
ATOM     62  C   UNL     1       2.914  12.714   5.287  1.00  0.00     0.031 C 
ATOM     63  C   UNL     1       3.231  11.693   7.525  1.00  0.00     0.034 A 
BRANCH  50  64
ATOM     64  C   UNL     1       2.272   6.483  10.779  1.00  0.00     0.023 A 
ATOM     65  C   UNL     1       2.951   5.255  10.904  1.00  0.00     0.031 A 
ATOM     66  C   UNL     1       1.560   6.957  11.894  1.00  0.00     0.131 A 
ATOM     67  C   UNL     1       2.821   4.502  12.081  1.00  0.00     0.055 A 
ATOM     68  C   UNL     1       1.516   6.247  13.095  1.00  0.00     0.041 A 
ATOM     69  F   UNL     1       0.861   8.101  11.823  1.00  0.00    -0.206 F 
ATOM     70  C   UNL     1       2.131   5.002  13.187  1.00  0.00     0.022 A 
BRANCH  67  71
ATOM     71  S   UNL     1       3.396   2.780  12.075  1.00  0.00     0.124 S 
ATOM     72  O   UNL     1       2.628   2.217  10.966  1.00  0.00    -0.237 OA
ATOM     73  O   UNL     1       4.829   2.927  11.850  1.00  0.00    -0.237 OA
ATOM     74  O   UNL     1       3.018   2.288  13.398  1.00  0.00    -0.744 OA
ENDBRANCH  67  71
ENDBRANCH  50  64
BRANCH  51  75
ATOM     75  C   UNL     1       1.251  10.954   1.829  1.00  0.00     0.023 A 
ATOM     76  C   UNL     1       2.370  11.418   1.117  1.00  0.00     0.031 A 
ATOM     77  C   UNL     1      -0.022  11.215   1.291  1.00  0.00     0.131 A 
ATOM     78  C   UNL     1       2.194  12.153  -0.067  1.00  0.00     0.055 A 
ATOM     79  C   UNL     1      -0.190  11.901   0.086  1.00  0.00     0.041 A 
ATOM     80  F   UNL     1      -1.127  10.802   1.931  1.00  0.00    -0.206 F 
ATOM     81  C   UNL     1       0.922  12.385  -0.595  1.00  0.00     0.022 A 
BRANCH  78  82
ATOM     82  S   UNL     1       3.654  12.871  -0.872  1.00  0.00     0.124 S 
ATOM     83  O   UNL     1       4.167  13.748   0.173  1.00  0.00    -0.237 OA
ATOM     84  O   UNL     1       4.452  11.686  -1.166  1.00  0.00    -0.237 OA
ATOM     85  O   UNL     1       3.098  13.550  -2.041  1.00  0.00    -0.744 OA
ENDBRANCH  78  82
ENDBRANCH  51  75
BRANCH  63  86
ATOM     86  C   UNL     1       3.938  12.957   7.956  1.00  0.00     0.023 A 
ATOM     87  C   UNL     1       3.286  14.200   8.012  1.00  0.00     0.031 A 
ATOM     88  C   UNL     1       5.298  12.909   8.317  1.00  0.00     0.131 A 
ATOM     89  C   UNL     1       4.009  15.353   8.354  1.00  0.00     0.055 A 
ATOM     90  C   UNL     1       5.993  14.046   8.727  1.00  0.00     0.041 A 
ATOM     91  F   UNL     1       5.975  11.749   8.282  1.00  0.00    -0.206 F 
ATOM     92  C   UNL     1       5.353  15.281   8.731  1.00  0.00     0.022 A 
BRANCH  89  93
ATOM     93  S   UNL     1       3.202  16.969   8.184  1.00  0.00     0.124 S 
ATOM     94  O   UNL     1       2.779  16.951   6.787  1.00  0.00    -0.237 OA
ATOM     95  O   UNL     1       2.134  16.889   9.175  1.00  0.00    -0.237 OA
ATOM     96  O   UNL     1       4.268  17.919   8.497  1.00  0.00    -0.744 OA
ENDBRANCH  89  93
ENDBRANCH  63  86
ENDBRANCH  37  38
ENDBRANCH  30  32
ENDBRANCH  29  30
ENDBRANCH  28  29
ENDBRANCH  27  28
ENDBRANCH  26  27
ENDBRANCH   1  26
TORSDOF 22
