REMARK SMILES CCSc1ccc(-c2cc(Cl)cc3c2O[C@H](C(F)(F)F)C(C(=O)OCCOCCOCCOC(=O)c2ccc(-c4c5nc(c(-c6cc(S(=O)(=O)[O-])ccc6F)c6ccc([nH]6)c(-c6cc(S(=O)(=O)[O-])ccc6F)c6nc(c(-c7cc(S(=O)(=O)[O-])ccc7F)c7ccc4[nH]7)C=C6)C=C5)cc2)=C3)cc1
REMARK SMILES IDX 28 1 27 2 26 3 25 4 24 5 22 6 23 7 21 8 8 9 9 10 14 11 10 12
REMARK SMILES IDX 13 13 15 14 11 15 12 16 99 17 16 18 7 19 4 20 5 21 101 22
REMARK SMILES IDX 6 23 100 24 3 25 2 26 1 27 17 28 18 29 19 30 20 31 29 32
REMARK SMILES IDX 30 33 31 34 32 35 33 36 34 37 35 38 36 39 37 40 98 41 38 42
REMARK SMILES IDX 97 43 39 44 40 45 41 46 91 47 42 48 96 49 90 50 92 51 43 52
REMARK SMILES IDX 95 53 89 54 88 55 44 57 76 58 56 59 75 60 57 61 60 62 74 63
REMARK SMILES IDX 93 64 58 65 59 66 73 68 94 69 61 70 45 71 46 72 54 73 47 74
REMARK SMILES IDX 53 75 55 76 52 77 48 78 49 79 50 80 51 81 77 82 78 83 86 84
REMARK SMILES IDX 79 85 85 86 87 87 84 88 80 89 81 90 82 91 83 92 62 93 63 94
REMARK SMILES IDX 71 95 64 96 70 97 72 98 69 99 65 100 66 101 67 102 68 103
REMARK H PARENT 92 56 60 67
REMARK Flexibility Score: inf
ROOT
ATOM      1  C   UNL     1      11.901  -1.367  -1.380  1.00  0.00     0.188 C 
ENDROOT
BRANCH   1   2
ATOM      2  O   UNL     1      12.967  -1.610  -2.284  1.00  0.00    -0.376 OA
BRANCH   2   3
ATOM      3  C   UNL     1      13.625  -0.461  -2.810  1.00  0.00     0.202 C 
BRANCH   3   4
ATOM      4  C   UNL     1      14.221   0.477  -1.754  1.00  0.00     0.261 C 
BRANCH   4   5
ATOM      5  O   UNL     1      13.182   1.270  -1.133  1.00  0.00    -0.460 OA
BRANCH   5   6
ATOM      6  C   UNL     1      12.890   2.421  -1.777  1.00  0.00     0.338 C 
ATOM      7  O   UNL     1      13.539   2.880  -2.711  1.00  0.00    -0.246 OA
BRANCH   6   8
ATOM      8  C   UNL     1      11.600   3.004  -1.325  1.00  0.00     0.087 C 
ATOM      9  C   UNL     1       7.874   1.298  -1.819  1.00  0.00     0.026 A 
ATOM     10  C   UNL     1       7.977   0.445  -2.940  1.00  0.00     0.033 A 
ATOM     11  C   UNL     1       8.977   2.116  -1.586  1.00  0.00     0.135 A 
ATOM     12  C   UNL     1       9.011   0.538  -3.871  1.00  0.00     0.042 A 
ATOM     13  C   UNL     1       9.889   2.362  -2.634  1.00  0.00     0.019 A 
ATOM     14  O   UNL     1       9.332   2.603  -0.336  1.00  0.00    -0.475 OA
ATOM     15  Cl  UNL     1       9.113  -0.562  -5.186  1.00  0.00    -0.084 Cl
ATOM     16  C   UNL     1       9.931   1.560  -3.766  1.00  0.00     0.032 A 
ATOM     17  C   UNL     1      10.908   3.405  -2.406  1.00  0.00     0.027 C 
ATOM     18  C   UNL     1      10.808   2.445  -0.141  1.00  0.00     0.316 C 
BRANCH   9  19
ATOM     19  C   UNL     1       6.492   1.469  -1.298  1.00  0.00    -0.015 A 
ATOM     20  C   UNL     1       3.650   1.367  -1.501  1.00  0.00     0.007 A 
ATOM     21  C   UNL     1       4.360   0.321  -0.910  1.00  0.00     0.015 A 
ATOM     22  C   UNL     1       4.351   2.508  -1.897  1.00  0.00     0.015 A 
ATOM     23  C   UNL     1       5.761   0.384  -0.790  1.00  0.00     0.010 A 
ATOM     24  C   UNL     1       5.750   2.567  -1.778  1.00  0.00     0.010 A 
BRANCH  20  25
ATOM     25  S   UNL     1       1.970   1.143  -2.060  1.00  0.00    -0.126 SA
BRANCH  25  26
ATOM     26  C   UNL     1       0.990   1.282  -0.541  1.00  0.00     0.071 C 
ATOM     27  C   UNL     1       1.037   0.023   0.301  1.00  0.00     0.016 C 
ENDBRANCH  25  26
ENDBRANCH  20  25
ENDBRANCH   9  19
BRANCH  18  28
ATOM     28  C   UNL     1      11.282   3.106   1.155  1.00  0.00     0.430 C 
ATOM     29  F   UNL     1      11.058   4.439   1.167  1.00  0.00    -0.167 F 
ATOM     30  F   UNL     1      10.682   2.572   2.241  1.00  0.00    -0.167 F 
ATOM     31  F   UNL     1      12.619   2.928   1.324  1.00  0.00    -0.167 F 
ENDBRANCH  18  28
ENDBRANCH   6   8
ENDBRANCH   5   6
ENDBRANCH   4   5
ENDBRANCH   3   4
ENDBRANCH   2   3
ENDBRANCH   1   2
BRANCH   1  32
ATOM     32  C   UNL     1      12.282  -1.448   0.115  1.00  0.00     0.188 C 
BRANCH  32  33
ATOM     33  O   UNL     1      13.577  -1.900   0.492  1.00  0.00    -0.376 OA
BRANCH  33  34
ATOM     34  C   UNL     1      14.101  -3.084  -0.100  1.00  0.00     0.202 C 
BRANCH  34  35
ATOM     35  C   UNL     1      13.303  -4.381   0.051  1.00  0.00     0.261 C 
BRANCH  35  36
ATOM     36  O   UNL     1      12.007  -4.340  -0.575  1.00  0.00    -0.460 OA
BRANCH  36  37
ATOM     37  C   UNL     1      10.960  -4.524   0.267  1.00  0.00     0.338 C 
ATOM     38  O   UNL     1      11.017  -4.723   1.469  1.00  0.00    -0.246 OA
BRANCH  37  39
ATOM     39  C   UNL     1       9.681  -4.277  -0.431  1.00  0.00     0.060 A 
ATOM     40  C   UNL     1       8.830  -3.311   0.111  1.00  0.00     0.016 A 
ATOM     41  C   UNL     1       9.270  -5.041  -1.527  1.00  0.00     0.016 A 
ATOM     42  C   UNL     1       7.555  -3.132  -0.423  1.00  0.00     0.010 A 
ATOM     43  C   UNL     1       7.980  -4.863  -2.055  1.00  0.00     0.010 A 
ATOM     44  C   UNL     1       7.106  -3.918  -1.496  1.00  0.00    -0.014 A 
BRANCH  44  45
ATOM     45  C   UNL     1       5.668  -3.841  -1.885  1.00  0.00     0.031 A 
ATOM     46  C   UNL     1       4.657  -4.553  -1.037  1.00  0.00     0.074 A 
ATOM     47  C   UNL     1       5.253  -3.108  -2.934  1.00  0.00     0.049 A 
ATOM     48  N   UNL     1       3.353  -4.557  -1.128  1.00  0.00    -0.248 NA
ATOM     49  C   UNL     1       5.198  -5.394   0.037  1.00  0.00     0.031 C 
ATOM     50  C   UNL     1       6.142  -2.405  -3.843  1.00  0.00     0.029 A 
ATOM     51  N   UNL     1       3.995  -2.782  -3.383  1.00  0.00    -0.354 N 
ATOM     52  C   UNL     1       2.914  -5.451  -0.160  1.00  0.00     0.074 A 
ATOM     53  C   UNL     1       4.095  -5.935   0.528  1.00  0.00     0.031 C 
ATOM     54  C   UNL     1       5.411  -1.621  -4.654  1.00  0.00     0.029 A 
ATOM     55  C   UNL     1       3.993  -1.832  -4.385  1.00  0.00     0.049 A 
ATOM     56  H   UNL     1       3.173  -3.187  -3.023  1.00  0.00     0.167 HD
ATOM     57  C   UNL     1       1.648  -5.867   0.096  1.00  0.00     0.034 A 
ATOM     58  C   UNL     1       2.967  -1.206  -5.006  1.00  0.00     0.034 A 
ATOM     59  C   UNL     1       0.491  -5.414  -0.637  1.00  0.00     0.049 A 
ATOM     60  C   UNL     1       1.559  -1.637  -4.659  1.00  0.00     0.074 A 
ATOM     61  C   UNL     1      -0.827  -5.815  -0.503  1.00  0.00     0.029 A 
ATOM     62  N   UNL     1       0.513  -4.470  -1.659  1.00  0.00    -0.354 N 
ATOM     63  N   UNL     1       1.157  -2.508  -3.758  1.00  0.00    -0.248 NA
ATOM     64  C   UNL     1       0.468  -1.041  -5.442  1.00  0.00     0.031 C 
ATOM     65  C   UNL     1      -1.587  -5.170  -1.486  1.00  0.00     0.029 A 
ATOM     66  C   UNL     1      -0.762  -4.300  -2.181  1.00  0.00     0.049 A 
ATOM     67  H   UNL     1       1.316  -3.993  -1.967  1.00  0.00     0.167 HD
ATOM     68  C   UNL     1      -0.229  -2.571  -3.882  1.00  0.00     0.074 A 
ATOM     69  C   UNL     1      -0.599  -1.613  -4.904  1.00  0.00     0.031 C 
ATOM     70  C   UNL     1      -1.114  -3.367  -3.228  1.00  0.00     0.034 A 
BRANCH  57  71
ATOM     71  C   UNL     1       1.500  -6.963   1.123  1.00  0.00     0.023 A 
ATOM     72  C   UNL     1       1.862  -6.774   2.468  1.00  0.00     0.031 A 
ATOM     73  C   UNL     1       1.104  -8.251   0.722  1.00  0.00     0.131 A 
ATOM     74  C   UNL     1       1.927  -7.876   3.333  1.00  0.00     0.055 A 
ATOM     75  C   UNL     1       1.077  -9.325   1.614  1.00  0.00     0.041 A 
ATOM     76  F   UNL     1       0.775  -8.500  -0.555  1.00  0.00    -0.206 F 
ATOM     77  C   UNL     1       1.514  -9.146   2.923  1.00  0.00     0.022 A 
BRANCH  74  78
ATOM     78  S   UNL     1       2.759  -7.668   4.933  1.00  0.00     0.124 S 
ATOM     79  O   UNL     1       4.071  -7.175   4.520  1.00  0.00    -0.237 OA
ATOM     80  O   UNL     1       1.898  -6.705   5.611  1.00  0.00    -0.237 OA
ATOM     81  O   UNL     1       2.758  -9.016   5.498  1.00  0.00    -0.744 OA
ENDBRANCH  74  78
ENDBRANCH  57  71
BRANCH  58  82
ATOM     82  C   UNL     1       3.209  -0.125  -6.018  1.00  0.00     0.023 A 
ATOM     83  C   UNL     1       2.683   1.169  -5.838  1.00  0.00     0.031 A 
ATOM     84  C   UNL     1       3.944  -0.358  -7.194  1.00  0.00     0.131 A 
ATOM     85  C   UNL     1       2.891   2.168  -6.804  1.00  0.00     0.055 A 
ATOM     86  C   UNL     1       4.196   0.652  -8.128  1.00  0.00     0.041 A 
ATOM     87  F   UNL     1       4.449  -1.575  -7.450  1.00  0.00    -0.206 F 
ATOM     88  C   UNL     1       3.663   1.922  -7.939  1.00  0.00     0.022 A 
BRANCH  85  89
ATOM     89  S   UNL     1       2.082   3.780  -6.591  1.00  0.00     0.124 S 
ATOM     90  O   UNL     1       0.673   3.407  -6.535  1.00  0.00    -0.237 OA
ATOM     91  O   UNL     1       2.673   4.259  -5.345  1.00  0.00    -0.237 OA
ATOM     92  O   UNL     1       2.480   4.521  -7.787  1.00  0.00    -0.744 OA
ENDBRANCH  85  89
ENDBRANCH  58  82
BRANCH  70  93
ATOM     93  C   UNL     1      -2.571  -3.248  -3.617  1.00  0.00     0.023 A 
ATOM     94  C   UNL     1      -3.026  -3.624  -4.895  1.00  0.00     0.031 A 
ATOM     95  C   UNL     1      -3.518  -2.771  -2.695  1.00  0.00     0.131 A 
ATOM     96  C   UNL     1      -4.380  -3.472  -5.231  1.00  0.00     0.055 A 
ATOM     97  C   UNL     1      -4.874  -2.675  -3.016  1.00  0.00     0.041 A 
ATOM     98  F   UNL     1      -3.144  -2.398  -1.460  1.00  0.00    -0.206 F 
ATOM     99  C   UNL     1      -5.310  -3.016  -4.293  1.00  0.00     0.022 A 
BRANCH  96 100
ATOM    100  S   UNL     1      -4.903  -3.808  -6.936  1.00  0.00     0.124 S 
ATOM    101  O   UNL     1      -4.088  -2.867  -7.696  1.00  0.00    -0.237 OA
ATOM    102  O   UNL     1      -4.565  -5.219  -7.095  1.00  0.00    -0.237 OA
ATOM    103  O   UNL     1      -6.335  -3.515  -6.920  1.00  0.00    -0.744 OA
ENDBRANCH  96 100
ENDBRANCH  70  93
ENDBRANCH  44  45
ENDBRANCH  37  39
ENDBRANCH  36  37
ENDBRANCH  35  36
ENDBRANCH  34  35
ENDBRANCH  33  34
ENDBRANCH  32  33
ENDBRANCH   1  32
TORSDOF 24
