REMARK SMILES Cc1ccccc1C(=O)Nc1cc(C(=O)OCCOCCOCCOC(=O)c2ccc(-c3c4nc(c(-c5cc(S(=O)(=O)[O-])ccc5F)c5ccc([nH]5)c(-c5cc(S(=O)(=O)[O-])ccc5F)c5nc(c(-c6cc(S(=O)(=O)[O-])ccc6F)c6ccc3[nH]6)C=C5)C=C4)cc2)ccc1N1CC[NH+](CC(=O)Nc2ccc(F)cc2)CC1
REMARK SMILES IDX 20 1 19 2 18 3 17 4 16 5 14 6 15 7 13 8 11 9 12 10 93 11
REMARK SMILES IDX 92 12 91 13 10 14 8 15 9 16 7 18 1 19 2 20 3 21 4 22 6 23
REMARK SMILES IDX 5 24 94 25 95 26 110 27 96 28 109 29 97 30 98 32 99 33
REMARK SMILES IDX 100 34 101 35 102 37 103 38 108 39 104 40 107 41 105 42
REMARK SMILES IDX 106 43 21 44 22 45 23 46 24 47 25 48 26 49 27 50 28 51 29 52
REMARK SMILES IDX 90 53 30 54 89 55 31 56 32 57 33 58 83 59 34 60 88 61 82 62
REMARK SMILES IDX 84 63 35 64 87 65 81 66 80 67 36 69 68 70 48 71 67 72 49 73
REMARK SMILES IDX 52 74 66 75 85 76 50 77 51 78 65 80 86 81 53 82 37 83 38 84
REMARK SMILES IDX 46 85 39 86 45 87 47 88 44 89 40 90 41 91 42 92 43 93 69 94
REMARK SMILES IDX 70 95 78 96 71 97 77 98 79 99 76 100 72 101 73 102 74 103
REMARK SMILES IDX 75 104 54 105 55 106 63 107 56 108 62 109 64 110 61 111
REMARK SMILES IDX 57 112 58 113 59 114 60 115
REMARK H PARENT 10 17 97 31 101 36 84 68 52 79
REMARK Flexibility Score: inf
ROOT
ATOM      1  C   UNL     1       5.760  -4.708  -5.951  1.00  0.00     0.188 C 
ENDROOT
BRANCH   1   2
ATOM      2  O   UNL     1       4.410  -4.920  -6.337  1.00  0.00    -0.376 OA
BRANCH   2   3
ATOM      3  C   UNL     1       3.595  -4.840  -5.182  1.00  0.00     0.202 C 
BRANCH   3   4
ATOM      4  C   UNL     1       3.666  -3.521  -4.381  1.00  0.00     0.261 C 
BRANCH   4   5
ATOM      5  O   UNL     1       4.870  -3.119  -3.408  1.00  0.00    -0.460 OA
BRANCH   5   6
ATOM      6  C   UNL     1       5.439  -2.331  -2.358  1.00  0.00     0.338 C 
ATOM      7  O   UNL     1       6.672  -2.242  -2.491  1.00  0.00    -0.246 OA
BRANCH   6   8
ATOM      8  C   UNL     1       4.958  -1.505  -0.945  1.00  0.00     0.062 A 
ATOM      9  C   UNL     1       3.686   0.348   0.339  1.00  0.00     0.065 A 
ATOM     10  C   UNL     1       3.748  -0.865  -0.445  1.00  0.00     0.044 A 
ATOM     11  C   UNL     1       4.930   0.888   0.796  1.00  0.00     0.061 A 
ATOM     12  C   UNL     1       6.050   0.039   0.623  1.00  0.00     0.029 A 
ATOM     13  C   UNL     1       6.070  -1.091  -0.217  1.00  0.00     0.018 A 
BRANCH   9  14
ATOM     14  N   UNL     1       2.505   1.183   0.463  1.00  0.00    -0.320 N 
ATOM     15  C   UNL     1       1.130   1.318   0.745  1.00  0.00     0.255 C 
ATOM     16  O   UNL     1       0.755   2.509   0.749  1.00  0.00    -0.269 OA
ATOM     17  H   UNL     1       2.812   2.093   0.244  1.00  0.00     0.170 HD
BRANCH  15  18
ATOM     18  C   UNL     1      -0.021   0.338   0.999  1.00  0.00     0.043 A 
ATOM     19  C   UNL     1       1.646  -1.842   1.663  1.00  0.00     0.045 C 
ATOM     20  C   UNL     1       0.397  -1.436   0.929  1.00  0.00    -0.038 A 
ATOM     21  C   UNL     1      -0.684  -2.630  -0.045  1.00  0.00     0.004 A 
ATOM     22  C   UNL     1      -2.216  -2.021  -0.924  1.00  0.00     0.000 A 
ATOM     23  C   UNL     1      -1.611   0.938   0.230  1.00  0.00     0.014 A 
ATOM     24  C   UNL     1      -2.688  -0.226  -0.805  1.00  0.00     0.001 A 
ENDBRANCH  15  18
ENDBRANCH   9  14
BRANCH  11  25
ATOM     25  N   UNL     1       5.143   2.174   1.340  1.00  0.00    -0.359 N 
ATOM     26  C   UNL     1       6.532   2.574   1.751  1.00  0.00     0.178 C 
ATOM     27  C   UNL     1       4.135   2.914   2.098  1.00  0.00     0.178 C 
ATOM     28  C   UNL     1       6.730   4.083   2.130  1.00  0.00     0.284 C 
ATOM     29  C   UNL     1       4.390   4.420   1.921  1.00  0.00     0.284 C 
ATOM     30  N   UNL     1       5.587   4.869   2.625  1.00  0.00    -0.324 N 
ATOM     31  H   UNL     1       5.775   5.846   2.398  1.00  0.00     0.348 HD
BRANCH  30  32
ATOM     32  C   UNL     1       5.439   5.011   4.090  1.00  0.00     0.364 C 
BRANCH  32  33
ATOM     33  C   UNL     1       5.317   3.746   4.934  1.00  0.00     0.279 C 
ATOM     34  O   UNL     1       6.351   3.125   5.225  1.00  0.00    -0.268 OA
ATOM     35  N   UNL     1       4.148   3.235   5.431  1.00  0.00    -0.321 N 
ATOM     36  H   UNL     1       4.318   2.551   6.119  1.00  0.00     0.170 HD
BRANCH  35  37
ATOM     37  C   UNL     1       2.762   3.425   5.222  1.00  0.00     0.041 A 
ATOM     38  C   UNL     1       1.917   2.455   5.794  1.00  0.00     0.029 A 
ATOM     39  C   UNL     1       2.172   4.406   4.429  1.00  0.00     0.029 A 
ATOM     40  C   UNL     1       0.544   2.424   5.516  1.00  0.00     0.041 A 
ATOM     41  C   UNL     1       0.807   4.349   4.104  1.00  0.00     0.041 A 
ATOM     42  C   UNL     1       0.005   3.357   4.648  1.00  0.00     0.123 A 
ATOM     43  F   UNL     1      -1.299   3.318   4.348  1.00  0.00    -0.207 F 
ENDBRANCH  35  37
ENDBRANCH  32  33
ENDBRANCH  30  32
ENDBRANCH  11  25
ENDBRANCH   6   8
ENDBRANCH   5   6
ENDBRANCH   4   5
ENDBRANCH   3   4
ENDBRANCH   2   3
ENDBRANCH   1   2
BRANCH   1  44
ATOM     44  C   UNL     1       6.206  -3.272  -6.225  1.00  0.00     0.188 C 
BRANCH  44  45
ATOM     45  O   UNL     1       5.123  -2.351  -6.373  1.00  0.00    -0.376 OA
BRANCH  45  46
ATOM     46  C   UNL     1       4.546  -2.284  -7.671  1.00  0.00     0.202 C 
BRANCH  46  47
ATOM     47  C   UNL     1       5.283  -1.207  -8.465  1.00  0.00     0.261 C 
BRANCH  47  48
ATOM     48  O   UNL     1       4.982   0.115  -7.963  1.00  0.00    -0.460 OA
BRANCH  48  49
ATOM     49  C   UNL     1       5.606   0.436  -6.795  1.00  0.00     0.338 C 
ATOM     50  O   UNL     1       6.808   0.594  -6.668  1.00  0.00    -0.246 OA
BRANCH  49  51
ATOM     51  C   UNL     1       4.601   0.458  -5.693  1.00  0.00     0.060 A 
ATOM     52  C   UNL     1       5.025   0.475  -4.378  1.00  0.00     0.016 A 
ATOM     53  C   UNL     1       3.252   0.214  -5.949  1.00  0.00     0.016 A 
ATOM     54  C   UNL     1       4.141   0.040  -3.381  1.00  0.00     0.010 A 
ATOM     55  C   UNL     1       2.461  -0.386  -4.970  1.00  0.00     0.010 A 
ATOM     56  C   UNL     1       2.953  -0.641  -3.683  1.00  0.00    -0.014 A 
BRANCH  56  57
ATOM     57  C   UNL     1       2.064  -1.561  -2.854  1.00  0.00     0.031 A 
ATOM     58  C   UNL     1       0.893  -0.831  -2.317  1.00  0.00     0.074 A 
ATOM     59  C   UNL     1       2.171  -2.801  -2.181  1.00  0.00     0.049 A 
ATOM     60  N   UNL     1       0.308  -1.351  -1.321  1.00  0.00    -0.248 NA
ATOM     61  C   UNL     1       0.461   0.487  -2.650  1.00  0.00     0.031 C 
ATOM     62  C   UNL     1       1.056  -3.763  -1.964  1.00  0.00     0.029 A 
ATOM     63  N   UNL     1       3.206  -3.627  -1.719  1.00  0.00    -0.354 N 
ATOM     64  C   UNL     1      -0.735  -0.655  -0.645  1.00  0.00     0.074 A 
ATOM     65  C   UNL     1      -0.582   0.591  -1.822  1.00  0.00     0.031 C 
ATOM     66  C   UNL     1       1.442  -4.807  -1.198  1.00  0.00     0.029 A 
ATOM     67  C   UNL     1       2.855  -4.707  -0.953  1.00  0.00     0.049 A 
ATOM     68  H   UNL     1       4.147  -3.437  -1.936  1.00  0.00     0.167 HD
ATOM     69  C   UNL     1      -1.739  -1.049   0.883  1.00  0.00     0.034 A 
ATOM     70  C   UNL     1       3.661  -5.436  -0.144  1.00  0.00     0.034 A 
ATOM     71  C   UNL     1      -1.739  -2.481   1.892  1.00  0.00     0.049 A 
ATOM     72  C   UNL     1       3.001  -5.596   1.224  1.00  0.00     0.074 A 
ATOM     73  C   UNL     1      -2.304  -3.766   1.653  1.00  0.00     0.029 A 
ATOM     74  N   UNL     1      -0.857  -2.737   2.949  1.00  0.00    -0.354 N 
ATOM     75  N   UNL     1       1.839  -5.088   1.567  1.00  0.00    -0.248 NA
ATOM     76  C   UNL     1       3.659  -6.279   2.337  1.00  0.00     0.031 C 
ATOM     77  C   UNL     1      -1.452  -4.750   2.201  1.00  0.00     0.029 A 
ATOM     78  C   UNL     1      -0.468  -4.092   2.904  1.00  0.00     0.049 A 
ATOM     79  H   UNL     1      -0.558  -2.078   3.616  1.00  0.00     0.167 HD
ATOM     80  C   UNL     1       1.667  -5.233   2.932  1.00  0.00     0.074 A 
ATOM     81  C   UNL     1       2.802  -6.047   3.344  1.00  0.00     0.031 C 
ATOM     82  C   UNL     1       0.649  -4.650   3.652  1.00  0.00     0.034 A 
BRANCH  69  83
ATOM     83  C   UNL     1      -3.378  -0.508   1.470  1.00  0.00     0.023 A 
ATOM     84  C   UNL     1      -4.387  -1.512   1.422  1.00  0.00     0.031 A 
ATOM     85  C   UNL     1      -3.932   0.792   1.587  1.00  0.00     0.131 A 
ATOM     86  C   UNL     1      -5.755  -1.268   1.241  1.00  0.00     0.055 A 
ATOM     87  C   UNL     1      -5.305   1.054   1.342  1.00  0.00     0.041 A 
ATOM     88  F   UNL     1      -3.185   1.872   1.866  1.00  0.00    -0.206 F 
ATOM     89  C   UNL     1      -6.217   0.025   1.118  1.00  0.00     0.022 A 
BRANCH  86  90
ATOM     90  S   UNL     1      -6.851  -2.706   1.053  1.00  0.00     0.124 S 
ATOM     91  O   UNL     1      -6.226  -3.437  -0.047  1.00  0.00    -0.237 OA
ATOM     92  O   UNL     1      -6.764  -3.333   2.368  1.00  0.00    -0.237 OA
ATOM     93  O   UNL     1      -8.145  -2.107   0.736  1.00  0.00    -0.744 OA
ENDBRANCH  86  90
ENDBRANCH  69  83
BRANCH  70  94
ATOM     94  C   UNL     1       5.152  -5.429  -0.433  1.00  0.00     0.023 A 
ATOM     95  C   UNL     1       5.664  -6.029  -1.624  1.00  0.00     0.031 A 
ATOM     96  C   UNL     1       6.074  -4.702   0.334  1.00  0.00     0.131 A 
ATOM     97  C   UNL     1       7.010  -5.832  -2.031  1.00  0.00     0.055 A 
ATOM     98  C   UNL     1       7.407  -4.504  -0.078  1.00  0.00     0.041 A 
ATOM     99  F   UNL     1       5.688  -4.104   1.469  1.00  0.00    -0.206 F 
ATOM    100  C   UNL     1       7.871  -5.043  -1.274  1.00  0.00     0.022 A 
BRANCH  97 101
ATOM    101  S   UNL     1       7.711  -6.575  -3.549  1.00  0.00     0.124 S 
ATOM    102  O   UNL     1       8.819  -7.372  -3.032  1.00  0.00    -0.237 OA
ATOM    103  O   UNL     1       6.594  -7.339  -4.095  1.00  0.00    -0.237 OA
ATOM    104  O   UNL     1       8.113  -5.411  -4.335  1.00  0.00    -0.744 OA
ENDBRANCH  97 101
ENDBRANCH  70  94
BRANCH  82 105
ATOM    105  C   UNL     1       0.518  -4.697   5.151  1.00  0.00     0.023 A 
ATOM    106  C   UNL     1       1.609  -4.807   6.018  1.00  0.00     0.031 A 
ATOM    107  C   UNL     1      -0.757  -4.571   5.760  1.00  0.00     0.131 A 
ATOM    108  C   UNL     1       1.408  -4.899   7.405  1.00  0.00     0.055 A 
ATOM    109  C   UNL     1      -0.941  -4.556   7.139  1.00  0.00     0.041 A 
ATOM    110  F   UNL     1      -1.882  -4.462   5.038  1.00  0.00    -0.206 F 
ATOM    111  C   UNL     1       0.145  -4.743   7.974  1.00  0.00     0.022 A 
BRANCH 108 112
ATOM    112  S   UNL     1       2.821  -5.329   8.449  1.00  0.00     0.124 S 
ATOM    113  O   UNL     1       3.101  -6.695   8.014  1.00  0.00    -0.237 OA
ATOM    114  O   UNL     1       3.808  -4.324   8.068  1.00  0.00    -0.237 OA
ATOM    115  O   UNL     1       2.294  -5.201   9.805  1.00  0.00    -0.744 OA
ENDBRANCH 108 112
ENDBRANCH  82 105
ENDBRANCH  56  57
ENDBRANCH  49  51
ENDBRANCH  48  49
ENDBRANCH  47  48
ENDBRANCH  46  47
ENDBRANCH  45  46
ENDBRANCH  44  45
ENDBRANCH   1  44
TORSDOF 26
