REMARK SMILES CSc1ncc(Cl)c(C(=O)Nc2ccsc2C(=O)OCCOCCOCCOC(=O)c2ccc(-c3c4nc(c(-c5cc(S(=O)(=O)[O-])ccc5F)c5ccc([nH]5)c(-c5cc(S(=O)(=O)[O-])ccc5F)c5nc(c(-c6cc(S(=O)(=O)[O-])ccc6F)c6ccc3[nH]6)C=C5)C=C4)cc2)n1
REMARK SMILES IDX 23 1 22 2 21 3 20 4 19 5 17 6 18 7 16 8 12 9 13 10 14 11
REMARK SMILES IDX 15 12 11 13 9 14 10 15 8 17 3 18 4 19 94 20 5 21 6 22 7 23
REMARK SMILES IDX 2 24 1 25 24 26 25 27 26 28 27 29 28 30 29 31 30 32 31 33
REMARK SMILES IDX 32 34 93 35 33 36 92 37 34 38 35 39 36 40 86 41 37 42 91 43
REMARK SMILES IDX 85 44 87 45 38 46 90 47 84 48 83 49 39 51 71 52 51 53 70 54
REMARK SMILES IDX 52 55 55 56 69 57 88 58 53 59 54 60 68 62 89 63 56 64 40 65
REMARK SMILES IDX 41 66 49 67 42 68 48 69 50 70 47 71 43 72 44 73 45 74 46 75
REMARK SMILES IDX 72 76 73 77 81 78 74 79 80 80 82 81 79 82 75 83 76 84 77 85
REMARK SMILES IDX 78 86 57 87 58 88 66 89 59 90 65 91 67 92 64 93 60 94 61 95
REMARK SMILES IDX 62 96 63 97
REMARK H PARENT 11 16 87 50 55 61
REMARK Flexibility Score: inf
ROOT
ATOM      1  C   UNL     1       4.150  -9.214   0.916  1.00  0.00     0.188 C 
ENDROOT
BRANCH   1   2
ATOM      2  O   UNL     1       3.723 -10.437   0.327  1.00  0.00    -0.376 OA
BRANCH   2   3
ATOM      3  C   UNL     1       2.459 -10.528  -0.304  1.00  0.00     0.202 C 
BRANCH   3   4
ATOM      4  C   UNL     1       1.231 -10.511   0.608  1.00  0.00     0.261 C 
BRANCH   4   5
ATOM      5  O   UNL     1       1.165  -9.377   1.493  1.00  0.00    -0.459 OA
BRANCH   5   6
ATOM      6  C   UNL     1       1.252  -9.672   2.829  1.00  0.00     0.350 C 
ATOM      7  O   UNL     1       1.325 -10.818   3.261  1.00  0.00    -0.245 OA
BRANCH   6   8
ATOM      8  C   UNL     1       1.246  -8.463   3.648  1.00  0.00     0.136 A 
ATOM      9  C   UNL     1       0.961  -7.123   3.377  1.00  0.00     0.067 A 
ATOM     10  C   UNL     1       1.014  -6.335   4.573  1.00  0.00     0.039 A 
ATOM     11  C   UNL     1       1.482  -7.038   5.658  1.00  0.00     0.068 A 
ATOM     12  S   UNL     1       1.735  -8.674   5.290  1.00  0.00    -0.135 S 
BRANCH   9  13
ATOM     13  N   UNL     1       0.637  -6.671   2.103  1.00  0.00    -0.319 N 
ATOM     14  C   UNL     1       0.565  -5.412   1.541  1.00  0.00     0.276 C 
ATOM     15  O   UNL     1       0.104  -5.327   0.398  1.00  0.00    -0.267 OA
ATOM     16  H   UNL     1       0.415  -7.395   1.475  1.00  0.00     0.170 HD
BRANCH  14  17
ATOM     17  C   UNL     1       1.043  -4.151   2.183  1.00  0.00     0.151 A 
ATOM     18  C   UNL     1       0.597  -1.903   2.398  1.00  0.00     0.188 A 
ATOM     19  N   UNL     1       1.770  -1.657   2.995  1.00  0.00    -0.230 NA
ATOM     20  N   UNL     1       0.174  -3.114   2.020  1.00  0.00    -0.216 NA
ATOM     21  C   UNL     1       2.602  -2.708   3.136  1.00  0.00     0.137 A 
ATOM     22  C   UNL     1       2.315  -3.983   2.700  1.00  0.00     0.090 A 
ATOM     23  Cl  UNL     1       3.556  -5.158   2.752  1.00  0.00    -0.080 Cl
BRANCH  18  24
ATOM     24  S   UNL     1      -0.335  -0.500   1.855  1.00  0.00    -0.090 SA
ATOM     25  C   UNL     1       0.669  -0.138   0.391  1.00  0.00     0.094 C 
ENDBRANCH  18  24
ENDBRANCH  14  17
ENDBRANCH   9  13
ENDBRANCH   6   8
ENDBRANCH   5   6
ENDBRANCH   4   5
ENDBRANCH   3   4
ENDBRANCH   2   3
ENDBRANCH   1   2
BRANCH   1  26
ATOM     26  C   UNL     1       3.595  -7.863   0.438  1.00  0.00     0.188 C 
BRANCH  26  27
ATOM     27  O   UNL     1       3.157  -7.834  -0.911  1.00  0.00    -0.376 OA
BRANCH  27  28
ATOM     28  C   UNL     1       3.831  -6.906  -1.751  1.00  0.00     0.202 C 
BRANCH  28  29
ATOM     29  C   UNL     1       5.161  -7.468  -2.261  1.00  0.00     0.261 C 
BRANCH  29  30
ATOM     30  O   UNL     1       6.141  -7.692  -1.233  1.00  0.00    -0.460 OA
BRANCH  30  31
ATOM     31  C   UNL     1       6.582  -6.594  -0.576  1.00  0.00     0.338 C 
ATOM     32  O   UNL     1       6.244  -5.440  -0.770  1.00  0.00    -0.246 OA
BRANCH  31  33
ATOM     33  C   UNL     1       7.420  -7.042   0.553  1.00  0.00     0.060 A 
ATOM     34  C   UNL     1       7.106  -6.594   1.840  1.00  0.00     0.016 A 
ATOM     35  C   UNL     1       8.514  -7.882   0.341  1.00  0.00     0.016 A 
ATOM     36  C   UNL     1       7.901  -6.970   2.923  1.00  0.00     0.010 A 
ATOM     37  C   UNL     1       9.321  -8.243   1.422  1.00  0.00     0.010 A 
ATOM     38  C   UNL     1       9.032  -7.770   2.715  1.00  0.00    -0.014 A 
BRANCH  38  39
ATOM     39  C   UNL     1      10.005  -7.982   3.814  1.00  0.00     0.031 A 
ATOM     40  C   UNL     1      11.212  -7.088   3.888  1.00  0.00     0.074 A 
ATOM     41  C   UNL     1       9.824  -8.957   4.722  1.00  0.00     0.049 A 
ATOM     42  N   UNL     1      12.220  -7.120   4.719  1.00  0.00    -0.248 NA
ATOM     43  C   UNL     1      11.292  -6.017   2.881  1.00  0.00     0.031 C 
ATOM     44  C   UNL     1       8.683  -9.870   4.766  1.00  0.00     0.029 A 
ATOM     45  N   UNL     1      10.612  -9.352   5.775  1.00  0.00    -0.354 N 
ATOM     46  C   UNL     1      13.059  -6.080   4.335  1.00  0.00     0.074 A 
ATOM     47  C   UNL     1      12.453  -5.455   3.179  1.00  0.00     0.031 C 
ATOM     48  C   UNL     1       8.859 -10.737   5.780  1.00  0.00     0.029 A 
ATOM     49  C   UNL     1      10.136 -10.460   6.436  1.00  0.00     0.049 A 
ATOM     50  H   UNL     1      11.440  -8.886   6.032  1.00  0.00     0.167 HD
ATOM     51  C   UNL     1      14.227  -5.683   4.897  1.00  0.00     0.034 A 
ATOM     52  C   UNL     1      10.684 -11.184   7.433  1.00  0.00     0.034 A 
ATOM     53  C   UNL     1      14.828  -6.322   6.041  1.00  0.00     0.049 A 
ATOM     54  C   UNL     1      12.019 -10.760   8.002  1.00  0.00     0.074 A 
ATOM     55  C   UNL     1      15.988  -5.975   6.710  1.00  0.00     0.029 A 
ATOM     56  N   UNL     1      14.327  -7.452   6.674  1.00  0.00    -0.354 N 
ATOM     57  N   UNL     1      12.784  -9.749   7.656  1.00  0.00    -0.248 NA
ATOM     58  C   UNL     1      12.560 -11.571   9.102  1.00  0.00     0.031 C 
ATOM     59  C   UNL     1      16.226  -6.934   7.702  1.00  0.00     0.029 A 
ATOM     60  C   UNL     1      15.175  -7.837   7.701  1.00  0.00     0.049 A 
ATOM     61  H   UNL     1      13.493  -7.913   6.428  1.00  0.00     0.167 HD
ATOM     62  C   UNL     1      13.879  -9.789   8.517  1.00  0.00     0.074 A 
ATOM     63  C   UNL     1      13.669 -10.913   9.405  1.00  0.00     0.031 C 
ATOM     64  C   UNL     1      14.957  -8.966   8.574  1.00  0.00     0.034 A 
BRANCH  51  65
ATOM     65  C   UNL     1      14.953  -4.535   4.243  1.00  0.00     0.023 A 
ATOM     66  C   UNL     1      14.421  -3.234   4.228  1.00  0.00     0.031 A 
ATOM     67  C   UNL     1      16.185  -4.754   3.603  1.00  0.00     0.131 A 
ATOM     68  C   UNL     1      15.090  -2.215   3.535  1.00  0.00     0.055 A 
ATOM     69  C   UNL     1      16.881  -3.719   2.975  1.00  0.00     0.041 A 
ATOM     70  F   UNL     1      16.727  -5.981   3.566  1.00  0.00    -0.206 F 
ATOM     71  C   UNL     1      16.328  -2.443   2.928  1.00  0.00     0.022 A 
BRANCH  68  72
ATOM     72  S   UNL     1      14.260  -0.615   3.331  1.00  0.00     0.124 S 
ATOM     73  O   UNL     1      13.044  -1.001   2.620  1.00  0.00    -0.237 OA
ATOM     74  O   UNL     1      14.081  -0.174   4.709  1.00  0.00    -0.237 OA
ATOM     75  O   UNL     1      15.212   0.167   2.544  1.00  0.00    -0.744 OA
ENDBRANCH  68  72
ENDBRANCH  51  65
BRANCH  52  76
ATOM     76  C   UNL     1      10.012 -12.418   7.932  1.00  0.00     0.023 A 
ATOM     77  C   UNL     1       9.555 -12.516   9.256  1.00  0.00     0.031 A 
ATOM     78  C   UNL     1       9.886 -13.549   7.105  1.00  0.00     0.131 A 
ATOM     79  C   UNL     1       9.042 -13.734   9.730  1.00  0.00     0.055 A 
ATOM     80  C   UNL     1       9.326 -14.741   7.566  1.00  0.00     0.041 A 
ATOM     81  F   UNL     1      10.310 -13.509   5.832  1.00  0.00    -0.206 F 
ATOM     82  C   UNL     1       8.913 -14.843   8.891  1.00  0.00     0.022 A 
BRANCH  79  83
ATOM     83  S   UNL     1       8.633 -13.877  11.492  1.00  0.00     0.124 S 
ATOM     84  O   UNL     1       9.905 -13.540  12.120  1.00  0.00    -0.237 OA
ATOM     85  O   UNL     1       7.566 -12.893  11.636  1.00  0.00    -0.237 OA
ATOM     86  O   UNL     1       8.217 -15.271  11.633  1.00  0.00    -0.744 OA
ENDBRANCH  79  83
ENDBRANCH  52  76
BRANCH  64  87
ATOM     87  C   UNL     1      15.966  -9.227   9.666  1.00  0.00     0.023 A 
ATOM     88  C   UNL     1      16.776 -10.376   9.670  1.00  0.00     0.031 A 
ATOM     89  C   UNL     1      16.113  -8.310  10.723  1.00  0.00     0.131 A 
ATOM     90  C   UNL     1      17.662 -10.603  10.735  1.00  0.00     0.055 A 
ATOM     91  C   UNL     1      17.035  -8.514  11.751  1.00  0.00     0.041 A 
ATOM     92  F   UNL     1      15.365  -7.197  10.770  1.00  0.00    -0.206 F 
ATOM     93  C   UNL     1      17.807  -9.672  11.767  1.00  0.00     0.022 A 
BRANCH  90  94
ATOM     94  S   UNL     1      18.568 -12.174  10.798  1.00  0.00     0.124 S 
ATOM     95  O   UNL     1      17.483 -13.150  10.812  1.00  0.00    -0.237 OA
ATOM     96  O   UNL     1      19.365 -12.124   9.577  1.00  0.00    -0.237 OA
ATOM     97  O   UNL     1      19.333 -12.079  12.040  1.00  0.00    -0.744 OA
ENDBRANCH  90  94
ENDBRANCH  64  87
ENDBRANCH  38  39
ENDBRANCH  31  33
ENDBRANCH  30  31
ENDBRANCH  29  30
ENDBRANCH  28  29
ENDBRANCH  27  28
ENDBRANCH  26  27
ENDBRANCH   1  26
TORSDOF 23
