REMARK SMILES Cc1cs/c(=N\S(=O)(=O)c2ccc(/C=C/C(=O)OCCOCCOCCOC(=O)c3ccc(-c4c5nc(c(-c6cc(S(=O)(=O)[O-])ccc6F)c6ccc([nH]6)c(-c6cc(S(=O)(=O)[O-])ccc6F)c6nc(c(-c7cc(S(=O)(=O)[O-])ccc7F)c7ccc4[nH]7)C=C6)C=C5)cc3)cc2)[nH]1
REMARK SMILES IDX 22 1 21 2 20 3 19 4 18 5 16 6 17 7 15 8 14 9 13 10 10 11
REMARK SMILES IDX 11 12 94 13 12 14 93 15 7 16 8 17 9 18 6 19 1 20 2 21 3 22
REMARK SMILES IDX 95 23 4 24 5 25 23 27 24 28 25 29 26 30 27 31 28 32 29 33
REMARK SMILES IDX 30 34 31 35 92 36 32 37 91 38 33 39 34 40 35 41 85 42 36 43
REMARK SMILES IDX 90 44 84 45 86 46 37 47 89 48 83 49 82 50 38 52 70 53 50 54
REMARK SMILES IDX 69 55 51 56 54 57 68 58 87 59 52 60 53 61 67 63 88 64 55 65
REMARK SMILES IDX 39 66 40 67 48 68 41 69 47 70 49 71 46 72 42 73 43 74 44 75
REMARK SMILES IDX 45 76 71 77 72 78 80 79 73 80 79 81 81 82 78 83 74 84 75 85
REMARK SMILES IDX 76 86 77 87 56 88 57 89 65 90 58 91 64 92 66 93 63 94 59 95
REMARK SMILES IDX 60 96 61 97 62 98
REMARK H PARENT 95 26 86 51 54 62
REMARK Flexibility Score: inf
ROOT
ATOM      1  C   UNL     1     -11.025  -6.485   1.816  1.00  0.00     0.188 C 
ENDROOT
BRANCH   1   2
ATOM      2  O   UNL     1     -11.890  -7.553   1.459  1.00  0.00    -0.376 OA
BRANCH   2   3
ATOM      3  C   UNL     1     -11.421  -8.606   0.631  1.00  0.00     0.202 C 
BRANCH   3   4
ATOM      4  C   UNL     1     -10.541  -8.345  -0.606  1.00  0.00     0.261 C 
BRANCH   4   5
ATOM      5  O   UNL     1      -9.504  -7.364  -0.455  1.00  0.00    -0.460 OA
BRANCH   5   6
ATOM      6  C   UNL     1      -9.649  -6.251  -1.214  1.00  0.00     0.330 C 
ATOM      7  O   UNL     1     -10.540  -6.044  -2.026  1.00  0.00    -0.247 OA
BRANCH   6   8
ATOM      8  C   UNL     1      -8.653  -5.205  -0.900  1.00  0.00     0.094 C 
ATOM      9  C   UNL     1      -7.462  -5.382  -0.305  1.00  0.00     0.015 C 
BRANCH   9  10
ATOM     10  C   UNL     1      -6.513  -4.272  -0.091  1.00  0.00    -0.025 A 
ATOM     11  C   UNL     1      -4.658  -2.171   0.096  1.00  0.00     0.089 A 
ATOM     12  C   UNL     1      -6.020  -1.913   0.263  1.00  0.00     0.023 A 
ATOM     13  C   UNL     1      -4.205  -3.478  -0.091  1.00  0.00     0.023 A 
ATOM     14  C   UNL     1      -6.940  -2.962   0.179  1.00  0.00     0.009 A 
ATOM     15  C   UNL     1      -5.134  -4.524  -0.176  1.00  0.00     0.009 A 
BRANCH  11  16
ATOM     16  S   UNL     1      -3.539  -0.778   0.075  1.00  0.00     0.285 S 
ATOM     17  O   UNL     1      -3.751  -0.088   1.322  1.00  0.00    -0.199 OA
ATOM     18  O   UNL     1      -3.776  -0.135  -1.210  1.00  0.00    -0.199 OA
BRANCH  16  19
ATOM     19  N   UNL     1      -2.054  -1.422   0.067  1.00  0.00    -0.130 NA
ATOM     20  C   UNL     1       2.715  -0.552   0.013  1.00  0.00     0.065 C 
ATOM     21  C   UNL     1       1.279  -0.157   0.003  1.00  0.00     0.024 A 
ATOM     22  C   UNL     1       0.809   1.101  -0.021  1.00  0.00     0.089 A 
ATOM     23  N   UNL     1       0.279  -1.109   0.028  1.00  0.00    -0.334 N 
ATOM     24  S   UNL     1      -0.941   1.129  -0.017  1.00  0.00    -0.104 S 
ATOM     25  C   UNL     1      -1.020  -0.655   0.033  1.00  0.00     0.199 A 
ATOM     26  H   UNL     1       0.486  -2.072   0.041  1.00  0.00     0.169 HD
ENDBRANCH  16  19
ENDBRANCH  11  16
ENDBRANCH   9  10
ENDBRANCH   6   8
ENDBRANCH   5   6
ENDBRANCH   4   5
ENDBRANCH   3   4
ENDBRANCH   2   3
ENDBRANCH   1   2
BRANCH   1  27
ATOM     27  C   UNL     1      -9.643  -6.794   2.428  1.00  0.00     0.188 C 
BRANCH  27  28
ATOM     28  O   UNL     1      -9.270  -8.152   2.380  1.00  0.00    -0.376 OA
BRANCH  28  29
ATOM     29  C   UNL     1      -9.504  -8.982   3.505  1.00  0.00     0.202 C 
BRANCH  29  30
ATOM     30  C   UNL     1     -10.567  -8.738   4.598  1.00  0.00     0.261 C 
BRANCH  30  31
ATOM     31  O   UNL     1     -11.227  -7.471   4.651  1.00  0.00    -0.460 OA
BRANCH  31  32
ATOM     32  C   UNL     1     -10.713  -6.562   5.516  1.00  0.00     0.338 C 
ATOM     33  O   UNL     1      -9.715  -6.686   6.199  1.00  0.00    -0.246 OA
BRANCH  32  34
ATOM     34  C   UNL     1     -11.476  -5.306   5.368  1.00  0.00     0.060 A 
ATOM     35  C   UNL     1     -10.849  -4.197   4.785  1.00  0.00     0.016 A 
ATOM     36  C   UNL     1     -12.795  -5.220   5.818  1.00  0.00     0.016 A 
ATOM     37  C   UNL     1     -11.539  -2.990   4.663  1.00  0.00     0.010 A 
ATOM     38  C   UNL     1     -13.477  -4.003   5.712  1.00  0.00     0.010 A 
ATOM     39  C   UNL     1     -12.847  -2.876   5.154  1.00  0.00    -0.014 A 
BRANCH  39  40
ATOM     40  C   UNL     1     -13.498  -1.543   5.228  1.00  0.00     0.031 A 
ATOM     41  C   UNL     1     -13.504  -0.815   6.544  1.00  0.00     0.074 A 
ATOM     42  C   UNL     1     -14.059  -0.982   4.141  1.00  0.00     0.049 A 
ATOM     43  N   UNL     1     -14.065   0.322   6.864  1.00  0.00    -0.248 NA
ATOM     44  C   UNL     1     -12.783  -1.464   7.649  1.00  0.00     0.031 C 
ATOM     45  C   UNL     1     -14.072  -1.566   2.801  1.00  0.00     0.029 A 
ATOM     46  N   UNL     1     -14.735   0.205   3.997  1.00  0.00    -0.354 N 
ATOM     47  C   UNL     1     -13.770   0.524   8.208  1.00  0.00     0.074 A 
ATOM     48  C   UNL     1     -13.014  -0.629   8.649  1.00  0.00     0.031 C 
ATOM     49  C   UNL     1     -14.733  -0.739   1.972  1.00  0.00     0.029 A 
ATOM     50  C   UNL     1     -15.230   0.409   2.729  1.00  0.00     0.049 A 
ATOM     51  H   UNL     1     -14.855   0.849   4.732  1.00  0.00     0.167 HD
ATOM     52  C   UNL     1     -14.095   1.578   8.998  1.00  0.00     0.034 A 
ATOM     53  C   UNL     1     -16.018   1.391   2.246  1.00  0.00     0.034 A 
ATOM     54  C   UNL     1     -14.864   2.712   8.546  1.00  0.00     0.049 A 
ATOM     55  C   UNL     1     -16.455   2.504   3.171  1.00  0.00     0.074 A 
ATOM     56  C   UNL     1     -15.238   3.838   9.259  1.00  0.00     0.029 A 
ATOM     57  N   UNL     1     -15.393   2.859   7.270  1.00  0.00    -0.354 N 
ATOM     58  N   UNL     1     -16.166   2.689   4.440  1.00  0.00    -0.248 NA
ATOM     59  C   UNL     1     -17.320   3.544   2.598  1.00  0.00     0.031 C 
ATOM     60  C   UNL     1     -16.061   4.621   8.443  1.00  0.00     0.029 A 
ATOM     61  C   UNL     1     -16.124   4.036   7.189  1.00  0.00     0.049 A 
ATOM     62  H   UNL     1     -15.267   2.221   6.530  1.00  0.00     0.167 HD
ATOM     63  C   UNL     1     -16.784   3.885   4.801  1.00  0.00     0.074 A 
ATOM     64  C   UNL     1     -17.449   4.382   3.615  1.00  0.00     0.031 C 
ATOM     65  C   UNL     1     -16.794   4.519   6.003  1.00  0.00     0.034 A 
BRANCH  52  66
ATOM     66  C   UNL     1     -13.667   1.518  10.446  1.00  0.00     0.023 A 
ATOM     67  C   UNL     1     -12.312   1.487  10.821  1.00  0.00     0.031 A 
ATOM     68  C   UNL     1     -14.632   1.464  11.467  1.00  0.00     0.131 A 
ATOM     69  C   UNL     1     -11.962   1.332  12.171  1.00  0.00     0.055 A 
ATOM     70  C   UNL     1     -14.276   1.396  12.816  1.00  0.00     0.041 A 
ATOM     71  F   UNL     1     -15.942   1.463  11.171  1.00  0.00    -0.206 F 
ATOM     72  C   UNL     1     -12.934   1.314  13.173  1.00  0.00     0.022 A 
BRANCH  69  73
ATOM     73  S   UNL     1     -10.227   1.002  12.585  1.00  0.00     0.124 S 
ATOM     74  O   UNL     1      -9.963  -0.208  11.811  1.00  0.00    -0.237 OA
ATOM     75  O   UNL     1      -9.557   2.213  12.127  1.00  0.00    -0.237 OA
ATOM     76  O   UNL     1     -10.251   0.812  14.034  1.00  0.00    -0.744 OA
ENDBRANCH  69  73
ENDBRANCH  52  66
BRANCH  53  77
ATOM     77  C   UNL     1     -16.493   1.356   0.831  1.00  0.00     0.023 A 
ATOM     78  C   UNL     1     -16.160   2.375  -0.076  1.00  0.00     0.031 A 
ATOM     79  C   UNL     1     -17.346   0.331   0.382  1.00  0.00     0.131 A 
ATOM     80  C   UNL     1     -16.715   2.374  -1.366  1.00  0.00     0.055 A 
ATOM     81  C   UNL     1     -17.846   0.301  -0.921  1.00  0.00     0.041 A 
ATOM     82  F   UNL     1     -17.706  -0.664   1.208  1.00  0.00    -0.206 F 
ATOM     83  C   UNL     1     -17.542   1.336  -1.800  1.00  0.00     0.022 A 
BRANCH  80  84
ATOM     84  S   UNL     1     -16.422   3.808  -2.439  1.00  0.00     0.124 S 
ATOM     85  O   UNL     1     -16.963   4.896  -1.633  1.00  0.00    -0.237 OA
ATOM     86  O   UNL     1     -14.971   3.781  -2.591  1.00  0.00    -0.237 OA
ATOM     87  O   UNL     1     -17.180   3.489  -3.647  1.00  0.00    -0.744 OA
ENDBRANCH  80  84
ENDBRANCH  53  77
BRANCH  65  88
ATOM     88  C   UNL     1     -17.505   5.851   6.078  1.00  0.00     0.023 A 
ATOM     89  C   UNL     1     -18.895   5.967   5.901  1.00  0.00     0.031 A 
ATOM     90  C   UNL     1     -16.774   7.028   6.327  1.00  0.00     0.131 A 
ATOM     91  C   UNL     1     -19.500   7.234   5.916  1.00  0.00     0.055 A 
ATOM     92  C   UNL     1     -17.391   8.277   6.410  1.00  0.00     0.041 A 
ATOM     93  F   UNL     1     -15.443   6.982   6.501  1.00  0.00    -0.206 F 
ATOM     94  C   UNL     1     -18.760   8.386   6.190  1.00  0.00     0.022 A 
BRANCH  91  95
ATOM     95  S   UNL     1     -21.255   7.369   5.473  1.00  0.00     0.124 S 
ATOM     96  O   UNL     1     -21.276   6.786   4.136  1.00  0.00    -0.237 OA
ATOM     97  O   UNL     1     -21.903   6.585   6.520  1.00  0.00    -0.237 OA
ATOM     98  O   UNL     1     -21.513   8.806   5.527  1.00  0.00    -0.744 OA
ENDBRANCH  91  95
ENDBRANCH  65  88
ENDBRANCH  39  40
ENDBRANCH  32  34
ENDBRANCH  31  32
ENDBRANCH  30  31
ENDBRANCH  29  30
ENDBRANCH  28  29
ENDBRANCH  27  28
ENDBRANCH   1  27
TORSDOF 23
