REMARK SMILES Cc1c(C(=O)OCCOCCOCCOC(=O)c2ccc(-c3c4nc(c(-c5cc(S(=O)(=O)[O-])ccc5F)c5ccc([nH]5)c(-c5cc(S(=O)(=O)[O-])ccc5F)c5nc(c(-c6cc(S(=O)(=O)[O-])ccc6F)c6ccc3[nH]6)C=C5)C=C4)cc2)sc2ncnc(NCc3cn4c(n3)SCC4)c12
REMARK SMILES IDX 10 1 9 2 8 3 7 4 6 5 4 6 5 7 3 8 1 9 2 10 97 11 81 12 82 13
REMARK SMILES IDX 86 14 83 15 85 16 84 17 87 18 88 20 89 21 90 22 93 23 91 24
REMARK SMILES IDX 92 25 96 26 94 27 95 28 11 29 12 30 13 31 14 32 15 33 16 34
REMARK SMILES IDX 17 35 18 36 19 37 80 38 20 39 79 40 21 41 22 42 23 43 73 44
REMARK SMILES IDX 24 45 78 46 72 47 74 48 25 49 77 50 71 51 70 52 26 54 58 55
REMARK SMILES IDX 38 56 57 57 39 58 42 59 56 60 75 61 40 62 41 63 55 65 76 66
REMARK SMILES IDX 43 67 27 68 28 69 36 70 29 71 35 72 37 73 34 74 30 75 31 76
REMARK SMILES IDX 32 77 33 78 59 79 60 80 68 81 61 82 67 83 69 84 66 85 62 86
REMARK SMILES IDX 63 87 64 88 65 89 44 90 45 91 53 92 46 93 52 94 54 95 51 96
REMARK SMILES IDX 47 97 48 98 49 99 50 100
REMARK H PARENT 87 19 74 53 42 64
REMARK Flexibility Score: inf
ROOT
ATOM      1  C   UNL     1       4.306   1.697   0.471  1.00  0.00     0.188 C 
ENDROOT
BRANCH   1   2
ATOM      2  O   UNL     1       5.529   2.147  -0.063  1.00  0.00    -0.376 OA
BRANCH   2   3
ATOM      3  C   UNL     1       5.550   2.677  -1.377  1.00  0.00     0.202 C 
BRANCH   3   4
ATOM      4  C   UNL     1       4.409   3.533  -1.975  1.00  0.00     0.261 C 
BRANCH   4   5
ATOM      5  O   UNL     1       3.136   3.514  -1.319  1.00  0.00    -0.459 OA
BRANCH   5   6
ATOM      6  C   UNL     1       2.167   2.703  -1.847  1.00  0.00     0.348 C 
ATOM      7  O   UNL     1       2.310   2.014  -2.831  1.00  0.00    -0.245 OA
BRANCH   6   8
ATOM      8  C   UNL     1       1.016   2.660  -0.948  1.00  0.00     0.118 A 
ATOM      9  C   UNL     1       1.005   0.170  -0.564  1.00  0.00     0.047 C 
ATOM     10  C   UNL     1       0.419   1.532  -0.383  1.00  0.00    -0.012 A 
ATOM     11  C   UNL     1      -0.775   1.869   0.403  1.00  0.00     0.058 A 
ATOM     12  S   UNL     1       0.272   4.101  -0.451  1.00  0.00    -0.108 S 
ATOM     13  C   UNL     1      -0.896   3.259   0.452  1.00  0.00     0.129 A 
ATOM     14  C   UNL     1      -1.793   1.166   1.115  1.00  0.00     0.138 A 
ATOM     15  N   UNL     1      -1.820   3.984   1.102  1.00  0.00    -0.225 NA
ATOM     16  N   UNL     1      -2.731   1.897   1.772  1.00  0.00    -0.219 NA
ATOM     17  C   UNL     1      -2.692   3.229   1.750  1.00  0.00     0.225 A 
BRANCH  14  18
ATOM     18  N   UNL     1      -2.068  -0.156   1.276  1.00  0.00    -0.364 N 
ATOM     19  H   UNL     1      -2.843  -0.292   1.866  1.00  0.00     0.162 HD
BRANCH  18  20
ATOM     20  C   UNL     1      -1.533  -1.404   0.818  1.00  0.00     0.172 C 
BRANCH  20  21
ATOM     21  C   UNL     1      -1.070  -2.349   1.885  1.00  0.00     0.079 A 
ATOM     22  C   UNL     1       0.103  -2.326   2.634  1.00  0.00     0.113 A 
ATOM     23  N   UNL     1      -1.819  -3.485   2.167  1.00  0.00    -0.226 NA
ATOM     24  N   UNL     1       0.065  -3.485   3.334  1.00  0.00    -0.325 N 
ATOM     25  C   UNL     1      -1.087  -4.135   3.026  1.00  0.00     0.168 A 
ATOM     26  C   UNL     1       1.058  -4.238   4.074  1.00  0.00     0.135 C 
ATOM     27  S   UNL     1      -1.092  -5.771   3.557  1.00  0.00    -0.086 SA
ATOM     28  C   UNL     1       0.738  -5.707   3.782  1.00  0.00     0.100 C 
ENDBRANCH  20  21
ENDBRANCH  18  20
ENDBRANCH  14  18
ENDBRANCH   6   8
ENDBRANCH   5   6
ENDBRANCH   4   5
ENDBRANCH   3   4
ENDBRANCH   2   3
ENDBRANCH   1   2
BRANCH   1  29
ATOM     29  C   UNL     1       3.641   2.696   1.438  1.00  0.00     0.188 C 
BRANCH  29  30
ATOM     30  O   UNL     1       4.072   4.047   1.506  1.00  0.00    -0.376 OA
BRANCH  30  31
ATOM     31  C   UNL     1       5.445   4.406   1.586  1.00  0.00     0.202 C 
BRANCH  31  32
ATOM     32  C   UNL     1       6.454   3.682   2.478  1.00  0.00     0.261 C 
BRANCH  32  33
ATOM     33  O   UNL     1       6.259   2.290   2.610  1.00  0.00    -0.460 OA
BRANCH  33  34
ATOM     34  C   UNL     1       5.511   1.963   3.682  1.00  0.00     0.338 C 
ATOM     35  O   UNL     1       4.862   2.717   4.386  1.00  0.00    -0.246 OA
BRANCH  34  36
ATOM     36  C   UNL     1       5.654   0.530   3.933  1.00  0.00     0.060 A 
ATOM     37  C   UNL     1       4.796  -0.012   4.891  1.00  0.00     0.016 A 
ATOM     38  C   UNL     1       6.851  -0.086   3.547  1.00  0.00     0.016 A 
ATOM     39  C   UNL     1       5.291  -1.013   5.688  1.00  0.00     0.010 A 
ATOM     40  C   UNL     1       7.353  -1.065   4.361  1.00  0.00     0.010 A 
ATOM     41  C   UNL     1       6.610  -1.429   5.481  1.00  0.00    -0.014 A 
BRANCH  41  42
ATOM     42  C   UNL     1       7.193  -2.346   6.429  1.00  0.00     0.031 A 
ATOM     43  C   UNL     1       6.731  -3.725   6.186  1.00  0.00     0.074 A 
ATOM     44  C   UNL     1       8.125  -1.964   7.323  1.00  0.00     0.049 A 
ATOM     45  N   UNL     1       5.839  -4.379   6.851  1.00  0.00    -0.248 NA
ATOM     46  C   UNL     1       7.094  -4.350   4.901  1.00  0.00     0.031 C 
ATOM     47  C   UNL     1       8.797  -0.669   7.447  1.00  0.00     0.029 A 
ATOM     48  N   UNL     1       8.741  -2.709   8.276  1.00  0.00    -0.354 N 
ATOM     49  C   UNL     1       5.779  -5.618   6.232  1.00  0.00     0.074 A 
ATOM     50  C   UNL     1       6.314  -5.430   4.913  1.00  0.00     0.031 C 
ATOM     51  C   UNL     1       9.875  -0.799   8.256  1.00  0.00     0.029 A 
ATOM     52  C   UNL     1       9.900  -2.146   8.804  1.00  0.00     0.049 A 
ATOM     53  H   UNL     1       8.393  -3.582   8.572  1.00  0.00     0.167 HD
ATOM     54  C   UNL     1       5.633  -6.751   6.968  1.00  0.00     0.034 A 
ATOM     55  C   UNL     1      10.826  -2.788   9.574  1.00  0.00     0.034 A 
ATOM     56  C   UNL     1       5.134  -6.451   8.291  1.00  0.00     0.049 A 
ATOM     57  C   UNL     1      10.120  -3.956  10.171  1.00  0.00     0.074 A 
ATOM     58  C   UNL     1       4.014  -5.802   8.777  1.00  0.00     0.029 A 
ATOM     59  N   UNL     1       6.033  -6.471   9.335  1.00  0.00    -0.354 N 
ATOM     60  N   UNL     1       9.121  -3.838  11.007  1.00  0.00    -0.248 NA
ATOM     61  C   UNL     1      10.177  -5.219   9.447  1.00  0.00     0.031 C 
ATOM     62  C   UNL     1       4.479  -5.045   9.891  1.00  0.00     0.029 A 
ATOM     63  C   UNL     1       5.830  -5.338  10.085  1.00  0.00     0.049 A 
ATOM     64  H   UNL     1       6.701  -7.172   9.512  1.00  0.00     0.167 HD
ATOM     65  C   UNL     1       8.207  -4.806  10.615  1.00  0.00     0.074 A 
ATOM     66  C   UNL     1       8.944  -5.672   9.693  1.00  0.00     0.031 C 
ATOM     67  C   UNL     1       6.868  -4.649  10.830  1.00  0.00     0.034 A 
BRANCH  54  68
ATOM     68  C   UNL     1       6.321  -8.053   6.633  1.00  0.00     0.023 A 
ATOM     69  C   UNL     1       6.002  -9.167   7.424  1.00  0.00     0.031 A 
ATOM     70  C   UNL     1       7.444  -8.203   5.782  1.00  0.00     0.131 A 
ATOM     71  C   UNL     1       6.809 -10.316   7.405  1.00  0.00     0.055 A 
ATOM     72  C   UNL     1       8.204  -9.371   5.719  1.00  0.00     0.041 A 
ATOM     73  F   UNL     1       7.934  -7.209   5.032  1.00  0.00    -0.206 F 
ATOM     74  C   UNL     1       7.906 -10.429   6.555  1.00  0.00     0.022 A 
BRANCH  71  75
ATOM     75  S   UNL     1       6.476 -11.614   8.618  1.00  0.00     0.124 S 
ATOM     76  O   UNL     1       6.635 -10.888   9.873  1.00  0.00    -0.237 OA
ATOM     77  O   UNL     1       5.116 -12.007   8.267  1.00  0.00    -0.237 OA
ATOM     78  O   UNL     1       7.506 -12.611   8.335  1.00  0.00    -0.744 OA
ENDBRANCH  71  75
ENDBRANCH  54  68
BRANCH  55  79
ATOM     79  C   UNL     1      12.320  -2.682   9.508  1.00  0.00     0.023 A 
ATOM     80  C   UNL     1      13.166  -3.308  10.456  1.00  0.00     0.031 A 
ATOM     81  C   UNL     1      12.954  -2.175   8.351  1.00  0.00     0.131 A 
ATOM     82  C   UNL     1      14.560  -3.415  10.221  1.00  0.00     0.055 A 
ATOM     83  C   UNL     1      14.331  -2.283   8.126  1.00  0.00     0.041 A 
ATOM     84  F   UNL     1      12.251  -1.634   7.347  1.00  0.00    -0.206 F 
ATOM     85  C   UNL     1      15.139  -2.915   9.054  1.00  0.00     0.022 A 
BRANCH  82  86
ATOM     86  S   UNL     1      15.642  -4.319  11.381  1.00  0.00     0.124 S 
ATOM     87  O   UNL     1      15.809  -3.352  12.460  1.00  0.00    -0.237 OA
ATOM     88  O   UNL     1      14.856  -5.508  11.690  1.00  0.00    -0.237 OA
ATOM     89  O   UNL     1      16.848  -4.574  10.591  1.00  0.00    -0.744 OA
ENDBRANCH  82  86
ENDBRANCH  55  79
BRANCH  67  90
ATOM     90  C   UNL     1       6.395  -3.564  11.774  1.00  0.00     0.023 A 
ATOM     91  C   UNL     1       6.481  -2.173  11.532  1.00  0.00     0.031 A 
ATOM     92  C   UNL     1       5.637  -3.992  12.878  1.00  0.00     0.131 A 
ATOM     93  C   UNL     1       5.802  -1.272  12.382  1.00  0.00     0.055 A 
ATOM     94  C   UNL     1       4.952  -3.101  13.700  1.00  0.00     0.041 A 
ATOM     95  F   UNL     1       5.497  -5.304  13.134  1.00  0.00    -0.206 F 
ATOM     96  C   UNL     1       5.028  -1.736  13.453  1.00  0.00     0.022 A 
BRANCH  93  97
ATOM     97  S   UNL     1       5.860   0.526  12.076  1.00  0.00     0.124 S 
ATOM     98  O   UNL     1       7.279   0.836  12.207  1.00  0.00    -0.237 OA
ATOM     99  O   UNL     1       5.297   0.641  10.734  1.00  0.00    -0.237 OA
ATOM    100  O   UNL     1       5.016   1.082  13.136  1.00  0.00    -0.744 OA
ENDBRANCH  93  97
ENDBRANCH  67  90
ENDBRANCH  41  42
ENDBRANCH  34  36
ENDBRANCH  33  34
ENDBRANCH  32  33
ENDBRANCH  31  32
ENDBRANCH  30  31
ENDBRANCH  29  30
ENDBRANCH   1  29
TORSDOF 23
