REMARK SMILES O=C(OCCOCCOCCOC(=O)c1ccc(-c2c3nc(c(-c4cc(S(=O)(=O)[O-])ccc4F)c4ccc([nH]4)c(-c4cc(S(=O)(=O)[O-])ccc4F)c4nc(c(-c5cc(S(=O)(=O)[O-])ccc5F)c5ccc2[nH]5)C=C4)C=C3)cc1)C1=Cc2cc(Cl)cc(-c3ccc(O)cc3)c2O[C@@H]1C(F)(F)F
REMARK SMILES IDX 8 1 7 2 6 3 5 4 4 5 3 6 2 7 1 8 78 9 79 10 95 11 80 12 94 13
REMARK SMILES IDX 81 14 93 15 82 16 85 17 83 18 84 19 96 20 97 21 98 22 99 23
REMARK SMILES IDX 86 24 87 25 92 26 88 27 91 28 89 29 90 30 9 32 10 33 11 34
REMARK SMILES IDX 12 35 13 36 14 37 15 38 16 39 77 40 17 41 76 42 18 43 19 44
REMARK SMILES IDX 20 45 70 46 21 47 75 48 69 49 71 50 22 51 74 52 68 53 67 54
REMARK SMILES IDX 23 56 55 57 35 58 54 59 36 60 39 61 53 62 72 63 37 64 38 65
REMARK SMILES IDX 52 67 73 68 40 69 24 70 25 71 33 72 26 73 32 74 34 75 31 76
REMARK SMILES IDX 27 77 28 78 29 79 30 80 56 81 57 82 65 83 58 84 64 85 66 86
REMARK SMILES IDX 63 87 59 88 60 89 61 90 62 91 41 92 42 93 50 94 43 95 49 96
REMARK SMILES IDX 51 97 48 98 44 99 45 100 46 101 47 102
REMARK H PARENT 90 31 71 55 39 66
REMARK Flexibility Score: inf
ROOT
ATOM      1  C   UNL     1       1.562  -0.962   3.263  1.00  0.00     0.188 C 
ENDROOT
BRANCH   1   2
ATOM      2  C   UNL     1       2.153  -1.200   1.864  1.00  0.00     0.188 C 
BRANCH   2   3
ATOM      3  O   UNL     1       3.634  -1.434   1.593  1.00  0.00    -0.376 OA
BRANCH   3   4
ATOM      4  C   UNL     1       4.539  -0.917   0.154  1.00  0.00     0.202 C 
BRANCH   4   5
ATOM      5  C   UNL     1       3.932   0.818  -1.012  1.00  0.00     0.261 C 
BRANCH   5   6
ATOM      6  O   UNL     1       2.985   0.811  -2.210  1.00  0.00    -0.460 OA
BRANCH   6   7
ATOM      7  C   UNL     1       3.148  -0.282  -2.971  1.00  0.00     0.338 C 
ATOM      8  O   UNL     1       2.467  -0.658  -3.891  1.00  0.00    -0.246 OA
BRANCH   7   9
ATOM      9  C   UNL     1       3.998  -1.008  -2.041  1.00  0.00     0.087 C 
ATOM     10  C   UNL     1       5.389  -0.623  -1.999  1.00  0.00     0.027 C 
ATOM     11  C   UNL     1       2.769  -0.818  -0.591  1.00  0.00     0.316 C 
ATOM     12  C   UNL     1       6.109   0.393  -0.723  1.00  0.00     0.019 A 
ATOM     13  O   UNL     1       3.473   0.443   0.753  1.00  0.00    -0.475 OA
ATOM     14  C   UNL     1       7.390   0.829  -0.943  1.00  0.00     0.032 A 
ATOM     15  C   UNL     1       5.216   1.005   0.632  1.00  0.00     0.135 A 
ATOM     16  C   UNL     1       7.892   1.713   0.011  1.00  0.00     0.042 A 
ATOM     17  C   UNL     1       5.826   1.837   1.563  1.00  0.00     0.026 A 
ATOM     18  Cl  UNL     1       9.496   2.322  -0.229  1.00  0.00    -0.084 Cl
ATOM     19  C   UNL     1       7.172   2.160   1.178  1.00  0.00     0.033 A 
BRANCH  11  20
ATOM     20  C   UNL     1       2.522  -2.540  -0.563  1.00  0.00     0.430 C 
ATOM     21  F   UNL     1       2.778  -3.260   0.540  1.00  0.00    -0.167 F 
ATOM     22  F   UNL     1       1.245  -2.805  -0.935  1.00  0.00    -0.167 F 
ATOM     23  F   UNL     1       3.299  -3.163  -1.507  1.00  0.00    -0.167 F 
ENDBRANCH  11  20
BRANCH  17  24
ATOM     24  C   UNL     1       5.425   2.369   2.864  1.00  0.00    -0.014 A 
ATOM     25  C   UNL     1       4.829   3.630   2.992  1.00  0.00     0.012 A 
ATOM     26  C   UNL     1       5.895   1.753   4.045  1.00  0.00     0.012 A 
ATOM     27  C   UNL     1       4.600   4.192   4.256  1.00  0.00     0.047 A 
ATOM     28  C   UNL     1       5.632   2.290   5.313  1.00  0.00     0.047 A 
ATOM     29  C   UNL     1       4.952   3.494   5.404  1.00  0.00     0.115 A 
BRANCH  29  30
ATOM     30  O   UNL     1       4.604   4.017   6.613  1.00  0.00    -0.508 OA
ATOM     31  H   UNL     1       4.144   4.833   6.656  1.00  0.00     0.293 HD
ENDBRANCH  29  30
ENDBRANCH  17  24
ENDBRANCH   7   9
ENDBRANCH   6   7
ENDBRANCH   5   6
ENDBRANCH   4   5
ENDBRANCH   3   4
ENDBRANCH   2   3
ENDBRANCH   1   2
BRANCH   1  32
ATOM     32  O   UNL     1       2.167  -0.025   4.110  1.00  0.00    -0.376 OA
BRANCH  32  33
ATOM     33  C   UNL     1       3.559  -0.185   4.253  1.00  0.00     0.202 C 
BRANCH  33  34
ATOM     34  C   UNL     1       4.134  -1.468   4.862  1.00  0.00     0.261 C 
BRANCH  34  35
ATOM     35  O   UNL     1       3.833  -2.662   4.133  1.00  0.00    -0.460 OA
BRANCH  35  36
ATOM     36  C   UNL     1       2.856  -3.441   4.655  1.00  0.00     0.338 C 
ATOM     37  O   UNL     1       2.234  -3.257   5.686  1.00  0.00    -0.246 OA
BRANCH  36  38
ATOM     38  C   UNL     1       2.527  -4.472   3.658  1.00  0.00     0.060 A 
ATOM     39  C   UNL     1       1.273  -4.471   3.026  1.00  0.00     0.016 A 
ATOM     40  C   UNL     1       3.464  -5.467   3.391  1.00  0.00     0.016 A 
ATOM     41  C   UNL     1       0.950  -5.472   2.116  1.00  0.00     0.010 A 
ATOM     42  C   UNL     1       3.122  -6.499   2.525  1.00  0.00     0.010 A 
ATOM     43  C   UNL     1       1.853  -6.520   1.917  1.00  0.00    -0.014 A 
BRANCH  43  44
ATOM     44  C   UNL     1       1.366  -7.798   1.363  1.00  0.00     0.031 A 
ATOM     45  C   UNL     1       0.845  -8.804   2.348  1.00  0.00     0.074 A 
ATOM     46  C   UNL     1       1.429  -8.068   0.050  1.00  0.00     0.049 A 
ATOM     47  N   UNL     1       0.508 -10.051   2.165  1.00  0.00    -0.248 NA
ATOM     48  C   UNL     1       0.709  -8.336   3.738  1.00  0.00     0.031 C 
ATOM     49  C   UNL     1       1.861  -7.133  -0.985  1.00  0.00     0.029 A 
ATOM     50  N   UNL     1       1.148  -9.225  -0.628  1.00  0.00    -0.354 N 
ATOM     51  C   UNL     1       0.135 -10.521   3.419  1.00  0.00     0.074 A 
ATOM     52  C   UNL     1       0.324  -9.438   4.356  1.00  0.00     0.031 C 
ATOM     53  C   UNL     1       1.840  -7.765  -2.172  1.00  0.00     0.029 A 
ATOM     54  C   UNL     1       1.443  -9.159  -1.968  1.00  0.00     0.049 A 
ATOM     55  H   UNL     1       0.770 -10.025  -0.197  1.00  0.00     0.167 HD
ATOM     56  C   UNL     1      -0.321 -11.751   3.753  1.00  0.00     0.034 A 
ATOM     57  C   UNL     1       1.432 -10.130  -2.904  1.00  0.00     0.034 A 
ATOM     58  C   UNL     1      -0.453 -12.822   2.800  1.00  0.00     0.049 A 
ATOM     59  C   UNL     1       1.025 -11.527  -2.492  1.00  0.00     0.074 A 
ATOM     60  C   UNL     1      -0.899 -14.112   3.012  1.00  0.00     0.029 A 
ATOM     61  N   UNL     1      -0.111 -12.732   1.455  1.00  0.00    -0.354 N 
ATOM     62  N   UNL     1       0.676 -11.973  -1.306  1.00  0.00    -0.248 NA
ATOM     63  C   UNL     1       1.007 -12.551  -3.545  1.00  0.00     0.031 C 
ATOM     64  C   UNL     1      -0.733 -14.828   1.823  1.00  0.00     0.029 A 
ATOM     65  C   UNL     1      -0.298 -13.955   0.836  1.00  0.00     0.049 A 
ATOM     66  H   UNL     1       0.216 -11.917   1.009  1.00  0.00     0.167 HD
ATOM     67  C   UNL     1       0.352 -13.318  -1.481  1.00  0.00     0.074 A 
ATOM     68  C   UNL     1       0.553 -13.608  -2.886  1.00  0.00     0.031 C 
ATOM     69  C   UNL     1      -0.089 -14.224  -0.570  1.00  0.00     0.034 A 
BRANCH  56  70
ATOM     70  C   UNL     1      -0.619 -12.003   5.211  1.00  0.00     0.023 A 
ATOM     71  C   UNL     1      -1.583 -11.256   5.911  1.00  0.00     0.031 A 
ATOM     72  C   UNL     1       0.123 -12.955   5.931  1.00  0.00     0.131 A 
ATOM     73  C   UNL     1      -1.709 -11.403   7.300  1.00  0.00     0.055 A 
ATOM     74  C   UNL     1      -0.081 -13.170   7.295  1.00  0.00     0.041 A 
ATOM     75  F   UNL     1       1.083 -13.675   5.329  1.00  0.00    -0.206 F 
ATOM     76  C   UNL     1      -0.987 -12.377   7.992  1.00  0.00     0.022 A 
BRANCH  73  77
ATOM     77  S   UNL     1      -2.683 -10.175   8.213  1.00  0.00     0.124 S 
ATOM     78  O   UNL     1      -2.012  -8.931   7.840  1.00  0.00    -0.237 OA
ATOM     79  O   UNL     1      -4.022 -10.365   7.669  1.00  0.00    -0.237 OA
ATOM     80  O   UNL     1      -2.512 -10.571   9.609  1.00  0.00    -0.744 OA
ENDBRANCH  73  77
ENDBRANCH  56  70
BRANCH  57  81
ATOM     81  C   UNL     1       1.853  -9.831  -4.302  1.00  0.00     0.023 A 
ATOM     82  C   UNL     1       0.958  -9.961  -5.375  1.00  0.00     0.031 A 
ATOM     83  C   UNL     1       3.173  -9.439  -4.592  1.00  0.00     0.131 A 
ATOM     84  C   UNL     1       1.402  -9.741  -6.689  1.00  0.00     0.055 A 
ATOM     85  C   UNL     1       3.594  -9.160  -5.893  1.00  0.00     0.041 A 
ATOM     86  F   UNL     1       4.076  -9.309  -3.606  1.00  0.00    -0.206 F 
ATOM     87  C   UNL     1       2.708  -9.321  -6.953  1.00  0.00     0.022 A 
BRANCH  84  88
ATOM     88  S   UNL     1       0.273 -10.103  -8.062  1.00  0.00     0.124 S 
ATOM     89  O   UNL     1      -0.013 -11.516  -7.843  1.00  0.00    -0.237 OA
ATOM     90  O   UNL     1      -0.826  -9.178  -7.805  1.00  0.00    -0.237 OA
ATOM     91  O   UNL     1       1.073  -9.804  -9.248  1.00  0.00    -0.744 OA
ENDBRANCH  84  88
ENDBRANCH  57  81
BRANCH  69  92
ATOM     92  C   UNL     1      -0.464 -15.598  -1.073  1.00  0.00     0.023 A 
ATOM     93  C   UNL     1       0.482 -16.491  -1.605  1.00  0.00     0.031 A 
ATOM     94  C   UNL     1      -1.802 -16.029  -0.983  1.00  0.00     0.131 A 
ATOM     95  C   UNL     1       0.067 -17.749  -2.070  1.00  0.00     0.055 A 
ATOM     96  C   UNL     1      -2.193 -17.308  -1.375  1.00  0.00     0.041 A 
ATOM     97  F   UNL     1      -2.750 -15.215  -0.491  1.00  0.00    -0.206 F 
ATOM     98  C   UNL     1      -1.258 -18.173  -1.934  1.00  0.00     0.022 A 
BRANCH  95  99
ATOM     99  S   UNL     1       1.261 -18.791  -2.952  1.00  0.00     0.124 S 
ATOM    100  O   UNL     1       1.670 -17.919  -4.049  1.00  0.00    -0.237 OA
ATOM    101  O   UNL     1       2.271 -19.045  -1.930  1.00  0.00    -0.237 OA
ATOM    102  O   UNL     1       0.473 -19.956  -3.348  1.00  0.00    -0.744 OA
ENDBRANCH  95  99
ENDBRANCH  69  92
ENDBRANCH  43  44
ENDBRANCH  36  38
ENDBRANCH  35  36
ENDBRANCH  34  35
ENDBRANCH  33  34
ENDBRANCH  32  33
ENDBRANCH   1  32
TORSDOF 23
