REMARK SMILES CCCC[C@@H](C(=O)OCCOCCOCCOC(=O)c1ccc(-c2c3nc(c(-c4cc(S(=O)(=O)[O-])ccc4F)c4ccc([nH]4)c(-c4cc(S(=O)(=O)[O-])ccc4F)c4nc(c(-c5cc(S(=O)(=O)[O-])ccc5F)c5ccc2[nH]5)C=C4)C=C3)cc1)[C@@H](O)C1CC1
REMARK SMILES IDX 12 1 11 2 10 3 9 4 8 5 6 6 7 7 5 8 4 9 3 10 2 11 1 12 83 13
REMARK SMILES IDX 84 14 85 16 86 17 87 18 13 19 14 20 15 21 16 22 17 23 18 24
REMARK SMILES IDX 19 25 20 26 21 27 82 28 22 29 81 30 23 31 24 32 25 33 75 34
REMARK SMILES IDX 26 35 80 36 74 37 76 38 27 39 79 40 73 41 72 42 28 44 60 45
REMARK SMILES IDX 40 46 59 47 41 48 44 49 58 50 77 51 42 52 43 53 57 55 78 56
REMARK SMILES IDX 45 57 29 58 30 59 38 60 31 61 37 62 39 63 36 64 32 65 33 66
REMARK SMILES IDX 34 67 35 68 61 69 62 70 70 71 63 72 69 73 71 74 68 75 64 76
REMARK SMILES IDX 65 77 66 78 67 79 46 80 47 81 55 82 48 83 54 84 56 85 53 86
REMARK SMILES IDX 49 87 50 88 51 89 52 90
REMARK H PARENT 84 15 76 43 44 54
REMARK Flexibility Score: inf
ROOT
ATOM      1  C   UNL     1      -0.893  -4.511  -4.530  1.00  0.00     0.188 C 
ENDROOT
BRANCH   1   2
ATOM      2  O   UNL     1      -1.387  -3.858  -5.693  1.00  0.00    -0.376 OA
BRANCH   2   3
ATOM      3  C   UNL     1      -2.311  -2.796  -5.476  1.00  0.00     0.202 C 
BRANCH   3   4
ATOM      4  C   UNL     1      -1.754  -1.609  -4.692  1.00  0.00     0.261 C 
BRANCH   4   5
ATOM      5  O   UNL     1      -1.416  -2.004  -3.348  1.00  0.00    -0.463 OA
BRANCH   5   6
ATOM      6  C   UNL     1      -2.127  -1.536  -2.301  1.00  0.00     0.311 C 
ATOM      7  O   UNL     1      -3.148  -0.871  -2.415  1.00  0.00    -0.252 OA
BRANCH   6   8
ATOM      8  C   UNL     1      -1.512  -1.954  -0.968  1.00  0.00     0.128 C 
BRANCH   8   9
ATOM      9  C   UNL     1       0.046  -1.881  -0.907  1.00  0.00     0.018 C 
BRANCH   9  10
ATOM     10  C   UNL     1       0.802  -0.802  -1.681  1.00  0.00     0.001 C 
BRANCH  10  11
ATOM     11  C   UNL     1       0.556   0.624  -1.212  1.00  0.00    -0.003 C 
ATOM     12  C   UNL     1       1.063   0.869   0.201  1.00  0.00     0.004 C 
ENDBRANCH  10  11
ENDBRANCH   9  10
ENDBRANCH   8   9
BRANCH   8  13
ATOM     13  C   UNL     1      -1.938  -3.395  -0.597  1.00  0.00     0.131 C 
BRANCH  13  14
ATOM     14  O   UNL     1      -1.104  -3.844   0.482  1.00  0.00    -0.392 OA
ATOM     15  H   UNL     1      -1.260  -3.291   1.263  1.00  0.00     0.210 HD
ENDBRANCH  13  14
BRANCH  13  16
ATOM     16  C   UNL     1      -3.353  -3.586  -0.129  1.00  0.00     0.019 C 
ATOM     17  C   UNL     1      -4.604  -3.342  -0.938  1.00  0.00     0.006 C 
ATOM     18  C   UNL     1      -4.131  -4.746  -0.716  1.00  0.00     0.006 C 
ENDBRANCH  13  16
ENDBRANCH   8  13
ENDBRANCH   6   8
ENDBRANCH   5   6
ENDBRANCH   4   5
ENDBRANCH   3   4
ENDBRANCH   2   3
ENDBRANCH   1   2
BRANCH   1  19
ATOM     19  C   UNL     1       0.495  -4.022  -4.066  1.00  0.00     0.188 C 
BRANCH  19  20
ATOM     20  O   UNL     1       1.329  -3.300  -4.961  1.00  0.00    -0.376 OA
BRANCH  20  21
ATOM     21  C   UNL     1       1.459  -3.772  -6.293  1.00  0.00     0.202 C 
BRANCH  21  22
ATOM     22  C   UNL     1       2.025  -5.181  -6.506  1.00  0.00     0.261 C 
BRANCH  22  23
ATOM     23  O   UNL     1       1.329  -6.212  -5.781  1.00  0.00    -0.460 OA
BRANCH  23  24
ATOM     24  C   UNL     1       2.048  -6.792  -4.787  1.00  0.00     0.338 C 
ATOM     25  O   UNL     1       3.218  -6.570  -4.509  1.00  0.00    -0.246 OA
BRANCH  24  26
ATOM     26  C   UNL     1       1.174  -7.608  -3.917  1.00  0.00     0.060 A 
ATOM     27  C   UNL     1       1.197  -7.342  -2.540  1.00  0.00     0.016 A 
ATOM     28  C   UNL     1       0.427  -8.678  -4.416  1.00  0.00     0.016 A 
ATOM     29  C   UNL     1       0.531  -8.181  -1.649  1.00  0.00     0.010 A 
ATOM     30  C   UNL     1      -0.219  -9.537  -3.517  1.00  0.00     0.010 A 
ATOM     31  C   UNL     1      -0.124  -9.322  -2.129  1.00  0.00    -0.014 A 
BRANCH  31  32
ATOM     32  C   UNL     1      -0.440 -10.413  -1.170  1.00  0.00     0.031 A 
ATOM     33  C   UNL     1       0.590 -11.498  -0.978  1.00  0.00     0.074 A 
ATOM     34  C   UNL     1      -1.568 -10.415  -0.438  1.00  0.00     0.049 A 
ATOM     35  N   UNL     1       0.555 -12.557  -0.212  1.00  0.00    -0.248 NA
ATOM     36  C   UNL     1       1.828 -11.363  -1.762  1.00  0.00     0.031 C 
ATOM     37  C   UNL     1      -2.611  -9.392  -0.485  1.00  0.00     0.029 A 
ATOM     38  N   UNL     1      -2.021 -11.315   0.494  1.00  0.00    -0.354 N 
ATOM     39  C   UNL     1       1.765 -13.213  -0.419  1.00  0.00     0.074 A 
ATOM     40  C   UNL     1       2.490 -12.454  -1.414  1.00  0.00     0.031 C 
ATOM     41  C   UNL     1      -3.590  -9.730   0.374  1.00  0.00     0.029 A 
ATOM     42  C   UNL     1      -3.258 -11.006   1.008  1.00  0.00     0.049 A 
ATOM     43  H   UNL     1      -1.507 -12.109   0.769  1.00  0.00     0.167 HD
ATOM     44  C   UNL     1       2.236 -14.339   0.172  1.00  0.00     0.034 A 
ATOM     45  C   UNL     1      -4.038 -11.688   1.873  1.00  0.00     0.034 A 
ATOM     46  C   UNL     1       1.498 -15.102   1.147  1.00  0.00     0.049 A 
ATOM     47  C   UNL     1      -3.534 -12.993   2.446  1.00  0.00     0.074 A 
ATOM     48  C   UNL     1       1.874 -16.263   1.800  1.00  0.00     0.029 A 
ATOM     49  N   UNL     1       0.224 -14.788   1.601  1.00  0.00    -0.354 N 
ATOM     50  N   UNL     1      -2.389 -13.605   2.240  1.00  0.00    -0.248 NA
ATOM     51  C   UNL     1      -4.428 -13.694   3.379  1.00  0.00     0.031 C 
ATOM     52  C   UNL     1       0.803 -16.686   2.596  1.00  0.00     0.029 A 
ATOM     53  C   UNL     1      -0.212 -15.747   2.502  1.00  0.00     0.049 A 
ATOM     54  H   UNL     1      -0.294 -13.998   1.324  1.00  0.00     0.167 HD
ATOM     55  C   UNL     1      -2.417 -14.744   3.043  1.00  0.00     0.074 A 
ATOM     56  C   UNL     1      -3.680 -14.722   3.750  1.00  0.00     0.031 C 
ATOM     57  C   UNL     1      -1.482 -15.720   3.189  1.00  0.00     0.034 A 
BRANCH  44  58
ATOM     58  C   UNL     1       3.591 -14.833  -0.277  1.00  0.00     0.023 A 
ATOM     59  C   UNL     1       4.761 -14.084  -0.060  1.00  0.00     0.031 A 
ATOM     60  C   UNL     1       3.706 -16.045  -0.981  1.00  0.00     0.131 A 
ATOM     61  C   UNL     1       5.979 -14.515  -0.607  1.00  0.00     0.055 A 
ATOM     62  C   UNL     1       4.935 -16.509  -1.452  1.00  0.00     0.041 A 
ATOM     63  F   UNL     1       2.619 -16.790  -1.241  1.00  0.00    -0.206 F 
ATOM     64  C   UNL     1       6.079 -15.735  -1.280  1.00  0.00     0.022 A 
BRANCH  61  65
ATOM     65  S   UNL     1       7.400 -13.388  -0.557  1.00  0.00     0.124 S 
ATOM     66  O   UNL     1       6.881 -12.230  -1.281  1.00  0.00    -0.237 OA
ATOM     67  O   UNL     1       7.609 -13.206   0.874  1.00  0.00    -0.237 OA
ATOM     68  O   UNL     1       8.450 -14.129  -1.253  1.00  0.00    -0.744 OA
ENDBRANCH  61  65
ENDBRANCH  44  58
BRANCH  45  69
ATOM     69  C   UNL     1      -5.399 -11.189   2.228  1.00  0.00     0.023 A 
ATOM     70  C   UNL     1      -5.727 -10.841   3.548  1.00  0.00     0.031 A 
ATOM     71  C   UNL     1      -6.418 -11.133   1.259  1.00  0.00     0.131 A 
ATOM     72  C   UNL     1      -7.051 -10.507   3.875  1.00  0.00     0.055 A 
ATOM     73  C   UNL     1      -7.720 -10.747   1.579  1.00  0.00     0.041 A 
ATOM     74  F   UNL     1      -6.159 -11.458  -0.018  1.00  0.00    -0.206 F 
ATOM     75  C   UNL     1      -8.047 -10.445   2.897  1.00  0.00     0.022 A 
BRANCH  72  76
ATOM     76  S   UNL     1      -7.476 -10.242   5.619  1.00  0.00     0.124 S 
ATOM     77  O   UNL     1      -7.104 -11.521   6.212  1.00  0.00    -0.237 OA
ATOM     78  O   UNL     1      -6.631  -9.104   5.965  1.00  0.00    -0.237 OA
ATOM     79  O   UNL     1      -8.909  -9.962   5.581  1.00  0.00    -0.744 OA
ENDBRANCH  72  76
ENDBRANCH  45  69
BRANCH  57  80
ATOM     80  C   UNL     1      -1.784 -16.817   4.184  1.00  0.00     0.023 A 
ATOM     81  C   UNL     1      -2.847 -17.718   3.996  1.00  0.00     0.031 A 
ATOM     82  C   UNL     1      -1.012 -16.944   5.354  1.00  0.00     0.131 A 
ATOM     83  C   UNL     1      -3.154 -18.658   4.992  1.00  0.00     0.055 A 
ATOM     84  C   UNL     1      -1.281 -17.924   6.310  1.00  0.00     0.041 A 
ATOM     85  F   UNL     1       0.015 -16.113   5.588  1.00  0.00    -0.206 F 
ATOM     86  C   UNL     1      -2.367 -18.777   6.141  1.00  0.00     0.022 A 
BRANCH  83  87
ATOM     87  S   UNL     1      -4.665 -19.646   4.821  1.00  0.00     0.124 S 
ATOM     88  O   UNL     1      -5.688 -18.615   4.676  1.00  0.00    -0.237 OA
ATOM     89  O   UNL     1      -4.386 -20.439   3.628  1.00  0.00    -0.237 OA
ATOM     90  O   UNL     1      -4.723 -20.404   6.070  1.00  0.00    -0.744 OA
ENDBRANCH  83  87
ENDBRANCH  57  80
ENDBRANCH  31  32
ENDBRANCH  24  26
ENDBRANCH  23  24
ENDBRANCH  22  23
ENDBRANCH  21  22
ENDBRANCH  20  21
ENDBRANCH  19  20
ENDBRANCH   1  19
TORSDOF 26
