REMARK SMILES Cc1ccc2nc(-c3cccc(NC(=O)c4ccccc4C(=O)OCCOCCOCCOC(=O)c4ccc(-c5c6nc(c(-c7cc(S(=O)(=O)[O-])ccc7F)c7ccc([nH]7)c(-c7cc(S(=O)(=O)[O-])ccc7F)c7nc(c(-c8cc(S(=O)(=O)[O-])ccc8F)c8ccc5[nH]8)C=C7)C=C6)cc4)c3)[nH]c2c1
REMARK SMILES IDX 28 1 27 2 26 3 25 4 24 5 22 6 23 7 21 8 16 9 17 10 18 11
REMARK SMILES IDX 20 12 19 13 14 14 13 15 15 17 12 18 8 19 9 20 99 21 10 22
REMARK SMILES IDX 11 23 7 24 1 25 2 26 3 27 102 28 4 29 101 30 5 31 100 32
REMARK SMILES IDX 6 33 29 35 30 36 31 37 32 38 33 39 34 40 35 41 36 42 37 43
REMARK SMILES IDX 98 44 38 45 97 46 39 47 40 48 41 49 91 50 42 51 96 52 90 53
REMARK SMILES IDX 92 54 43 55 95 56 89 57 88 58 44 60 76 61 56 62 75 63 57 64
REMARK SMILES IDX 60 65 74 66 93 67 58 68 59 69 73 71 94 72 61 73 45 74 46 75
REMARK SMILES IDX 54 76 47 77 53 78 55 79 52 80 48 81 49 82 50 83 51 84 77 85
REMARK SMILES IDX 78 86 86 87 79 88 85 89 87 90 84 91 80 92 81 93 82 94 83 95
REMARK SMILES IDX 62 96 63 97 71 98 64 99 70 100 72 101 69 102 65 103 66 104
REMARK SMILES IDX 67 105 68 106
REMARK H PARENT 13 16 100 34 92 59 60 70
REMARK Flexibility Score: inf
ROOT
ATOM      1  C   UNL     1      -7.044   4.825   1.638  1.00  0.00     0.188 C 
ENDROOT
BRANCH   1   2
ATOM      2  O   UNL     1      -5.651   5.076   1.723  1.00  0.00    -0.376 OA
BRANCH   2   3
ATOM      3  C   UNL     1      -4.775   4.416   0.827  1.00  0.00     0.202 C 
BRANCH   3   4
ATOM      4  C   UNL     1      -5.001   2.951   0.454  1.00  0.00     0.261 C 
BRANCH   4   5
ATOM      5  O   UNL     1      -6.291   2.653  -0.106  1.00  0.00    -0.460 OA
BRANCH   5   6
ATOM      6  C   UNL     1      -7.048   1.799   0.627  1.00  0.00     0.339 C 
ATOM      7  O   UNL     1      -6.741   1.348   1.722  1.00  0.00    -0.246 OA
BRANCH   6   8
ATOM      8  C   UNL     1      -8.390   1.544   0.039  1.00  0.00     0.072 A 
ATOM      9  C   UNL     1      -8.704   1.431  -1.326  1.00  0.00     0.054 A 
ATOM     10  C   UNL     1     -10.046   1.189  -1.695  1.00  0.00     0.015 A 
ATOM     11  C   UNL     1     -11.046   1.026  -0.735  1.00  0.00     0.001 A 
ATOM     12  C   UNL     1      -9.415   1.375   0.996  1.00  0.00     0.016 A 
ATOM     13  C   UNL     1     -10.730   1.116   0.614  1.00  0.00     0.001 A 
BRANCH   9  14
ATOM     14  C   UNL     1      -7.766   1.562  -2.472  1.00  0.00     0.256 C 
ATOM     15  N   UNL     1      -6.519   0.980  -2.518  1.00  0.00    -0.322 N 
ATOM     16  H   UNL     1      -5.978   1.232  -3.300  1.00  0.00     0.170 HD
ATOM     17  O   UNL     1      -8.125   2.238  -3.440  1.00  0.00    -0.269 OA
BRANCH  15  18
ATOM     18  C   UNL     1      -5.892   0.089  -1.637  1.00  0.00     0.042 A 
ATOM     19  C   UNL     1      -3.861  -0.422  -0.428  1.00  0.00     0.019 A 
ATOM     20  C   UNL     1      -4.612  -1.200   0.462  1.00  0.00     0.012 A 
ATOM     21  C   UNL     1      -4.504   0.209  -1.495  1.00  0.00     0.038 A 
ATOM     22  C   UNL     1      -5.968  -1.418   0.244  1.00  0.00     0.003 A 
ATOM     23  C   UNL     1      -6.599  -0.806  -0.834  1.00  0.00     0.026 A 
BRANCH  19  24
ATOM     24  C   UNL     1      -2.417  -0.384  -0.260  1.00  0.00     0.138 A 
ATOM     25  C   UNL     1       3.428   0.897   0.037  1.00  0.00     0.044 C 
ATOM     26  C   UNL     1       2.078   0.236   0.010  1.00  0.00    -0.049 A 
ATOM     27  C   UNL     1       1.998  -1.163   0.073  1.00  0.00     0.006 A 
ATOM     28  C   UNL     1       0.910   1.023  -0.071  1.00  0.00     0.031 A 
ATOM     29  C   UNL     1       0.765  -1.816   0.049  1.00  0.00     0.031 A 
ATOM     30  C   UNL     1      -0.311   0.339  -0.116  1.00  0.00     0.066 A 
ATOM     31  C   UNL     1      -0.394  -1.046  -0.052  1.00  0.00     0.089 A 
ATOM     32  N   UNL     1      -1.623   0.742  -0.226  1.00  0.00    -0.338 N 
ATOM     33  N   UNL     1      -1.685  -1.468  -0.114  1.00  0.00    -0.229 NA
ATOM     34  H   UNL     1      -1.939   1.673  -0.272  1.00  0.00     0.168 HD
ENDBRANCH  19  24
ENDBRANCH  15  18
ENDBRANCH   9  14
ENDBRANCH   6   8
ENDBRANCH   5   6
ENDBRANCH   4   5
ENDBRANCH   3   4
ENDBRANCH   2   3
ENDBRANCH   1   2
BRANCH   1  35
ATOM     35  C   UNL     1      -7.774   5.080   0.301  1.00  0.00     0.188 C 
BRANCH  35  36
ATOM     36  O   UNL     1      -6.997   5.493  -0.797  1.00  0.00    -0.376 OA
BRANCH  36  37
ATOM     37  C   UNL     1      -6.542   6.831  -0.888  1.00  0.00     0.202 C 
BRANCH  37  38
ATOM     38  C   UNL     1      -6.912   7.989   0.064  1.00  0.00     0.261 C 
BRANCH  38  39
ATOM     39  O   UNL     1      -7.548   7.682   1.306  1.00  0.00    -0.460 OA
BRANCH  39  40
ATOM     40  C   UNL     1      -8.892   7.872   1.348  1.00  0.00     0.338 C 
ATOM     41  O   UNL     1      -9.598   8.282   0.442  1.00  0.00    -0.246 OA
BRANCH  40  42
ATOM     42  C   UNL     1      -9.413   7.264   2.595  1.00  0.00     0.060 A 
ATOM     43  C   UNL     1     -10.349   6.222   2.494  1.00  0.00     0.016 A 
ATOM     44  C   UNL     1      -8.956   7.681   3.846  1.00  0.00     0.016 A 
ATOM     45  C   UNL     1     -10.854   5.617   3.646  1.00  0.00     0.010 A 
ATOM     46  C   UNL     1      -9.487   7.094   5.000  1.00  0.00     0.010 A 
ATOM     47  C   UNL     1     -10.463   6.084   4.907  1.00  0.00    -0.014 A 
BRANCH  47  48
ATOM     48  C   UNL     1     -11.257   5.712   6.107  1.00  0.00     0.031 A 
ATOM     49  C   UNL     1     -12.355   6.651   6.533  1.00  0.00     0.074 A 
ATOM     50  C   UNL     1     -11.038   4.575   6.794  1.00  0.00     0.049 A 
ATOM     51  N   UNL     1     -13.138   6.603   7.579  1.00  0.00    -0.248 NA
ATOM     52  C   UNL     1     -12.593   7.807   5.654  1.00  0.00     0.031 C 
ATOM     53  C   UNL     1     -10.050   3.554   6.452  1.00  0.00     0.029 A 
ATOM     54  N   UNL     1     -11.635   4.097   7.936  1.00  0.00    -0.354 N 
ATOM     55  C   UNL     1     -13.958   7.723   7.487  1.00  0.00     0.074 A 
ATOM     56  C   UNL     1     -13.548   8.450   6.305  1.00  0.00     0.031 C 
ATOM     57  C   UNL     1     -10.100   2.575   7.374  1.00  0.00     0.029 A 
ATOM     58  C   UNL     1     -11.092   2.919   8.394  1.00  0.00     0.049 A 
ATOM     59  H   UNL     1     -12.383   4.555   8.384  1.00  0.00     0.167 HD
ATOM     60  C   UNL     1     -14.967   8.108   8.306  1.00  0.00     0.034 A 
ATOM     61  C   UNL     1     -11.347   2.219   9.521  1.00  0.00     0.034 A 
ATOM     62  C   UNL     1     -15.353   7.388   9.494  1.00  0.00     0.049 A 
ATOM     63  C   UNL     1     -12.400   2.727  10.482  1.00  0.00     0.074 A 
ATOM     64  C   UNL     1     -16.356   7.692  10.397  1.00  0.00     0.029 A 
ATOM     65  N   UNL     1     -14.743   6.228   9.954  1.00  0.00    -0.354 N 
ATOM     66  N   UNL     1     -13.168   3.789  10.387  1.00  0.00    -0.248 NA
ATOM     67  C   UNL     1     -12.623   1.937  11.702  1.00  0.00     0.031 C 
ATOM     68  C   UNL     1     -16.303   6.763  11.441  1.00  0.00     0.029 A 
ATOM     69  C   UNL     1     -15.327   5.824  11.145  1.00  0.00     0.049 A 
ATOM     70  H   UNL     1     -14.004   5.761   9.501  1.00  0.00     0.167 HD
ATOM     71  C   UNL     1     -13.990   3.768  11.514  1.00  0.00     0.074 A 
ATOM     72  C   UNL     1     -13.631   2.584  12.266  1.00  0.00     0.031 C 
ATOM     73  C   UNL     1     -14.959   4.643  11.890  1.00  0.00     0.034 A 
BRANCH  60  74
ATOM     74  C   UNL     1     -15.675   9.397   7.967  1.00  0.00     0.023 A 
ATOM     75  C   UNL     1     -16.409   9.547   6.777  1.00  0.00     0.031 A 
ATOM     76  C   UNL     1     -15.581  10.505   8.827  1.00  0.00     0.131 A 
ATOM     77  C   UNL     1     -16.954  10.796   6.444  1.00  0.00     0.055 A 
ATOM     78  C   UNL     1     -16.199  11.721   8.531  1.00  0.00     0.041 A 
ATOM     79  F   UNL     1     -14.871  10.430   9.964  1.00  0.00    -0.206 F 
ATOM     80  C   UNL     1     -16.877  11.877   7.326  1.00  0.00     0.022 A 
BRANCH  77  81
ATOM     81  S   UNL     1     -17.630  11.030   4.778  1.00  0.00     0.124 S 
ATOM     82  O   UNL     1     -16.474  10.714   3.943  1.00  0.00    -0.237 OA
ATOM     83  O   UNL     1     -18.725  10.068   4.744  1.00  0.00    -0.237 OA
ATOM     84  O   UNL     1     -18.032  12.435   4.765  1.00  0.00    -0.744 OA
ENDBRANCH  77  81
ENDBRANCH  60  74
BRANCH  61  85
ATOM     85  C   UNL     1     -10.569   0.985   9.846  1.00  0.00     0.023 A 
ATOM     86  C   UNL     1     -11.204  -0.261   9.982  1.00  0.00     0.031 A 
ATOM     87  C   UNL     1      -9.189   1.050  10.109  1.00  0.00     0.131 A 
ATOM     88  C   UNL     1     -10.473  -1.377  10.419  1.00  0.00     0.055 A 
ATOM     89  C   UNL     1      -8.454  -0.076  10.486  1.00  0.00     0.041 A 
ATOM     90  F   UNL     1      -8.532   2.216  10.007  1.00  0.00    -0.206 F 
ATOM     91  C   UNL     1      -9.099  -1.296  10.658  1.00  0.00     0.022 A 
BRANCH  88  92
ATOM     92  S   UNL     1     -11.364  -2.918  10.771  1.00  0.00     0.124 S 
ATOM     93  O   UNL     1     -12.314  -2.484  11.789  1.00  0.00    -0.237 OA
ATOM     94  O   UNL     1     -11.928  -3.246   9.466  1.00  0.00    -0.237 OA
ATOM     95  O   UNL     1     -10.314  -3.820  11.239  1.00  0.00    -0.744 OA
ENDBRANCH  88  92
ENDBRANCH  61  85
BRANCH  73  96
ATOM     96  C   UNL     1     -15.743   4.318  13.142  1.00  0.00     0.023 A 
ATOM     97  C   UNL     1     -15.147   4.303  14.415  1.00  0.00     0.031 A 
ATOM     98  C   UNL     1     -17.115   4.016  13.054  1.00  0.00     0.131 A 
ATOM     99  C   UNL     1     -15.905   3.937  15.539  1.00  0.00     0.055 A 
ATOM    100  C   UNL     1     -17.878   3.718  14.183  1.00  0.00     0.041 A 
ATOM    101  F   UNL     1     -17.739   4.012  11.865  1.00  0.00    -0.206 F 
ATOM    102  C   UNL     1     -17.270   3.663  15.433  1.00  0.00     0.022 A 
BRANCH  99 103
ATOM    103  S   UNL     1     -15.060   3.727  17.131  1.00  0.00     0.124 S 
ATOM    104  O   UNL     1     -14.055   2.719  16.810  1.00  0.00    -0.237 OA
ATOM    105  O   UNL     1     -14.554   5.070  17.395  1.00  0.00    -0.237 OA
ATOM    106  O   UNL     1     -16.124   3.279  18.027  1.00  0.00    -0.744 OA
ENDBRANCH  99 103
ENDBRANCH  73  96
ENDBRANCH  47  48
ENDBRANCH  40  42
ENDBRANCH  39  40
ENDBRANCH  38  39
ENDBRANCH  37  38
ENDBRANCH  36  37
ENDBRANCH  35  36
ENDBRANCH   1  35
TORSDOF 23
