REMARK SMILES CC[C@@H](NC(=O)N1CCO[C@H](CC(=O)OCCOCCOCCOC(=O)c2ccc(-c3c4nc(c(-c5cc(S(=O)(=O)[O-])ccc5F)c5ccc([nH]5)c(-c5cc(S(=O)(=O)[O-])ccc5F)c5nc(c(-c6cc(S(=O)(=O)[O-])ccc6F)c6ccc3[nH]6)C=C5)C=C4)cc2)C1)c1cccs1
REMARK SMILES IDX 19 1 18 2 17 3 16 4 15 5 13 6 14 7 12 8 11 9 7 10 8 11 90 12
REMARK SMILES IDX 9 13 10 14 5 15 4 16 6 18 3 19 2 20 1 21 91 22 92 23 95 24
REMARK SMILES IDX 93 25 94 26 20 27 21 28 22 29 23 30 24 31 25 32 26 33 27 34
REMARK SMILES IDX 28 35 89 36 29 37 88 38 30 39 31 40 32 41 82 42 33 43 87 44
REMARK SMILES IDX 81 45 83 46 34 47 86 48 80 49 79 50 35 52 67 53 47 54 66 55
REMARK SMILES IDX 48 56 51 57 65 58 84 59 49 60 50 61 64 63 85 64 52 65 36 66
REMARK SMILES IDX 37 67 45 68 38 69 44 70 46 71 43 72 39 73 40 74 41 75 42 76
REMARK SMILES IDX 68 77 69 78 77 79 70 80 76 81 78 82 75 83 71 84 72 85 73 86
REMARK SMILES IDX 74 87 53 88 54 89 62 90 55 91 61 92 63 93 60 94 56 95 57 96
REMARK SMILES IDX 58 97 59 98
REMARK H PARENT 4 17 83 51 51 62
REMARK Flexibility Score: inf
ROOT
ATOM      1  C   UNL     1      -1.555   4.107  -4.212  1.00  0.00     0.188 C 
ENDROOT
BRANCH   1   2
ATOM      2  O   UNL     1      -0.697   4.955  -3.452  1.00  0.00    -0.376 OA
BRANCH   2   3
ATOM      3  C   UNL     1       0.378   4.227  -2.865  1.00  0.00     0.202 C 
BRANCH   3   4
ATOM      4  C   UNL     1      -0.072   3.326  -1.705  1.00  0.00     0.261 C 
BRANCH   4   5
ATOM      5  O   UNL     1      -0.755   2.126  -2.150  1.00  0.00    -0.463 OA
BRANCH   5   6
ATOM      6  C   UNL     1      -2.112   2.093  -2.020  1.00  0.00     0.308 C 
ATOM      7  O   UNL     1      -2.787   3.004  -1.560  1.00  0.00    -0.252 OA
BRANCH   6   8
ATOM      8  C   UNL     1      -2.692   0.758  -2.402  1.00  0.00     0.156 C 
BRANCH   8   9
ATOM      9  C   UNL     1      -2.916   0.344  -3.865  1.00  0.00     0.149 C 
ATOM     10  N   UNL     1      -1.244  -1.429  -4.092  1.00  0.00    -0.320 N 
ATOM     11  C   UNL     1      -0.699  -0.811  -5.283  1.00  0.00     0.150 C 
ATOM     12  C   UNL     1      -2.682  -1.181  -4.000  1.00  0.00     0.154 C 
ATOM     13  C   UNL     1      -0.889   0.696  -5.198  1.00  0.00     0.182 C 
ATOM     14  O   UNL     1      -2.244   1.082  -4.899  1.00  0.00    -0.374 OA
BRANCH  10  15
ATOM     15  C   UNL     1      -0.623  -2.286  -3.243  1.00  0.00     0.318 C 
ATOM     16  N   UNL     1       0.705  -2.212  -2.975  1.00  0.00    -0.330 N 
ATOM     17  H   UNL     1       1.200  -3.047  -3.142  1.00  0.00     0.166 HD
ATOM     18  O   UNL     1      -1.242  -3.187  -2.671  1.00  0.00    -0.249 OA
BRANCH  16  19
ATOM     19  C   UNL     1       1.544  -1.094  -2.477  1.00  0.00     0.124 C 
BRANCH  19  20
ATOM     20  C   UNL     1       0.878  -0.317  -1.321  1.00  0.00     0.027 C 
ATOM     21  C   UNL     1       1.153  -0.893   0.063  1.00  0.00     0.006 C 
ENDBRANCH  19  20
BRANCH  19  22
ATOM     22  C   UNL     1       2.152  -0.275  -3.600  1.00  0.00     0.027 A 
ATOM     23  C   UNL     1       2.562  -0.702  -4.855  1.00  0.00     0.017 A 
ATOM     24  S   UNL     1       2.647   1.362  -3.386  1.00  0.00    -0.147 S 
ATOM     25  C   UNL     1       2.901   0.379  -5.722  1.00  0.00     0.012 A 
ATOM     26  C   UNL     1       2.930   1.578  -5.052  1.00  0.00     0.065 A 
ENDBRANCH  19  22
ENDBRANCH  16  19
ENDBRANCH  10  15
ENDBRANCH   8   9
ENDBRANCH   6   8
ENDBRANCH   5   6
ENDBRANCH   4   5
ENDBRANCH   3   4
ENDBRANCH   2   3
ENDBRANCH   1   2
BRANCH   1  27
ATOM     27  C   UNL     1      -1.493   4.441  -5.674  1.00  0.00     0.188 C 
BRANCH  27  28
ATOM     28  O   UNL     1      -0.259   4.053  -6.283  1.00  0.00    -0.376 OA
BRANCH  28  29
ATOM     29  C   UNL     1       0.428   5.156  -6.876  1.00  0.00     0.202 C 
BRANCH  29  30
ATOM     30  C   UNL     1      -0.240   5.741  -8.138  1.00  0.00     0.261 C 
BRANCH  30  31
ATOM     31  O   UNL     1      -1.525   6.335  -7.852  1.00  0.00    -0.460 OA
BRANCH  31  32
ATOM     32  C   UNL     1      -2.616   5.597  -8.200  1.00  0.00     0.338 C 
ATOM     33  O   UNL     1      -2.617   4.626  -8.943  1.00  0.00    -0.246 OA
BRANCH  32  34
ATOM     34  C   UNL     1      -3.771   5.964  -7.327  1.00  0.00     0.060 A 
ATOM     35  C   UNL     1      -4.631   4.935  -6.903  1.00  0.00     0.016 A 
ATOM     36  C   UNL     1      -3.965   7.263  -6.849  1.00  0.00     0.016 A 
ATOM     37  C   UNL     1      -5.700   5.205  -6.043  1.00  0.00     0.010 A 
ATOM     38  C   UNL     1      -5.052   7.539  -6.008  1.00  0.00     0.010 A 
ATOM     39  C   UNL     1      -5.947   6.520  -5.633  1.00  0.00    -0.014 A 
BRANCH  39  40
ATOM     40  C   UNL     1      -7.283   6.885  -5.090  1.00  0.00     0.031 A 
ATOM     41  C   UNL     1      -8.317   7.346  -6.085  1.00  0.00     0.074 A 
ATOM     42  C   UNL     1      -7.588   6.817  -3.781  1.00  0.00     0.049 A 
ATOM     43  N   UNL     1      -9.517   7.825  -5.888  1.00  0.00    -0.248 NA
ATOM     44  C   UNL     1      -7.928   7.262  -7.503  1.00  0.00     0.031 C 
ATOM     45  C   UNL     1      -6.703   6.329  -2.726  1.00  0.00     0.029 A 
ATOM     46  N   UNL     1      -8.736   7.178  -3.117  1.00  0.00    -0.354 N 
ATOM     47  C   UNL     1     -10.020   8.109  -7.154  1.00  0.00     0.074 A 
ATOM     48  C   UNL     1      -8.982   7.782  -8.106  1.00  0.00     0.031 C 
ATOM     49  C   UNL     1      -7.336   6.440  -1.543  1.00  0.00     0.029 A 
ATOM     50  C   UNL     1      -8.653   7.043  -1.750  1.00  0.00     0.049 A 
ATOM     51  H   UNL     1      -9.544   7.503  -3.577  1.00  0.00     0.167 HD
ATOM     52  C   UNL     1     -11.238   8.595  -7.495  1.00  0.00     0.034 A 
ATOM     53  C   UNL     1      -9.526   7.398  -0.782  1.00  0.00     0.034 A 
ATOM     54  C   UNL     1     -12.256   8.940  -6.537  1.00  0.00     0.049 A 
ATOM     55  C   UNL     1     -10.842   8.036  -1.176  1.00  0.00     0.074 A 
ATOM     56  C   UNL     1     -13.522   9.445  -6.767  1.00  0.00     0.029 A 
ATOM     57  N   UNL     1     -12.116   8.829  -5.159  1.00  0.00    -0.354 N 
ATOM     58  N   UNL     1     -11.307   8.307  -2.376  1.00  0.00    -0.248 NA
ATOM     59  C   UNL     1     -11.752   8.415  -0.085  1.00  0.00     0.031 C 
ATOM     60  C   UNL     1     -14.120   9.708  -5.530  1.00  0.00     0.029 A 
ATOM     61  C   UNL     1     -13.261   9.288  -4.527  1.00  0.00     0.049 A 
ATOM     62  H   UNL     1     -11.320   8.477  -4.699  1.00  0.00     0.167 HD
ATOM     63  C   UNL     1     -12.575   8.853  -2.180  1.00  0.00     0.074 A 
ATOM     64  C   UNL     1     -12.805   8.866  -0.751  1.00  0.00     0.031 C 
ATOM     65  C   UNL     1     -13.473   9.297  -3.098  1.00  0.00     0.034 A 
BRANCH  52  66
ATOM     66  C   UNL     1     -11.491   8.839  -8.963  1.00  0.00     0.023 A 
ATOM     67  C   UNL     1     -11.499   7.789  -9.899  1.00  0.00     0.031 A 
ATOM     68  C   UNL     1     -11.665  10.150  -9.442  1.00  0.00     0.131 A 
ATOM     69  C   UNL     1     -11.596   8.075 -11.269  1.00  0.00     0.055 A 
ATOM     70  C   UNL     1     -11.847  10.419 -10.799  1.00  0.00     0.041 A 
ATOM     71  F   UNL     1     -11.637  11.195  -8.600  1.00  0.00    -0.206 F 
ATOM     72  C   UNL     1     -11.796   9.380 -11.724  1.00  0.00     0.022 A 
BRANCH  69  73
ATOM     73  S   UNL     1     -11.297   6.736 -12.457  1.00  0.00     0.124 S 
ATOM     74  O   UNL     1      -9.942   6.322 -12.100  1.00  0.00    -0.237 OA
ATOM     75  O   UNL     1     -12.359   5.789 -12.139  1.00  0.00    -0.237 OA
ATOM     76  O   UNL     1     -11.416   7.397 -13.755  1.00  0.00    -0.744 OA
ENDBRANCH  69  73
ENDBRANCH  52  66
BRANCH  53  77
ATOM     77  C   UNL     1      -9.182   7.219   0.662  1.00  0.00     0.023 A 
ATOM     78  C   UNL     1      -9.938   6.377   1.495  1.00  0.00     0.031 A 
ATOM     79  C   UNL     1      -8.132   7.949   1.247  1.00  0.00     0.131 A 
ATOM     80  C   UNL     1      -9.663   6.320   2.872  1.00  0.00     0.055 A 
ATOM     81  C   UNL     1      -7.827   7.848   2.606  1.00  0.00     0.041 A 
ATOM     82  F   UNL     1      -7.385   8.780   0.503  1.00  0.00    -0.206 F 
ATOM     83  C   UNL     1      -8.603   7.038   3.430  1.00  0.00     0.022 A 
BRANCH  80  84
ATOM     84  S   UNL     1     -10.768   5.360   3.946  1.00  0.00     0.124 S 
ATOM     85  O   UNL     1     -12.050   6.013   3.712  1.00  0.00    -0.237 OA
ATOM     86  O   UNL     1     -10.625   4.013   3.403  1.00  0.00    -0.237 OA
ATOM     87  O   UNL     1     -10.202   5.554   5.279  1.00  0.00    -0.744 OA
ENDBRANCH  80  84
ENDBRANCH  53  77
BRANCH  65  88
ATOM     88  C   UNL     1     -14.811   9.778  -2.587  1.00  0.00     0.023 A 
ATOM     89  C   UNL     1     -14.939  10.945  -1.814  1.00  0.00     0.031 A 
ATOM     90  C   UNL     1     -15.979   9.055  -2.890  1.00  0.00     0.131 A 
ATOM     91  C   UNL     1     -16.200  11.328  -1.331  1.00  0.00     0.055 A 
ATOM     92  C   UNL     1     -17.238   9.473  -2.457  1.00  0.00     0.041 A 
ATOM     93  F   UNL     1     -15.916   7.932  -3.624  1.00  0.00    -0.206 F 
ATOM     94  C   UNL     1     -17.352  10.609  -1.663  1.00  0.00     0.022 A 
BRANCH  91  95
ATOM     95  S   UNL     1     -16.310  12.735  -0.191  1.00  0.00     0.124 S 
ATOM     96  O   UNL     1     -15.443  12.308   0.902  1.00  0.00    -0.237 OA
ATOM     97  O   UNL     1     -15.812  13.838  -1.006  1.00  0.00    -0.237 OA
ATOM     98  O   UNL     1     -17.733  12.802   0.137  1.00  0.00    -0.744 OA
ENDBRANCH  91  95
ENDBRANCH  65  88
ENDBRANCH  39  40
ENDBRANCH  32  34
ENDBRANCH  31  32
ENDBRANCH  30  31
ENDBRANCH  29  30
ENDBRANCH  28  29
ENDBRANCH  27  28
ENDBRANCH   1  27
TORSDOF 25
