REMARK SMILES Cc1ccc(S(=O)(=O)Nc2cc3c(cc2C(=O)OCCOCCOCCOC(=O)c2ccc(-c4c5nc(c(-c6cc(S(=O)(=O)[O-])ccc6F)c6ccc([nH]6)c(-c6cc(S(=O)(=O)[O-])ccc6F)c6nc(c(-c7cc(S(=O)(=O)[O-])ccc7F)c7ccc4[nH]7)C=C6)C=C5)cc2)OCCO3)s1
REMARK SMILES IDX 22 1 21 2 20 3 19 4 18 5 16 6 17 7 15 8 10 9 11 10 12 11
REMARK SMILES IDX 14 12 13 13 96 14 93 15 95 16 94 17 9 18 6 20 7 21 8 22 5 23
REMARK SMILES IDX 1 24 2 25 3 26 97 27 4 28 23 29 24 30 25 31 26 32 27 33
REMARK SMILES IDX 28 34 29 35 30 36 31 37 92 38 32 39 91 40 33 41 34 42 35 43
REMARK SMILES IDX 85 44 36 45 90 46 84 47 86 48 37 49 89 50 83 51 82 52 38 54
REMARK SMILES IDX 70 55 50 56 69 57 51 58 54 59 68 60 87 61 52 62 53 63 67 65
REMARK SMILES IDX 88 66 55 67 39 68 40 69 48 70 41 71 47 72 49 73 46 74 42 75
REMARK SMILES IDX 43 76 44 77 45 78 71 79 72 80 80 81 73 82 79 83 81 84 78 85
REMARK SMILES IDX 74 86 75 87 76 88 77 89 56 90 57 91 65 92 58 93 64 94 66 95
REMARK SMILES IDX 63 96 59 97 60 98 61 99 62 100
REMARK H PARENT 9 19 86 53 54 64
REMARK Flexibility Score: inf
ROOT
ATOM      1  C   UNL     1      -1.124   1.193   2.911  1.00  0.00     0.188 C 
ENDROOT
BRANCH   1   2
ATOM      2  O   UNL     1      -0.978   0.976   4.311  1.00  0.00    -0.376 OA
BRANCH   2   3
ATOM      3  C   UNL     1      -0.522  -0.306   4.720  1.00  0.00     0.202 C 
BRANCH   3   4
ATOM      4  C   UNL     1      -1.567  -1.425   4.667  1.00  0.00     0.261 C 
BRANCH   4   5
ATOM      5  O   UNL     1      -1.862  -1.897   3.334  1.00  0.00    -0.460 OA
BRANCH   5   6
ATOM      6  C   UNL     1      -3.187  -1.916   3.029  1.00  0.00     0.340 C 
ATOM      7  O   UNL     1      -4.090  -1.438   3.699  1.00  0.00    -0.246 OA
BRANCH   6   8
ATOM      8  C   UNL     1      -3.479  -2.718   1.820  1.00  0.00     0.088 A 
ATOM      9  C   UNL     1      -4.412  -2.234   0.887  1.00  0.00     0.067 A 
ATOM     10  C   UNL     1      -4.995  -3.095  -0.045  1.00  0.00     0.078 A 
ATOM     11  C   UNL     1      -4.518  -4.395  -0.157  1.00  0.00     0.163 A 
ATOM     12  C   UNL     1      -3.003  -4.028   1.707  1.00  0.00     0.068 A 
ATOM     13  C   UNL     1      -3.482  -4.840   0.676  1.00  0.00     0.162 A 
ATOM     14  O   UNL     1      -5.043  -5.138  -1.179  1.00  0.00    -0.486 OA
ATOM     15  O   UNL     1      -2.888  -6.067   0.518  1.00  0.00    -0.486 OA
ATOM     16  C   UNL     1      -4.601  -6.497  -1.144  1.00  0.00     0.271 C 
ATOM     17  C   UNL     1      -3.122  -6.573  -0.805  1.00  0.00     0.271 C 
BRANCH   9  18
ATOM     18  N   UNL     1      -4.553  -0.822   0.699  1.00  0.00    -0.278 N 
ATOM     19  H   UNL     1      -5.049  -0.247   1.325  1.00  0.00     0.180 HD
BRANCH  18  20
ATOM     20  S   UNL     1      -3.782  -0.216  -0.711  1.00  0.00     0.271 S 
ATOM     21  O   UNL     1      -3.266   1.084  -0.371  1.00  0.00    -0.200 OA
ATOM     22  O   UNL     1      -4.715  -0.414  -1.805  1.00  0.00    -0.200 OA
BRANCH  20  23
ATOM     23  C   UNL     1      -2.379  -1.248  -1.156  1.00  0.00     0.140 A 
ATOM     24  C   UNL     1       1.476  -1.964  -1.362  1.00  0.00     0.056 C 
ATOM     25  C   UNL     1      -0.014  -1.976  -1.383  1.00  0.00     0.003 A 
ATOM     26  C   UNL     1      -0.887  -2.879  -1.948  1.00  0.00     0.016 A 
ATOM     27  S   UNL     1      -0.862  -0.713  -0.638  1.00  0.00    -0.127 S 
ATOM     28  C   UNL     1      -2.246  -2.432  -1.861  1.00  0.00     0.034 A 
ENDBRANCH  20  23
ENDBRANCH  18  20
ENDBRANCH   9  18
ENDBRANCH   6   8
ENDBRANCH   5   6
ENDBRANCH   4   5
ENDBRANCH   3   4
ENDBRANCH   2   3
ENDBRANCH   1   2
BRANCH   1  29
ATOM     29  C   UNL     1       0.082   0.838   2.043  1.00  0.00     0.188 C 
BRANCH  29  30
ATOM     30  O   UNL     1       1.294   1.514   2.383  1.00  0.00    -0.376 OA
BRANCH  30  31
ATOM     31  C   UNL     1       2.280   1.339   1.348  1.00  0.00     0.202 C 
BRANCH  31  32
ATOM     32  C   UNL     1       2.276   2.485   0.327  1.00  0.00     0.261 C 
BRANCH  32  33
ATOM     33  O   UNL     1       1.038   2.611  -0.398  1.00  0.00    -0.460 OA
BRANCH  33  34
ATOM     34  C   UNL     1       1.001   2.213  -1.694  1.00  0.00     0.338 C 
ATOM     35  O   UNL     1       1.874   1.608  -2.292  1.00  0.00    -0.246 OA
BRANCH  34  36
ATOM     36  C   UNL     1      -0.319   2.601  -2.262  1.00  0.00     0.060 A 
ATOM     37  C   UNL     1      -1.016   1.719  -3.096  1.00  0.00     0.016 A 
ATOM     38  C   UNL     1      -0.875   3.849  -1.958  1.00  0.00     0.016 A 
ATOM     39  C   UNL     1      -2.303   2.049  -3.549  1.00  0.00     0.010 A 
ATOM     40  C   UNL     1      -2.133   4.199  -2.459  1.00  0.00     0.010 A 
ATOM     41  C   UNL     1      -2.867   3.300  -3.248  1.00  0.00    -0.014 A 
BRANCH  41  42
ATOM     42  C   UNL     1      -4.145   3.751  -3.868  1.00  0.00     0.031 A 
ATOM     43  C   UNL     1      -4.144   4.146  -5.320  1.00  0.00     0.074 A 
ATOM     44  C   UNL     1      -5.274   3.882  -3.144  1.00  0.00     0.049 A 
ATOM     45  N   UNL     1      -5.104   4.662  -6.043  1.00  0.00    -0.248 NA
ATOM     46  C   UNL     1      -2.885   3.935  -6.051  1.00  0.00     0.031 C 
ATOM     47  C   UNL     1      -5.426   3.505  -1.741  1.00  0.00     0.029 A 
ATOM     48  N   UNL     1      -6.508   4.390  -3.485  1.00  0.00    -0.354 N 
ATOM     49  C   UNL     1      -4.575   4.818  -7.318  1.00  0.00     0.074 A 
ATOM     50  C   UNL     1      -3.204   4.356  -7.264  1.00  0.00     0.031 C 
ATOM     51  C   UNL     1      -6.673   3.805  -1.336  1.00  0.00     0.029 A 
ATOM     52  C   UNL     1      -7.397   4.444  -2.434  1.00  0.00     0.049 A 
ATOM     53  H   UNL     1      -6.733   4.687  -4.396  1.00  0.00     0.167 HD
ATOM     54  C   UNL     1      -5.165   5.316  -8.432  1.00  0.00     0.034 A 
ATOM     55  C   UNL     1      -8.633   4.984  -2.355  1.00  0.00     0.034 A 
ATOM     56  C   UNL     1      -6.492   5.874  -8.461  1.00  0.00     0.049 A 
ATOM     57  C   UNL     1      -9.215   5.669  -3.573  1.00  0.00     0.074 A 
ATOM     58  C   UNL     1      -7.163   6.451  -9.525  1.00  0.00     0.029 A 
ATOM     59  N   UNL     1      -7.339   5.963  -7.363  1.00  0.00    -0.354 N 
ATOM     60  N   UNL     1      -8.707   5.794  -4.778  1.00  0.00    -0.248 NA
ATOM     61  C   UNL     1     -10.534   6.301  -3.414  1.00  0.00     0.031 C 
ATOM     62  C   UNL     1      -8.379   6.958  -9.053  1.00  0.00     0.029 A 
ATOM     63  C   UNL     1      -8.506   6.624  -7.714  1.00  0.00     0.049 A 
ATOM     64  H   UNL     1      -7.139   5.609  -6.467  1.00  0.00     0.167 HD
ATOM     65  C   UNL     1      -9.656   6.494  -5.522  1.00  0.00     0.074 A 
ATOM     66  C   UNL     1     -10.773   6.750  -4.638  1.00  0.00     0.031 C 
ATOM     67  C   UNL     1      -9.610   6.887  -6.821  1.00  0.00     0.034 A 
BRANCH  54  68
ATOM     68  C   UNL     1      -4.319   5.356  -9.679  1.00  0.00     0.023 A 
ATOM     69  C   UNL     1      -3.878   4.174 -10.302  1.00  0.00     0.031 A 
ATOM     70  C   UNL     1      -3.881   6.584 -10.202  1.00  0.00     0.131 A 
ATOM     71  C   UNL     1      -2.963   4.245 -11.363  1.00  0.00     0.055 A 
ATOM     72  C   UNL     1      -3.032   6.650 -11.307  1.00  0.00     0.041 A 
ATOM     73  F   UNL     1      -4.247   7.741  -9.628  1.00  0.00    -0.206 F 
ATOM     74  C   UNL     1      -2.554   5.476 -11.884  1.00  0.00     0.022 A 
BRANCH  71  75
ATOM     75  S   UNL     1      -2.193   2.711 -11.949  1.00  0.00     0.124 S 
ATOM     76  O   UNL     1      -1.539   2.224 -10.736  1.00  0.00    -0.237 OA
ATOM     77  O   UNL     1      -3.340   1.937 -12.410  1.00  0.00    -0.237 OA
ATOM     78  O   UNL     1      -1.283   3.163 -12.999  1.00  0.00    -0.744 OA
ENDBRANCH  71  75
ENDBRANCH  54  68
BRANCH  55  79
ATOM     79  C   UNL     1      -9.396   4.982  -1.068  1.00  0.00     0.023 A 
ATOM     80  C   UNL     1     -10.645   4.345  -0.963  1.00  0.00     0.031 A 
ATOM     81  C   UNL     1      -8.934   5.703   0.048  1.00  0.00     0.131 A 
ATOM     82  C   UNL     1     -11.409   4.485   0.208  1.00  0.00     0.055 A 
ATOM     83  C   UNL     1      -9.671   5.790   1.231  1.00  0.00     0.041 A 
ATOM     84  F   UNL     1      -7.756   6.346   0.001  1.00  0.00    -0.206 F 
ATOM     85  C   UNL     1     -10.924   5.191   1.311  1.00  0.00     0.022 A 
BRANCH  82  86
ATOM     86  S   UNL     1     -13.096   3.815   0.236  1.00  0.00     0.124 S 
ATOM     87  O   UNL     1     -13.720   4.537  -0.867  1.00  0.00    -0.237 OA
ATOM     88  O   UNL     1     -12.863   2.391   0.020  1.00  0.00    -0.237 OA
ATOM     89  O   UNL     1     -13.583   4.169   1.568  1.00  0.00    -0.744 OA
ENDBRANCH  82  86
ENDBRANCH  55  79
BRANCH  67  90
ATOM     90  C   UNL     1     -10.820   7.601  -7.376  1.00  0.00     0.023 A 
ATOM     91  C   UNL     1     -11.190   8.887  -6.945  1.00  0.00     0.031 A 
ATOM     92  C   UNL     1     -11.609   6.983  -8.364  1.00  0.00     0.131 A 
ATOM     93  C   UNL     1     -12.340   9.498  -7.471  1.00  0.00     0.055 A 
ATOM     94  C   UNL     1     -12.719   7.617  -8.923  1.00  0.00     0.041 A 
ATOM     95  F   UNL     1     -11.305   5.754  -8.812  1.00  0.00    -0.206 F 
ATOM     96  C   UNL     1     -13.096   8.878  -8.470  1.00  0.00     0.022 A 
BRANCH  93  97
ATOM     97  S   UNL     1     -12.880  11.089  -6.786  1.00  0.00     0.124 S 
ATOM     98  O   UNL     1     -13.096  10.758  -5.381  1.00  0.00    -0.237 OA
ATOM     99  O   UNL     1     -11.741  11.955  -7.070  1.00  0.00    -0.237 OA
ATOM    100  O   UNL     1     -14.093  11.395  -7.544  1.00  0.00    -0.744 OA
ENDBRANCH  93  97
ENDBRANCH  67  90
ENDBRANCH  41  42
ENDBRANCH  34  36
ENDBRANCH  33  34
ENDBRANCH  32  33
ENDBRANCH  31  32
ENDBRANCH  30  31
ENDBRANCH  29  30
ENDBRANCH   1  29
TORSDOF 23
