REMARK SMILES Cc1cccc(NC(=O)C[C@H]([NH2+]C(C)C)C(=O)OCCOCCOCCOC(=O)c2ccc(-c3c4nc(c(-c5cc(S(=O)(=O)[O-])ccc5F)c5ccc([nH]5)c(-c5cc(S(=O)(=O)[O-])ccc5F)c5nc(c(-c6cc(S(=O)(=O)[O-])ccc6F)c6ccc3[nH]6)C=C5)C=C4)cc2)c1
REMARK SMILES IDX 22 1 21 2 20 3 19 4 18 5 16 6 17 7 11 8 10 9 8 10 7 11 9 13
REMARK SMILES IDX 6 14 1 15 2 16 3 17 93 18 4 19 5 20 12 21 13 24 14 25 15 26
REMARK SMILES IDX 23 27 24 28 25 29 26 30 27 31 28 32 29 33 30 34 31 35 92 36
REMARK SMILES IDX 32 37 91 38 33 39 34 40 35 41 85 42 36 43 90 44 84 45 86 46
REMARK SMILES IDX 37 47 89 48 83 49 82 50 38 52 70 53 50 54 69 55 51 56 54 57
REMARK SMILES IDX 68 58 87 59 52 60 53 61 67 63 88 64 55 65 39 66 40 67 48 68
REMARK SMILES IDX 41 69 47 70 49 71 46 72 42 73 43 74 44 75 45 76 71 77 72 78
REMARK SMILES IDX 80 79 73 80 79 81 81 82 78 83 74 84 75 85 76 86 77 87 56 88
REMARK SMILES IDX 57 89 65 90 58 91 64 92 66 93 63 94 59 95 60 96 61 97 62 98
REMARK H PARENT 7 12 12 22 12 23 86 51 54 62
REMARK Flexibility Score: inf
ROOT
ATOM      1  C   UNL     1      -8.099  -3.010  -0.753  1.00  0.00     0.188 C 
ENDROOT
BRANCH   1   2
ATOM      2  O   UNL     1      -6.851  -3.308  -0.090  1.00  0.00    -0.376 OA
BRANCH   2   3
ATOM      3  C   UNL     1      -6.357  -2.795   1.154  1.00  0.00     0.202 C 
BRANCH   3   4
ATOM      4  C   UNL     1      -5.010  -1.828   1.473  1.00  0.00     0.261 C 
BRANCH   4   5
ATOM      5  O   UNL     1      -4.546  -0.230   1.013  1.00  0.00    -0.459 OA
BRANCH   5   6
ATOM      6  C   UNL     1      -4.354   0.646  -0.138  1.00  0.00     0.365 C 
ATOM      7  O   UNL     1      -5.165   1.568  -0.352  1.00  0.00    -0.245 OA
BRANCH   6   8
ATOM      8  C   UNL     1      -2.986   0.832  -0.874  1.00  0.00     0.303 C 
BRANCH   8   9
ATOM      9  C   UNL     1      -2.324  -0.347  -2.067  1.00  0.00     0.177 C 
BRANCH   9  10
ATOM     10  C   UNL     1      -2.482  -2.166  -2.575  1.00  0.00     0.231 C 
ATOM     11  N   UNL     1      -2.666  -3.605  -1.746  1.00  0.00    -0.326 N 
ATOM     12  H   UNL     1      -2.695  -4.328  -2.413  1.00  0.00     0.169 HD
ATOM     13  O   UNL     1      -2.307  -2.238  -3.809  1.00  0.00    -0.274 OA
BRANCH  11  14
ATOM     14  C   UNL     1      -2.825  -4.325  -0.205  1.00  0.00     0.041 A 
ATOM     15  C   UNL     1      -5.087  -6.958   1.560  1.00  0.00     0.044 C 
ATOM     16  C   UNL     1      -4.062  -5.885   1.349  1.00  0.00    -0.049 A 
ATOM     17  C   UNL     1      -3.694  -5.210   2.512  1.00  0.00     0.003 A 
ATOM     18  C   UNL     1      -3.570  -5.498   0.023  1.00  0.00     0.029 A 
ATOM     19  C   UNL     1      -2.719  -4.290   2.377  1.00  0.00     0.002 A 
ATOM     20  C   UNL     1      -2.303  -3.965   1.068  1.00  0.00     0.026 A 
ENDBRANCH  11  14
ENDBRANCH   9  10
ENDBRANCH   8   9
BRANCH   8  21
ATOM     21  N   UNL     1      -2.198   1.826   0.125  1.00  0.00    -0.332 N 
ATOM     22  H   UNL     1      -1.734   2.545  -0.429  1.00  0.00     0.347 HD
ATOM     23  H   UNL     1      -1.529   1.265   0.653  1.00  0.00     0.347 HD
BRANCH  21  24
ATOM     24  C   UNL     1      -3.136   2.517   1.147  1.00  0.00     0.176 C 
ATOM     25  C   UNL     1      -2.571   2.903   2.517  1.00  0.00     0.075 C 
ATOM     26  C   UNL     1      -4.047   3.667   0.643  1.00  0.00     0.075 C 
ENDBRANCH  21  24
ENDBRANCH   8  21
ENDBRANCH   6   8
ENDBRANCH   5   6
ENDBRANCH   4   5
ENDBRANCH   3   4
ENDBRANCH   2   3
ENDBRANCH   1   2
BRANCH   1  27
ATOM     27  C   UNL     1      -9.349  -2.682   0.054  1.00  0.00     0.188 C 
BRANCH  27  28
ATOM     28  O   UNL     1      -8.983  -1.810   1.102  1.00  0.00    -0.376 OA
BRANCH  28  29
ATOM     29  C   UNL     1      -9.980  -1.372   1.987  1.00  0.00     0.202 C 
BRANCH  29  30
ATOM     30  C   UNL     1     -10.947  -0.351   1.370  1.00  0.00     0.261 C 
BRANCH  30  31
ATOM     31  O   UNL     1     -10.351   0.936   1.063  1.00  0.00    -0.460 OA
BRANCH  31  32
ATOM     32  C   UNL     1     -10.084   1.255  -0.268  1.00  0.00     0.338 C 
ATOM     33  O   UNL     1     -10.802   1.934  -0.928  1.00  0.00    -0.246 OA
BRANCH  32  34
ATOM     34  C   UNL     1      -8.687   0.837  -0.635  1.00  0.00     0.060 A 
ATOM     35  C   UNL     1      -8.127   0.614  -1.897  1.00  0.00     0.016 A 
ATOM     36  C   UNL     1      -7.882   0.590   0.420  1.00  0.00     0.016 A 
ATOM     37  C   UNL     1      -6.829  -0.035  -2.064  1.00  0.00     0.010 A 
ATOM     38  C   UNL     1      -6.801  -0.252   0.232  1.00  0.00     0.010 A 
ATOM     39  C   UNL     1      -6.122  -0.638  -0.984  1.00  0.00    -0.014 A 
BRANCH  39  40
ATOM     40  C   UNL     1      -4.612  -1.623  -1.084  1.00  0.00     0.031 A 
ATOM     41  C   UNL     1      -2.884  -1.609  -0.139  1.00  0.00     0.074 A 
ATOM     42  C   UNL     1      -5.117  -2.545  -1.996  1.00  0.00     0.049 A 
ATOM     43  N   UNL     1      -1.679  -1.997  -0.668  1.00  0.00    -0.248 NA
ATOM     44  C   UNL     1      -2.205  -0.963   1.131  1.00  0.00     0.031 C 
ATOM     45  C   UNL     1      -5.112  -4.000  -2.061  1.00  0.00     0.029 A 
ATOM     46  N   UNL     1      -5.648  -2.270  -3.270  1.00  0.00    -0.354 N 
ATOM     47  C   UNL     1      -0.488  -2.063   0.001  1.00  0.00     0.074 A 
ATOM     48  C   UNL     1      -0.854  -1.184   1.089  1.00  0.00     0.031 C 
ATOM     49  C   UNL     1      -5.106  -4.455  -3.317  1.00  0.00     0.029 A 
ATOM     50  C   UNL     1      -5.309  -3.311  -4.149  1.00  0.00     0.049 A 
ATOM     51  H   UNL     1      -6.174  -1.473  -3.508  1.00  0.00     0.167 HD
ATOM     52  C   UNL     1       0.412  -3.129  -0.254  1.00  0.00     0.034 A 
ATOM     53  C   UNL     1      -5.112  -3.219  -5.477  1.00  0.00     0.034 A 
ATOM     54  C   UNL     1       0.108  -4.027  -1.455  1.00  0.00     0.049 A 
ATOM     55  C   UNL     1      -3.759  -3.780  -5.872  1.00  0.00     0.074 A 
ATOM     56  C   UNL     1      -0.312  -5.366  -1.524  1.00  0.00     0.029 A 
ATOM     57  N   UNL     1       0.117  -3.616  -2.794  1.00  0.00    -0.354 N 
ATOM     58  N   UNL     1      -2.893  -4.379  -5.077  1.00  0.00    -0.248 NA
ATOM     59  C   UNL     1      -3.271  -3.672  -7.243  1.00  0.00     0.031 C 
ATOM     60  C   UNL     1      -0.632  -5.720  -2.859  1.00  0.00     0.029 A 
ATOM     61  C   UNL     1      -0.385  -4.620  -3.653  1.00  0.00     0.049 A 
ATOM     62  H   UNL     1       0.435  -2.736  -3.100  1.00  0.00     0.167 HD
ATOM     63  C   UNL     1      -1.662  -4.394  -5.729  1.00  0.00     0.074 A 
ATOM     64  C   UNL     1      -2.030  -4.164  -7.121  1.00  0.00     0.031 C 
ATOM     65  C   UNL     1      -0.425  -4.449  -5.112  1.00  0.00     0.034 A 
BRANCH  52  66
ATOM     66  C   UNL     1       1.312  -3.812   0.864  1.00  0.00     0.023 A 
ATOM     67  C   UNL     1       1.745  -5.173   0.720  1.00  0.00     0.031 A 
ATOM     68  C   UNL     1       1.650  -3.254   2.105  1.00  0.00     0.131 A 
ATOM     69  C   UNL     1       2.292  -5.935   1.779  1.00  0.00     0.055 A 
ATOM     70  C   UNL     1       2.251  -3.995   3.150  1.00  0.00     0.041 A 
ATOM     71  F   UNL     1       1.435  -1.963   2.374  1.00  0.00    -0.206 F 
ATOM     72  C   UNL     1       2.548  -5.345   3.004  1.00  0.00     0.022 A 
BRANCH  69  73
ATOM     73  S   UNL     1       2.619  -7.722   1.564  1.00  0.00     0.124 S 
ATOM     74  O   UNL     1       1.271  -8.282   1.534  1.00  0.00    -0.237 OA
ATOM     75  O   UNL     1       3.366  -7.769   0.313  1.00  0.00    -0.237 OA
ATOM     76  O   UNL     1       3.398  -8.070   2.754  1.00  0.00    -0.744 OA
ENDBRANCH  69  73
ENDBRANCH  52  66
BRANCH  53  77
ATOM     77  C   UNL     1      -5.950  -2.120  -6.048  1.00  0.00     0.023 A 
ATOM     78  C   UNL     1      -7.355  -2.336  -5.949  1.00  0.00     0.031 A 
ATOM     79  C   UNL     1      -5.509  -0.796  -6.151  1.00  0.00     0.131 A 
ATOM     80  C   UNL     1      -8.239  -1.261  -5.763  1.00  0.00     0.055 A 
ATOM     81  C   UNL     1      -6.408   0.280  -6.038  1.00  0.00     0.041 A 
ATOM     82  F   UNL     1      -4.200  -0.516  -6.217  1.00  0.00    -0.206 F 
ATOM     83  C   UNL     1      -7.769   0.052  -5.799  1.00  0.00     0.022 A 
BRANCH  80  84
ATOM     84  S   UNL     1      -9.940  -1.577  -5.173  1.00  0.00     0.124 S 
ATOM     85  O   UNL     1     -10.743  -1.232  -6.339  1.00  0.00    -0.237 OA
ATOM     86  O   UNL     1      -9.919  -2.991  -4.809  1.00  0.00    -0.237 OA
ATOM     87  O   UNL     1     -10.057  -0.673  -4.033  1.00  0.00    -0.744 OA
ENDBRANCH  80  84
ENDBRANCH  53  77
BRANCH  65  88
ATOM     88  C   UNL     1       0.928  -4.405  -5.831  1.00  0.00     0.023 A 
ATOM     89  C   UNL     1       1.116  -3.961  -7.147  1.00  0.00     0.031 A 
ATOM     90  C   UNL     1       2.115  -4.816  -5.168  1.00  0.00     0.131 A 
ATOM     91  C   UNL     1       2.371  -4.042  -7.783  1.00  0.00     0.055 A 
ATOM     92  C   UNL     1       3.381  -4.795  -5.765  1.00  0.00     0.041 A 
ATOM     93  F   UNL     1       2.108  -5.267  -3.905  1.00  0.00    -0.206 F 
ATOM     94  C   UNL     1       3.513  -4.429  -7.092  1.00  0.00     0.022 A 
BRANCH  91  95
ATOM     95  S   UNL     1       2.452  -3.718  -9.565  1.00  0.00     0.124 S 
ATOM     96  O   UNL     1       1.601  -4.777 -10.102  1.00  0.00    -0.237 OA
ATOM     97  O   UNL     1       1.916  -2.365  -9.666  1.00  0.00    -0.237 OA
ATOM     98  O   UNL     1       3.873  -3.849  -9.877  1.00  0.00    -0.744 OA
ENDBRANCH  91  95
ENDBRANCH  65  88
ENDBRANCH  39  40
ENDBRANCH  32  34
ENDBRANCH  31  32
ENDBRANCH  30  31
ENDBRANCH  29  30
ENDBRANCH  28  29
ENDBRANCH  27  28
ENDBRANCH   1  27
TORSDOF 25
