REMARK SMILES O=C(C[C@H](NC(=O)[C@]12C[C@H]3C[C@H](C[C@H](C3)C1)C2)c1cccc([N+](=O)[O-])c1)OCCOCCOCCOC(=O)c1ccc(-c2c3nc(c(-c4cc(S(=O)(=O)[O-])ccc4F)c4ccc([nH]4)c(-c4cc(S(=O)(=O)[O-])ccc4F)c4nc(c(-c5cc(S(=O)(=O)[O-])ccc5F)c5ccc2[nH]5)C=C4)C=C3)cc1
REMARK SMILES IDX 31 1 30 2 29 3 28 4 27 5 2 6 1 7 3 8 4 9 18 10 19 11 26 12
REMARK SMILES IDX 20 13 22 14 21 15 23 16 24 17 25 18 5 19 6 20 7 22 8 23 9 24
REMARK SMILES IDX 16 25 17 26 10 27 14 28 12 29 11 30 15 31 13 32 32 33 33 34
REMARK SMILES IDX 34 35 35 36 36 37 37 38 38 39 39 40 40 41 101 42 41 43
REMARK SMILES IDX 100 44 42 45 43 46 44 47 94 48 45 49 99 50 93 51 95 52 46 53
REMARK SMILES IDX 98 54 92 55 91 56 47 58 79 59 59 60 78 61 60 62 63 63 77 64
REMARK SMILES IDX 96 65 61 66 62 67 76 69 97 70 64 71 48 72 49 73 57 74 50 75
REMARK SMILES IDX 56 76 58 77 55 78 51 79 52 80 53 81 54 82 80 83 81 84 89 85
REMARK SMILES IDX 82 86 88 87 90 88 87 89 83 90 84 91 85 92 86 93 65 94 66 95
REMARK SMILES IDX 74 96 67 97 73 98 75 99 72 100 68 101 69 102 70 103 71 104
REMARK H PARENT 5 21 95 57 63 68
REMARK Flexibility Score: inf
ROOT
ATOM      1  C   UNL     1       5.149   1.529   1.657  1.00  0.00     0.188 C 
ENDROOT
BRANCH   1   2
ATOM      2  O   UNL     1       3.777   1.781   1.417  1.00  0.00    -0.376 OA
BRANCH   2   3
ATOM      3  C   UNL     1       2.961   0.772   0.835  1.00  0.00     0.202 C 
BRANCH   3   4
ATOM      4  C   UNL     1       3.198  -0.675   1.262  1.00  0.00     0.261 C 
BRANCH   4   5
ATOM      5  O   UNL     1       4.368  -1.422   0.802  1.00  0.00    -0.463 OA
BRANCH   5   6
ATOM      6  C   UNL     1       5.246  -1.310  -0.211  1.00  0.00     0.308 C 
ATOM      7  O   UNL     1       6.159  -2.128  -0.310  1.00  0.00    -0.252 OA
BRANCH   6   8
ATOM      8  C   UNL     1       5.103  -0.212  -1.217  1.00  0.00     0.152 C 
BRANCH   8   9
ATOM      9  C   UNL     1       4.160  -0.558  -2.368  1.00  0.00     0.123 C 
BRANCH   9  10
ATOM     10  C   UNL     1       4.931  -1.283  -3.455  1.00  0.00    -0.018 A 
ATOM     11  C   UNL     1       4.873  -2.669  -3.646  1.00  0.00     0.006 A 
ATOM     12  C   UNL     1       5.807  -0.524  -4.256  1.00  0.00     0.091 A 
ATOM     13  C   UNL     1       5.670  -3.286  -4.616  1.00  0.00     0.007 A 
ATOM     14  C   UNL     1       6.621  -1.149  -5.207  1.00  0.00     0.269 A 
ATOM     15  C   UNL     1       6.550  -2.531  -5.395  1.00  0.00     0.085 A 
BRANCH  14  16
ATOM     16  N   UNL     1       7.589  -0.347  -5.965  1.00  0.00     0.062 N 
ATOM     17  O   UNL     1       8.351  -0.950  -6.732  1.00  0.00    -0.258 OA
ATOM     18  O   UNL     1       7.599   0.874  -5.758  1.00  0.00    -0.258 OA
ENDBRANCH  14  16
ENDBRANCH   9  10
BRANCH   9  19
ATOM     19  N   UNL     1       2.952  -1.254  -1.933  1.00  0.00    -0.348 N 
ATOM     20  C   UNL     1       1.634  -1.102  -2.217  1.00  0.00     0.226 C 
ATOM     21  H   UNL     1       3.132  -1.987  -1.300  1.00  0.00     0.164 HD
ATOM     22  O   UNL     1       0.871  -1.814  -1.554  1.00  0.00    -0.274 OA
BRANCH  20  23
ATOM     23  C   UNL     1       1.097  -0.088  -3.239  1.00  0.00     0.050 C 
ATOM     24  C   UNL     1      -0.414  -0.390  -3.490  1.00  0.00     0.020 C 
ATOM     25  C   UNL     1       1.809  -0.204  -4.606  1.00  0.00     0.020 C 
ATOM     26  C   UNL     1       1.177   1.359  -2.700  1.00  0.00     0.020 C 
ATOM     27  C   UNL     1      -1.014   0.586  -4.516  1.00  0.00    -0.010 C 
ATOM     28  C   UNL     1       1.231   0.794  -5.615  1.00  0.00    -0.010 C 
ATOM     29  C   UNL     1       0.600   2.349  -3.729  1.00  0.00    -0.010 C 
ATOM     30  C   UNL     1      -0.880   2.021  -3.983  1.00  0.00     0.007 C 
ATOM     31  C   UNL     1      -0.248   0.467  -5.841  1.00  0.00     0.007 C 
ATOM     32  C   UNL     1       1.379   2.218  -5.049  1.00  0.00     0.007 C 
ENDBRANCH  20  23
ENDBRANCH   9  19
ENDBRANCH   8   9
ENDBRANCH   6   8
ENDBRANCH   5   6
ENDBRANCH   4   5
ENDBRANCH   3   4
ENDBRANCH   2   3
ENDBRANCH   1   2
BRANCH   1  33
ATOM     33  C   UNL     1       5.593   1.748   3.108  1.00  0.00     0.188 C 
BRANCH  33  34
ATOM     34  O   UNL     1       4.597   1.654   4.114  1.00  0.00    -0.376 OA
BRANCH  34  35
ATOM     35  C   UNL     1       3.514   2.585   4.061  1.00  0.00     0.202 C 
BRANCH  35  36
ATOM     36  C   UNL     1       3.829   4.078   3.870  1.00  0.00     0.261 C 
BRANCH  36  37
ATOM     37  O   UNL     1       4.349   4.424   2.567  1.00  0.00    -0.460 OA
BRANCH  37  38
ATOM     38  C   UNL     1       5.583   4.989   2.561  1.00  0.00     0.338 C 
ATOM     39  O   UNL     1       6.308   5.172   3.524  1.00  0.00    -0.246 OA
BRANCH  38  40
ATOM     40  C   UNL     1       6.022   5.282   1.183  1.00  0.00     0.060 A 
ATOM     41  C   UNL     1       7.155   4.631   0.672  1.00  0.00     0.016 A 
ATOM     42  C   UNL     1       5.424   6.321   0.471  1.00  0.00     0.016 A 
ATOM     43  C   UNL     1       7.712   5.040  -0.545  1.00  0.00     0.010 A 
ATOM     44  C   UNL     1       5.996   6.742  -0.734  1.00  0.00     0.010 A 
ATOM     45  C   UNL     1       7.162   6.129  -1.231  1.00  0.00    -0.014 A 
BRANCH  45  46
ATOM     46  C   UNL     1       7.889   6.781  -2.351  1.00  0.00     0.031 A 
ATOM     47  C   UNL     1       8.715   8.002  -2.051  1.00  0.00     0.074 A 
ATOM     48  C   UNL     1       7.766   6.349  -3.618  1.00  0.00     0.049 A 
ATOM     49  N   UNL     1       9.258   8.866  -2.869  1.00  0.00    -0.248 NA
ATOM     50  C   UNL     1       8.939   8.291  -0.628  1.00  0.00     0.031 C 
ATOM     51  C   UNL     1       7.046   5.148  -4.033  1.00  0.00     0.029 A 
ATOM     52  N   UNL     1       8.215   6.901  -4.793  1.00  0.00    -0.354 N 
ATOM     53  C   UNL     1       9.870   9.818  -2.060  1.00  0.00     0.074 A 
ATOM     54  C   UNL     1       9.607   9.432  -0.689  1.00  0.00     0.031 C 
ATOM     55  C   UNL     1       7.061   5.078  -5.376  1.00  0.00     0.029 A 
ATOM     56  C   UNL     1       7.742   6.257  -5.912  1.00  0.00     0.049 A 
ATOM     57  H   UNL     1       8.816   7.680  -4.830  1.00  0.00     0.167 HD
ATOM     58  C   UNL     1      10.580  10.914  -2.428  1.00  0.00     0.034 A 
ATOM     59  C   UNL     1       7.798   6.608  -7.214  1.00  0.00     0.034 A 
ATOM     60  C   UNL     1      10.813  11.294  -3.801  1.00  0.00     0.049 A 
ATOM     61  C   UNL     1       8.507   7.882  -7.609  1.00  0.00     0.074 A 
ATOM     62  C   UNL     1      11.537  12.368  -4.289  1.00  0.00     0.029 A 
ATOM     63  N   UNL     1      10.304  10.624  -4.908  1.00  0.00    -0.354 N 
ATOM     64  N   UNL     1       9.084   8.780  -6.843  1.00  0.00    -0.248 NA
ATOM     65  C   UNL     1       8.574   8.190  -9.045  1.00  0.00     0.031 C 
ATOM     66  C   UNL     1      11.399  12.393  -5.682  1.00  0.00     0.029 A 
ATOM     67  C   UNL     1      10.663  11.286  -6.073  1.00  0.00     0.049 A 
ATOM     68  H   UNL     1       9.767   9.800  -4.870  1.00  0.00     0.167 HD
ATOM     69  C   UNL     1       9.611   9.739  -7.706  1.00  0.00     0.074 A 
ATOM     70  C   UNL     1       9.278   9.314  -9.050  1.00  0.00     0.031 C 
ATOM     71  C   UNL     1      10.318  10.861  -7.412  1.00  0.00     0.034 A 
BRANCH  58  72
ATOM     72  C   UNL     1      11.081  11.812  -1.320  1.00  0.00     0.023 A 
ATOM     73  C   UNL     1      11.986  11.356  -0.345  1.00  0.00     0.031 A 
ATOM     74  C   UNL     1      10.591  13.125  -1.196  1.00  0.00     0.131 A 
ATOM     75  C   UNL     1      12.291  12.165   0.760  1.00  0.00     0.055 A 
ATOM     76  C   UNL     1      10.972  13.958  -0.143  1.00  0.00     0.041 A 
ATOM     77  F   UNL     1       9.707  13.611  -2.082  1.00  0.00    -0.206 F 
ATOM     78  C   UNL     1      11.809  13.472   0.856  1.00  0.00     0.022 A 
BRANCH  75  79
ATOM     79  S   UNL     1      13.166  11.416   2.163  1.00  0.00     0.124 S 
ATOM     80  O   UNL     1      12.310  10.271   2.469  1.00  0.00    -0.237 OA
ATOM     81  O   UNL     1      14.470  11.104   1.590  1.00  0.00    -0.237 OA
ATOM     82  O   UNL     1      13.162  12.473   3.173  1.00  0.00    -0.744 OA
ENDBRANCH  75  79
ENDBRANCH  58  72
BRANCH  59  83
ATOM     83  C   UNL     1       7.088   5.782  -8.233  1.00  0.00     0.023 A 
ATOM     84  C   UNL     1       7.785   5.067  -9.217  1.00  0.00     0.031 A 
ATOM     85  C   UNL     1       5.681   5.716  -8.238  1.00  0.00     0.131 A 
ATOM     86  C   UNL     1       7.074   4.337 -10.184  1.00  0.00     0.055 A 
ATOM     87  C   UNL     1       4.981   4.950  -9.171  1.00  0.00     0.041 A 
ATOM     88  F   UNL     1       4.966   6.383  -7.318  1.00  0.00    -0.206 F 
ATOM     89  C   UNL     1       5.679   4.260 -10.156  1.00  0.00     0.022 A 
BRANCH  86  90
ATOM     90  S   UNL     1       7.994   3.526 -11.522  1.00  0.00     0.124 S 
ATOM     91  O   UNL     1       8.594   4.669 -12.201  1.00  0.00    -0.237 OA
ATOM     92  O   UNL     1       8.911   2.663 -10.786  1.00  0.00    -0.237 OA
ATOM     93  O   UNL     1       6.953   2.828 -12.274  1.00  0.00    -0.744 OA
ENDBRANCH  86  90
ENDBRANCH  59  83
BRANCH  71  94
ATOM     94  C   UNL     1      10.841  11.683  -8.567  1.00  0.00     0.023 A 
ATOM     95  C   UNL     1       9.991  12.425  -9.405  1.00  0.00     0.031 A 
ATOM     96  C   UNL     1      12.226  11.745  -8.808  1.00  0.00     0.131 A 
ATOM     97  C   UNL     1      10.533  13.173 -10.464  1.00  0.00     0.055 A 
ATOM     98  C   UNL     1      12.763  12.530  -9.829  1.00  0.00     0.041 A 
ATOM     99  F   UNL     1      13.084  11.055  -8.040  1.00  0.00    -0.206 F 
ATOM    100  C   UNL     1      11.914  13.243 -10.670  1.00  0.00     0.022 A 
BRANCH  97 101
ATOM    101  S   UNL     1       9.408  14.012 -11.614  1.00  0.00     0.124 S 
ATOM    102  O   UNL     1       8.640  12.896 -12.157  1.00  0.00    -0.237 OA
ATOM    103  O   UNL     1       8.679  14.919 -10.734  1.00  0.00    -0.237 OA
ATOM    104  O   UNL     1      10.309  14.664 -12.563  1.00  0.00    -0.744 OA
ENDBRANCH  97 101
ENDBRANCH  71  94
ENDBRANCH  45  46
ENDBRANCH  38  40
ENDBRANCH  37  38
ENDBRANCH  36  37
ENDBRANCH  35  36
ENDBRANCH  34  35
ENDBRANCH  33  34
ENDBRANCH   1  33
TORSDOF 25
