REMARK SMILES CCCCS[C@@H]1CC[C@@]([NH2+]CC)(C(=O)OCCOCCOCCOC(=O)c2ccc(-c3c4nc(c(-c5cc(S(=O)(=O)[O-])ccc5F)c5ccc([nH]5)c(-c5cc(S(=O)(=O)[O-])ccc5F)c5nc(c(-c6cc(S(=O)(=O)[O-])ccc6F)c6ccc3[nH]6)C=C5)C=C4)cc2)C1
REMARK SMILES IDX 19 1 18 2 17 3 16 4 15 5 13 6 14 7 9 8 6 9 7 10 90 11 8 12
REMARK SMILES IDX 5 13 4 14 3 15 2 16 1 17 10 18 11 21 12 22 20 23 21 24 22 25
REMARK SMILES IDX 23 26 24 27 25 28 26 29 27 30 28 31 89 32 29 33 88 34 30 35
REMARK SMILES IDX 31 36 32 37 82 38 33 39 87 40 81 41 83 42 34 43 86 44 80 45
REMARK SMILES IDX 79 46 35 48 67 49 47 50 66 51 48 52 51 53 65 54 84 55 49 56
REMARK SMILES IDX 50 57 64 59 85 60 52 61 36 62 37 63 45 64 38 65 44 66 46 67
REMARK SMILES IDX 43 68 39 69 40 70 41 71 42 72 68 73 69 74 77 75 70 76 76 77
REMARK SMILES IDX 78 78 75 79 71 80 72 81 73 82 74 83 53 84 54 85 62 86 55 87
REMARK SMILES IDX 61 88 63 89 60 90 56 91 57 92 58 93 59 94
REMARK H PARENT 10 19 10 20 83 47 51 58
REMARK Flexibility Score: inf
ROOT
ATOM      1  C   UNL     1      -1.055   0.885   2.658  1.00  0.00     0.188 C 
ENDROOT
BRANCH   1   2
ATOM      2  O   UNL     1      -1.182   1.516   3.906  1.00  0.00    -0.376 OA
BRANCH   2   3
ATOM      3  C   UNL     1      -2.414   1.502   4.587  1.00  0.00     0.202 C 
BRANCH   3   4
ATOM      4  C   UNL     1      -3.789   1.440   3.899  1.00  0.00     0.261 C 
BRANCH   4   5
ATOM      5  O   UNL     1      -3.956   0.659   2.702  1.00  0.00    -0.459 OA
BRANCH   5   6
ATOM      6  C   UNL     1      -3.975   1.384   1.547  1.00  0.00     0.368 C 
ATOM      7  O   UNL     1      -3.707   2.585   1.524  1.00  0.00    -0.245 OA
BRANCH   6   8
ATOM      8  C   UNL     1      -4.428   0.597   0.267  1.00  0.00     0.195 C 
ATOM      9  C   UNL     1      -2.497  -0.048  -1.097  1.00  0.00     0.053 C 
ATOM     10  C   UNL     1      -3.284  -1.318  -0.826  1.00  0.00     0.022 C 
ATOM     11  C   UNL     1      -3.550   1.042  -0.946  1.00  0.00     0.095 C 
ATOM     12  C   UNL     1      -4.255  -0.948   0.296  1.00  0.00     0.082 C 
BRANCH   9  13
ATOM     13  S   UNL     1      -1.728  -0.199  -2.732  1.00  0.00    -0.158 SA
BRANCH  13  14
ATOM     14  C   UNL     1      -0.551   1.190  -2.755  1.00  0.00     0.070 C 
BRANCH  14  15
ATOM     15  C   UNL     1       0.108   1.690  -1.451  1.00  0.00     0.011 C 
BRANCH  15  16
ATOM     16  C   UNL     1       1.282   0.991  -0.304  1.00  0.00    -0.003 C 
ATOM     17  C   UNL     1       2.987  -0.344  -0.407  1.00  0.00     0.004 C 
ENDBRANCH  15  16
ENDBRANCH  14  15
ENDBRANCH  13  14
ENDBRANCH   9  13
BRANCH   8  18
ATOM     18  N   UNL     1      -5.881   0.825   0.032  1.00  0.00    -0.332 N 
ATOM     19  H   UNL     1      -6.392   0.215   0.670  1.00  0.00     0.347 HD
ATOM     20  H   UNL     1      -6.016   0.633  -0.960  1.00  0.00     0.347 HD
BRANCH  18  21
ATOM     21  C   UNL     1      -6.392   2.181   0.221  1.00  0.00     0.257 C 
ATOM     22  C   UNL     1      -5.853   3.223  -0.746  1.00  0.00     0.071 C 
ENDBRANCH  18  21
ENDBRANCH   8  18
ENDBRANCH   6   8
ENDBRANCH   5   6
ENDBRANCH   4   5
ENDBRANCH   3   4
ENDBRANCH   2   3
ENDBRANCH   1   2
BRANCH   1  23
ATOM     23  C   UNL     1      -1.379  -0.614   2.521  1.00  0.00     0.188 C 
BRANCH  23  24
ATOM     24  O   UNL     1      -1.793  -1.355   3.645  1.00  0.00    -0.376 OA
BRANCH  24  25
ATOM     25  C   UNL     1      -0.877  -1.557   4.708  1.00  0.00     0.202 C 
BRANCH  25  26
ATOM     26  C   UNL     1       0.651  -1.574   4.514  1.00  0.00     0.261 C 
BRANCH  26  27
ATOM     27  O   UNL     1       1.165  -0.719   3.483  1.00  0.00    -0.460 OA
BRANCH  27  28
ATOM     28  C   UNL     1       1.666  -1.375   2.408  1.00  0.00     0.338 C 
ATOM     29  O   UNL     1       1.903  -2.567   2.321  1.00  0.00    -0.246 OA
BRANCH  28  30
ATOM     30  C   UNL     1       1.711  -0.487   1.231  1.00  0.00     0.060 A 
ATOM     31  C   UNL     1       1.052  -1.091  -0.357  1.00  0.00     0.016 A 
ATOM     32  C   UNL     1       2.791   0.929   1.280  1.00  0.00     0.016 A 
ATOM     33  C   UNL     1       1.591  -0.298  -1.898  1.00  0.00     0.010 A 
ATOM     34  C   UNL     1       3.316   1.721  -0.247  1.00  0.00     0.010 A 
ATOM     35  C   UNL     1       2.708   1.151  -1.838  1.00  0.00    -0.014 A 
BRANCH  35  36
ATOM     36  C   UNL     1       3.275   1.892  -2.996  1.00  0.00     0.031 A 
ATOM     37  C   UNL     1       4.252   1.220  -3.907  1.00  0.00     0.074 A 
ATOM     38  C   UNL     1       3.087   3.231  -3.071  1.00  0.00     0.049 A 
ATOM     39  N   UNL     1       5.048   1.771  -4.786  1.00  0.00    -0.248 NA
ATOM     40  C   UNL     1       4.463  -0.221  -3.732  1.00  0.00     0.031 C 
ATOM     41  C   UNL     1       2.320   4.035  -2.119  1.00  0.00     0.029 A 
ATOM     42  N   UNL     1       3.511   4.174  -3.976  1.00  0.00    -0.354 N 
ATOM     43  C   UNL     1       5.886   0.753  -5.219  1.00  0.00     0.074 A 
ATOM     44  C   UNL     1       5.546  -0.426  -4.461  1.00  0.00     0.031 C 
ATOM     45  C   UNL     1       2.165   5.281  -2.575  1.00  0.00     0.029 A 
ATOM     46  C   UNL     1       2.999   5.439  -3.748  1.00  0.00     0.049 A 
ATOM     47  H   UNL     1       4.122   3.969  -4.720  1.00  0.00     0.167 HD
ATOM     48  C   UNL     1       6.848   0.795  -6.169  1.00  0.00     0.034 A 
ATOM     49  C   UNL     1       3.223   6.618  -4.361  1.00  0.00     0.034 A 
ATOM     50  C   UNL     1       7.206   1.997  -6.869  1.00  0.00     0.049 A 
ATOM     51  C   UNL     1       4.294   6.636  -5.416  1.00  0.00     0.074 A 
ATOM     52  C   UNL     1       8.167   2.173  -7.844  1.00  0.00     0.029 A 
ATOM     53  N   UNL     1       6.625   3.240  -6.644  1.00  0.00    -0.354 N 
ATOM     54  N   UNL     1       5.035   5.641  -5.845  1.00  0.00    -0.248 NA
ATOM     55  C   UNL     1       4.595   7.930  -6.036  1.00  0.00     0.031 C 
ATOM     56  C   UNL     1       8.219   3.534  -8.157  1.00  0.00     0.029 A 
ATOM     57  C   UNL     1       7.221   4.191  -7.452  1.00  0.00     0.049 A 
ATOM     58  H   UNL     1       5.897   3.417  -6.005  1.00  0.00     0.167 HD
ATOM     59  C   UNL     1       5.875   6.186  -6.806  1.00  0.00     0.074 A 
ATOM     60  C   UNL     1       5.536   7.592  -6.905  1.00  0.00     0.031 C 
ATOM     61  C   UNL     1       6.843   5.581  -7.536  1.00  0.00     0.034 A 
BRANCH  48  62
ATOM     62  C   UNL     1       7.584  -0.493  -6.439  1.00  0.00     0.023 A 
ATOM     63  C   UNL     1       6.896  -1.639  -6.880  1.00  0.00     0.031 A 
ATOM     64  C   UNL     1       8.952  -0.616  -6.151  1.00  0.00     0.131 A 
ATOM     65  C   UNL     1       7.549  -2.878  -6.907  1.00  0.00     0.055 A 
ATOM     66  C   UNL     1       9.622  -1.834  -6.283  1.00  0.00     0.041 A 
ATOM     67  F   UNL     1       9.653   0.434  -5.694  1.00  0.00    -0.206 F 
ATOM     68  C   UNL     1       8.915  -2.979  -6.642  1.00  0.00     0.022 A 
BRANCH  65  69
ATOM     69  S   UNL     1       6.541  -4.373  -7.099  1.00  0.00     0.124 S 
ATOM     70  O   UNL     1       5.691  -4.307  -5.912  1.00  0.00    -0.237 OA
ATOM     71  O   UNL     1       5.873  -4.144  -8.375  1.00  0.00    -0.237 OA
ATOM     72  O   UNL     1       7.526  -5.453  -7.094  1.00  0.00    -0.744 OA
ENDBRANCH  65  69
ENDBRANCH  48  62
BRANCH  49  73
ATOM     73  C   UNL     1       2.490   7.868  -3.979  1.00  0.00     0.023 A 
ATOM     74  C   UNL     1       1.739   8.567  -4.940  1.00  0.00     0.031 A 
ATOM     75  C   UNL     1       2.561   8.423  -2.687  1.00  0.00     0.131 A 
ATOM     76  C   UNL     1       1.145   9.799  -4.616  1.00  0.00     0.055 A 
ATOM     77  C   UNL     1       1.895   9.604  -2.346  1.00  0.00     0.041 A 
ATOM     78  F   UNL     1       3.275   7.821  -1.723  1.00  0.00    -0.206 F 
ATOM     79  C   UNL     1       1.198  10.310  -3.319  1.00  0.00     0.022 A 
BRANCH  76  80
ATOM     80  S   UNL     1       0.426  10.793  -5.953  1.00  0.00     0.124 S 
ATOM     81  O   UNL     1       1.557  10.919  -6.865  1.00  0.00    -0.237 OA
ATOM     82  O   UNL     1      -0.673   9.946  -6.404  1.00  0.00    -0.237 OA
ATOM     83  O   UNL     1       0.026  12.027  -5.281  1.00  0.00    -0.744 OA
ENDBRANCH  76  80
ENDBRANCH  49  73
BRANCH  61  84
ATOM     84  C   UNL     1       7.538   6.420  -8.570  1.00  0.00     0.023 A 
ATOM     85  C   UNL     1       8.407   7.465  -8.223  1.00  0.00     0.031 A 
ATOM     86  C   UNL     1       7.348   6.127  -9.932  1.00  0.00     0.131 A 
ATOM     87  C   UNL     1       9.032   8.206  -9.234  1.00  0.00     0.055 A 
ATOM     88  C   UNL     1       8.025   6.822 -10.930  1.00  0.00     0.041 A 
ATOM     89  F   UNL     1       6.518   5.141 -10.310  1.00  0.00    -0.206 F 
ATOM     90  C   UNL     1       8.868   7.874 -10.582  1.00  0.00     0.022 A 
BRANCH  87  91
ATOM     91  S   UNL     1      10.011   9.658  -8.768  1.00  0.00     0.124 S 
ATOM     92  O   UNL     1       9.017  10.493  -8.102  1.00  0.00    -0.237 OA
ATOM     93  O   UNL     1      11.039   9.081  -7.907  1.00  0.00    -0.237 OA
ATOM     94  O   UNL     1      10.494  10.170 -10.050  1.00  0.00    -0.744 OA
ENDBRANCH  87  91
ENDBRANCH  61  84
ENDBRANCH  35  36
ENDBRANCH  28  30
ENDBRANCH  27  28
ENDBRANCH  26  27
ENDBRANCH  25  26
ENDBRANCH  24  25
ENDBRANCH  23  24
ENDBRANCH   1  23
TORSDOF 26
