REMARK SMILES C[C@H](NC(=O)N[C@H]1CCCC1(C)C)c1nc(C(=O)OCCOCCOCCOC(=O)c2ccc(-c3c4nc(c(-c5cc(S(=O)(=O)[O-])ccc5F)c5ccc([nH]5)c(-c5cc(S(=O)(=O)[O-])ccc5F)c5nc(c(-c6cc(S(=O)(=O)[O-])ccc6F)c6ccc3[nH]6)C=C5)C=C4)cc2)cs1
REMARK SMILES IDX 23 1 22 2 21 3 20 4 19 5 17 6 18 7 16 8 14 9 15 10 95 11
REMARK SMILES IDX 94 12 2 13 1 14 3 15 4 16 5 18 6 19 7 21 8 22 11 23 9 24
REMARK SMILES IDX 10 25 12 26 13 27 24 28 25 29 26 30 27 31 28 32 29 33 30 34
REMARK SMILES IDX 31 35 32 36 93 37 33 38 92 39 34 40 35 41 36 42 86 43 37 44
REMARK SMILES IDX 91 45 85 46 87 47 38 48 90 49 84 50 83 51 39 53 71 54 51 55
REMARK SMILES IDX 70 56 52 57 55 58 69 59 88 60 53 61 54 62 68 64 89 65 56 66
REMARK SMILES IDX 40 67 41 68 49 69 42 70 48 71 50 72 47 73 43 74 44 75 45 76
REMARK SMILES IDX 46 77 72 78 73 79 81 80 74 81 80 82 82 83 79 84 75 85 76 86
REMARK SMILES IDX 77 87 78 88 57 89 58 90 66 91 59 92 65 93 67 94 64 95 60 96
REMARK SMILES IDX 61 97 62 98 63 99
REMARK H PARENT 3 17 6 20 87 52 55 63
REMARK Flexibility Score: inf
ROOT
ATOM      1  C   UNL     1      -5.553   2.163  -2.792  1.00  0.00     0.188 C 
ENDROOT
BRANCH   1   2
ATOM      2  O   UNL     1      -6.458   3.137  -2.284  1.00  0.00    -0.376 OA
BRANCH   2   3
ATOM      3  C   UNL     1      -5.987   4.365  -1.756  1.00  0.00     0.202 C 
BRANCH   3   4
ATOM      4  C   UNL     1      -5.117   4.333  -0.493  1.00  0.00     0.261 C 
BRANCH   4   5
ATOM      5  O   UNL     1      -4.015   3.414  -0.532  1.00  0.00    -0.458 OA
BRANCH   5   6
ATOM      6  C   UNL     1      -4.211   2.246   0.151  1.00  0.00     0.357 C 
ATOM      7  O   UNL     1      -5.218   1.988   0.804  1.00  0.00    -0.244 OA
BRANCH   6   8
ATOM      8  C   UNL     1      -3.145   1.261  -0.061  1.00  0.00     0.159 A 
ATOM      9  C   UNL     1      -1.051   0.476  -0.193  1.00  0.00     0.116 A 
ATOM     10  N   UNL     1      -1.785   1.580  -0.136  1.00  0.00    -0.232 NA
ATOM     11  S   UNL     1      -1.968  -0.977  -0.350  1.00  0.00    -0.124 S 
ATOM     12  C   UNL     1      -3.414  -0.089  -0.184  1.00  0.00     0.102 A 
BRANCH   9  13
ATOM     13  C   UNL     1       0.449   0.471   0.046  1.00  0.00     0.140 C 
ATOM     14  C   UNL     1       1.313   1.203  -0.956  1.00  0.00     0.039 C 
BRANCH  13  15
ATOM     15  N   UNL     1       1.002  -0.791   0.517  1.00  0.00    -0.329 N 
ATOM     16  C   UNL     1       1.348  -1.998   0.128  1.00  0.00     0.315 C 
ATOM     17  H   UNL     1       1.184  -0.711   1.482  1.00  0.00     0.166 HD
ATOM     18  O   UNL     1       1.706  -2.742   1.055  1.00  0.00    -0.249 OA
ATOM     19  N   UNL     1       1.363  -2.566  -1.056  1.00  0.00    -0.335 N 
ATOM     20  H   UNL     1       1.506  -3.523  -0.877  1.00  0.00     0.165 HD
BRANCH  19  21
ATOM     21  C   UNL     1       1.270  -2.463  -2.521  1.00  0.00     0.089 C 
ATOM     22  C   UNL     1       0.499  -1.325  -3.188  1.00  0.00     0.025 C 
ATOM     23  C   UNL     1       2.651  -2.522  -3.248  1.00  0.00    -0.015 C 
ATOM     24  C   UNL     1       1.498  -0.574  -4.077  1.00  0.00     0.003 C 
ATOM     25  C   UNL     1       2.878  -1.060  -3.651  1.00  0.00     0.008 C 
ATOM     26  C   UNL     1       3.819  -3.048  -2.404  1.00  0.00     0.013 C 
ATOM     27  C   UNL     1       2.547  -3.411  -4.509  1.00  0.00     0.013 C 
ENDBRANCH  19  21
ENDBRANCH  13  15
ENDBRANCH   9  13
ENDBRANCH   6   8
ENDBRANCH   5   6
ENDBRANCH   4   5
ENDBRANCH   3   4
ENDBRANCH   2   3
ENDBRANCH   1   2
BRANCH   1  28
ATOM     28  C   UNL     1      -4.224   2.574  -3.461  1.00  0.00     0.188 C 
BRANCH  28  29
ATOM     29  O   UNL     1      -4.148   3.950  -3.788  1.00  0.00    -0.376 OA
BRANCH  29  30
ATOM     30  C   UNL     1      -4.171   4.282  -5.167  1.00  0.00     0.202 C 
BRANCH  30  31
ATOM     31  C   UNL     1      -5.479   4.014  -5.925  1.00  0.00     0.261 C 
BRANCH  31  32
ATOM     32  O   UNL     1      -6.037   2.699  -5.785  1.00  0.00    -0.460 OA
BRANCH  32  33
ATOM     33  C   UNL     1      -5.438   1.697  -6.466  1.00  0.00     0.338 C 
ATOM     34  O   UNL     1      -4.432   1.781  -7.147  1.00  0.00    -0.246 OA
BRANCH  33  35
ATOM     35  C   UNL     1      -6.129   0.434  -6.115  1.00  0.00     0.060 A 
ATOM     36  C   UNL     1      -5.400  -0.597  -5.513  1.00  0.00     0.016 A 
ATOM     37  C   UNL     1      -7.494   0.273  -6.374  1.00  0.00     0.016 A 
ATOM     38  C   UNL     1      -6.031  -1.803  -5.190  1.00  0.00     0.010 A 
ATOM     39  C   UNL     1      -8.120  -0.939  -6.063  1.00  0.00     0.010 A 
ATOM     40  C   UNL     1      -7.388  -1.994  -5.490  1.00  0.00    -0.014 A 
BRANCH  40  41
ATOM     41  C   UNL     1      -8.003  -3.342  -5.356  1.00  0.00     0.031 A 
ATOM     42  C   UNL     1      -8.096  -4.217  -6.578  1.00  0.00     0.074 A 
ATOM     43  C   UNL     1      -8.465  -3.789  -4.173  1.00  0.00     0.049 A 
ATOM     44  N   UNL     1      -8.632  -5.402  -6.716  1.00  0.00    -0.248 NA
ATOM     45  C   UNL     1      -7.503  -3.675  -7.811  1.00  0.00     0.031 C 
ATOM     46  C   UNL     1      -8.402  -3.055  -2.910  1.00  0.00     0.029 A 
ATOM     47  N   UNL     1      -9.090  -4.968  -3.845  1.00  0.00    -0.354 N 
ATOM     48  C   UNL     1      -8.440  -5.752  -8.049  1.00  0.00     0.074 A 
ATOM     49  C   UNL     1      -7.771  -4.635  -8.683  1.00  0.00     0.031 C 
ATOM     50  C   UNL     1      -8.976  -3.797  -1.946  1.00  0.00     0.029 A 
ATOM     51  C   UNL     1      -9.481  -5.040  -2.527  1.00  0.00     0.049 A 
ATOM     52  H   UNL     1      -9.243  -5.694  -4.492  1.00  0.00     0.167 HD
ATOM     53  C   UNL     1      -8.780  -6.900  -8.684  1.00  0.00     0.034 A 
ATOM     54  C   UNL     1     -10.189  -5.987  -1.875  1.00  0.00     0.034 A 
ATOM     55  C   UNL     1      -9.468  -7.998  -8.050  1.00  0.00     0.049 A 
ATOM     56  C   UNL     1     -10.646  -7.216  -2.629  1.00  0.00     0.074 A 
ATOM     57  C   UNL     1      -9.853  -9.208  -8.602  1.00  0.00     0.029 A 
ATOM     58  N   UNL     1      -9.888  -8.016  -6.727  1.00  0.00    -0.354 N 
ATOM     59  N   UNL     1     -10.444  -7.540  -3.886  1.00  0.00    -0.248 NA
ATOM     60  C   UNL     1     -11.422  -8.210  -1.872  1.00  0.00     0.031 C 
ATOM     61  C   UNL     1     -10.566  -9.925  -7.635  1.00  0.00     0.029 A 
ATOM     62  C   UNL     1     -10.558  -9.199  -6.455  1.00  0.00     0.049 A 
ATOM     63  H   UNL     1      -9.733  -7.293  -6.077  1.00  0.00     0.167 HD
ATOM     64  C   UNL     1     -11.040  -8.789  -4.057  1.00  0.00     0.074 A 
ATOM     65  C   UNL     1     -11.595  -9.164  -2.774  1.00  0.00     0.031 C 
ATOM     66  C   UNL     1     -11.115  -9.560  -5.173  1.00  0.00     0.034 A 
BRANCH  53  67
ATOM     67  C   UNL     1      -8.455  -6.998 -10.155  1.00  0.00     0.023 A 
ATOM     68  C   UNL     1      -7.128  -7.012 -10.618  1.00  0.00     0.031 A 
ATOM     69  C   UNL     1      -9.487  -7.051 -11.108  1.00  0.00     0.131 A 
ATOM     70  C   UNL     1      -6.868  -7.011 -11.997  1.00  0.00     0.055 A 
ATOM     71  C   UNL     1      -9.222  -7.126 -12.476  1.00  0.00     0.041 A 
ATOM     72  F   UNL     1     -10.773  -7.016 -10.725  1.00  0.00    -0.206 F 
ATOM     73  C   UNL     1      -7.906  -7.093 -12.929  1.00  0.00     0.022 A 
BRANCH  70  74
ATOM     74  S   UNL     1      -5.161  -6.767 -12.558  1.00  0.00     0.124 S 
ATOM     75  O   UNL     1      -4.840  -5.468 -11.972  1.00  0.00    -0.237 OA
ATOM     76  O   UNL     1      -4.471  -7.916 -11.982  1.00  0.00    -0.237 OA
ATOM     77  O   UNL     1      -5.274  -6.774 -14.015  1.00  0.00    -0.744 OA
ENDBRANCH  70  74
ENDBRANCH  53  67
BRANCH  54  78
ATOM     78  C   UNL     1     -10.565  -5.805  -0.441  1.00  0.00     0.023 A 
ATOM     79  C   UNL     1     -10.117  -6.695   0.548  1.00  0.00     0.031 A 
ATOM     80  C   UNL     1     -11.449  -4.782  -0.053  1.00  0.00     0.131 A 
ATOM     81  C   UNL     1     -10.593  -6.578   1.864  1.00  0.00     0.055 A 
ATOM     82  C   UNL     1     -11.876  -4.635   1.268  1.00  0.00     0.041 A 
ATOM     83  F   UNL     1     -11.916  -3.908  -0.960  1.00  0.00    -0.206 F 
ATOM     84  C   UNL     1     -11.459  -5.546   2.233  1.00  0.00     0.022 A 
BRANCH  81  85
ATOM     85  S   UNL     1     -10.145  -7.859   3.069  1.00  0.00     0.124 S 
ATOM     86  O   UNL     1     -10.649  -9.064   2.421  1.00  0.00    -0.237 OA
ATOM     87  O   UNL     1      -8.694  -7.722   3.130  1.00  0.00    -0.237 OA
ATOM     88  O   UNL     1     -10.859  -7.454   4.278  1.00  0.00    -0.744 OA
ENDBRANCH  81  85
ENDBRANCH  54  78
BRANCH  66  89
ATOM     89  C   UNL     1     -11.780 -10.909  -5.037  1.00  0.00     0.023 A 
ATOM     90  C   UNL     1     -13.156 -11.037  -4.777  1.00  0.00     0.031 A 
ATOM     91  C   UNL     1     -11.020 -12.086  -5.166  1.00  0.00     0.131 A 
ATOM     92  C   UNL     1     -13.719 -12.312  -4.602  1.00  0.00     0.055 A 
ATOM     93  C   UNL     1     -11.597 -13.351  -5.049  1.00  0.00     0.041 A 
ATOM     94  F   UNL     1      -9.702 -12.024  -5.414  1.00  0.00    -0.206 F 
ATOM     95  C   UNL     1     -12.951 -13.469  -4.753  1.00  0.00     0.022 A 
BRANCH  92  96
ATOM     96  S   UNL     1     -15.455 -12.437  -4.090  1.00  0.00     0.124 S 
ATOM     97  O   UNL     1     -15.455 -11.696  -2.832  1.00  0.00    -0.237 OA
ATOM     98  O   UNL     1     -16.155 -11.804  -5.203  1.00  0.00    -0.237 OA
ATOM     99  O   UNL     1     -15.672 -13.877  -3.961  1.00  0.00    -0.744 OA
ENDBRANCH  92  96
ENDBRANCH  66  89
ENDBRANCH  40  41
ENDBRANCH  33  35
ENDBRANCH  32  33
ENDBRANCH  31  32
ENDBRANCH  30  31
ENDBRANCH  29  30
ENDBRANCH  28  29
ENDBRANCH   1  28
TORSDOF 23
