REMARK SMILES O=C(OCCOCCOCCOC(=O)c1sccc1S(=O)(=O)Nc1ccc(Cn2cncn2)cc1)c1ccc(-c2c3nc(c(-c4cc(S(=O)(=O)[O-])ccc4F)c4ccc([nH]4)c(-c4cc(S(=O)(=O)[O-])ccc4F)c4nc(c(-c5cc(S(=O)(=O)[O-])ccc5F)c5ccc2[nH]5)C=C4)C=C3)cc1
REMARK SMILES IDX 8 1 7 2 6 3 5 4 4 5 3 6 2 7 1 8 36 9 37 10 98 11 38 12 97 13
REMARK SMILES IDX 39 14 40 15 41 16 91 17 42 18 96 19 90 20 92 21 43 22 95 23
REMARK SMILES IDX 89 24 88 25 44 27 76 28 56 29 75 30 57 31 60 32 74 33 93 34
REMARK SMILES IDX 58 35 59 36 73 38 94 39 61 40 45 41 46 42 54 43 47 44 53 45
REMARK SMILES IDX 55 46 52 47 48 48 49 49 50 50 51 51 77 52 78 53 86 54 79 55
REMARK SMILES IDX 85 56 87 57 84 58 80 59 81 60 82 61 83 62 62 63 63 64 71 65
REMARK SMILES IDX 64 66 70 67 72 68 69 69 65 70 66 71 67 72 68 73 9 74 10 75
REMARK SMILES IDX 11 76 12 77 13 78 14 79 15 80 16 81 19 82 17 83 18 84 20 85
REMARK SMILES IDX 21 86 22 87 23 88 24 90 25 91 35 92 26 93 34 94 27 95 28 96
REMARK SMILES IDX 29 97 30 98 33 99 31 100 32 101
REMARK H PARENT 92 26 60 37 23 89
REMARK Flexibility Score: inf
ROOT
ATOM      1  C   UNL     1       3.315   1.339  -0.164  1.00  0.00     0.188 C 
ENDROOT
BRANCH   1   2
ATOM      2  C   UNL     1       3.805   0.320   0.941  1.00  0.00     0.188 C 
BRANCH   2   3
ATOM      3  O   UNL     1       5.039  -0.336   0.767  1.00  0.00    -0.376 OA
BRANCH   3   4
ATOM      4  C   UNL     1       5.637  -0.270  -0.513  1.00  0.00     0.202 C 
BRANCH   4   5
ATOM      5  C   UNL     1       4.965  -1.053  -1.658  1.00  0.00     0.261 C 
BRANCH   5   6
ATOM      6  O   UNL     1       3.563  -0.824  -1.920  1.00  0.00    -0.460 OA
BRANCH   6   7
ATOM      7  C   UNL     1       2.436  -1.276  -1.322  1.00  0.00     0.338 C 
ATOM      8  O   UNL     1       1.342  -0.858  -1.704  1.00  0.00    -0.246 OA
BRANCH   7   9
ATOM      9  C   UNL     1       2.448  -2.156  -0.146  1.00  0.00     0.060 A 
ATOM     10  C   UNL     1       3.576  -2.840   0.294  1.00  0.00     0.016 A 
ATOM     11  C   UNL     1       1.215  -2.337   0.507  1.00  0.00     0.016 A 
ATOM     12  C   UNL     1       3.404  -4.007   0.952  1.00  0.00     0.010 A 
ATOM     13  C   UNL     1       1.039  -3.466   1.244  1.00  0.00     0.010 A 
ATOM     14  C   UNL     1       2.100  -4.352   1.252  1.00  0.00    -0.014 A 
BRANCH  14  15
ATOM     15  C   UNL     1       1.872  -5.698   1.662  1.00  0.00     0.031 A 
ATOM     16  C   UNL     1       2.522  -5.882   2.983  1.00  0.00     0.074 A 
ATOM     17  C   UNL     1       1.172  -6.466   0.799  1.00  0.00     0.049 A 
ATOM     18  N   UNL     1       3.607  -6.540   3.221  1.00  0.00    -0.248 NA
ATOM     19  C   UNL     1       2.195  -4.925   4.069  1.00  0.00     0.031 C 
ATOM     20  C   UNL     1       0.524  -6.108  -0.477  1.00  0.00     0.029 A 
ATOM     21  N   UNL     1       0.787  -7.754   0.943  1.00  0.00    -0.354 N 
ATOM     22  C   UNL     1       3.823  -6.394   4.585  1.00  0.00     0.074 A 
ATOM     23  C   UNL     1       3.149  -5.191   4.963  1.00  0.00     0.031 C 
ATOM     24  C   UNL     1      -0.407  -7.040  -0.797  1.00  0.00     0.029 A 
ATOM     25  C   UNL     1      -0.315  -8.129   0.153  1.00  0.00     0.049 A 
ATOM     26  H   UNL     1       1.242  -8.379   1.552  1.00  0.00     0.167 HD
ATOM     27  C   UNL     1       4.152  -7.497   5.307  1.00  0.00     0.034 A 
ATOM     28  C   UNL     1      -1.086  -9.226   0.423  1.00  0.00     0.034 A 
ATOM     29  C   UNL     1       4.755  -8.487   4.434  1.00  0.00     0.049 A 
ATOM     30  C   UNL     1      -0.207 -10.082   1.299  1.00  0.00     0.074 A 
ATOM     31  C   UNL     1       5.886  -8.486   3.641  1.00  0.00     0.029 A 
ATOM     32  N   UNL     1       3.918  -9.449   3.903  1.00  0.00    -0.354 N 
ATOM     33  N   UNL     1       0.936 -10.568   0.865  1.00  0.00    -0.248 NA
ATOM     34  C   UNL     1      -0.257  -9.816   2.739  1.00  0.00     0.031 C 
ATOM     35  C   UNL     1       5.466  -9.068   2.407  1.00  0.00     0.029 A 
ATOM     36  C   UNL     1       4.160  -9.545   2.549  1.00  0.00     0.049 A 
ATOM     37  H   UNL     1       3.259  -9.979   4.407  1.00  0.00     0.167 HD
ATOM     38  C   UNL     1       1.864 -10.274   1.863  1.00  0.00     0.074 A 
ATOM     39  C   UNL     1       1.057  -9.825   3.007  1.00  0.00     0.031 C 
ATOM     40  C   UNL     1       3.191 -10.059   1.588  1.00  0.00     0.034 A 
BRANCH  27  41
ATOM     41  C   UNL     1       3.463  -7.867   6.602  1.00  0.00     0.023 A 
ATOM     42  C   UNL     1       3.834  -9.099   7.163  1.00  0.00     0.031 A 
ATOM     43  C   UNL     1       2.284  -7.283   7.128  1.00  0.00     0.131 A 
ATOM     44  C   UNL     1       2.996  -9.755   8.077  1.00  0.00     0.055 A 
ATOM     45  C   UNL     1       1.482  -7.914   8.081  1.00  0.00     0.041 A 
ATOM     46  F   UNL     1       1.786  -6.116   6.704  1.00  0.00    -0.206 F 
ATOM     47  C   UNL     1       1.817  -9.175   8.537  1.00  0.00     0.022 A 
BRANCH  44  48
ATOM     48  S   UNL     1       3.387 -11.469   8.498  1.00  0.00     0.124 S 
ATOM     49  O   UNL     1       3.454 -12.085   7.178  1.00  0.00    -0.237 OA
ATOM     50  O   UNL     1       4.655 -11.318   9.204  1.00  0.00    -0.237 OA
ATOM     51  O   UNL     1       2.256 -11.879   9.325  1.00  0.00    -0.744 OA
ENDBRANCH  44  48
ENDBRANCH  27  41
BRANCH  28  52
ATOM     52  C   UNL     1      -2.591  -9.269   0.418  1.00  0.00     0.023 A 
ATOM     53  C   UNL     1      -3.380 -10.448   0.345  1.00  0.00     0.031 A 
ATOM     54  C   UNL     1      -3.294  -8.075   0.707  1.00  0.00     0.131 A 
ATOM     55  C   UNL     1      -4.791 -10.386   0.541  1.00  0.00     0.055 A 
ATOM     56  C   UNL     1      -4.675  -8.024   0.912  1.00  0.00     0.041 A 
ATOM     57  F   UNL     1      -2.647  -6.912   0.877  1.00  0.00    -0.206 F 
ATOM     58  C   UNL     1      -5.429  -9.180   0.838  1.00  0.00     0.022 A 
BRANCH  55  59
ATOM     59  S   UNL     1      -5.853 -11.877   0.446  1.00  0.00     0.124 S 
ATOM     60  O   UNL     1      -5.705 -12.279  -0.948  1.00  0.00    -0.237 OA
ATOM     61  O   UNL     1      -5.258 -12.759   1.442  1.00  0.00    -0.237 OA
ATOM     62  O   UNL     1      -7.185 -11.377   0.794  1.00  0.00    -0.744 OA
ENDBRANCH  55  59
ENDBRANCH  28  52
BRANCH  40  63
ATOM     63  C   UNL     1       3.700 -10.280   0.163  1.00  0.00     0.023 A 
ATOM     64  C   UNL     1       3.362  -9.529  -0.998  1.00  0.00     0.031 A 
ATOM     65  C   UNL     1       4.717 -11.238   0.026  1.00  0.00     0.131 A 
ATOM     66  C   UNL     1       4.023  -9.780  -2.226  1.00  0.00     0.055 A 
ATOM     67  C   UNL     1       5.389 -11.454  -1.175  1.00  0.00     0.041 A 
ATOM     68  F   UNL     1       5.114 -11.956   1.089  1.00  0.00    -0.206 F 
ATOM     69  C   UNL     1       5.039 -10.734  -2.309  1.00  0.00     0.022 A 
BRANCH  66  70
ATOM     70  S   UNL     1       3.550  -8.902  -3.763  1.00  0.00     0.124 S 
ATOM     71  O   UNL     1       2.103  -9.070  -3.810  1.00  0.00    -0.237 OA
ATOM     72  O   UNL     1       4.028  -7.545  -3.517  1.00  0.00    -0.237 OA
ATOM     73  O   UNL     1       4.282  -9.622  -4.808  1.00  0.00    -0.744 OA
ENDBRANCH  66  70
ENDBRANCH  40  63
ENDBRANCH  14  15
ENDBRANCH   7   9
ENDBRANCH   6   7
ENDBRANCH   5   6
ENDBRANCH   4   5
ENDBRANCH   3   4
ENDBRANCH   2   3
ENDBRANCH   1   2
BRANCH   1  74
ATOM     74  O   UNL     1       4.219   2.313  -0.903  1.00  0.00    -0.376 OA
BRANCH  74  75
ATOM     75  C   UNL     1       4.910   3.657  -0.552  1.00  0.00     0.202 C 
BRANCH  75  76
ATOM     76  C   UNL     1       4.545   4.875   0.837  1.00  0.00     0.261 C 
BRANCH  76  77
ATOM     77  O   UNL     1       3.307   4.346   2.347  1.00  0.00    -0.459 OA
BRANCH  77  78
ATOM     78  C   UNL     1       2.125   3.807   2.945  1.00  0.00     0.349 C 
ATOM     79  O   UNL     1       1.036   3.732   2.377  1.00  0.00    -0.245 OA
BRANCH  78  80
ATOM     80  C   UNL     1       2.376   3.126   4.210  1.00  0.00     0.133 A 
ATOM     81  S   UNL     1       1.379   1.695   4.407  1.00  0.00    -0.136 S 
ATOM     82  C   UNL     1       3.203   3.284   5.309  1.00  0.00     0.113 A 
ATOM     83  C   UNL     1       1.830   1.485   6.024  1.00  0.00     0.067 A 
ATOM     84  C   UNL     1       2.832   2.356   6.368  1.00  0.00     0.035 A 
BRANCH  82  85
ATOM     85  S   UNL     1       4.457   4.436   5.676  1.00  0.00     0.263 S 
ATOM     86  O   UNL     1       3.853   5.245   6.712  1.00  0.00    -0.201 OA
ATOM     87  O   UNL     1       5.572   3.561   5.997  1.00  0.00    -0.201 OA
BRANCH  85  88
ATOM     88  N   UNL     1       5.127   5.523   4.538  1.00  0.00    -0.280 N 
ATOM     89  H   UNL     1       5.721   6.261   4.805  1.00  0.00     0.180 HD
BRANCH  88  90
ATOM     90  C   UNL     1       4.772   5.291   3.191  1.00  0.00     0.049 A 
ATOM     91  C   UNL     1       5.112   3.670   2.676  1.00  0.00     0.027 A 
ATOM     92  C   UNL     1       3.507   6.281   2.439  1.00  0.00     0.027 A 
ATOM     93  C   UNL     1       4.081   2.979   1.419  1.00  0.00     0.008 A 
ATOM     94  C   UNL     1       2.474   5.649   1.131  1.00  0.00     0.008 A 
ATOM     95  C   UNL     1       2.733   3.969   0.536  1.00  0.00    -0.026 A 
BRANCH  95  96
ATOM     96  C   UNL     1       1.827   3.689  -0.752  1.00  0.00     0.181 C 
BRANCH  96  97
ATOM     97  N   UNL     1       2.308   4.061  -2.108  1.00  0.00    -0.249 N 
ATOM     98  C   UNL     1       2.832   3.250  -3.091  1.00  0.00     0.220 A 
ATOM     99  N   UNL     1       1.956   5.252  -2.664  1.00  0.00    -0.160 NA
ATOM    100  N   UNL     1       2.919   3.900  -4.230  1.00  0.00    -0.224 NA
ATOM    101  C   UNL     1       2.322   5.084  -3.940  1.00  0.00     0.246 A 
ENDBRANCH  96  97
ENDBRANCH  95  96
ENDBRANCH  88  90
ENDBRANCH  85  88
ENDBRANCH  82  85
ENDBRANCH  78  80
ENDBRANCH  77  78
ENDBRANCH  76  77
ENDBRANCH  75  76
ENDBRANCH  74  75
ENDBRANCH   1  74
TORSDOF 25
