REMARK SMILES C#Cc1cccc(NS(=O)(=O)c2cc(C)c(C(=O)OCCOCCOCCOC(=O)c3ccc(-c4c5nc(c(-c6cc(S(=O)(=O)[O-])ccc6F)c6ccc([nH]6)c(-c6cc(S(=O)(=O)[O-])ccc6F)c6nc(c(-c7cc(S(=O)(=O)[O-])ccc7F)c7ccc4[nH]7)C=C6)C=C5)cc3)s2)c1
REMARK SMILES IDX 23 1 22 2 21 3 20 4 19 5 17 6 18 7 16 8 12 9 13 10 94 11
REMARK SMILES IDX 14 12 15 13 9 14 10 15 11 16 8 17 7 19 3 20 4 21 95 22 5 23
REMARK SMILES IDX 6 24 2 25 1 26 24 27 25 28 26 29 27 30 28 31 29 32 30 33
REMARK SMILES IDX 31 34 32 35 93 36 33 37 92 38 34 39 35 40 36 41 86 42 37 43
REMARK SMILES IDX 91 44 85 45 87 46 38 47 90 48 84 49 83 50 39 52 71 53 51 54
REMARK SMILES IDX 70 55 52 56 55 57 69 58 88 59 53 60 54 61 68 63 89 64 56 65
REMARK SMILES IDX 40 66 41 67 49 68 42 69 48 70 50 71 47 72 43 73 44 74 45 75
REMARK SMILES IDX 46 76 72 77 73 78 81 79 74 80 80 81 82 82 79 83 75 84 76 85
REMARK SMILES IDX 77 86 78 87 57 88 58 89 66 90 59 91 65 92 67 93 64 94 60 95
REMARK SMILES IDX 61 96 62 97 63 98
REMARK H PARENT 8 18 87 51 55 62
REMARK Flexibility Score: inf
ROOT
ATOM      1  C   UNL     1       8.224   2.547   1.875  1.00  0.00     0.188 C 
ENDROOT
BRANCH   1   2
ATOM      2  O   UNL     1       9.103   3.643   1.723  1.00  0.00    -0.376 OA
BRANCH   2   3
ATOM      3  C   UNL     1       8.801   4.714   0.849  1.00  0.00     0.202 C 
BRANCH   3   4
ATOM      4  C   UNL     1       7.934   4.585  -0.415  1.00  0.00     0.261 C 
BRANCH   4   5
ATOM      5  O   UNL     1       6.888   3.615  -0.397  1.00  0.00    -0.459 OA
BRANCH   5   6
ATOM      6  C   UNL     1       7.106   2.462  -1.094  1.00  0.00     0.348 C 
ATOM      7  O   UNL     1       8.144   2.211  -1.692  1.00  0.00    -0.245 OA
BRANCH   6   8
ATOM      8  C   UNL     1       5.955   1.581  -0.969  1.00  0.00     0.116 A 
ATOM      9  C   UNL     1       4.545  -0.451  -0.722  1.00  0.00     0.141 A 
ATOM     10  C   UNL     1       3.842   0.675  -1.100  1.00  0.00     0.038 A 
ATOM     11  S   UNL     1       6.226  -0.123  -0.833  1.00  0.00    -0.115 S 
ATOM     12  C   UNL     1       4.602   1.860  -0.831  1.00  0.00    -0.024 A 
ATOM     13  C   UNL     1       3.946   3.159  -0.494  1.00  0.00     0.046 C 
BRANCH   9  14
ATOM     14  S   UNL     1       4.065  -2.066  -0.128  1.00  0.00     0.271 S 
ATOM     15  O   UNL     1       4.681  -2.165   1.178  1.00  0.00    -0.200 OA
ATOM     16  O   UNL     1       4.387  -2.976  -1.205  1.00  0.00    -0.200 OA
BRANCH  14  17
ATOM     17  N   UNL     1       2.399  -2.228   0.102  1.00  0.00    -0.279 N 
ATOM     18  H   UNL     1       2.025  -3.137   0.046  1.00  0.00     0.180 HD
BRANCH  17  19
ATOM     19  C   UNL     1       1.487  -1.169   0.368  1.00  0.00     0.050 A 
ATOM     20  C   UNL     1      -0.724  -0.233   0.019  1.00  0.00     0.026 A 
ATOM     21  C   UNL     1      -0.264   1.008   0.458  1.00  0.00     0.017 A 
ATOM     22  C   UNL     1       0.159  -1.317  -0.055  1.00  0.00     0.044 A 
ATOM     23  C   UNL     1       1.012   1.115   0.999  1.00  0.00     0.003 A 
ATOM     24  C   UNL     1       1.853   0.001   1.032  1.00  0.00     0.027 A 
BRANCH  20  25
ATOM     25  C   UNL     1      -2.118  -0.368  -0.262  1.00  0.00    -0.070 C 
ATOM     26  C   UNL     1      -3.319  -0.394  -0.354  1.00  0.00     0.010 C 
ENDBRANCH  20  25
ENDBRANCH  17  19
ENDBRANCH  14  17
ENDBRANCH   9  14
ENDBRANCH   6   8
ENDBRANCH   5   6
ENDBRANCH   4   5
ENDBRANCH   3   4
ENDBRANCH   2   3
ENDBRANCH   1   2
BRANCH   1  27
ATOM     27  C   UNL     1       6.801   2.787   2.419  1.00  0.00     0.188 C 
BRANCH  27  28
ATOM     28  O   UNL     1       6.381   4.130   2.478  1.00  0.00    -0.376 OA
BRANCH  28  29
ATOM     29  C   UNL     1       6.764   4.934   3.584  1.00  0.00     0.202 C 
BRANCH  29  30
ATOM     30  C   UNL     1       7.727   4.535   4.730  1.00  0.00     0.261 C 
BRANCH  30  31
ATOM     31  O   UNL     1       8.419   3.285   4.664  1.00  0.00    -0.460 OA
BRANCH  31  32
ATOM     32  C   UNL     1       7.903   2.274   5.410  1.00  0.00     0.338 C 
ATOM     33  O   UNL     1       6.894   2.317   6.091  1.00  0.00    -0.246 OA
BRANCH  32  34
ATOM     34  C   UNL     1       8.657   1.034   5.123  1.00  0.00     0.060 A 
ATOM     35  C   UNL     1       8.035   0.011   4.391  1.00  0.00     0.016 A 
ATOM     36  C   UNL     1       9.963   0.873   5.585  1.00  0.00     0.016 A 
ATOM     37  C   UNL     1       8.714  -1.180   4.130  1.00  0.00     0.010 A 
ATOM     38  C   UNL     1      10.632  -0.333   5.346  1.00  0.00     0.010 A 
ATOM     39  C   UNL     1      10.004  -1.377   4.638  1.00  0.00    -0.014 A 
BRANCH  39  40
ATOM     40  C   UNL     1      10.636  -2.722   4.578  1.00  0.00     0.031 A 
ATOM     41  C   UNL     1      10.647  -3.569   5.822  1.00  0.00     0.074 A 
ATOM     42  C   UNL     1      11.183  -3.191   3.441  1.00  0.00     0.049 A 
ATOM     43  N   UNL     1      11.215  -4.728   6.038  1.00  0.00    -0.248 NA
ATOM     44  C   UNL     1       9.928  -3.025   6.984  1.00  0.00     0.031 C 
ATOM     45  C   UNL     1      11.185  -2.493   2.157  1.00  0.00     0.029 A 
ATOM     46  N   UNL     1      11.853  -4.364   3.188  1.00  0.00    -0.354 N 
ATOM     47  C   UNL     1      10.932  -5.047   7.362  1.00  0.00     0.074 A 
ATOM     48  C   UNL     1      10.180  -3.938   7.909  1.00  0.00     0.031 C 
ATOM     49  C   UNL     1      11.833  -3.249   1.253  1.00  0.00     0.029 A 
ATOM     50  C   UNL     1      12.336  -4.458   1.903  1.00  0.00     0.049 A 
ATOM     51  H   UNL     1      11.975  -5.070   3.863  1.00  0.00     0.167 HD
ATOM     52  C   UNL     1      11.264  -6.166   8.054  1.00  0.00     0.034 A 
ATOM     53  C   UNL     1      13.121  -5.394   1.328  1.00  0.00     0.034 A 
ATOM     54  C   UNL     1      12.028  -7.256   7.496  1.00  0.00     0.049 A 
ATOM     55  C   UNL     1      13.572  -6.581   2.149  1.00  0.00     0.074 A 
ATOM     56  C   UNL     1      12.406  -8.440   8.103  1.00  0.00     0.029 A 
ATOM     57  N   UNL     1      12.548  -7.290   6.207  1.00  0.00    -0.354 N 
ATOM     58  N   UNL     1      13.300  -6.874   3.401  1.00  0.00    -0.248 NA
ATOM     59  C   UNL     1      14.432  -7.565   1.478  1.00  0.00     0.031 C 
ATOM     60  C   UNL     1      13.235  -9.141   7.222  1.00  0.00     0.029 A 
ATOM     61  C   UNL     1      13.283  -8.452   6.021  1.00  0.00     0.049 A 
ATOM     62  H   UNL     1      12.415  -6.591   5.527  1.00  0.00     0.167 HD
ATOM     63  C   UNL     1      13.922  -8.097   3.650  1.00  0.00     0.074 A 
ATOM     64  C   UNL     1      14.574  -8.488   2.418  1.00  0.00     0.031 C 
ATOM     65  C   UNL     1      13.941  -8.834   4.791  1.00  0.00     0.034 A 
BRANCH  52  66
ATOM     66  C   UNL     1      10.857  -6.233   9.508  1.00  0.00     0.023 A 
ATOM     67  C   UNL     1       9.509  -6.205   9.906  1.00  0.00     0.031 A 
ATOM     68  C   UNL     1      11.837  -6.296  10.515  1.00  0.00     0.131 A 
ATOM     69  C   UNL     1       9.183  -6.160  11.270  1.00  0.00     0.055 A 
ATOM     70  C   UNL     1      11.502  -6.348  11.869  1.00  0.00     0.041 A 
ATOM     71  F   UNL     1      13.142  -6.297  10.201  1.00  0.00    -0.206 F 
ATOM     72  C   UNL     1      10.168  -6.262  12.255  1.00  0.00     0.022 A 
BRANCH  69  73
ATOM     73  S   UNL     1       7.469  -5.794  11.740  1.00  0.00     0.124 S 
ATOM     74  O   UNL     1       7.244  -4.517  11.065  1.00  0.00    -0.237 OA
ATOM     75  O   UNL     1       6.742  -6.938  11.203  1.00  0.00    -0.237 OA
ATOM     76  O   UNL     1       7.522  -5.716  13.198  1.00  0.00    -0.744 OA
ENDBRANCH  69  73
ENDBRANCH  52  66
BRANCH  53  77
ATOM     77  C   UNL     1      13.576  -5.234  -0.086  1.00  0.00     0.023 A 
ATOM     78  C   UNL     1      13.242  -6.176  -1.072  1.00  0.00     0.031 A 
ATOM     79  C   UNL     1      14.408  -4.162  -0.458  1.00  0.00     0.131 A 
ATOM     80  C   UNL     1      13.773  -6.055  -2.366  1.00  0.00     0.055 A 
ATOM     81  C   UNL     1      14.877  -4.008  -1.764  1.00  0.00     0.041 A 
ATOM     82  F   UNL     1      14.776  -3.240   0.447  1.00  0.00    -0.206 F 
ATOM     83  C   UNL     1      14.570  -4.966  -2.724  1.00  0.00     0.022 A 
BRANCH  80  84
ATOM     84  S   UNL     1      13.500  -7.403  -3.550  1.00  0.00     0.124 S 
ATOM     85  O   UNL     1      14.084  -8.538  -2.845  1.00  0.00    -0.237 OA
ATOM     86  O   UNL     1      12.047  -7.407  -3.680  1.00  0.00    -0.237 OA
ATOM     87  O   UNL     1      14.229  -6.965  -4.739  1.00  0.00    -0.744 OA
ENDBRANCH  80  84
ENDBRANCH  53  77
BRANCH  65  88
ATOM     88  C   UNL     1      14.640 -10.174   4.746  1.00  0.00     0.023 A 
ATOM     89  C   UNL     1      16.024 -10.292   4.524  1.00  0.00     0.031 A 
ATOM     90  C   UNL     1      13.902 -11.359   4.931  1.00  0.00     0.131 A 
ATOM     91  C   UNL     1      16.613 -11.563   4.433  1.00  0.00     0.055 A 
ATOM     92  C   UNL     1      14.507 -12.616   4.916  1.00  0.00     0.041 A 
ATOM     93  F   UNL     1      12.576 -11.314   5.138  1.00  0.00    -0.206 F 
ATOM     94  C   UNL     1      15.868 -12.725   4.652  1.00  0.00     0.022 A 
BRANCH  91  95
ATOM     95  S   UNL     1      18.346 -11.687   3.909  1.00  0.00     0.124 S 
ATOM     96  O   UNL     1      18.321 -11.005   2.619  1.00  0.00    -0.237 OA
ATOM     97  O   UNL     1      19.048 -10.992   4.983  1.00  0.00    -0.237 OA
ATOM     98  O   UNL     1      18.583 -13.128   3.845  1.00  0.00    -0.744 OA
ENDBRANCH  91  95
ENDBRANCH  65  88
ENDBRANCH  39  40
ENDBRANCH  32  34
ENDBRANCH  31  32
ENDBRANCH  30  31
ENDBRANCH  29  30
ENDBRANCH  28  29
ENDBRANCH  27  28
ENDBRANCH   1  27
TORSDOF 24
