REMARK SMILES COc1cc2c(cc1OC)-c1c(c(C(=O)Nc3ccc(C(=O)OCCOCCOCCOC(=O)c4ccc(-c5c6nc(c(-c7cc(S(=O)(=O)[O-])ccc7F)c7ccc([nH]7)c(-c7cc(S(=O)(=O)[O-])ccc7F)c7nc(c(-c8cc(S(=O)(=O)[O-])ccc8F)c8ccc5[nH]8)C=C7)C=C6)cc4)cc3)nn1-c1ccc(F)cc1)C2
REMARK SMILES IDX 27 1 26 2 25 3 24 4 23 5 21 6 22 7 20 8 17 9 18 10 99 11
REMARK SMILES IDX 19 12 98 13 16 14 14 15 15 16 13 18 3 19 4 20 8 21 5 22 7 23
REMARK SMILES IDX 6 24 109 25 11 26 12 27 101 28 100 29 2 30 1 31 9 32 10 33
REMARK SMILES IDX 102 34 103 35 108 36 104 37 107 38 105 39 106 40 28 41 29 42
REMARK SMILES IDX 30 43 31 44 32 45 33 46 34 47 35 48 36 49 97 50 37 51 96 52
REMARK SMILES IDX 38 53 39 54 40 55 90 56 41 57 95 58 89 59 91 60 42 61 94 62
REMARK SMILES IDX 88 63 87 64 43 66 75 67 55 68 74 69 56 70 59 71 73 72 92 73
REMARK SMILES IDX 57 74 58 75 72 77 93 78 60 79 44 80 45 81 53 82 46 83 52 84
REMARK SMILES IDX 54 85 51 86 47 87 48 88 49 89 50 90 76 91 77 92 85 93 78 94
REMARK SMILES IDX 84 95 86 96 83 97 79 98 80 99 81 100 82 101 61 102 62 103
REMARK SMILES IDX 70 104 63 105 69 106 71 107 68 108 64 109 65 110 66 111
REMARK SMILES IDX 67 112
REMARK H PARENT 16 17 91 65 59 76
REMARK Flexibility Score: inf
ROOT
ATOM      1  C   UNL     1      -2.977   0.870  -5.982  1.00  0.00     0.188 C 
ENDROOT
BRANCH   1   2
ATOM      2  O   UNL     1      -2.978   0.130  -4.774  1.00  0.00    -0.376 OA
BRANCH   2   3
ATOM      3  C   UNL     1      -4.077   0.194  -3.869  1.00  0.00     0.202 C 
BRANCH   3   4
ATOM      4  C   UNL     1      -5.333   1.058  -4.109  1.00  0.00     0.261 C 
BRANCH   4   5
ATOM      5  O   UNL     1      -5.137   2.235  -4.921  1.00  0.00    -0.460 OA
BRANCH   5   6
ATOM      6  C   UNL     1      -5.163   3.421  -4.269  1.00  0.00     0.338 C 
ATOM      7  O   UNL     1      -5.462   3.558  -3.092  1.00  0.00    -0.246 OA
BRANCH   6   8
ATOM      8  C   UNL     1      -4.511   4.508  -5.067  1.00  0.00     0.060 A 
ATOM      9  C   UNL     1      -2.737   6.444  -6.194  1.00  0.00     0.041 A 
ATOM     10  C   UNL     1      -2.865   6.308  -4.830  1.00  0.00     0.027 A 
ATOM     11  C   UNL     1      -3.647   5.736  -6.995  1.00  0.00     0.027 A 
ATOM     12  C   UNL     1      -3.707   5.325  -4.301  1.00  0.00     0.018 A 
ATOM     13  C   UNL     1      -4.513   4.745  -6.438  1.00  0.00     0.018 A 
BRANCH   9  14
ATOM     14  N   UNL     1      -1.712   7.257  -6.747  1.00  0.00    -0.321 N 
ATOM     15  C   UNL     1      -0.464   7.650  -6.226  1.00  0.00     0.276 C 
ATOM     16  O   UNL     1      -0.128   8.830  -6.319  1.00  0.00    -0.267 OA
ATOM     17  H   UNL     1      -1.907   7.605  -7.647  1.00  0.00     0.170 HD
BRANCH  15  18
ATOM     18  C   UNL     1       0.519   6.626  -5.736  1.00  0.00     0.155 A 
ATOM     19  C   UNL     1      -0.785   1.384  -2.124  1.00  0.00     0.161 A 
ATOM     20  C   UNL     1      -1.427   2.182  -3.587  1.00  0.00     0.055 A 
ATOM     21  C   UNL     1       0.952   1.652  -1.741  1.00  0.00     0.161 A 
ATOM     22  C   UNL     1      -0.397   3.195  -4.677  1.00  0.00    -0.030 A 
ATOM     23  C   UNL     1       2.002   2.880  -2.956  1.00  0.00     0.061 A 
ATOM     24  C   UNL     1       1.288   3.546  -4.387  1.00  0.00     0.008 A 
ATOM     25  C   UNL     1      -0.868   4.345  -5.507  1.00  0.00     0.076 C 
ATOM     26  C   UNL     1       1.533   4.767  -5.080  1.00  0.00     0.079 A 
ATOM     27  C   UNL     1       0.339   5.236  -5.574  1.00  0.00     0.016 A 
ATOM     28  N   UNL     1       2.418   5.806  -4.980  1.00  0.00    -0.232 N 
ATOM     29  N   UNL     1       1.791   6.963  -5.351  1.00  0.00    -0.162 NA
BRANCH  19  30
ATOM     30  O   UNL     1      -1.691   0.872  -1.230  1.00  0.00    -0.493 OA
ATOM     31  C   UNL     1      -1.298   0.981   0.142  1.00  0.00     0.278 C 
ENDBRANCH  19  30
BRANCH  21  32
ATOM     32  O   UNL     1       1.332   0.922  -0.579  1.00  0.00    -0.493 OA
ATOM     33  C   UNL     1       1.491  -0.498  -0.770  1.00  0.00     0.278 C 
ENDBRANCH  21  32
BRANCH  28  34
ATOM     34  C   UNL     1       3.784   5.753  -4.525  1.00  0.00     0.065 A 
ATOM     35  C   UNL     1       4.415   6.868  -3.942  1.00  0.00     0.031 A 
ATOM     36  C   UNL     1       4.504   4.545  -4.603  1.00  0.00     0.031 A 
ATOM     37  C   UNL     1       5.676   6.731  -3.331  1.00  0.00     0.041 A 
ATOM     38  C   UNL     1       5.777   4.425  -4.028  1.00  0.00     0.041 A 
ATOM     39  C   UNL     1       6.340   5.510  -3.370  1.00  0.00     0.123 A 
ATOM     40  F   UNL     1       7.534   5.369  -2.775  1.00  0.00    -0.207 F 
ENDBRANCH  28  34
ENDBRANCH  15  18
ENDBRANCH   9  14
ENDBRANCH   6   8
ENDBRANCH   5   6
ENDBRANCH   4   5
ENDBRANCH   3   4
ENDBRANCH   2   3
ENDBRANCH   1   2
BRANCH   1  41
ATOM     41  C   UNL     1      -1.610   0.808  -6.705  1.00  0.00     0.188 C 
BRANCH  41  42
ATOM     42  O   UNL     1      -1.149  -0.462  -7.161  1.00  0.00    -0.376 OA
BRANCH  42  43
ATOM     43  C   UNL     1      -0.788  -1.422  -6.156  1.00  0.00     0.202 C 
BRANCH  43  44
ATOM     44  C   UNL     1       0.725  -1.530  -5.752  1.00  0.00     0.261 C 
BRANCH  44  45
ATOM     45  O   UNL     1       1.088  -0.682  -4.627  1.00  0.00    -0.460 OA
BRANCH  45  46
ATOM     46  C   UNL     1       2.375  -0.371  -4.231  1.00  0.00     0.338 C 
ATOM     47  O   UNL     1       3.397  -0.897  -4.621  1.00  0.00    -0.246 OA
BRANCH  46  48
ATOM     48  C   UNL     1       2.249   0.798  -3.277  1.00  0.00     0.060 A 
ATOM     49  C   UNL     1       3.202   1.479  -1.907  1.00  0.00     0.016 A 
ATOM     50  C   UNL     1       0.731   1.628  -3.629  1.00  0.00     0.016 A 
ATOM     51  C   UNL     1       2.612   2.917  -0.902  1.00  0.00     0.010 A 
ATOM     52  C   UNL     1       0.167   3.221  -2.548  1.00  0.00     0.010 A 
ATOM     53  C   UNL     1       1.065   3.797  -1.214  1.00  0.00    -0.014 A 
BRANCH  53  54
ATOM     54  C   UNL     1       0.522   5.200  -0.901  1.00  0.00     0.031 A 
ATOM     55  C   UNL     1       1.580   5.976  -0.329  1.00  0.00     0.074 A 
ATOM     56  C   UNL     1      -0.687   5.862  -1.118  1.00  0.00     0.049 A 
ATOM     57  N   UNL     1       1.893   5.876   0.920  1.00  0.00    -0.248 NA
ATOM     58  C   UNL     1       2.496   6.737  -1.156  1.00  0.00     0.031 C 
ATOM     59  C   UNL     1      -2.014   5.244  -1.212  1.00  0.00     0.029 A 
ATOM     60  N   UNL     1      -1.049   7.235  -1.285  1.00  0.00    -0.354 N 
ATOM     61  C   UNL     1       2.699   6.966   1.070  1.00  0.00     0.074 A 
ATOM     62  C   UNL     1       3.368   7.106  -0.210  1.00  0.00     0.031 C 
ATOM     63  C   UNL     1      -2.949   6.177  -1.516  1.00  0.00     0.029 A 
ATOM     64  C   UNL     1      -2.352   7.487  -1.838  1.00  0.00     0.049 A 
ATOM     65  H   UNL     1      -0.440   7.967  -1.035  1.00  0.00     0.167 HD
ATOM     66  C   UNL     1       2.274   7.972   1.891  1.00  0.00     0.034 A 
ATOM     67  C   UNL     1      -3.188   8.598  -1.932  1.00  0.00     0.034 A 
ATOM     68  C   UNL     1       1.090   7.624   2.668  1.00  0.00     0.049 A 
ATOM     69  C   UNL     1      -3.097   9.234  -0.613  1.00  0.00     0.074 A 
ATOM     70  C   UNL     1       0.693   6.499   3.369  1.00  0.00     0.029 A 
ATOM     71  N   UNL     1      -0.048   8.379   2.488  1.00  0.00    -0.354 N 
ATOM     72  N   UNL     1      -3.719   8.843   0.453  1.00  0.00    -0.248 NA
ATOM     73  C   UNL     1      -2.043  10.214  -0.417  1.00  0.00     0.031 C 
ATOM     74  C   UNL     1      -0.724   6.473   3.340  1.00  0.00     0.029 A 
ATOM     75  C   UNL     1      -1.187   7.642   2.745  1.00  0.00     0.049 A 
ATOM     76  H   UNL     1      -0.049   9.324   2.212  1.00  0.00     0.167 HD
ATOM     77  C   UNL     1      -2.754   9.007   1.415  1.00  0.00     0.074 A 
ATOM     78  C   UNL     1      -1.869  10.041   0.890  1.00  0.00     0.031 C 
ATOM     79  C   UNL     1      -2.534   8.001   2.304  1.00  0.00     0.034 A 
BRANCH  66  80
ATOM     80  C   UNL     1       2.765   9.370   1.695  1.00  0.00     0.023 A 
ATOM     81  C   UNL     1       3.083   9.903   0.431  1.00  0.00     0.031 A 
ATOM     82  C   UNL     1       2.925  10.214   2.795  1.00  0.00     0.131 A 
ATOM     83  C   UNL     1       3.736  11.125   0.308  1.00  0.00     0.055 A 
ATOM     84  C   UNL     1       3.460  11.497   2.660  1.00  0.00     0.041 A 
ATOM     85  F   UNL     1       2.574   9.806   4.024  1.00  0.00    -0.206 F 
ATOM     86  C   UNL     1       3.911  11.942   1.418  1.00  0.00     0.022 A 
BRANCH  83  87
ATOM     87  S   UNL     1       4.501  11.583  -1.273  1.00  0.00     0.124 S 
ATOM     88  O   UNL     1       3.763  12.790  -1.621  1.00  0.00    -0.237 OA
ATOM     89  O   UNL     1       5.895  11.777  -0.882  1.00  0.00    -0.237 OA
ATOM     90  O   UNL     1       4.263  10.414  -2.116  1.00  0.00    -0.744 OA
ENDBRANCH  83  87
ENDBRANCH  66  80
BRANCH  67  91
ATOM     91  C   UNL     1      -3.745   9.524  -3.048  1.00  0.00     0.023 A 
ATOM     92  C   UNL     1      -3.410   9.512  -4.421  1.00  0.00     0.031 A 
ATOM     93  C   UNL     1      -4.603  10.607  -2.686  1.00  0.00     0.131 A 
ATOM     94  C   UNL     1      -3.862  10.518  -5.330  1.00  0.00     0.055 A 
ATOM     95  C   UNL     1      -5.002  11.633  -3.566  1.00  0.00     0.041 A 
ATOM     96  F   UNL     1      -5.065  10.731  -1.432  1.00  0.00    -0.206 F 
ATOM     97  C   UNL     1      -4.624  11.596  -4.894  1.00  0.00     0.022 A 
BRANCH  94  98
ATOM     98  S   UNL     1      -3.500  10.473  -7.128  1.00  0.00     0.124 S 
ATOM     99  O   UNL     1      -4.643  11.167  -7.720  1.00  0.00    -0.237 OA
ATOM    100  O   UNL     1      -2.236  11.186  -7.212  1.00  0.00    -0.237 OA
ATOM    101  O   UNL     1      -3.449   9.050  -7.449  1.00  0.00    -0.744 OA
ENDBRANCH  94  98
ENDBRANCH  67  91
BRANCH  79 102
ATOM    102  C   UNL     1      -3.690   7.071   2.694  1.00  0.00     0.023 A 
ATOM    103  C   UNL     1      -3.793   6.778   4.066  1.00  0.00     0.031 A 
ATOM    104  C   UNL     1      -4.590   6.383   1.850  1.00  0.00     0.131 A 
ATOM    105  C   UNL     1      -4.659   5.781   4.536  1.00  0.00     0.055 A 
ATOM    106  C   UNL     1      -5.479   5.407   2.325  1.00  0.00     0.041 A 
ATOM    107  F   UNL     1      -4.653   6.588   0.533  1.00  0.00    -0.206 F 
ATOM    108  C   UNL     1      -5.498   5.081   3.671  1.00  0.00     0.022 A 
BRANCH 105 109
ATOM    109  S   UNL     1      -4.645   5.309   6.280  1.00  0.00     0.124 S 
ATOM    110  O   UNL     1      -6.003   5.649   6.699  1.00  0.00    -0.237 OA
ATOM    111  O   UNL     1      -4.350   3.880   6.210  1.00  0.00    -0.237 OA
ATOM    112  O   UNL     1      -3.590   6.133   6.861  1.00  0.00    -0.744 OA
ENDBRANCH 105 109
ENDBRANCH  79 102
ENDBRANCH  53  54
ENDBRANCH  46  48
ENDBRANCH  45  46
ENDBRANCH  44  45
ENDBRANCH  43  44
ENDBRANCH  42  43
ENDBRANCH  41  42
ENDBRANCH   1  41
TORSDOF 25
