REMARK SMILES NC(=O)C[C@H](NC(=O)[C@@H]1CC(=O)N(CC2CC2)C1)C(=O)OCCOCCOCCOC(=O)c1ccc(-c2c3nc(c(-c4cc(S(=O)(=O)[O-])ccc4F)c4ccc([nH]4)c(-c4cc(S(=O)(=O)[O-])ccc4F)c4nc(c(-c5cc(S(=O)(=O)[O-])ccc5F)c5ccc2[nH]5)C=C4)C=C3)cc1
REMARK SMILES IDX 25 1 24 2 23 3 22 4 21 5 19 6 20 7 5 8 4 9 2 10 1 11 3 14
REMARK SMILES IDX 6 15 7 16 8 18 9 19 10 20 18 21 11 22 13 23 12 24 14 25
REMARK SMILES IDX 15 26 16 27 17 28 26 29 27 30 28 31 29 32 30 33 31 34 32 35
REMARK SMILES IDX 33 36 34 37 95 38 35 39 94 40 36 41 37 42 38 43 88 44 39 45
REMARK SMILES IDX 93 46 87 47 89 48 40 49 92 50 86 51 85 52 41 54 73 55 53 56
REMARK SMILES IDX 72 57 54 58 57 59 71 60 90 61 55 62 56 63 70 65 91 66 58 67
REMARK SMILES IDX 42 68 43 69 51 70 44 71 50 72 52 73 49 74 45 75 46 76 47 77
REMARK SMILES IDX 48 78 74 79 75 80 83 81 76 82 82 83 84 84 81 85 77 86 78 87
REMARK SMILES IDX 79 88 80 89 59 90 60 91 68 92 61 93 67 94 69 95 66 96 62 97
REMARK SMILES IDX 63 98 64 99 65 100
REMARK H PARENT 1 12 1 13 6 17 89 53 57 64
REMARK Flexibility Score: inf
ROOT
ATOM      1  C   UNL     1       1.778  -4.167   4.646  1.00  0.00     0.188 C 
ENDROOT
BRANCH   1   2
ATOM      2  O   UNL     1       2.923  -4.691   5.312  1.00  0.00    -0.376 OA
BRANCH   2   3
ATOM      3  C   UNL     1       4.039  -3.849   5.561  1.00  0.00     0.202 C 
BRANCH   3   4
ATOM      4  C   UNL     1       4.693  -3.129   4.369  1.00  0.00     0.261 C 
BRANCH   4   5
ATOM      5  O   UNL     1       3.779  -2.473   3.461  1.00  0.00    -0.462 OA
BRANCH   5   6
ATOM      6  C   UNL     1       3.792  -2.926   2.183  1.00  0.00     0.329 C 
ATOM      7  O   UNL     1       4.595  -3.753   1.760  1.00  0.00    -0.250 OA
BRANCH   6   8
ATOM      8  C   UNL     1       2.641  -2.385   1.294  1.00  0.00     0.201 C 
BRANCH   8   9
ATOM      9  C   UNL     1       3.207  -2.135  -0.099  1.00  0.00     0.136 C 
BRANCH   9  10
ATOM     10  C   UNL     1       2.202  -1.965  -1.207  1.00  0.00     0.220 C 
ATOM     11  N   UNL     1       1.101  -2.755  -1.220  1.00  0.00    -0.370 N 
ATOM     12  H   UNL     1       0.434  -2.658  -1.938  1.00  0.00     0.159 HD
ATOM     13  H   UNL     1       0.969  -3.427  -0.513  1.00  0.00     0.159 HD
ATOM     14  O   UNL     1       2.398  -1.173  -2.125  1.00  0.00    -0.275 OA
ENDBRANCH   9  10
ENDBRANCH   8   9
BRANCH   8  15
ATOM     15  N   UNL     1       1.681  -1.382   1.804  1.00  0.00    -0.342 N 
ATOM     16  C   UNL     1       1.703  -0.052   2.084  1.00  0.00     0.226 C 
ATOM     17  H   UNL     1       0.799  -1.780   1.988  1.00  0.00     0.164 HD
ATOM     18  O   UNL     1       0.723   0.414   2.665  1.00  0.00    -0.275 OA
BRANCH  16  19
ATOM     19  C   UNL     1       2.837   0.815   1.606  1.00  0.00     0.107 C 
ATOM     20  C   UNL     1       2.911   2.175   2.311  1.00  0.00     0.115 C 
ATOM     21  C   UNL     1       2.567   1.144   0.148  1.00  0.00     0.133 C 
ATOM     22  C   UNL     1       2.345   3.164   1.322  1.00  0.00     0.223 C 
ATOM     23  N   UNL     1       2.207   2.533   0.104  1.00  0.00    -0.342 N 
ATOM     24  O   UNL     1       2.105   4.336   1.569  1.00  0.00    -0.275 OA
BRANCH  23  25
ATOM     25  C   UNL     1       1.595   3.137  -1.067  1.00  0.00     0.123 C 
BRANCH  25  26
ATOM     26  C   UNL     1       2.508   3.337  -2.244  1.00  0.00     0.008 C 
ATOM     27  C   UNL     1       3.989   3.036  -2.263  1.00  0.00     0.006 C 
ATOM     28  C   UNL     1       3.035   2.157  -3.024  1.00  0.00     0.006 C 
ENDBRANCH  25  26
ENDBRANCH  23  25
ENDBRANCH  16  19
ENDBRANCH   8  15
ENDBRANCH   6   8
ENDBRANCH   5   6
ENDBRANCH   4   5
ENDBRANCH   3   4
ENDBRANCH   2   3
ENDBRANCH   1   2
BRANCH   1  29
ATOM     29  C   UNL     1       1.341  -2.710   4.890  1.00  0.00     0.188 C 
BRANCH  29  30
ATOM     30  O   UNL     1       2.093  -2.034   5.872  1.00  0.00    -0.376 OA
BRANCH  30  31
ATOM     31  C   UNL     1       1.383  -1.551   6.995  1.00  0.00     0.202 C 
BRANCH  31  32
ATOM     32  C   UNL     1       0.663  -2.591   7.868  1.00  0.00     0.261 C 
BRANCH  32  33
ATOM     33  O   UNL     1      -0.075  -3.616   7.179  1.00  0.00    -0.460 OA
BRANCH  33  34
ATOM     34  C   UNL     1      -1.283  -3.275   6.671  1.00  0.00     0.338 C 
ATOM     35  O   UNL     1      -1.804  -2.172   6.716  1.00  0.00    -0.246 OA
BRANCH  34  36
ATOM     36  C   UNL     1      -1.774  -4.416   5.863  1.00  0.00     0.060 A 
ATOM     37  C   UNL     1      -1.974  -4.256   4.483  1.00  0.00     0.016 A 
ATOM     38  C   UNL     1      -2.037  -5.644   6.473  1.00  0.00     0.016 A 
ATOM     39  C   UNL     1      -2.459  -5.320   3.714  1.00  0.00     0.010 A 
ATOM     40  C   UNL     1      -2.546  -6.697   5.708  1.00  0.00     0.010 A 
ATOM     41  C   UNL     1      -2.788  -6.534   4.331  1.00  0.00    -0.014 A 
BRANCH  41  42
ATOM     42  C   UNL     1      -3.596  -7.559   3.618  1.00  0.00     0.031 A 
ATOM     43  C   UNL     1      -5.081  -7.578   3.867  1.00  0.00     0.074 A 
ATOM     44  C   UNL     1      -3.040  -8.471   2.800  1.00  0.00     0.049 A 
ATOM     45  N   UNL     1      -5.977  -8.461   3.512  1.00  0.00    -0.248 NA
ATOM     46  C   UNL     1      -5.618  -6.445   4.636  1.00  0.00     0.031 C 
ATOM     47  C   UNL     1      -1.629  -8.524   2.425  1.00  0.00     0.029 A 
ATOM     48  N   UNL     1      -3.601  -9.547   2.155  1.00  0.00    -0.354 N 
ATOM     49  C   UNL     1      -7.183  -8.001   4.031  1.00  0.00     0.074 A 
ATOM     50  C   UNL     1      -6.892  -6.780   4.752  1.00  0.00     0.031 C 
ATOM     51  C   UNL     1      -1.431  -9.591   1.630  1.00  0.00     0.029 A 
ATOM     52  C   UNL     1      -2.687 -10.327   1.484  1.00  0.00     0.049 A 
ATOM     53  H   UNL     1      -4.566  -9.741   2.170  1.00  0.00     0.167 HD
ATOM     54  C   UNL     1      -8.420  -8.546   3.916  1.00  0.00     0.034 A 
ATOM     55  C   UNL     1      -2.841 -11.517   0.864  1.00  0.00     0.034 A 
ATOM     56  C   UNL     1      -8.690  -9.775   3.212  1.00  0.00     0.049 A 
ATOM     57  C   UNL     1      -4.207 -12.168   0.843  1.00  0.00     0.074 A 
ATOM     58  C   UNL     1      -9.903 -10.418   3.035  1.00  0.00     0.029 A 
ATOM     59  N   UNL     1      -7.731 -10.556   2.580  1.00  0.00    -0.354 N 
ATOM     60  N   UNL     1      -5.339 -11.737   1.351  1.00  0.00    -0.248 NA
ATOM     61  C   UNL     1      -4.314 -13.468   0.164  1.00  0.00     0.031 C 
ATOM     62  C   UNL     1      -9.666 -11.624   2.369  1.00  0.00     0.029 A 
ATOM     63  C   UNL     1      -8.321 -11.690   2.042  1.00  0.00     0.049 A 
ATOM     64  H   UNL     1      -6.773 -10.337   2.523  1.00  0.00     0.167 HD
ATOM     65  C   UNL     1      -6.298 -12.690   1.010  1.00  0.00     0.074 A 
ATOM     66  C   UNL     1      -5.612 -13.717   0.255  1.00  0.00     0.031 C 
ATOM     67  C   UNL     1      -7.628 -12.708   1.285  1.00  0.00     0.034 A 
BRANCH  54  68
ATOM     68  C   UNL     1      -9.553  -7.840   4.621  1.00  0.00     0.023 A 
ATOM     69  C   UNL     1      -9.932  -6.529   4.283  1.00  0.00     0.031 A 
ATOM     70  C   UNL     1     -10.233  -8.467   5.680  1.00  0.00     0.131 A 
ATOM     71  C   UNL     1     -10.897  -5.859   5.050  1.00  0.00     0.055 A 
ATOM     72  C   UNL     1     -11.258  -7.828   6.380  1.00  0.00     0.041 A 
ATOM     73  F   UNL     1      -9.898  -9.708   6.067  1.00  0.00    -0.206 F 
ATOM     74  C   UNL     1     -11.583  -6.509   6.078  1.00  0.00     0.022 A 
BRANCH  71  75
ATOM     75  S   UNL     1     -11.118  -4.077   4.794  1.00  0.00     0.124 S 
ATOM     76  O   UNL     1      -9.768  -3.576   5.043  1.00  0.00    -0.237 OA
ATOM     77  O   UNL     1     -11.579  -4.013   3.412  1.00  0.00    -0.237 OA
ATOM     78  O   UNL     1     -12.108  -3.707   5.802  1.00  0.00    -0.744 OA
ENDBRANCH  71  75
ENDBRANCH  54  68
BRANCH  55  79
ATOM     79  C   UNL     1      -1.671 -12.207   0.243  1.00  0.00     0.023 A 
ATOM     80  C   UNL     1      -1.633 -12.467  -1.136  1.00  0.00     0.031 A 
ATOM     81  C   UNL     1      -0.602 -12.675   1.028  1.00  0.00     0.131 A 
ATOM     82  C   UNL     1      -0.577 -13.214  -1.681  1.00  0.00     0.055 A 
ATOM     83  C   UNL     1       0.476 -13.367   0.473  1.00  0.00     0.041 A 
ATOM     84  F   UNL     1      -0.588 -12.461   2.354  1.00  0.00    -0.206 F 
ATOM     85  C   UNL     1       0.486 -13.652  -0.888  1.00  0.00     0.022 A 
BRANCH  82  86
ATOM     86  S   UNL     1      -0.658 -13.684  -3.431  1.00  0.00     0.124 S 
ATOM     87  O   UNL     1      -1.898 -14.450  -3.473  1.00  0.00    -0.237 OA
ATOM     88  O   UNL     1      -0.683 -12.384  -4.092  1.00  0.00    -0.237 OA
ATOM     89  O   UNL     1       0.564 -14.460  -3.632  1.00  0.00    -0.744 OA
ENDBRANCH  82  86
ENDBRANCH  55  79
BRANCH  67  90
ATOM     90  C   UNL     1      -8.451 -13.833   0.700  1.00  0.00     0.023 A 
ATOM     91  C   UNL     1      -8.291 -15.170   1.101  1.00  0.00     0.031 A 
ATOM     92  C   UNL     1      -9.430 -13.549  -0.272  1.00  0.00     0.131 A 
ATOM     93  C   UNL     1      -9.063 -16.178   0.499  1.00  0.00     0.055 A 
ATOM     94  C   UNL     1     -10.238 -14.546  -0.819  1.00  0.00     0.041 A 
ATOM     95  F   UNL     1      -9.625 -12.290  -0.698  1.00  0.00    -0.206 F 
ATOM     96  C   UNL     1     -10.049 -15.871  -0.442  1.00  0.00     0.022 A 
BRANCH  93  97
ATOM     97  S   UNL     1      -8.704 -17.911   0.899  1.00  0.00     0.124 S 
ATOM     98  O   UNL     1      -7.301 -18.026   0.513  1.00  0.00    -0.237 OA
ATOM     99  O   UNL     1      -8.977 -17.965   2.331  1.00  0.00    -0.237 OA
ATOM    100  O   UNL     1      -9.641 -18.658   0.061  1.00  0.00    -0.744 OA
ENDBRANCH  93  97
ENDBRANCH  67  90
ENDBRANCH  41  42
ENDBRANCH  34  36
ENDBRANCH  33  34
ENDBRANCH  32  33
ENDBRANCH  31  32
ENDBRANCH  30  31
ENDBRANCH  29  30
ENDBRANCH   1  29
TORSDOF 26
