REMARK SMILES O=C(CCCN1C(=O)/C(=C\c2ccc(O)c(O)c2)SC1=S)OCCOCCOCCOC(=O)c1ccc(-c2c3nc(c(-c4cc(S(=O)(=O)[O-])ccc4F)c4ccc([nH]4)c(-c4cc(S(=O)(=O)[O-])ccc4F)c4nc(c(-c5cc(S(=O)(=O)[O-])ccc5F)c5ccc2[nH]5)C=C4)C=C3)cc1
REMARK SMILES IDX 26 1 25 2 24 3 23 4 22 5 2 6 1 7 3 8 4 9 5 10 6 11 7 12
REMARK SMILES IDX 20 13 8 14 9 15 19 16 21 17 10 18 11 19 12 20 18 21 13 22
REMARK SMILES IDX 16 23 14 24 17 25 15 27 27 29 28 30 29 31 30 32 31 33 32 34
REMARK SMILES IDX 33 35 34 36 35 37 96 38 36 39 95 40 37 41 38 42 39 43 89 44
REMARK SMILES IDX 40 45 94 46 88 47 90 48 41 49 93 50 87 51 86 52 42 54 74 55
REMARK SMILES IDX 54 56 73 57 55 58 58 59 72 60 91 61 56 62 57 63 71 65 92 66
REMARK SMILES IDX 59 67 43 68 44 69 52 70 45 71 51 72 53 73 50 74 46 75 47 76
REMARK SMILES IDX 48 77 49 78 75 79 76 80 84 81 77 82 83 83 85 84 82 85 78 86
REMARK SMILES IDX 79 87 80 88 81 89 60 90 61 91 69 92 62 93 68 94 70 95 67 96
REMARK SMILES IDX 63 97 64 98 65 99 66 100
REMARK H PARENT 17 26 15 28 90 53 58 64
REMARK Flexibility Score: inf
ROOT
ATOM      1  C   UNL     1       2.239  -1.380  -1.465  1.00  0.00     0.188 C 
ENDROOT
BRANCH   1   2
ATOM      2  O   UNL     1       3.553  -1.198  -0.950  1.00  0.00    -0.376 OA
BRANCH   2   3
ATOM      3  C   UNL     1       3.749  -1.783   0.327  1.00  0.00     0.202 C 
BRANCH   3   4
ATOM      4  C   UNL     1       3.388  -0.894   1.506  1.00  0.00     0.261 C 
BRANCH   4   5
ATOM      5  O   UNL     1       2.223  -0.086   1.328  1.00  0.00    -0.463 OA
BRANCH   5   6
ATOM      6  C   UNL     1       2.248   1.207   0.932  1.00  0.00     0.305 C 
ATOM      7  O   UNL     1       1.281   1.923   1.184  1.00  0.00    -0.252 OA
BRANCH   6   8
ATOM      8  C   UNL     1       3.414   1.741   0.124  1.00  0.00     0.124 C 
BRANCH   8   9
ATOM      9  C   UNL     1       4.485   2.511   0.892  1.00  0.00     0.034 C 
BRANCH   9  10
ATOM     10  C   UNL     1       5.744   1.748   1.351  1.00  0.00     0.128 C 
BRANCH  10  11
ATOM     11  N   UNL     1       6.411   0.846   0.396  1.00  0.00    -0.293 N 
ATOM     12  C   UNL     1       6.688   1.284  -0.889  1.00  0.00     0.266 C 
ATOM     13  C   UNL     1       7.007  -0.355   0.737  1.00  0.00     0.148 C 
ATOM     14  O   UNL     1       6.345   2.356  -1.361  1.00  0.00    -0.268 OA
ATOM     15  C   UNL     1       7.524   0.279  -1.616  1.00  0.00     0.081 C 
ATOM     16  S   UNL     1       7.562  -1.187  -0.719  1.00  0.00    -0.054 SA
ATOM     17  S   UNL     1       7.252  -1.000   2.259  1.00  0.00    -0.052 S 
ATOM     18  C   UNL     1       8.350   0.509  -2.647  1.00  0.00     0.029 C 
BRANCH  18  19
ATOM     19  C   UNL     1       8.751   1.867  -3.022  1.00  0.00    -0.020 A 
ATOM     20  C   UNL     1       9.455   2.625  -2.063  1.00  0.00     0.012 A 
ATOM     21  C   UNL     1       8.472   2.417  -4.272  1.00  0.00     0.058 A 
ATOM     22  C   UNL     1       9.823   3.943  -2.319  1.00  0.00     0.051 A 
ATOM     23  C   UNL     1       8.861   3.728  -4.524  1.00  0.00     0.157 A 
ATOM     24  C   UNL     1       9.512   4.490  -3.554  1.00  0.00     0.157 A 
BRANCH  23  25
ATOM     25  O   UNL     1       8.585   4.277  -5.744  1.00  0.00    -0.504 OA
ATOM     26  H   UNL     1       8.842   5.160  -5.928  1.00  0.00     0.293 HD
ENDBRANCH  23  25
BRANCH  24  27
ATOM     27  O   UNL     1       9.832   5.784  -3.857  1.00  0.00    -0.504 OA
ATOM     28  H   UNL     1      10.269   6.319  -3.224  1.00  0.00     0.293 HD
ENDBRANCH  24  27
ENDBRANCH  18  19
ENDBRANCH  10  11
ENDBRANCH   9  10
ENDBRANCH   8   9
ENDBRANCH   6   8
ENDBRANCH   5   6
ENDBRANCH   4   5
ENDBRANCH   3   4
ENDBRANCH   2   3
ENDBRANCH   1   2
BRANCH   1  29
ATOM     29  C   UNL     1       1.851  -2.804  -1.906  1.00  0.00     0.188 C 
BRANCH  29  30
ATOM     30  O   UNL     1       2.747  -3.886  -1.695  1.00  0.00    -0.376 OA
BRANCH  30  31
ATOM     31  C   UNL     1       4.072  -3.820  -2.212  1.00  0.00     0.202 C 
BRANCH  31  32
ATOM     32  C   UNL     1       4.280  -3.568  -3.703  1.00  0.00     0.261 C 
BRANCH  32  33
ATOM     33  O   UNL     1       3.811  -2.283  -4.133  1.00  0.00    -0.460 OA
BRANCH  33  34
ATOM     34  C   UNL     1       2.805  -2.320  -5.041  1.00  0.00     0.338 C 
ATOM     35  O   UNL     1       2.226  -3.300  -5.468  1.00  0.00    -0.246 OA
BRANCH  34  36
ATOM     36  C   UNL     1       2.431  -0.946  -5.396  1.00  0.00     0.060 A 
ATOM     37  C   UNL     1       1.218  -0.423  -4.931  1.00  0.00     0.016 A 
ATOM     38  C   UNL     1       3.243  -0.219  -6.265  1.00  0.00     0.016 A 
ATOM     39  C   UNL     1       0.813   0.847  -5.336  1.00  0.00     0.010 A 
ATOM     40  C   UNL     1       2.822   1.040  -6.690  1.00  0.00     0.010 A 
ATOM     41  C   UNL     1       1.601   1.571  -6.239  1.00  0.00    -0.014 A 
BRANCH  41  42
ATOM     42  C   UNL     1       1.110   2.842  -6.816  1.00  0.00     0.031 A 
ATOM     43  C   UNL     1       0.436   2.813  -8.157  1.00  0.00     0.074 A 
ATOM     44  C   UNL     1       1.317   4.001  -6.167  1.00  0.00     0.049 A 
ATOM     45  N   UNL     1       0.070   3.808  -8.919  1.00  0.00    -0.248 NA
ATOM     46  C   UNL     1       0.141   1.483  -8.716  1.00  0.00     0.031 C 
ATOM     47  C   UNL     1       1.920   4.126  -4.840  1.00  0.00     0.029 A 
ATOM     48  N   UNL     1       1.073   5.296  -6.550  1.00  0.00    -0.354 N 
ATOM     49  C   UNL     1      -0.484   3.229 -10.055  1.00  0.00     0.074 A 
ATOM     50  C   UNL     1      -0.399   1.794  -9.886  1.00  0.00     0.031 C 
ATOM     51  C   UNL     1       2.033   5.430  -4.535  1.00  0.00     0.029 A 
ATOM     52  C   UNL     1       1.562   6.229  -5.664  1.00  0.00     0.049 A 
ATOM     53  H   UNL     1       0.596   5.534  -7.377  1.00  0.00     0.167 HD
ATOM     54  C   UNL     1      -1.005   3.847 -11.142  1.00  0.00     0.034 A 
ATOM     55  C   UNL     1       1.665   7.569  -5.782  1.00  0.00     0.034 A 
ATOM     56  C   UNL     1      -1.064   5.280 -11.291  1.00  0.00     0.049 A 
ATOM     57  C   UNL     1       1.167   8.224  -7.052  1.00  0.00     0.074 A 
ATOM     58  C   UNL     1      -1.611   6.013 -12.329  1.00  0.00     0.029 A 
ATOM     59  N   UNL     1      -0.534   6.196 -10.391  1.00  0.00    -0.354 N 
ATOM     60  N   UNL     1       0.603   7.671  -8.102  1.00  0.00    -0.248 NA
ATOM     61  C   UNL     1       1.319   9.682  -7.153  1.00  0.00     0.031 C 
ATOM     62  C   UNL     1      -1.332   7.364 -12.102  1.00  0.00     0.029 A 
ATOM     63  C   UNL     1      -0.692   7.483 -10.878  1.00  0.00     0.049 A 
ATOM     64  H   UNL     1      -0.110   5.964  -9.534  1.00  0.00     0.167 HD
ATOM     65  C   UNL     1       0.313   8.719  -8.974  1.00  0.00     0.074 A 
ATOM     66  C   UNL     1       0.738   9.935  -8.316  1.00  0.00     0.031 C 
ATOM     67  C   UNL     1      -0.251   8.684 -10.208  1.00  0.00     0.034 A 
BRANCH  54  68
ATOM     68  C   UNL     1      -1.493   2.989 -12.280  1.00  0.00     0.023 A 
ATOM     69  C   UNL     1      -2.618   2.157 -12.161  1.00  0.00     0.031 A 
ATOM     70  C   UNL     1      -0.831   3.034 -13.521  1.00  0.00     0.131 A 
ATOM     71  C   UNL     1      -3.029   1.379 -13.255  1.00  0.00     0.055 A 
ATOM     72  C   UNL     1      -1.283   2.308 -14.623  1.00  0.00     0.041 A 
ATOM     73  F   UNL     1       0.266   3.791 -13.683  1.00  0.00    -0.206 F 
ATOM     74  C   UNL     1      -2.385   1.469 -14.492  1.00  0.00     0.022 A 
BRANCH  71  75
ATOM     75  S   UNL     1      -4.365   0.175 -13.016  1.00  0.00     0.124 S 
ATOM     76  O   UNL     1      -3.803  -0.690 -11.982  1.00  0.00    -0.237 OA
ATOM     77  O   UNL     1      -5.481   1.019 -12.605  1.00  0.00    -0.237 OA
ATOM     78  O   UNL     1      -4.505  -0.447 -14.331  1.00  0.00    -0.744 OA
ENDBRANCH  71  75
ENDBRANCH  54  68
BRANCH  55  79
ATOM     79  C   UNL     1       2.334   8.385  -4.724  1.00  0.00     0.023 A 
ATOM     80  C   UNL     1       1.656   9.428  -4.075  1.00  0.00     0.031 A 
ATOM     81  C   UNL     1       3.696   8.200  -4.420  1.00  0.00     0.131 A 
ATOM     82  C   UNL     1       2.355  10.290  -3.215  1.00  0.00     0.055 A 
ATOM     83  C   UNL     1       4.368   9.013  -3.506  1.00  0.00     0.041 A 
ATOM     84  F   UNL     1       4.402   7.227  -5.019  1.00  0.00    -0.206 F 
ATOM     85  C   UNL     1       3.702  10.079  -2.912  1.00  0.00     0.022 A 
BRANCH  82  86
ATOM     86  S   UNL     1       1.514  11.780  -2.611  1.00  0.00     0.124 S 
ATOM     87  O   UNL     1       1.094  12.409  -3.858  1.00  0.00    -0.237 OA
ATOM     88  O   UNL     1       0.451  11.216  -1.786  1.00  0.00    -0.237 OA
ATOM     89  O   UNL     1       2.562  12.488  -1.877  1.00  0.00    -0.744 OA
ENDBRANCH  82  86
ENDBRANCH  55  79
BRANCH  67  90
ATOM     90  C   UNL     1      -0.469  10.005 -10.905  1.00  0.00     0.023 A 
ATOM     91  C   UNL     1       0.608  10.799 -11.334  1.00  0.00     0.031 A 
ATOM     92  C   UNL     1      -1.774  10.470 -11.151  1.00  0.00     0.131 A 
ATOM     93  C   UNL     1       0.362  12.040 -11.941  1.00  0.00     0.055 A 
ATOM     94  C   UNL     1      -2.012  11.674 -11.815  1.00  0.00     0.041 A 
ATOM     95  F   UNL     1      -2.840   9.753 -10.760  1.00  0.00    -0.206 F 
ATOM     96  C   UNL     1      -0.940  12.472 -12.203  1.00  0.00     0.022 A 
BRANCH  93  97
ATOM     97  S   UNL     1       1.769  13.123 -12.309  1.00  0.00     0.124 S 
ATOM     98  O   UNL     1       2.347  13.331 -10.986  1.00  0.00    -0.237 OA
ATOM     99  O   UNL     1       2.559  12.311 -13.229  1.00  0.00    -0.237 OA
ATOM    100  O   UNL     1       1.146  14.304 -12.906  1.00  0.00    -0.744 OA
ENDBRANCH  93  97
ENDBRANCH  67  90
ENDBRANCH  41  42
ENDBRANCH  34  36
ENDBRANCH  33  34
ENDBRANCH  32  33
ENDBRANCH  31  32
ENDBRANCH  30  31
ENDBRANCH  29  30
ENDBRANCH   1  29
TORSDOF 26
