REMARK SMILES C[C@@H](C(=O)OCCOCCOCCOC(=O)c1ccc(-c2c3nc(c(-c4cc(S(=O)(=O)[O-])ccc4F)c4ccc([nH]4)c(-c4cc(S(=O)(=O)[O-])ccc4F)c4nc(c(-c5cc(S(=O)(=O)[O-])ccc5F)c5ccc2[nH]5)C=C4)C=C3)cc1)c1ccc(-c2cccc(OC(=O)NC3CC3)c2)c(F)c1
REMARK SMILES IDX 9 1 8 2 7 3 6 4 5 5 3 6 4 7 2 8 1 9 80 10 81 11 99 12 82 13
REMARK SMILES IDX 97 14 83 15 98 16 84 17 85 18 96 19 86 20 88 21 87 22 89 23
REMARK SMILES IDX 90 24 91 25 92 26 93 28 94 29 95 30 10 31 11 32 12 33 13 34
REMARK SMILES IDX 14 35 15 36 16 37 17 38 18 39 79 40 19 41 78 42 20 43 21 44
REMARK SMILES IDX 22 45 72 46 23 47 77 48 71 49 73 50 24 51 76 52 70 53 69 54
REMARK SMILES IDX 25 56 57 57 37 58 56 59 38 60 41 61 55 62 74 63 39 64 40 65
REMARK SMILES IDX 54 67 75 68 42 69 26 70 27 71 35 72 28 73 34 74 36 75 33 76
REMARK SMILES IDX 29 77 30 78 31 79 32 80 58 81 59 82 67 83 60 84 66 85 68 86
REMARK SMILES IDX 65 87 61 88 62 89 63 90 64 91 43 92 44 93 52 94 45 95 51 96
REMARK SMILES IDX 53 97 50 98 46 99 47 100 48 101 49 102
REMARK H PARENT 92 27 73 55 41 66
REMARK Flexibility Score: inf
ROOT
ATOM      1  C   UNL     1       0.424  -2.154  -3.240  1.00  0.00     0.188 C 
ENDROOT
BRANCH   1   2
ATOM      2  O   UNL     1       1.106  -2.250  -4.483  1.00  0.00    -0.376 OA
BRANCH   2   3
ATOM      3  C   UNL     1       2.343  -1.570  -4.636  1.00  0.00     0.202 C 
BRANCH   3   4
ATOM      4  C   UNL     1       2.440  -0.076  -4.277  1.00  0.00     0.261 C 
BRANCH   4   5
ATOM      5  O   UNL     1       1.961   0.303  -2.969  1.00  0.00    -0.463 OA
BRANCH   5   6
ATOM      6  C   UNL     1       1.042   1.309  -2.928  1.00  0.00     0.313 C 
ATOM      7  O   UNL     1       0.622   1.883  -3.929  1.00  0.00    -0.252 OA
BRANCH   6   8
ATOM      8  C   UNL     1       0.587   1.704  -1.512  1.00  0.00     0.126 C 
ATOM      9  C   UNL     1       1.294   1.054  -0.317  1.00  0.00     0.025 C 
BRANCH   8  10
ATOM     10  C   UNL     1      -0.927   1.610  -1.371  1.00  0.00    -0.031 A 
ATOM     11  C   UNL     1      -1.718   2.762  -1.259  1.00  0.00     0.005 A 
ATOM     12  C   UNL     1      -1.577   0.373  -1.378  1.00  0.00     0.044 A 
ATOM     13  C   UNL     1      -3.117   2.671  -1.169  1.00  0.00     0.012 A 
ATOM     14  C   UNL     1      -2.963   0.295  -1.313  1.00  0.00     0.131 A 
ATOM     15  C   UNL     1      -3.767   1.429  -1.196  1.00  0.00     0.018 A 
ATOM     16  F   UNL     1      -3.515  -0.922  -1.366  1.00  0.00    -0.206 F 
BRANCH  15  17
ATOM     17  C   UNL     1      -5.224   1.308  -1.057  1.00  0.00    -0.012 A 
ATOM     18  C   UNL     1      -6.104   1.937  -1.952  1.00  0.00     0.009 A 
ATOM     19  C   UNL     1      -5.768   0.548  -0.005  1.00  0.00     0.056 A 
ATOM     20  C   UNL     1      -7.487   1.810  -1.801  1.00  0.00     0.004 A 
ATOM     21  C   UNL     1      -7.146   0.415   0.135  1.00  0.00     0.133 A 
ATOM     22  C   UNL     1      -8.010   1.042  -0.761  1.00  0.00     0.047 A 
BRANCH  21  23
ATOM     23  O   UNL     1      -7.772  -0.292   1.190  1.00  0.00    -0.410 OA
BRANCH  23  24
ATOM     24  C   UNL     1      -7.171  -1.230   2.027  1.00  0.00     0.412 C 
ATOM     25  O   UNL     1      -5.987  -1.553   2.018  1.00  0.00    -0.224 OA
ATOM     26  N   UNL     1      -8.039  -1.788   2.933  1.00  0.00    -0.318 N 
ATOM     27  H   UNL     1      -7.652  -2.470   3.527  1.00  0.00     0.167 HD
BRANCH  26  28
ATOM     28  C   UNL     1      -9.425  -1.515   3.130  1.00  0.00     0.085 C 
ATOM     29  C   UNL     1     -10.421  -1.156   2.062  1.00  0.00     0.027 C 
ATOM     30  C   UNL     1     -10.423  -2.534   2.645  1.00  0.00     0.027 C 
ENDBRANCH  26  28
ENDBRANCH  23  24
ENDBRANCH  21  23
ENDBRANCH  15  17
ENDBRANCH   8  10
ENDBRANCH   6   8
ENDBRANCH   5   6
ENDBRANCH   4   5
ENDBRANCH   3   4
ENDBRANCH   2   3
ENDBRANCH   1   2
BRANCH   1  31
ATOM     31  C   UNL     1       1.233  -2.285  -1.935  1.00  0.00     0.188 C 
BRANCH  31  32
ATOM     32  O   UNL     1       2.561  -2.735  -2.127  1.00  0.00    -0.376 OA
BRANCH  32  33
ATOM     33  C   UNL     1       2.867  -4.023  -1.621  1.00  0.00     0.202 C 
BRANCH  33  34
ATOM     34  C   UNL     1       2.100  -5.196  -2.248  1.00  0.00     0.261 C 
BRANCH  34  35
ATOM     35  O   UNL     1       0.664  -5.120  -2.193  1.00  0.00    -0.460 OA
BRANCH  35  36
ATOM     36  C   UNL     1       0.074  -5.201  -0.976  1.00  0.00     0.338 C 
ATOM     37  O   UNL     1       0.645  -5.336   0.092  1.00  0.00    -0.246 OA
BRANCH  36  38
ATOM     38  C   UNL     1      -1.369  -4.887  -1.146  1.00  0.00     0.060 A 
ATOM     39  C   UNL     1      -1.961  -3.926  -0.318  1.00  0.00     0.016 A 
ATOM     40  C   UNL     1      -2.131  -5.518  -2.135  1.00  0.00     0.016 A 
ATOM     41  C   UNL     1      -3.316  -3.608  -0.472  1.00  0.00     0.010 A 
ATOM     42  C   UNL     1      -3.489  -5.204  -2.280  1.00  0.00     0.010 A 
ATOM     43  C   UNL     1      -4.097  -4.252  -1.445  1.00  0.00    -0.014 A 
BRANCH  43  44
ATOM     44  C   UNL     1      -5.575  -4.069  -1.461  1.00  0.00     0.031 A 
ATOM     45  C   UNL     1      -6.407  -4.929  -0.550  1.00  0.00     0.074 A 
ATOM     46  C   UNL     1      -6.182  -3.175  -2.266  1.00  0.00     0.049 A 
ATOM     47  N   UNL     1      -7.707  -4.995  -0.414  1.00  0.00    -0.248 NA
ATOM     48  C   UNL     1      -5.662  -5.860   0.311  1.00  0.00     0.031 C 
ATOM     49  C   UNL     1      -5.498  -2.262  -3.176  1.00  0.00     0.029 A 
ATOM     50  N   UNL     1      -7.516  -2.886  -2.443  1.00  0.00    -0.354 N 
ATOM     51  C   UNL     1      -7.936  -5.971   0.548  1.00  0.00     0.074 A 
ATOM     52  C   UNL     1      -6.642  -6.489   0.939  1.00  0.00     0.031 C 
ATOM     53  C   UNL     1      -6.414  -1.500  -3.801  1.00  0.00     0.029 A 
ATOM     54  C   UNL     1      -7.754  -1.903  -3.378  1.00  0.00     0.049 A 
ATOM     55  H   UNL     1      -8.234  -3.341  -1.947  1.00  0.00     0.167 HD
ATOM     56  C   UNL     1      -9.116  -6.403   1.057  1.00  0.00     0.034 A 
ATOM     57  C   UNL     1      -8.917  -1.401  -3.848  1.00  0.00     0.034 A 
ATOM     58  C   UNL     1     -10.405  -5.919   0.629  1.00  0.00     0.049 A 
ATOM     59  C   UNL     1     -10.224  -1.945  -3.311  1.00  0.00     0.074 A 
ATOM     60  C   UNL     1     -11.659  -6.297   1.075  1.00  0.00     0.029 A 
ATOM     61  N   UNL     1     -10.607  -4.959  -0.355  1.00  0.00    -0.354 N 
ATOM     62  N   UNL     1     -10.429  -2.854  -2.384  1.00  0.00    -0.248 NA
ATOM     63  C   UNL     1     -11.461  -1.394  -3.886  1.00  0.00     0.031 C 
ATOM     64  C   UNL     1     -12.618  -5.614   0.321  1.00  0.00     0.029 A 
ATOM     65  C   UNL     1     -11.966  -4.746  -0.539  1.00  0.00     0.049 A 
ATOM     66  H   UNL     1      -9.892  -4.498  -0.850  1.00  0.00     0.167 HD
ATOM     67  C   UNL     1     -11.812  -2.965  -2.256  1.00  0.00     0.074 A 
ATOM     68  C   UNL     1     -12.393  -2.009  -3.173  1.00  0.00     0.031 C 
ATOM     69  C   UNL     1     -12.538  -3.789  -1.457  1.00  0.00     0.034 A 
BRANCH  56  70
ATOM     70  C   UNL     1      -9.052  -7.499   2.090  1.00  0.00     0.023 A 
ATOM     71  C   UNL     1      -8.431  -7.300   3.336  1.00  0.00     0.031 A 
ATOM     72  C   UNL     1      -9.569  -8.775   1.807  1.00  0.00     0.131 A 
ATOM     73  C   UNL     1      -8.270  -8.380   4.216  1.00  0.00     0.055 A 
ATOM     74  C   UNL     1      -9.480  -9.824   2.723  1.00  0.00     0.041 A 
ATOM     75  F   UNL     1     -10.152  -9.030   0.625  1.00  0.00    -0.206 F 
ATOM     76  C   UNL     1      -8.812  -9.634   3.930  1.00  0.00     0.022 A 
BRANCH  73  77
ATOM     77  S   UNL     1      -7.210  -8.156   5.671  1.00  0.00     0.124 S 
ATOM     78  O   UNL     1      -5.934  -7.801   5.054  1.00  0.00    -0.237 OA
ATOM     79  O   UNL     1      -7.889  -7.087   6.393  1.00  0.00    -0.237 OA
ATOM     80  O   UNL     1      -7.238  -9.466   6.319  1.00  0.00    -0.744 OA
ENDBRANCH  73  77
ENDBRANCH  56  70
BRANCH  57  81
ATOM     81  C   UNL     1      -8.927  -0.352  -4.916  1.00  0.00     0.023 A 
ATOM     82  C   UNL     1      -9.528   0.900  -4.700  1.00  0.00     0.031 A 
ATOM     83  C   UNL     1      -8.402  -0.608  -6.195  1.00  0.00     0.131 A 
ATOM     84  C   UNL     1      -9.619   1.832  -5.746  1.00  0.00     0.055 A 
ATOM     85  C   UNL     1      -8.449   0.342  -7.219  1.00  0.00     0.041 A 
ATOM     86  F   UNL     1      -7.835  -1.792  -6.473  1.00  0.00    -0.206 F 
ATOM     87  C   UNL     1      -9.070   1.567  -7.001  1.00  0.00     0.022 A 
BRANCH  84  88
ATOM     88  S   UNL     1     -10.533   3.371  -5.458  1.00  0.00     0.124 S 
ATOM     89  O   UNL     1     -11.856   2.870  -5.104  1.00  0.00    -0.237 OA
ATOM     90  O   UNL     1      -9.766   3.975  -4.373  1.00  0.00    -0.237 OA
ATOM     91  O   UNL     1     -10.449   4.065  -6.741  1.00  0.00    -0.744 OA
ENDBRANCH  84  88
ENDBRANCH  57  81
BRANCH  69  92
ATOM     92  C   UNL     1     -14.043  -3.657  -1.504  1.00  0.00     0.023 A 
ATOM     93  C   UNL     1     -14.785  -3.987  -2.652  1.00  0.00     0.031 A 
ATOM     94  C   UNL     1     -14.746  -3.197  -0.375  1.00  0.00     0.131 A 
ATOM     95  C   UNL     1     -16.177  -3.804  -2.663  1.00  0.00     0.055 A 
ATOM     96  C   UNL     1     -16.137  -3.077  -0.371  1.00  0.00     0.041 A 
ATOM     97  F   UNL     1     -14.091  -2.865   0.750  1.00  0.00    -0.206 F 
ATOM     98  C   UNL     1     -16.859  -3.369  -1.524  1.00  0.00     0.022 A 
BRANCH  95  99
ATOM     99  S   UNL     1     -17.081  -4.058  -4.216  1.00  0.00     0.124 S 
ATOM    100  O   UNL     1     -16.424  -3.110  -5.109  1.00  0.00    -0.237 OA
ATOM    101  O   UNL     1     -16.837  -5.470  -4.493  1.00  0.00    -0.237 OA
ATOM    102  O   UNL     1     -18.462  -3.727  -3.867  1.00  0.00    -0.744 OA
ENDBRANCH  95  99
ENDBRANCH  69  92
ENDBRANCH  43  44
ENDBRANCH  36  38
ENDBRANCH  35  36
ENDBRANCH  34  35
ENDBRANCH  33  34
ENDBRANCH  32  33
ENDBRANCH  31  32
ENDBRANCH   1  31
TORSDOF 25
