REMARK SMILES CO[C@@H]1C[NH2+][C@@H](O[C@@H]2C[C@@H](C(=O)OCCOCCOCCOC(=O)c3ccc(-c4c5nc(c(-c6cc(S(=O)(=O)[O-])ccc6F)c6ccc([nH]6)c(-c6cc(S(=O)(=O)[O-])ccc6F)c6nc(c(-c7cc(S(=O)(=O)[O-])ccc7F)c7ccc4[nH]7)C=C6)C=C5)cc3)N(C(=O)OC(C)(C)C)C2)c2cc(Cl)ccc21
REMARK SMILES IDX 17 1 16 2 15 3 14 4 13 5 11 6 12 7 10 8 8 9 9 10 96 11 88 12
REMARK SMILES IDX 7 13 6 14 3 15 4 16 103 17 5 18 97 19 102 20 98 23 101 24
REMARK SMILES IDX 99 25 100 26 2 27 1 28 89 29 90 30 91 31 92 32 93 33 94 34
REMARK SMILES IDX 95 35 18 36 19 37 20 38 21 39 22 40 23 41 24 42 25 43 26 44
REMARK SMILES IDX 87 45 27 46 86 47 28 48 29 49 30 50 80 51 31 52 85 53 79 54
REMARK SMILES IDX 81 55 32 56 84 57 78 58 77 59 33 61 65 62 45 63 64 64 46 65
REMARK SMILES IDX 49 66 63 67 82 68 47 69 48 70 62 72 83 73 50 74 34 75 35 76
REMARK SMILES IDX 43 77 36 78 42 79 44 80 41 81 37 82 38 83 39 84 40 85 66 86
REMARK SMILES IDX 67 87 75 88 68 89 74 90 76 91 73 92 69 93 70 94 71 95 72 96
REMARK SMILES IDX 51 97 52 98 60 99 53 100 59 101 61 102 58 103 54 104 55 105
REMARK SMILES IDX 56 106 57 107
REMARK H PARENT 5 21 5 22 81 60 49 71
REMARK Flexibility Score: inf
ROOT
ATOM      1  C   UNL     1       1.240  -4.779   4.826  1.00  0.00     0.188 C 
ENDROOT
BRANCH   1   2
ATOM      2  O   UNL     1       0.524  -4.159   5.882  1.00  0.00    -0.376 OA
BRANCH   2   3
ATOM      3  C   UNL     1      -0.529  -3.290   5.476  1.00  0.00     0.202 C 
BRANCH   3   4
ATOM      4  C   UNL     1      -0.026  -1.891   5.116  1.00  0.00     0.261 C 
BRANCH   4   5
ATOM      5  O   UNL     1       0.640  -1.914   3.845  1.00  0.00    -0.462 OA
BRANCH   5   6
ATOM      6  C   UNL     1       2.015  -1.920   3.819  1.00  0.00     0.329 C 
ATOM      7  O   UNL     1       2.758  -1.792   4.778  1.00  0.00    -0.250 OA
BRANCH   6   8
ATOM      8  C   UNL     1       2.431  -2.164   2.363  1.00  0.00     0.201 C 
ATOM      9  C   UNL     1       3.776  -3.297   0.746  1.00  0.00     0.147 C 
ATOM     10  C   UNL     1       3.089  -3.511   2.091  1.00  0.00     0.071 C 
ATOM     11  C   UNL     1       4.192  -1.813   0.775  1.00  0.00     0.156 C 
ATOM     12  N   UNL     1       3.308  -1.189   1.751  1.00  0.00    -0.292 N 
BRANCH   9  13
ATOM     13  O   UNL     1       3.118  -3.821  -0.401  1.00  0.00    -0.320 OA
BRANCH  13  14
ATOM     14  C   UNL     1       1.817  -3.591  -0.926  1.00  0.00     0.354 C 
ATOM     15  C   UNL     1       0.002  -1.430  -0.001  1.00  0.00     0.203 C 
ATOM     16  C   UNL     1       1.209  -1.230  -0.967  1.00  0.00     0.300 C 
ATOM     17  C   UNL     1      -0.293  -2.892   0.326  1.00  0.00    -0.002 A 
ATOM     18  N   UNL     1       1.697  -2.381  -1.708  1.00  0.00    -0.315 N 
ATOM     19  C   UNL     1       0.581  -3.914  -0.108  1.00  0.00     0.046 A 
ATOM     20  C   UNL     1      -1.397  -3.231   1.131  1.00  0.00     0.009 A 
ATOM     21  H   UNL     1       2.617  -2.152  -2.083  1.00  0.00     0.349 HD
ATOM     22  H   UNL     1       1.006  -2.573  -2.433  1.00  0.00     0.349 HD
ATOM     23  C   UNL     1       0.245  -5.259   0.146  1.00  0.00     0.033 A 
ATOM     24  C   UNL     1      -1.701  -4.568   1.400  1.00  0.00     0.021 A 
ATOM     25  C   UNL     1      -0.908  -5.578   0.863  1.00  0.00     0.041 A 
ATOM     26  Cl  UNL     1      -1.320  -7.228   1.133  1.00  0.00    -0.084 Cl
BRANCH  15  27
ATOM     27  O   UNL     1      -1.177  -0.752  -0.457  1.00  0.00    -0.371 OA
ATOM     28  C   UNL     1      -0.993   0.666  -0.468  1.00  0.00     0.196 C 
ENDBRANCH  15  27
ENDBRANCH  13  14
ENDBRANCH   9  13
BRANCH  12  29
ATOM     29  C   UNL     1       3.115   0.168   1.862  1.00  0.00     0.411 C 
ATOM     30  O   UNL     1       3.782   1.012   1.283  1.00  0.00    -0.224 OA
BRANCH  29  31
ATOM     31  O   UNL     1       2.070   0.432   2.685  1.00  0.00    -0.444 OA
BRANCH  31  32
ATOM     32  C   UNL     1       1.879   1.705   3.348  1.00  0.00     0.106 C 
ATOM     33  C   UNL     1       3.095   2.040   4.213  1.00  0.00     0.056 C 
ATOM     34  C   UNL     1       1.530   2.814   2.360  1.00  0.00     0.056 C 
ATOM     35  C   UNL     1       0.670   1.485   4.275  1.00  0.00     0.056 C 
ENDBRANCH  31  32
ENDBRANCH  29  31
ENDBRANCH  12  29
ENDBRANCH   6   8
ENDBRANCH   5   6
ENDBRANCH   4   5
ENDBRANCH   3   4
ENDBRANCH   2   3
ENDBRANCH   1   2
BRANCH   1  36
ATOM     36  C   UNL     1       0.561  -5.924   4.086  1.00  0.00     0.188 C 
BRANCH  36  37
ATOM     37  O   UNL     1      -0.627  -6.441   4.650  1.00  0.00    -0.376 OA
BRANCH  37  38
ATOM     38  C   UNL     1      -0.481  -7.043   5.934  1.00  0.00     0.202 C 
BRANCH  38  39
ATOM     39  C   UNL     1       0.456  -8.254   5.968  1.00  0.00     0.261 C 
BRANCH  39  40
ATOM     40  O   UNL     1       1.823  -7.814   6.108  1.00  0.00    -0.460 OA
BRANCH  40  41
ATOM     41  C   UNL     1       2.696  -8.187   5.138  1.00  0.00     0.338 C 
ATOM     42  O   UNL     1       2.472  -8.924   4.194  1.00  0.00    -0.246 OA
BRANCH  41  43
ATOM     43  C   UNL     1       3.921  -7.367   5.273  1.00  0.00     0.060 A 
ATOM     44  C   UNL     1       4.518  -7.184   6.521  1.00  0.00     0.016 A 
ATOM     45  C   UNL     1       4.478  -6.777   4.128  1.00  0.00     0.016 A 
ATOM     46  C   UNL     1       5.698  -6.447   6.616  1.00  0.00     0.010 A 
ATOM     47  C   UNL     1       5.662  -6.037   4.225  1.00  0.00     0.010 A 
ATOM     48  C   UNL     1       6.298  -5.895   5.467  1.00  0.00    -0.014 A 
BRANCH  48  49
ATOM     49  C   UNL     1       7.705  -5.432   5.565  1.00  0.00     0.031 A 
ATOM     50  C   UNL     1       8.084  -3.992   5.689  1.00  0.00     0.074 A 
ATOM     51  C   UNL     1       8.656  -6.386   5.598  1.00  0.00     0.049 A 
ATOM     52  N   UNL     1       9.243  -3.485   6.025  1.00  0.00    -0.248 NA
ATOM     53  C   UNL     1       7.051  -2.994   5.385  1.00  0.00     0.031 C 
ATOM     54  C   UNL     1       8.394  -7.815   5.424  1.00  0.00     0.029 A 
ATOM     55  N   UNL     1      10.008  -6.315   5.817  1.00  0.00    -0.354 N 
ATOM     56  C   UNL     1       9.080  -2.106   6.002  1.00  0.00     0.074 A 
ATOM     57  C   UNL     1       7.722  -1.859   5.559  1.00  0.00     0.031 C 
ATOM     58  C   UNL     1       9.536  -8.491   5.596  1.00  0.00     0.029 A 
ATOM     59  C   UNL     1      10.617  -7.547   5.871  1.00  0.00     0.049 A 
ATOM     60  H   UNL     1      10.495  -5.466   5.925  1.00  0.00     0.167 HD
ATOM     61  C   UNL     1       9.980  -1.151   6.343  1.00  0.00     0.034 A 
ATOM     62  C   UNL     1      11.892  -7.892   6.140  1.00  0.00     0.034 A 
ATOM     63  C   UNL     1      11.333  -1.436   6.771  1.00  0.00     0.049 A 
ATOM     64  C   UNL     1      12.870  -6.817   6.529  1.00  0.00     0.074 A 
ATOM     65  C   UNL     1      12.291  -0.542   7.219  1.00  0.00     0.029 A 
ATOM     66  N   UNL     1      11.929  -2.691   6.788  1.00  0.00    -0.354 N 
ATOM     67  N   UNL     1      12.663  -5.527   6.657  1.00  0.00    -0.248 NA
ATOM     68  C   UNL     1      14.243  -7.237   6.833  1.00  0.00     0.031 C 
ATOM     69  C   UNL     1      13.485  -1.238   7.417  1.00  0.00     0.029 A 
ATOM     70  C   UNL     1      13.253  -2.585   7.189  1.00  0.00     0.049 A 
ATOM     71  H   UNL     1      11.477  -3.533   6.550  1.00  0.00     0.167 HD
ATOM     72  C   UNL     1      13.874  -4.983   7.074  1.00  0.00     0.074 A 
ATOM     73  C   UNL     1      14.800  -6.090   7.205  1.00  0.00     0.031 C 
ATOM     74  C   UNL     1      14.184  -3.685   7.319  1.00  0.00     0.034 A 
BRANCH  61  75
ATOM     75  C   UNL     1       9.557   0.301   6.311  1.00  0.00     0.023 A 
ATOM     76  C   UNL     1      10.253   1.226   5.507  1.00  0.00     0.031 A 
ATOM     77  C   UNL     1       8.583   0.798   7.196  1.00  0.00     0.131 A 
ATOM     78  C   UNL     1       9.993   2.597   5.633  1.00  0.00     0.055 A 
ATOM     79  C   UNL     1       8.294   2.161   7.283  1.00  0.00     0.041 A 
ATOM     80  F   UNL     1       7.903  -0.035   8.001  1.00  0.00    -0.206 F 
ATOM     81  C   UNL     1       9.010   3.068   6.509  1.00  0.00     0.022 A 
BRANCH  78  82
ATOM     82  S   UNL     1      10.978   3.829   4.736  1.00  0.00     0.124 S 
ATOM     83  O   UNL     1       9.959   4.497   3.928  1.00  0.00    -0.237 OA
ATOM     84  O   UNL     1      11.532   4.630   5.825  1.00  0.00    -0.237 OA
ATOM     85  O   UNL     1      11.942   3.031   3.986  1.00  0.00    -0.744 OA
ENDBRANCH  78  82
ENDBRANCH  61  75
BRANCH  62  86
ATOM     86  C   UNL     1      12.250  -9.340   6.138  1.00  0.00     0.023 A 
ATOM     87  C   UNL     1      12.111 -10.107   4.967  1.00  0.00     0.031 A 
ATOM     88  C   UNL     1      12.573 -10.006   7.332  1.00  0.00     0.131 A 
ATOM     89  C   UNL     1      12.201 -11.502   5.034  1.00  0.00     0.055 A 
ATOM     90  C   UNL     1      12.742 -11.391   7.377  1.00  0.00     0.041 A 
ATOM     91  F   UNL     1      12.697  -9.319   8.478  1.00  0.00    -0.206 F 
ATOM     92  C   UNL     1      12.534 -12.148   6.228  1.00  0.00     0.022 A 
BRANCH  89  93
ATOM     93  S   UNL     1      11.728 -12.529   3.615  1.00  0.00     0.124 S 
ATOM     94  O   UNL     1      12.941 -13.305   3.381  1.00  0.00    -0.237 OA
ATOM     95  O   UNL     1      10.595 -13.276   4.155  1.00  0.00    -0.237 OA
ATOM     96  O   UNL     1      11.393 -11.555   2.581  1.00  0.00    -0.744 OA
ENDBRANCH  89  93
ENDBRANCH  62  86
BRANCH  74  97
ATOM     97  C   UNL     1      15.596  -3.344   7.745  1.00  0.00     0.023 A 
ATOM     98  C   UNL     1      15.827  -2.714   8.985  1.00  0.00     0.031 A 
ATOM     99  C   UNL     1      16.685  -3.494   6.868  1.00  0.00     0.131 A 
ATOM    100  C   UNL     1      17.100  -2.212   9.289  1.00  0.00     0.055 A 
ATOM    101  C   UNL     1      17.964  -3.042   7.199  1.00  0.00     0.041 A 
ATOM    102  F   UNL     1      16.520  -4.077   5.670  1.00  0.00    -0.206 F 
ATOM    103  C   UNL     1      18.172  -2.383   8.407  1.00  0.00     0.022 A 
BRANCH 100 104
ATOM    104  S   UNL     1      17.390  -1.235  10.790  1.00  0.00     0.124 S 
ATOM    105  O   UNL     1      18.414  -2.023  11.472  1.00  0.00    -0.237 OA
ATOM    106  O   UNL     1      17.847   0.040  10.243  1.00  0.00    -0.237 OA
ATOM    107  O   UNL     1      16.088  -1.206  11.448  1.00  0.00    -0.744 OA
ENDBRANCH 100 104
ENDBRANCH  74  97
ENDBRANCH  48  49
ENDBRANCH  41  43
ENDBRANCH  40  41
ENDBRANCH  39  40
ENDBRANCH  38  39
ENDBRANCH  37  38
ENDBRANCH  36  37
ENDBRANCH   1  36
TORSDOF 26
