REMARK SMILES Cc1cc(NC(=O)[C@H]2[C@@H](C(=O)OCCOCCOCCOC(=O)c3ccc(-c4c5nc(c(-c6cc(S(=O)(=O)[O-])ccc6F)c6ccc([nH]6)c(-c6cc(S(=O)(=O)[O-])ccc6F)c6nc(c(-c7cc(S(=O)(=O)[O-])ccc7F)c7ccc4[nH]7)C=C6)C=C5)cc3)C2(C)C)n(-c2ccc(F)cc2)n1
REMARK SMILES IDX 16 1 15 2 14 3 13 4 12 5 10 6 11 7 9 8 8 9 87 10 88 11 89 12
REMARK SMILES IDX 6 13 5 14 7 16 4 17 1 18 2 19 3 20 98 21 90 22 91 23 92 24
REMARK SMILES IDX 97 25 93 26 96 27 94 28 95 29 17 30 18 31 19 32 20 33 21 34
REMARK SMILES IDX 22 35 23 36 24 37 25 38 86 39 26 40 85 41 27 42 28 43 29 44
REMARK SMILES IDX 79 45 30 46 84 47 78 48 80 49 31 50 83 51 77 52 76 53 32 55
REMARK SMILES IDX 64 56 44 57 63 58 45 59 48 60 62 61 81 62 46 63 47 64 61 66
REMARK SMILES IDX 82 67 49 68 33 69 34 70 42 71 35 72 41 73 43 74 40 75 36 76
REMARK SMILES IDX 37 77 38 78 39 79 65 80 66 81 74 82 67 83 73 84 75 85 72 86
REMARK SMILES IDX 68 87 69 88 70 89 71 90 50 91 51 92 59 93 52 94 58 95 60 96
REMARK SMILES IDX 57 97 53 98 54 99 55 100 56 101
REMARK H PARENT 5 15 80 54 48 65
REMARK Flexibility Score: inf
ROOT
ATOM      1  C   UNL     1       0.749   3.546  -0.143  1.00  0.00     0.188 C 
ENDROOT
BRANCH   1   2
ATOM      2  O   UNL     1      -0.384   3.005   0.530  1.00  0.00    -0.376 OA
BRANCH   2   3
ATOM      3  C   UNL     1      -0.977   1.823  -0.021  1.00  0.00     0.202 C 
BRANCH   3   4
ATOM      4  C   UNL     1      -2.046   1.866  -1.230  1.00  0.00     0.261 C 
BRANCH   4   5
ATOM      5  O   UNL     1      -1.561   2.150  -2.612  1.00  0.00    -0.463 OA
BRANCH   5   6
ATOM      6  C   UNL     1      -2.188   2.170  -3.853  1.00  0.00     0.310 C 
ATOM      7  O   UNL     1      -3.299   1.702  -4.051  1.00  0.00    -0.252 OA
BRANCH   6   8
ATOM      8  C   UNL     1      -1.452   3.000  -5.075  1.00  0.00     0.118 C 
ATOM      9  C   UNL     1      -1.269   2.275  -6.370  1.00  0.00     0.100 C 
ATOM     10  C   UNL     1      -0.007   2.990  -5.998  1.00  0.00    -0.009 C 
ATOM     11  C   UNL     1       1.278   2.112  -6.203  1.00  0.00     0.013 C 
ATOM     12  C   UNL     1       0.330   4.300  -6.717  1.00  0.00     0.013 C 
BRANCH   9  13
ATOM     13  C   UNL     1      -1.273   0.837  -6.269  1.00  0.00     0.230 C 
ATOM     14  N   UNL     1      -0.680   0.179  -5.176  1.00  0.00    -0.310 N 
ATOM     15  H   UNL     1      -0.839  -0.792  -5.217  1.00  0.00     0.171 HD
ATOM     16  O   UNL     1      -1.782   0.116  -7.127  1.00  0.00    -0.274 OA
BRANCH  14  17
ATOM     17  C   UNL     1       0.081   0.524  -4.036  1.00  0.00     0.136 A 
ATOM     18  C   UNL     1       0.968  -1.140  -0.925  1.00  0.00     0.069 C 
ATOM     19  C   UNL     1       0.817  -0.221  -2.095  1.00  0.00     0.062 A 
ATOM     20  C   UNL     1       0.345  -0.622  -3.315  1.00  0.00     0.072 A 
ATOM     21  N   UNL     1       1.017   1.094  -2.066  1.00  0.00    -0.171 NA
ATOM     22  N   UNL     1       0.737   1.653  -3.285  1.00  0.00    -0.217 N 
BRANCH  22  23
ATOM     23  C   UNL     1       0.856   3.227  -3.388  1.00  0.00     0.067 A 
ATOM     24  C   UNL     1      -0.178   4.213  -3.124  1.00  0.00     0.031 A 
ATOM     25  C   UNL     1       2.092   3.843  -3.625  1.00  0.00     0.031 A 
ATOM     26  C   UNL     1      -0.111   5.592  -3.384  1.00  0.00     0.041 A 
ATOM     27  C   UNL     1       2.189   5.257  -3.859  1.00  0.00     0.041 A 
ATOM     28  C   UNL     1       1.079   6.100  -3.806  1.00  0.00     0.123 A 
ATOM     29  F   UNL     1       1.155   7.395  -4.140  1.00  0.00    -0.207 F 
ENDBRANCH  22  23
ENDBRANCH  14  17
ENDBRANCH   9  13
ENDBRANCH   6   8
ENDBRANCH   5   6
ENDBRANCH   4   5
ENDBRANCH   3   4
ENDBRANCH   2   3
ENDBRANCH   1   2
BRANCH   1  30
ATOM     30  C   UNL     1       2.196   3.042   0.067  1.00  0.00     0.188 C 
BRANCH  30  31
ATOM     31  O   UNL     1       2.819   2.174  -0.888  1.00  0.00    -0.376 OA
BRANCH  31  32
ATOM     32  C   UNL     1       3.376   0.942  -0.405  1.00  0.00     0.202 C 
BRANCH  32  33
ATOM     33  C   UNL     1       4.861   0.920  -0.045  1.00  0.00     0.261 C 
BRANCH  33  34
ATOM     34  O   UNL     1       5.275   2.192   0.359  1.00  0.00    -0.460 OA
BRANCH  34  35
ATOM     35  C   UNL     1       5.290   3.099  -0.653  1.00  0.00     0.338 C 
ATOM     36  O   UNL     1       5.421   2.897  -1.846  1.00  0.00    -0.246 OA
BRANCH  35  37
ATOM     37  C   UNL     1       5.124   4.398   0.013  1.00  0.00     0.060 A 
ATOM     38  C   UNL     1       5.832   5.440  -0.556  1.00  0.00     0.016 A 
ATOM     39  C   UNL     1       4.742   4.373   1.368  1.00  0.00     0.016 A 
ATOM     40  C   UNL     1       6.599   6.158   0.317  1.00  0.00     0.010 A 
ATOM     41  C   UNL     1       5.520   5.055   2.230  1.00  0.00     0.010 A 
ATOM     42  C   UNL     1       6.538   5.809   1.670  1.00  0.00    -0.014 A 
BRANCH  42  43
ATOM     43  C   UNL     1       7.505   6.321   2.590  1.00  0.00     0.031 A 
ATOM     44  C   UNL     1       7.056   7.649   3.028  1.00  0.00     0.074 A 
ATOM     45  C   UNL     1       8.517   5.559   3.039  1.00  0.00     0.049 A 
ATOM     46  N   UNL     1       7.340   8.766   2.441  1.00  0.00    -0.248 NA
ATOM     47  C   UNL     1       5.849   7.720   3.882  1.00  0.00     0.031 C 
ATOM     48  C   UNL     1       8.802   4.140   2.800  1.00  0.00     0.029 A 
ATOM     49  N   UNL     1       9.495   5.915   3.903  1.00  0.00    -0.354 N 
ATOM     50  C   UNL     1       6.598   9.694   3.146  1.00  0.00     0.074 A 
ATOM     51  C   UNL     1       5.465   8.975   3.641  1.00  0.00     0.031 C 
ATOM     52  C   UNL     1       9.749   3.719   3.675  1.00  0.00     0.029 A 
ATOM     53  C   UNL     1      10.218   4.856   4.449  1.00  0.00     0.049 A 
ATOM     54  H   UNL     1       9.682   6.854   4.131  1.00  0.00     0.167 HD
ATOM     55  C   UNL     1       7.216  10.780   3.682  1.00  0.00     0.034 A 
ATOM     56  C   UNL     1      11.051   4.954   5.526  1.00  0.00     0.034 A 
ATOM     57  C   UNL     1       8.513  10.977   3.053  1.00  0.00     0.049 A 
ATOM     58  C   UNL     1      11.396   6.405   5.644  1.00  0.00     0.074 A 
ATOM     59  C   UNL     1       8.931  11.139   1.744  1.00  0.00     0.029 A 
ATOM     60  N   UNL     1       9.630  10.571   3.756  1.00  0.00    -0.354 N 
ATOM     61  N   UNL     1      12.082   7.044   4.730  1.00  0.00    -0.248 NA
ATOM     62  C   UNL     1      10.510   7.250   6.439  1.00  0.00     0.031 C 
ATOM     63  C   UNL     1      10.139  10.388   1.641  1.00  0.00     0.029 A 
ATOM     64  C   UNL     1      10.472   9.893   2.904  1.00  0.00     0.049 A 
ATOM     65  H   UNL     1       9.797  10.739   4.711  1.00  0.00     0.167 HD
ATOM     66  C   UNL     1      11.418   8.251   4.543  1.00  0.00     0.074 A 
ATOM     67  C   UNL     1      10.495   8.350   5.675  1.00  0.00     0.031 C 
ATOM     68  C   UNL     1      11.438   8.889   3.332  1.00  0.00     0.034 A 
BRANCH  55  69
ATOM     69  C   UNL     1       6.877  11.349   5.046  1.00  0.00     0.023 A 
ATOM     70  C   UNL     1       7.622  12.470   5.437  1.00  0.00     0.031 A 
ATOM     71  C   UNL     1       6.097  10.750   6.069  1.00  0.00     0.131 A 
ATOM     72  C   UNL     1       7.676  12.865   6.782  1.00  0.00     0.055 A 
ATOM     73  C   UNL     1       6.114  11.180   7.396  1.00  0.00     0.041 A 
ATOM     74  F   UNL     1       5.324   9.675   5.893  1.00  0.00    -0.206 F 
ATOM     75  C   UNL     1       6.934  12.224   7.768  1.00  0.00     0.022 A 
BRANCH  72  76
ATOM     76  S   UNL     1       8.874  14.134   7.236  1.00  0.00     0.124 S 
ATOM     77  O   UNL     1      10.114  13.552   6.734  1.00  0.00    -0.237 OA
ATOM     78  O   UNL     1       8.364  15.293   6.513  1.00  0.00    -0.237 OA
ATOM     79  O   UNL     1       8.755  14.201   8.690  1.00  0.00    -0.744 OA
ENDBRANCH  72  76
ENDBRANCH  55  69
BRANCH  56  80
ATOM     80  C   UNL     1      11.171   3.972   6.650  1.00  0.00     0.023 A 
ATOM     81  C   UNL     1      12.274   3.908   7.534  1.00  0.00     0.031 A 
ATOM     82  C   UNL     1      10.040   3.199   7.006  1.00  0.00     0.131 A 
ATOM     83  C   UNL     1      12.216   3.091   8.695  1.00  0.00     0.055 A 
ATOM     84  C   UNL     1       9.989   2.398   8.149  1.00  0.00     0.041 A 
ATOM     85  F   UNL     1       8.906   3.256   6.290  1.00  0.00    -0.206 F 
ATOM     86  C   UNL     1      11.076   2.345   9.003  1.00  0.00     0.022 A 
BRANCH  83  87
ATOM     87  S   UNL     1      13.613   3.012   9.872  1.00  0.00     0.124 S 
ATOM     88  O   UNL     1      14.691   2.484   9.045  1.00  0.00    -0.237 OA
ATOM     89  O   UNL     1      13.739   4.400  10.299  1.00  0.00    -0.237 OA
ATOM     90  O   UNL     1      13.136   2.095  10.910  1.00  0.00    -0.744 OA
ENDBRANCH  83  87
ENDBRANCH  56  80
BRANCH  68  91
ATOM     91  C   UNL     1      12.437   8.414   2.286  1.00  0.00     0.023 A 
ATOM     92  C   UNL     1      12.495   7.116   1.721  1.00  0.00     0.031 A 
ATOM     93  C   UNL     1      13.303   9.388   1.758  1.00  0.00     0.131 A 
ATOM     94  C   UNL     1      13.406   6.841   0.676  1.00  0.00     0.055 A 
ATOM     95  C   UNL     1      14.182   9.118   0.712  1.00  0.00     0.041 A 
ATOM     96  F   UNL     1      13.279  10.645   2.232  1.00  0.00    -0.206 F 
ATOM     97  C   UNL     1      14.242   7.841   0.170  1.00  0.00     0.022 A 
BRANCH  94  98
ATOM     98  S   UNL     1      13.544   5.166  -0.037  1.00  0.00     0.124 S 
ATOM     99  O   UNL     1      13.613   4.302   1.135  1.00  0.00    -0.237 OA
ATOM    100  O   UNL     1      12.326   5.062  -0.836  1.00  0.00    -0.237 OA
ATOM    101  O   UNL     1      14.779   5.230  -0.821  1.00  0.00    -0.744 OA
ENDBRANCH  94  98
ENDBRANCH  68  91
ENDBRANCH  42  43
ENDBRANCH  35  37
ENDBRANCH  34  35
ENDBRANCH  33  34
ENDBRANCH  32  33
ENDBRANCH  31  32
ENDBRANCH  30  31
ENDBRANCH   1  30
TORSDOF 23
