REMARK SMILES O=C(N[C@@H](Cc1ccc(O)cc1)C(=O)N[C@@H](Cc1c[nH]c2ccccc12)C(=O)N[C@@H](CO)C(=O)OCCOCCOCCOC(=O)c1ccc(-c2c3nc(c(-c4cc(S(=O)(=O)[O-])ccc4F)c4ccc([nH]4)c(-c4cc(S(=O)(=O)[O-])ccc4F)c4nc(c(-c5cc(S(=O)(=O)[O-])ccc5F)c5ccc2[nH]5)C=C4)C=C3)cc1)c1ccc(F)cc1
REMARK SMILES IDX 37 1 36 2 35 3 33 4 34 5 30 6 29 7 27 8 28 9 16 11 15 12
REMARK SMILES IDX 13 13 14 14 4 16 3 17 1 18 2 19 110 21 111 22 116 23 112 24
REMARK SMILES IDX 115 25 113 26 114 27 5 28 6 29 7 30 12 31 8 32 11 33 9 34
REMARK SMILES IDX 10 35 17 37 18 38 19 39 26 40 20 41 21 42 25 43 22 45 24 46
REMARK SMILES IDX 23 47 31 48 32 49 38 51 39 52 40 53 41 54 42 55 43 56 44 57
REMARK SMILES IDX 45 58 46 59 47 60 48 61 109 62 49 63 108 64 50 65 51 66
REMARK SMILES IDX 52 67 102 68 53 69 107 70 101 71 103 72 54 73 106 74 100 75
REMARK SMILES IDX 99 76 55 78 87 79 67 80 86 81 68 82 71 83 85 84 104 85 69 86
REMARK SMILES IDX 70 87 84 89 105 90 72 91 56 92 57 93 65 94 58 95 64 96 66 97
REMARK SMILES IDX 63 98 59 99 60 100 61 101 62 102 88 103 89 104 97 105 90 106
REMARK SMILES IDX 96 107 98 108 95 109 91 110 92 111 93 112 94 113 73 114
REMARK SMILES IDX 74 115 82 116 75 117 81 118 83 119 80 120 76 121 77 122
REMARK SMILES IDX 78 123 79 124
REMARK H PARENT 29 10 15 15 3 20 10 36 20 44 32 50 103 77 71 88
REMARK Flexibility Score: inf
ROOT
ATOM      1  C   UNL     1       4.069 -10.743   2.443  1.00  0.00     0.202 C 
ENDROOT
BRANCH   1   2
ATOM      2  C   UNL     1       4.777 -10.396   1.118  1.00  0.00     0.261 C 
BRANCH   2   3
ATOM      3  O   UNL     1       5.260  -9.034   1.111  1.00  0.00    -0.462 OA
BRANCH   3   4
ATOM      4  C   UNL     1       5.431  -8.460  -0.116  1.00  0.00     0.331 C 
ATOM      5  O   UNL     1       5.457  -9.090  -1.169  1.00  0.00    -0.250 OA
BRANCH   4   6
ATOM      6  C   UNL     1       5.747  -6.942  -0.013  1.00  0.00     0.218 C 
BRANCH   6   7
ATOM      7  N   UNL     1       5.248  -6.306   1.220  1.00  0.00    -0.339 N 
ATOM      8  C   UNL     1       4.244  -5.399   1.398  1.00  0.00     0.243 C 
ATOM      9  O   UNL     1       3.546  -5.547   2.406  1.00  0.00    -0.273 OA
ATOM     10  H   UNL     1       5.713  -6.578   2.044  1.00  0.00     0.164 HD
BRANCH   8  11
ATOM     11  C   UNL     1       3.862  -4.268   0.428  1.00  0.00     0.175 C 
BRANCH  11  12
ATOM     12  N   UNL     1       4.967  -3.650  -0.294  1.00  0.00    -0.342 N 
ATOM     13  C   UNL     1       5.486  -2.390  -0.182  1.00  0.00     0.243 C 
ATOM     14  O   UNL     1       6.612  -2.230  -0.672  1.00  0.00    -0.273 OA
ATOM     15  H   UNL     1       5.405  -4.225  -0.963  1.00  0.00     0.164 HD
BRANCH  13  16
ATOM     16  C   UNL     1       4.822  -1.216   0.604  1.00  0.00     0.176 C 
BRANCH  16  17
ATOM     17  N   UNL     1       3.363  -1.102   0.515  1.00  0.00    -0.340 N 
ATOM     18  O   UNL     1       1.357  -0.183   0.201  1.00  0.00    -0.269 OA
ATOM     19  C   UNL     1       2.569  -0.089   0.035  1.00  0.00     0.251 C 
ATOM     20  H   UNL     1       2.870  -1.883   0.857  1.00  0.00     0.164 HD
BRANCH  19  21
ATOM     21  C   UNL     1       3.146   1.131  -0.580  1.00  0.00     0.040 A 
ATOM     22  C   UNL     1       4.115   1.073  -1.590  1.00  0.00     0.017 A 
ATOM     23  C   UNL     1       2.683   2.377  -0.131  1.00  0.00     0.017 A 
ATOM     24  C   UNL     1       4.691   2.253  -2.070  1.00  0.00     0.040 A 
ATOM     25  C   UNL     1       3.247   3.555  -0.628  1.00  0.00     0.040 A 
ATOM     26  C   UNL     1       4.261   3.481  -1.577  1.00  0.00     0.123 A 
ATOM     27  F   UNL     1       4.833   4.606  -2.025  1.00  0.00    -0.207 F 
ENDBRANCH  19  21
ENDBRANCH  16  17
BRANCH  16  28
ATOM     28  C   UNL     1       5.356  -1.018   2.037  1.00  0.00     0.070 C 
BRANCH  28  29
ATOM     29  C   UNL     1       5.134  -2.122   3.039  1.00  0.00    -0.045 A 
ATOM     30  C   UNL     1       3.970  -2.163   3.822  1.00  0.00     0.007 A 
ATOM     31  C   UNL     1       6.126  -3.093   3.243  1.00  0.00     0.007 A 
ATOM     32  C   UNL     1       3.794  -3.171   4.775  1.00  0.00     0.046 A 
ATOM     33  C   UNL     1       5.953  -4.093   4.201  1.00  0.00     0.046 A 
ATOM     34  C   UNL     1       4.781  -4.135   4.946  1.00  0.00     0.115 A 
BRANCH  34  35
ATOM     35  O   UNL     1       4.615  -5.162   5.828  1.00  0.00    -0.508 OA
ATOM     36  H   UNL     1       3.835  -5.216   6.343  1.00  0.00     0.293 HD
ENDBRANCH  34  35
ENDBRANCH  28  29
ENDBRANCH  16  28
ENDBRANCH  13  16
ENDBRANCH  11  12
BRANCH  11  37
ATOM     37  C   UNL     1       2.619  -4.564  -0.426  1.00  0.00     0.072 C 
BRANCH  37  38
ATOM     38  C   UNL     1       2.552  -5.921  -1.046  1.00  0.00    -0.020 A 
ATOM     39  C   UNL     1       3.134  -6.318  -2.232  1.00  0.00     0.087 A 
ATOM     40  C   UNL     1       1.819  -7.052  -0.550  1.00  0.00     0.003 A 
ATOM     41  N   UNL     1       2.874  -7.650  -2.415  1.00  0.00    -0.361 N 
ATOM     42  C   UNL     1       2.081  -8.126  -1.398  1.00  0.00     0.046 A 
ATOM     43  C   UNL     1       0.955  -7.267   0.544  1.00  0.00     0.010 A 
ATOM     44  H   UNL     1       3.207  -8.190  -3.168  1.00  0.00     0.166 HD
ATOM     45  C   UNL     1       1.569  -9.410  -1.174  1.00  0.00     0.026 A 
ATOM     46  C   UNL     1       0.403  -8.533   0.763  1.00  0.00     0.001 A 
ATOM     47  C   UNL     1       0.723  -9.593  -0.076  1.00  0.00     0.002 A 
ENDBRANCH  37  38
ENDBRANCH  11  37
ENDBRANCH   8  11
ENDBRANCH   6   7
BRANCH   6  48
ATOM     48  C   UNL     1       7.266  -6.796  -0.128  1.00  0.00     0.193 C 
BRANCH  48  49
ATOM     49  O   UNL     1       7.939  -7.356   1.002  1.00  0.00    -0.394 OA
ATOM     50  H   UNL     1       7.663  -6.890   1.806  1.00  0.00     0.210 HD
ENDBRANCH  48  49
ENDBRANCH   6  48
ENDBRANCH   4   6
ENDBRANCH   3   4
ENDBRANCH   2   3
ENDBRANCH   1   2
BRANCH   1  51
ATOM     51  O   UNL     1       2.998  -9.868   2.813  1.00  0.00    -0.376 OA
BRANCH  51  52
ATOM     52  C   UNL     1       3.468  -8.540   3.054  1.00  0.00     0.188 C 
BRANCH  52  53
ATOM     53  C   UNL     1       2.612  -7.762   4.027  1.00  0.00     0.188 C 
BRANCH  53  54
ATOM     54  O   UNL     1       2.514  -8.421   5.285  1.00  0.00    -0.376 OA
BRANCH  54  55
ATOM     55  C   UNL     1       1.254  -9.062   5.450  1.00  0.00     0.202 C 
BRANCH  55  56
ATOM     56  C   UNL     1       0.175  -8.088   5.946  1.00  0.00     0.261 C 
BRANCH  56  57
ATOM     57  O   UNL     1      -0.344  -7.233   4.901  1.00  0.00    -0.460 OA
BRANCH  57  58
ATOM     58  C   UNL     1       0.132  -5.958   4.857  1.00  0.00     0.338 C 
ATOM     59  O   UNL     1       0.967  -5.471   5.601  1.00  0.00    -0.246 OA
BRANCH  58  60
ATOM     60  C   UNL     1      -0.422  -5.247   3.669  1.00  0.00     0.060 A 
ATOM     61  C   UNL     1       0.378  -4.289   3.033  1.00  0.00     0.016 A 
ATOM     62  C   UNL     1      -1.711  -5.494   3.180  1.00  0.00     0.016 A 
ATOM     63  C   UNL     1      -0.101  -3.587   1.919  1.00  0.00     0.010 A 
ATOM     64  C   UNL     1      -2.187  -4.793   2.059  1.00  0.00     0.010 A 
ATOM     65  C   UNL     1      -1.384  -3.838   1.415  1.00  0.00    -0.014 A 
BRANCH  65  66
ATOM     66  C   UNL     1      -1.927  -3.007   0.304  1.00  0.00     0.031 A 
ATOM     67  C   UNL     1      -2.576  -1.695   0.636  1.00  0.00     0.074 A 
ATOM     68  C   UNL     1      -1.825  -3.384  -0.985  1.00  0.00     0.049 A 
ATOM     69  N   UNL     1      -3.210  -0.855  -0.141  1.00  0.00    -0.248 NA
ATOM     70  C   UNL     1      -2.502  -1.285   2.045  1.00  0.00     0.031 C 
ATOM     71  C   UNL     1      -1.127  -4.573  -1.462  1.00  0.00     0.029 A 
ATOM     72  N   UNL     1      -2.303  -2.797  -2.134  1.00  0.00    -0.354 N 
ATOM     73  C   UNL     1      -3.603   0.194   0.682  1.00  0.00     0.074 A 
ATOM     74  C   UNL     1      -3.164  -0.140   2.022  1.00  0.00     0.031 C 
ATOM     75  C   UNL     1      -1.208  -4.623  -2.803  1.00  0.00     0.029 A 
ATOM     76  C   UNL     1      -2.027  -3.509  -3.280  1.00  0.00     0.049 A 
ATOM     77  H   UNL     1      -2.797  -1.946  -2.136  1.00  0.00     0.167 HD
ATOM     78  C   UNL     1      -4.274   1.327   0.355  1.00  0.00     0.034 A 
ATOM     79  C   UNL     1      -2.424  -3.308  -4.555  1.00  0.00     0.034 A 
ATOM     80  C   UNL     1      -4.748   1.627  -0.974  1.00  0.00     0.049 A 
ATOM     81  C   UNL     1      -3.341  -2.145  -4.864  1.00  0.00     0.074 A 
ATOM     82  C   UNL     1      -5.474   2.723  -1.406  1.00  0.00     0.029 A 
ATOM     83  N   UNL     1      -4.566   0.812  -2.085  1.00  0.00    -0.354 N 
ATOM     84  N   UNL     1      -3.756  -1.183  -4.072  1.00  0.00    -0.248 NA
ATOM     85  C   UNL     1      -3.864  -2.057  -6.236  1.00  0.00     0.031 C 
ATOM     86  C   UNL     1      -5.807   2.527  -2.751  1.00  0.00     0.029 A 
ATOM     87  C   UNL     1      -5.216   1.351  -3.186  1.00  0.00     0.049 A 
ATOM     88  H   UNL     1      -4.051  -0.027  -2.090  1.00  0.00     0.167 HD
ATOM     89  C   UNL     1      -4.571  -0.367  -4.855  1.00  0.00     0.074 A 
ATOM     90  C   UNL     1      -4.580  -0.942  -6.184  1.00  0.00     0.031 C 
ATOM     91  C   UNL     1      -5.245   0.759  -4.505  1.00  0.00     0.034 A 
BRANCH  78  92
ATOM     92  C   UNL     1      -4.618   2.256   1.495  1.00  0.00     0.023 A 
ATOM     93  C   UNL     1      -3.621   2.881   2.266  1.00  0.00     0.031 A 
ATOM     94  C   UNL     1      -5.957   2.425   1.885  1.00  0.00     0.131 A 
ATOM     95  C   UNL     1      -3.973   3.546   3.450  1.00  0.00     0.055 A 
ATOM     96  C   UNL     1      -6.307   3.172   3.011  1.00  0.00     0.041 A 
ATOM     97  F   UNL     1      -6.950   1.831   1.203  1.00  0.00    -0.206 F 
ATOM     98  C   UNL     1      -5.310   3.717   3.815  1.00  0.00     0.022 A 
BRANCH  95  99
ATOM     99  S   UNL     1      -2.653   3.996   4.612  1.00  0.00     0.124 S 
ATOM    100  O   UNL     1      -2.004   2.706   4.840  1.00  0.00    -0.237 OA
ATOM    101  O   UNL     1      -1.881   4.973   3.853  1.00  0.00    -0.237 OA
ATOM    102  O   UNL     1      -3.377   4.529   5.764  1.00  0.00    -0.744 OA
ENDBRANCH  95  99
ENDBRANCH  78  92
BRANCH  79 103
ATOM    103  C   UNL     1      -2.041  -4.266  -5.637  1.00  0.00     0.023 A 
ATOM    104  C   UNL     1      -1.284  -3.849  -6.745  1.00  0.00     0.031 A 
ATOM    105  C   UNL     1      -2.489  -5.599  -5.614  1.00  0.00     0.131 A 
ATOM    106  C   UNL     1      -1.024  -4.746  -7.795  1.00  0.00     0.055 A 
ATOM    107  C   UNL     1      -2.185  -6.501  -6.636  1.00  0.00     0.041 A 
ATOM    108  F   UNL     1      -3.235  -6.049  -4.592  1.00  0.00    -0.206 F 
ATOM    109  C   UNL     1      -1.456  -6.073  -7.740  1.00  0.00     0.022 A 
BRANCH 106 110
ATOM    110  S   UNL     1      -0.163  -4.140  -9.274  1.00  0.00     0.124 S 
ATOM    111  O   UNL     1      -1.096  -3.134  -9.770  1.00  0.00    -0.237 OA
ATOM    112  O   UNL     1       1.088  -3.638  -8.716  1.00  0.00    -0.237 OA
ATOM    113  O   UNL     1      -0.033  -5.335 -10.106  1.00  0.00    -0.744 OA
ENDBRANCH 106 110
ENDBRANCH  79 103
BRANCH  91 114
ATOM    114  C   UNL     1      -6.032   1.464  -5.586  1.00  0.00     0.023 A 
ATOM    115  C   UNL     1      -7.183   0.893  -6.160  1.00  0.00     0.031 A 
ATOM    116  C   UNL     1      -5.636   2.738  -6.034  1.00  0.00     0.131 A 
ATOM    117  C   UNL     1      -7.874   1.578  -7.172  1.00  0.00     0.055 A 
ATOM    118  C   UNL     1      -6.360   3.438  -7.000  1.00  0.00     0.041 A 
ATOM    119  F   UNL     1      -4.543   3.331  -5.526  1.00  0.00    -0.206 F 
ATOM    120  C   UNL     1      -7.482   2.855  -7.581  1.00  0.00     0.022 A 
BRANCH 117 121
ATOM    121  S   UNL     1      -9.262   0.751  -8.000  1.00  0.00     0.124 S 
ATOM    122  O   UNL     1      -8.614  -0.422  -8.579  1.00  0.00    -0.237 OA
ATOM    123  O   UNL     1     -10.179   0.494  -6.895  1.00  0.00    -0.237 OA
ATOM    124  O   UNL     1      -9.724   1.744  -8.969  1.00  0.00    -0.744 OA
ENDBRANCH 117 121
ENDBRANCH  91 114
ENDBRANCH  65  66
ENDBRANCH  58  60
ENDBRANCH  57  58
ENDBRANCH  56  57
ENDBRANCH  55  56
ENDBRANCH  54  55
ENDBRANCH  53  54
ENDBRANCH  52  53
ENDBRANCH  51  52
ENDBRANCH   1  51
TORSDOF 33
