REMARK SMILES Cc1nc2sc3c(c2c2nc(CCC(=O)OCCOCCOCCOC(=O)c4ccc(-c5c6nc(c(-c7cc(S(=O)(=O)[O-])ccc7F)c7ccc([nH]7)c(-c7cc(S(=O)(=O)[O-])ccc7F)c7nc(c(-c8cc(S(=O)(=O)[O-])ccc8F)c8ccc5[nH]8)C=C7)C=C6)cc4)nn12)[C@@H](C)CCC3
REMARK SMILES IDX 21 1 20 2 19 3 18 4 17 5 16 6 14 7 15 8 13 9 12 10 11 11
REMARK SMILES IDX 1 12 2 13 3 14 92 15 4 16 9 17 91 18 5 19 8 20 10 21 6 22
REMARK SMILES IDX 7 23 97 24 93 25 96 26 94 27 95 28 22 29 23 30 24 31 25 32
REMARK SMILES IDX 26 33 27 34 28 35 29 36 90 37 30 38 89 39 31 40 32 41 33 42
REMARK SMILES IDX 83 43 34 44 88 45 82 46 84 47 35 48 87 49 81 50 80 51 36 53
REMARK SMILES IDX 68 54 48 55 67 56 49 57 52 58 66 59 85 60 50 61 51 62 65 64
REMARK SMILES IDX 86 65 53 66 37 67 38 68 46 69 39 70 45 71 47 72 44 73 40 74
REMARK SMILES IDX 41 75 42 76 43 77 69 78 70 79 78 80 71 81 77 82 79 83 76 84
REMARK SMILES IDX 72 85 73 86 74 87 75 88 54 89 55 90 63 91 56 92 62 93 64 94
REMARK SMILES IDX 61 95 57 96 58 97 59 98 60 99
REMARK H PARENT 84 52 52 63
REMARK Flexibility Score: inf
ROOT
ATOM      1  C   UNL     1      -0.193   7.706  -2.363  1.00  0.00     0.188 C 
ENDROOT
BRANCH   1   2
ATOM      2  C   UNL     1       1.194   7.718  -2.964  1.00  0.00     0.188 C 
BRANCH   2   3
ATOM      3  O   UNL     1       1.246   8.159  -4.315  1.00  0.00    -0.376 OA
BRANCH   3   4
ATOM      4  C   UNL     1       1.641   7.162  -5.255  1.00  0.00     0.202 C 
BRANCH   4   5
ATOM      5  C   UNL     1       3.012   6.484  -5.016  1.00  0.00     0.261 C 
BRANCH   5   6
ATOM      6  O   UNL     1       3.046   5.619  -3.843  1.00  0.00    -0.463 OA
BRANCH   6   7
ATOM      7  C   UNL     1       3.818   6.035  -2.808  1.00  0.00     0.306 C 
ATOM      8  O   UNL     1       4.637   6.946  -2.902  1.00  0.00    -0.252 OA
BRANCH   7   9
ATOM      9  C   UNL     1       3.640   5.277  -1.498  1.00  0.00     0.131 C 
BRANCH   9  10
ATOM     10  C   UNL     1       2.261   4.910  -0.948  1.00  0.00     0.091 C 
BRANCH  10  11
ATOM     11  C   UNL     1       1.662   3.652  -1.473  1.00  0.00     0.152 A 
ATOM     12  C   UNL     1       1.019  -0.200  -0.080  1.00  0.00     0.090 C 
ATOM     13  C   UNL     1       0.570   0.365  -1.390  1.00  0.00     0.131 A 
ATOM     14  N   UNL     1      -0.072  -0.347  -2.284  1.00  0.00    -0.222 NA
ATOM     15  N   UNL     1       0.907   1.710  -1.593  1.00  0.00    -0.199 N 
ATOM     16  C   UNL     1      -0.393   0.303  -3.454  1.00  0.00     0.129 A 
ATOM     17  C   UNL     1       0.575   2.377  -2.738  1.00  0.00     0.168 A 
ATOM     18  N   UNL     1       1.641   2.501  -0.774  1.00  0.00    -0.150 NA
ATOM     19  S   UNL     1      -1.174  -0.498  -4.750  1.00  0.00    -0.120 S 
ATOM     20  C   UNL     1      -0.133   1.623  -3.795  1.00  0.00     0.060 A 
ATOM     21  N   UNL     1       1.020   3.605  -2.683  1.00  0.00    -0.211 NA
ATOM     22  C   UNL     1      -1.134   0.898  -5.732  1.00  0.00     0.011 A 
ATOM     23  C   UNL     1      -0.539   1.983  -5.112  1.00  0.00    -0.018 A 
ATOM     24  C   UNL     1      -1.645   0.893  -7.143  1.00  0.00     0.047 C 
ATOM     25  C   UNL     1      -0.386   3.303  -5.821  1.00  0.00     0.018 C 
ATOM     26  C   UNL     1      -1.897   2.327  -7.628  1.00  0.00     0.006 C 
ATOM     27  C   UNL     1       1.011   3.877  -5.670  1.00  0.00     0.013 C 
ATOM     28  C   UNL     1      -0.695   3.219  -7.329  1.00  0.00     0.008 C 
ENDBRANCH  10  11
ENDBRANCH   9  10
ENDBRANCH   7   9
ENDBRANCH   6   7
ENDBRANCH   5   6
ENDBRANCH   4   5
ENDBRANCH   3   4
ENDBRANCH   2   3
ENDBRANCH   1   2
BRANCH   1  29
ATOM     29  O   UNL     1      -0.720   6.372  -2.252  1.00  0.00    -0.376 OA
BRANCH  29  30
ATOM     30  C   UNL     1      -1.381   5.836  -3.395  1.00  0.00     0.202 C 
BRANCH  30  31
ATOM     31  C   UNL     1      -2.848   6.218  -3.587  1.00  0.00     0.261 C 
BRANCH  31  32
ATOM     32  O   UNL     1      -3.060   7.575  -3.275  1.00  0.00    -0.460 OA
BRANCH  32  33
ATOM     33  C   UNL     1      -3.110   7.807  -1.936  1.00  0.00     0.338 C 
ATOM     34  O   UNL     1      -3.152   6.996  -1.042  1.00  0.00    -0.246 OA
BRANCH  33  35
ATOM     35  C   UNL     1      -3.058   9.262  -1.759  1.00  0.00     0.060 A 
ATOM     36  C   UNL     1      -2.925   9.744  -0.458  1.00  0.00     0.016 A 
ATOM     37  C   UNL     1      -3.348  10.091  -2.850  1.00  0.00     0.016 A 
ATOM     38  C   UNL     1      -3.424  10.995  -0.199  1.00  0.00     0.010 A 
ATOM     39  C   UNL     1      -3.863  11.323  -2.590  1.00  0.00     0.010 A 
ATOM     40  C   UNL     1      -4.016  11.685  -1.258  1.00  0.00    -0.014 A 
BRANCH  40  41
ATOM     41  C   UNL     1      -4.800  12.859  -0.983  1.00  0.00     0.031 A 
ATOM     42  C   UNL     1      -3.933  14.031  -0.793  1.00  0.00     0.074 A 
ATOM     43  C   UNL     1      -6.145  12.823  -1.037  1.00  0.00     0.049 A 
ATOM     44  N   UNL     1      -3.574  14.544   0.335  1.00  0.00    -0.248 NA
ATOM     45  C   UNL     1      -3.132  14.495  -1.941  1.00  0.00     0.031 C 
ATOM     46  C   UNL     1      -7.023  11.717  -1.431  1.00  0.00     0.029 A 
ATOM     47  N   UNL     1      -7.025  13.829  -0.808  1.00  0.00    -0.354 N 
ATOM     48  C   UNL     1      -2.758  15.607  -0.013  1.00  0.00     0.074 A 
ATOM     49  C   UNL     1      -2.276  15.316  -1.332  1.00  0.00     0.031 C 
ATOM     50  C   UNL     1      -8.282  12.184  -1.619  1.00  0.00     0.029 A 
ATOM     51  C   UNL     1      -8.330  13.585  -1.238  1.00  0.00     0.049 A 
ATOM     52  H   UNL     1      -6.762  14.670  -0.370  1.00  0.00     0.167 HD
ATOM     53  C   UNL     1      -2.879  16.792   0.640  1.00  0.00     0.034 A 
ATOM     54  C   UNL     1      -9.336  14.506  -1.307  1.00  0.00     0.034 A 
ATOM     55  C   UNL     1      -3.552  16.606   1.911  1.00  0.00     0.049 A 
ATOM     56  C   UNL     1      -8.958  15.579  -0.343  1.00  0.00     0.074 A 
ATOM     57  C   UNL     1      -3.303  15.820   3.022  1.00  0.00     0.029 A 
ATOM     58  N   UNL     1      -4.887  16.944   1.986  1.00  0.00    -0.354 N 
ATOM     59  N   UNL     1      -8.861  15.370   0.945  1.00  0.00    -0.248 NA
ATOM     60  C   UNL     1      -8.167  16.693  -0.850  1.00  0.00     0.031 C 
ATOM     61  C   UNL     1      -4.581  15.335   3.427  1.00  0.00     0.029 A 
ATOM     62  C   UNL     1      -5.556  15.924   2.619  1.00  0.00     0.049 A 
ATOM     63  H   UNL     1      -5.291  17.774   1.644  1.00  0.00     0.167 HD
ATOM     64  C   UNL     1      -7.698  16.023   1.331  1.00  0.00     0.074 A 
ATOM     65  C   UNL     1      -7.351  16.879   0.194  1.00  0.00     0.031 C 
ATOM     66  C   UNL     1      -6.952  15.584   2.389  1.00  0.00     0.034 A 
BRANCH  53  67
ATOM     67  C   UNL     1      -2.788  18.136  -0.049  1.00  0.00     0.023 A 
ATOM     68  C   UNL     1      -2.917  19.270   0.767  1.00  0.00     0.031 A 
ATOM     69  C   UNL     1      -2.850  18.375  -1.445  1.00  0.00     0.131 A 
ATOM     70  C   UNL     1      -3.188  20.531   0.211  1.00  0.00     0.055 A 
ATOM     71  C   UNL     1      -3.065  19.640  -1.995  1.00  0.00     0.041 A 
ATOM     72  F   UNL     1      -2.794  17.408  -2.366  1.00  0.00    -0.206 F 
ATOM     73  C   UNL     1      -3.267  20.724  -1.165  1.00  0.00     0.022 A 
BRANCH  70  74
ATOM     74  S   UNL     1      -3.570  21.893   1.334  1.00  0.00     0.124 S 
ATOM     75  O   UNL     1      -4.727  21.367   2.049  1.00  0.00    -0.237 OA
ATOM     76  O   UNL     1      -2.332  22.003   2.100  1.00  0.00    -0.237 OA
ATOM     77  O   UNL     1      -3.843  23.008   0.430  1.00  0.00    -0.744 OA
ENDBRANCH  70  74
ENDBRANCH  53  67
BRANCH  54  78
ATOM     78  C   UNL     1     -10.345  14.690  -2.402  1.00  0.00     0.023 A 
ATOM     79  C   UNL     1     -11.443  15.581  -2.303  1.00  0.00     0.031 A 
ATOM     80  C   UNL     1     -10.094  14.162  -3.690  1.00  0.00     0.131 A 
ATOM     81  C   UNL     1     -12.220  15.903  -3.447  1.00  0.00     0.055 A 
ATOM     82  C   UNL     1     -10.861  14.486  -4.814  1.00  0.00     0.041 A 
ATOM     83  F   UNL     1      -9.035  13.374  -3.928  1.00  0.00    -0.206 F 
ATOM     84  C   UNL     1     -11.922  15.367  -4.700  1.00  0.00     0.022 A 
BRANCH  81  85
ATOM     85  S   UNL     1     -13.585  17.117  -3.357  1.00  0.00     0.124 S 
ATOM     86  O   UNL     1     -14.620  16.365  -2.658  1.00  0.00    -0.237 OA
ATOM     87  O   UNL     1     -12.979  18.223  -2.624  1.00  0.00    -0.237 OA
ATOM     88  O   UNL     1     -13.879  17.406  -4.761  1.00  0.00    -0.744 OA
ENDBRANCH  81  85
ENDBRANCH  54  78
BRANCH  66  89
ATOM     89  C   UNL     1      -7.540  14.532   3.314  1.00  0.00     0.023 A 
ATOM     90  C   UNL     1      -7.789  13.181   2.967  1.00  0.00     0.031 A 
ATOM     91  C   UNL     1      -7.660  14.890   4.668  1.00  0.00     0.131 A 
ATOM     92  C   UNL     1      -8.132  12.249   3.974  1.00  0.00     0.055 A 
ATOM     93  C   UNL     1      -7.974  13.962   5.658  1.00  0.00     0.041 A 
ATOM     94  F   UNL     1      -7.402  16.149   5.059  1.00  0.00    -0.206 F 
ATOM     95  C   UNL     1      -8.209  12.637   5.316  1.00  0.00     0.022 A 
BRANCH  92  96
ATOM     96  S   UNL     1      -8.434  10.494   3.566  1.00  0.00     0.124 S 
ATOM     97  O   UNL     1      -9.574  10.558   2.658  1.00  0.00    -0.237 OA
ATOM     98  O   UNL     1      -7.166  10.076   2.977  1.00  0.00    -0.237 OA
ATOM     99  O   UNL     1      -8.726   9.884   4.866  1.00  0.00    -0.744 OA
ENDBRANCH  92  96
ENDBRANCH  66  89
ENDBRANCH  40  41
ENDBRANCH  33  35
ENDBRANCH  32  33
ENDBRANCH  31  32
ENDBRANCH  30  31
ENDBRANCH  29  30
ENDBRANCH   1  29
TORSDOF 22
