REMARK SMILES C[C@H]1[C@@H](C(=O)OCCOCCOCCOC(=O)c2ccc(-c3c4nc(c(-c5cc(S(=O)(=O)[O-])ccc5F)c5ccc([nH]5)c(-c5cc(S(=O)(=O)[O-])ccc5F)c5nc(c(-c6cc(S(=O)(=O)[O-])ccc6F)c6ccc3[nH]6)C=C5)C=C4)cc2)CC[N@@H+]1[C@@H]1CC(=O)N(C)C1=O
REMARK SMILES IDX 11 1 10 2 9 3 8 4 7 5 6 6 4 7 5 8 3 9 1 10 2 11 83 12 81 13
REMARK SMILES IDX 82 14 84 16 85 17 90 18 86 19 88 20 91 21 87 22 89 23 12 24
REMARK SMILES IDX 13 25 14 26 15 27 16 28 17 29 18 30 19 31 80 32 20 33 79 34
REMARK SMILES IDX 21 35 22 36 23 37 73 38 24 39 78 40 72 41 74 42 25 43 77 44
REMARK SMILES IDX 71 45 70 46 26 48 58 49 38 50 57 51 39 52 42 53 56 54 75 55
REMARK SMILES IDX 40 56 41 57 55 59 76 60 43 61 27 62 28 63 36 64 29 65 35 66
REMARK SMILES IDX 37 67 34 68 30 69 31 70 32 71 33 72 59 73 60 74 68 75 61 76
REMARK SMILES IDX 67 77 69 78 66 79 62 80 63 81 64 82 65 83 44 84 45 85 53 86
REMARK SMILES IDX 46 87 52 88 54 89 51 90 47 91 48 92 49 93 50 94
REMARK H PARENT 83 15 74 47 42 58
REMARK Flexibility Score: inf
ROOT
ATOM      1  C   UNL     1       0.251   0.299  -3.047  1.00  0.00     0.188 C 
ENDROOT
BRANCH   1   2
ATOM      2  C   UNL     1      -0.342   1.655  -3.469  1.00  0.00     0.188 C 
BRANCH   2   3
ATOM      3  O   UNL     1       0.452   2.568  -4.202  1.00  0.00    -0.376 OA
BRANCH   3   4
ATOM      4  C   UNL     1       1.768   2.839  -3.746  1.00  0.00     0.202 C 
BRANCH   4   5
ATOM      5  C   UNL     1       1.976   3.251  -2.283  1.00  0.00     0.261 C 
BRANCH   5   6
ATOM      6  O   UNL     1       1.575   2.241  -1.330  1.00  0.00    -0.463 OA
BRANCH   6   7
ATOM      7  C   UNL     1       0.819   2.659  -0.287  1.00  0.00     0.315 C 
ATOM      8  O   UNL     1       0.494   3.830  -0.114  1.00  0.00    -0.252 OA
BRANCH   7   9
ATOM      9  C   UNL     1       0.287   1.564   0.635  1.00  0.00     0.162 C 
ATOM     10  C   UNL     1       2.296  -0.077   0.190  1.00  0.00     0.076 C 
ATOM     11  C   UNL     1       1.026   0.257   0.967  1.00  0.00     0.196 C 
ATOM     12  N   UNL     1       0.047  -0.847   0.836  1.00  0.00    -0.321 N 
ATOM     13  C   UNL     1      -1.143   1.161   0.281  1.00  0.00     0.083 C 
ATOM     14  C   UNL     1      -1.136  -0.346   0.138  1.00  0.00     0.264 C 
ATOM     15  H   UNL     1       0.535  -1.568   0.305  1.00  0.00     0.349 HD
BRANCH  12  16
ATOM     16  C   UNL     1      -0.340  -1.557   2.069  1.00  0.00     0.284 C 
ATOM     17  C   UNL     1      -1.060  -0.738   3.137  1.00  0.00     0.176 C 
ATOM     18  C   UNL     1       0.804  -2.216   2.821  1.00  0.00     0.287 C 
ATOM     19  C   UNL     1      -0.556  -1.320   4.420  1.00  0.00     0.235 C 
ATOM     20  N   UNL     1       0.517  -2.120   4.158  1.00  0.00    -0.280 N 
ATOM     21  O   UNL     1       1.773  -2.788   2.342  1.00  0.00    -0.267 OA
ATOM     22  O   UNL     1      -1.010  -1.046   5.521  1.00  0.00    -0.274 OA
ATOM     23  C   UNL     1       1.283  -2.798   5.173  1.00  0.00     0.156 C 
ENDBRANCH  12  16
ENDBRANCH   7   9
ENDBRANCH   6   7
ENDBRANCH   5   6
ENDBRANCH   4   5
ENDBRANCH   3   4
ENDBRANCH   2   3
ENDBRANCH   1   2
BRANCH   1  24
ATOM     24  O   UNL     1       1.435  -0.213  -3.614  1.00  0.00    -0.376 OA
BRANCH  24  25
ATOM     25  C   UNL     1       1.514  -0.432  -5.007  1.00  0.00     0.202 C 
BRANCH  25  26
ATOM     26  C   UNL     1       0.362  -1.075  -5.791  1.00  0.00     0.261 C 
BRANCH  26  27
ATOM     27  O   UNL     1      -0.954  -0.592  -5.492  1.00  0.00    -0.460 OA
BRANCH  27  28
ATOM     28  C   UNL     1      -1.756  -1.468  -4.835  1.00  0.00     0.338 C 
ATOM     29  O   UNL     1      -1.459  -2.586  -4.436  1.00  0.00    -0.246 OA
BRANCH  28  30
ATOM     30  C   UNL     1      -3.027  -0.803  -4.506  1.00  0.00     0.060 A 
ATOM     31  C   UNL     1      -3.382  -0.621  -3.161  1.00  0.00     0.016 A 
ATOM     32  C   UNL     1      -3.887  -0.404  -5.526  1.00  0.00     0.016 A 
ATOM     33  C   UNL     1      -4.604  -0.035  -2.829  1.00  0.00     0.010 A 
ATOM     34  C   UNL     1      -5.122   0.154  -5.193  1.00  0.00     0.010 A 
ATOM     35  C   UNL     1      -5.495   0.325  -3.845  1.00  0.00    -0.014 A 
BRANCH  35  36
ATOM     36  C   UNL     1      -6.895   0.707  -3.542  1.00  0.00     0.031 A 
ATOM     37  C   UNL     1      -7.962  -0.333  -3.727  1.00  0.00     0.074 A 
ATOM     38  C   UNL     1      -7.218   1.957  -3.169  1.00  0.00     0.049 A 
ATOM     39  N   UNL     1      -9.259  -0.193  -3.784  1.00  0.00    -0.248 NA
ATOM     40  C   UNL     1      -7.493  -1.718  -3.885  1.00  0.00     0.031 C 
ATOM     41  C   UNL     1      -6.265   3.023  -2.868  1.00  0.00     0.029 A 
ATOM     42  N   UNL     1      -8.448   2.548  -3.012  1.00  0.00    -0.354 N 
ATOM     43  C   UNL     1      -9.764  -1.468  -4.017  1.00  0.00     0.074 A 
ATOM     44  C   UNL     1      -8.629  -2.362  -4.103  1.00  0.00     0.031 C 
ATOM     45  C   UNL     1      -6.947   4.149  -2.594  1.00  0.00     0.029 A 
ATOM     46  C   UNL     1      -8.377   3.901  -2.771  1.00  0.00     0.049 A 
ATOM     47  H   UNL     1      -9.296   2.053  -3.067  1.00  0.00     0.167 HD
ATOM     48  C   UNL     1     -11.057  -1.848  -4.155  1.00  0.00     0.034 A 
ATOM     49  C   UNL     1      -9.350   4.837  -2.757  1.00  0.00     0.034 A 
ATOM     50  C   UNL     1     -12.167  -0.932  -4.080  1.00  0.00     0.049 A 
ATOM     51  C   UNL     1     -10.777   4.415  -3.035  1.00  0.00     0.074 A 
ATOM     52  C   UNL     1     -13.517  -1.202  -4.209  1.00  0.00     0.029 A 
ATOM     53  N   UNL     1     -12.054   0.436  -3.867  1.00  0.00    -0.354 N 
ATOM     54  N   UNL     1     -11.248   3.216  -3.296  1.00  0.00    -0.248 NA
ATOM     55  C   UNL     1     -11.802   5.468  -3.023  1.00  0.00     0.031 C 
ATOM     56  C   UNL     1     -14.211   0.010  -4.161  1.00  0.00     0.029 A 
ATOM     57  C   UNL     1     -13.306   1.026  -3.897  1.00  0.00     0.049 A 
ATOM     58  H   UNL     1     -11.207   0.916  -3.718  1.00  0.00     0.167 HD
ATOM     59  C   UNL     1     -12.627   3.368  -3.431  1.00  0.00     0.074 A 
ATOM     60  C   UNL     1     -12.912   4.773  -3.232  1.00  0.00     0.031 C 
ATOM     61  C   UNL     1     -13.574   2.429  -3.681  1.00  0.00     0.034 A 
BRANCH  48  62
ATOM     62  C   UNL     1     -11.325  -3.297  -4.477  1.00  0.00     0.023 A 
ATOM     63  C   UNL     1     -10.984  -4.332  -3.589  1.00  0.00     0.031 A 
ATOM     64  C   UNL     1     -11.901  -3.652  -5.710  1.00  0.00     0.131 A 
ATOM     65  C   UNL     1     -11.152  -5.670  -3.977  1.00  0.00     0.055 A 
ATOM     66  C   UNL     1     -12.147  -4.982  -6.054  1.00  0.00     0.041 A 
ATOM     67  F   UNL     1     -12.221  -2.709  -6.611  1.00  0.00    -0.206 F 
ATOM     68  C   UNL     1     -11.758  -6.001  -5.192  1.00  0.00     0.022 A 
BRANCH  65  69
ATOM     69  S   UNL     1     -10.425  -6.968  -2.941  1.00  0.00     0.124 S 
ATOM     70  O   UNL     1      -9.017  -6.579  -2.926  1.00  0.00    -0.237 OA
ATOM     71  O   UNL     1     -11.145  -6.808  -1.683  1.00  0.00    -0.237 OA
ATOM     72  O   UNL     1     -10.716  -8.197  -3.676  1.00  0.00    -0.744 OA
ENDBRANCH  65  69
ENDBRANCH  48  62
BRANCH  49  73
ATOM     73  C   UNL     1      -9.016   6.276  -2.541  1.00  0.00     0.023 A 
ATOM     74  C   UNL     1      -9.537   6.985  -1.447  1.00  0.00     0.031 A 
ATOM     75  C   UNL     1      -8.219   6.983  -3.461  1.00  0.00     0.131 A 
ATOM     76  C   UNL     1      -9.296   8.363  -1.326  1.00  0.00     0.055 A 
ATOM     77  C   UNL     1      -7.930   8.339  -3.301  1.00  0.00     0.041 A 
ATOM     78  F   UNL     1      -7.703   6.360  -4.532  1.00  0.00    -0.206 F 
ATOM     79  C   UNL     1      -8.482   9.041  -2.235  1.00  0.00     0.022 A 
BRANCH  76  80
ATOM     80  S   UNL     1     -10.154   9.280  -0.016  1.00  0.00     0.124 S 
ATOM     81  O   UNL     1     -11.551   9.011  -0.335  1.00  0.00    -0.237 OA
ATOM     82  O   UNL     1      -9.635   8.644   1.189  1.00  0.00    -0.237 OA
ATOM     83  O   UNL     1      -9.720  10.660  -0.228  1.00  0.00    -0.744 OA
ENDBRANCH  76  80
ENDBRANCH  49  73
BRANCH  61  84
ATOM     84  C   UNL     1     -15.021   2.862  -3.663  1.00  0.00     0.023 A 
ATOM     85  C   UNL     1     -15.575   3.686  -4.658  1.00  0.00     0.031 A 
ATOM     86  C   UNL     1     -15.872   2.383  -2.650  1.00  0.00     0.131 A 
ATOM     87  C   UNL     1     -16.936   4.025  -4.602  1.00  0.00     0.055 A 
ATOM     88  C   UNL     1     -17.235   2.676  -2.632  1.00  0.00     0.041 A 
ATOM     89  F   UNL     1     -15.394   1.595  -1.673  1.00  0.00    -0.206 F 
ATOM     90  C   UNL     1     -17.773   3.507  -3.609  1.00  0.00     0.022 A 
BRANCH  87  91
ATOM     91  S   UNL     1     -17.599   5.197  -5.817  1.00  0.00     0.124 S 
ATOM     92  O   UNL     1     -16.803   6.391  -5.553  1.00  0.00    -0.237 OA
ATOM     93  O   UNL     1     -17.334   4.521  -7.083  1.00  0.00    -0.237 OA
ATOM     94  O   UNL     1     -19.012   5.303  -5.458  1.00  0.00    -0.744 OA
ENDBRANCH  87  91
ENDBRANCH  61  84
ENDBRANCH  35  36
ENDBRANCH  28  30
ENDBRANCH  27  28
ENDBRANCH  26  27
ENDBRANCH  25  26
ENDBRANCH  24  25
ENDBRANCH   1  24
TORSDOF 21
