REMARK SMILES CC(C)[NH2+][C@@]1(C(=O)OCCOCCOCCOC(=O)c2ccc(-c3c4nc(c(-c5cc(S(=O)(=O)[O-])ccc5F)c5ccc([nH]5)c(-c5cc(S(=O)(=O)[O-])ccc5F)c5nc(c(-c6cc(S(=O)(=O)[O-])ccc6F)c6ccc3[nH]6)C=C5)C=C4)cc2)CCC[C@@H](Sc2nncn2C)C1
REMARK SMILES IDX 13 1 12 2 11 3 10 4 9 5 8 6 6 7 7 8 5 9 83 10 94 11 84 12
REMARK SMILES IDX 86 13 85 14 4 15 2 18 1 19 3 20 87 21 88 22 89 23 92 24
REMARK SMILES IDX 90 25 91 26 93 27 14 28 15 29 16 30 17 31 18 32 19 33 20 34
REMARK SMILES IDX 21 35 82 36 22 37 81 38 23 39 24 40 25 41 75 42 26 43 80 44
REMARK SMILES IDX 74 45 76 46 27 47 79 48 73 49 72 50 28 52 60 53 40 54 59 55
REMARK SMILES IDX 41 56 44 57 58 58 77 59 42 60 43 61 57 63 78 64 45 65 29 66
REMARK SMILES IDX 30 67 38 68 31 69 37 70 39 71 36 72 32 73 33 74 34 75 35 76
REMARK SMILES IDX 61 77 62 78 70 79 63 80 69 81 71 82 68 83 64 84 65 85 66 86
REMARK SMILES IDX 67 87 46 88 47 89 55 90 48 91 54 92 56 93 53 94 49 95 50 96
REMARK SMILES IDX 51 97 52 98
REMARK H PARENT 4 16 4 17 76 51 44 62
REMARK Flexibility Score: inf
ROOT
ATOM      1  C   UNL     1       1.227   2.706  -4.300  1.00  0.00     0.188 C 
ENDROOT
BRANCH   1   2
ATOM      2  C   UNL     1       1.865   1.306  -4.315  1.00  0.00     0.188 C 
BRANCH   2   3
ATOM      3  O   UNL     1       2.009   0.766  -5.623  1.00  0.00    -0.376 OA
BRANCH   3   4
ATOM      4  C   UNL     1       1.109  -0.279  -5.966  1.00  0.00     0.202 C 
BRANCH   4   5
ATOM      5  C   UNL     1      -0.338   0.180  -6.132  1.00  0.00     0.261 C 
BRANCH   5   6
ATOM      6  O   UNL     1      -0.908   0.684  -4.911  1.00  0.00    -0.459 OA
BRANCH   6   7
ATOM      7  C   UNL     1      -1.506  -0.193  -4.075  1.00  0.00     0.368 C 
ATOM      8  O   UNL     1      -1.555  -1.401  -4.291  1.00  0.00    -0.245 OA
BRANCH   7   9
ATOM      9  C   UNL     1      -2.173   0.503  -2.841  1.00  0.00     0.195 C 
ATOM     10  C   UNL     1      -3.696   0.244  -3.005  1.00  0.00     0.081 C 
ATOM     11  C   UNL     1      -2.010   2.042  -2.661  1.00  0.00     0.096 C 
ATOM     12  C   UNL     1      -4.294   1.022  -4.186  1.00  0.00     0.008 C 
ATOM     13  C   UNL     1      -2.614   2.866  -3.813  1.00  0.00     0.061 C 
ATOM     14  C   UNL     1      -4.085   2.530  -4.052  1.00  0.00     0.015 C 
BRANCH   9  15
ATOM     15  N   UNL     1      -1.723  -0.206  -1.604  1.00  0.00    -0.330 N 
ATOM     16  H   UNL     1      -2.265   0.164  -0.824  1.00  0.00     0.347 HD
ATOM     17  H   UNL     1      -1.870  -1.196  -1.800  1.00  0.00     0.347 HD
BRANCH  15  18
ATOM     18  C   UNL     1      -0.300  -0.095  -1.248  1.00  0.00     0.176 C 
ATOM     19  C   UNL     1      -0.199   0.009   0.275  1.00  0.00     0.075 C 
ATOM     20  C   UNL     1       0.527  -1.298  -1.715  1.00  0.00     0.075 C 
ENDBRANCH  15  18
ENDBRANCH   9  15
BRANCH  13  21
ATOM     21  S   UNL     1      -2.309   4.667  -3.684  1.00  0.00    -0.082 SA
BRANCH  21  22
ATOM     22  C   UNL     1      -3.363   5.169  -2.420  1.00  0.00     0.191 A 
ATOM     23  N   UNL     1      -3.376   4.737  -1.182  1.00  0.00    -0.124 NA
ATOM     24  N   UNL     1      -4.317   6.131  -2.577  1.00  0.00    -0.312 N 
ATOM     25  N   UNL     1      -4.353   5.436  -0.506  1.00  0.00    -0.138 NA
ATOM     26  C   UNL     1      -4.901   6.273  -1.355  1.00  0.00     0.226 A 
ATOM     27  C   UNL     1      -4.689   6.828  -3.778  1.00  0.00     0.153 C 
ENDBRANCH  21  22
ENDBRANCH  13  21
ENDBRANCH   7   9
ENDBRANCH   6   7
ENDBRANCH   5   6
ENDBRANCH   4   5
ENDBRANCH   3   4
ENDBRANCH   2   3
ENDBRANCH   1   2
BRANCH   1  28
ATOM     28  O   UNL     1       1.371   3.560  -5.427  1.00  0.00    -0.376 OA
BRANCH  28  29
ATOM     29  C   UNL     1       2.621   3.592  -6.091  1.00  0.00     0.202 C 
BRANCH  29  30
ATOM     30  C   UNL     1       3.817   4.121  -5.295  1.00  0.00     0.261 C 
BRANCH  30  31
ATOM     31  O   UNL     1       4.089   3.394  -4.082  1.00  0.00    -0.460 OA
BRANCH  31  32
ATOM     32  C   UNL     1       3.849   4.080  -2.933  1.00  0.00     0.338 C 
ATOM     33  O   UNL     1       3.469   5.234  -2.848  1.00  0.00    -0.246 OA
BRANCH  32  34
ATOM     34  C   UNL     1       3.961   3.193  -1.750  1.00  0.00     0.060 A 
ATOM     35  C   UNL     1       2.917   3.212  -0.814  1.00  0.00     0.016 A 
ATOM     36  C   UNL     1       5.111   2.442  -1.496  1.00  0.00     0.016 A 
ATOM     37  C   UNL     1       3.045   2.535   0.402  1.00  0.00     0.010 A 
ATOM     38  C   UNL     1       5.247   1.778  -0.266  1.00  0.00     0.010 A 
ATOM     39  C   UNL     1       4.233   1.855   0.707  1.00  0.00    -0.014 A 
BRANCH  39  40
ATOM     40  C   UNL     1       4.484   1.415   2.108  1.00  0.00     0.031 A 
ATOM     41  C   UNL     1       5.198   2.358   3.042  1.00  0.00     0.074 A 
ATOM     42  C   UNL     1       4.056   0.224   2.565  1.00  0.00     0.049 A 
ATOM     43  N   UNL     1       5.531   2.197   4.298  1.00  0.00    -0.248 NA
ATOM     44  C   UNL     1       5.599   3.654   2.474  1.00  0.00     0.031 C 
ATOM     45  C   UNL     1       3.334  -0.769   1.775  1.00  0.00     0.029 A 
ATOM     46  N   UNL     1       4.160  -0.350   3.809  1.00  0.00    -0.354 N 
ATOM     47  C   UNL     1       6.185   3.367   4.671  1.00  0.00     0.074 A 
ATOM     48  C   UNL     1       6.226   4.214   3.497  1.00  0.00     0.031 C 
ATOM     49  C   UNL     1       3.037  -1.820   2.559  1.00  0.00     0.029 A 
ATOM     50  C   UNL     1       3.592  -1.600   3.895  1.00  0.00     0.049 A 
ATOM     51  H   UNL     1       4.601   0.093   4.570  1.00  0.00     0.167 HD
ATOM     52  C   UNL     1       6.706   3.705   5.877  1.00  0.00     0.034 A 
ATOM     53  C   UNL     1       3.543  -2.474   4.923  1.00  0.00     0.034 A 
ATOM     54  C   UNL     1       6.686   2.845   7.037  1.00  0.00     0.049 A 
ATOM     55  C   UNL     1       4.189  -2.102   6.240  1.00  0.00     0.074 A 
ATOM     56  C   UNL     1       7.194   3.090   8.301  1.00  0.00     0.029 A 
ATOM     57  N   UNL     1       6.143   1.567   7.072  1.00  0.00    -0.354 N 
ATOM     58  N   UNL     1       4.806  -0.992   6.578  1.00  0.00    -0.248 NA
ATOM     59  C   UNL     1       4.131  -3.104   7.314  1.00  0.00     0.031 C 
ATOM     60  C   UNL     1       7.025   1.937   9.076  1.00  0.00     0.029 A 
ATOM     61  C   UNL     1       6.334   1.000   8.325  1.00  0.00     0.049 A 
ATOM     62  H   UNL     1       5.688   1.127   6.318  1.00  0.00     0.167 HD
ATOM     63  C   UNL     1       5.187  -1.158   7.910  1.00  0.00     0.074 A 
ATOM     64  C   UNL     1       4.709  -2.462   8.318  1.00  0.00     0.031 C 
ATOM     65  C   UNL     1       5.870  -0.310   8.721  1.00  0.00     0.034 A 
BRANCH  52  66
ATOM     66  C   UNL     1       7.404   5.042   5.974  1.00  0.00     0.023 A 
ATOM     67  C   UNL     1       6.713   6.255   5.803  1.00  0.00     0.031 A 
ATOM     68  C   UNL     1       8.790   5.100   6.200  1.00  0.00     0.131 A 
ATOM     69  C   UNL     1       7.422   7.467   5.786  1.00  0.00     0.055 A 
ATOM     70  C   UNL     1       9.477   6.314   6.263  1.00  0.00     0.041 A 
ATOM     71  F   UNL     1       9.507   3.974   6.347  1.00  0.00    -0.206 F 
ATOM     72  C   UNL     1       8.795   7.506   6.040  1.00  0.00     0.022 A 
BRANCH  69  73
ATOM     73  S   UNL     1       6.552   8.976   5.278  1.00  0.00     0.124 S 
ATOM     74  O   UNL     1       6.085   8.612   3.943  1.00  0.00    -0.237 OA
ATOM     75  O   UNL     1       5.524   9.107   6.303  1.00  0.00    -0.237 OA
ATOM     76  O   UNL     1       7.596   9.999   5.307  1.00  0.00    -0.744 OA
ENDBRANCH  69  73
ENDBRANCH  52  66
BRANCH  53  77
ATOM     77  C   UNL     1       2.910  -3.818   4.754  1.00  0.00     0.023 A 
ATOM     78  C   UNL     1       1.806  -4.209   5.530  1.00  0.00     0.031 A 
ATOM     79  C   UNL     1       3.455  -4.763   3.866  1.00  0.00     0.131 A 
ATOM     80  C   UNL     1       1.316  -5.523   5.441  1.00  0.00     0.055 A 
ATOM     81  C   UNL     1       2.926  -6.048   3.737  1.00  0.00     0.041 A 
ATOM     82  F   UNL     1       4.517  -4.449   3.107  1.00  0.00    -0.206 F 
ATOM     83  C   UNL     1       1.859  -6.439   4.538  1.00  0.00     0.022 A 
BRANCH  80  84
ATOM     84  S   UNL     1       0.021  -6.053   6.598  1.00  0.00     0.124 S 
ATOM     85  O   UNL     1       0.666  -5.833   7.887  1.00  0.00    -0.237 OA
ATOM     86  O   UNL     1      -1.073  -5.148   6.264  1.00  0.00    -0.237 OA
ATOM     87  O   UNL     1      -0.201  -7.453   6.241  1.00  0.00    -0.744 OA
ENDBRANCH  80  84
ENDBRANCH  53  77
BRANCH  65  88
ATOM     88  C   UNL     1       6.103  -0.756  10.148  1.00  0.00     0.023 A 
ATOM     89  C   UNL     1       6.910  -1.865  10.460  1.00  0.00     0.031 A 
ATOM     90  C   UNL     1       5.488  -0.071  11.213  1.00  0.00     0.131 A 
ATOM     91  C   UNL     1       7.029  -2.295  11.791  1.00  0.00     0.055 A 
ATOM     92  C   UNL     1       5.661  -0.465  12.541  1.00  0.00     0.041 A 
ATOM     93  F   UNL     1       4.705   0.994  10.979  1.00  0.00    -0.206 F 
ATOM     94  C   UNL     1       6.422  -1.592  12.835  1.00  0.00     0.022 A 
BRANCH  91  95
ATOM     95  S   UNL     1       7.899  -3.851  12.134  1.00  0.00     0.124 S 
ATOM     96  O   UNL     1       7.166  -4.800  11.303  1.00  0.00    -0.237 OA
ATOM     97  O   UNL     1       9.261  -3.547  11.706  1.00  0.00    -0.237 OA
ATOM     98  O   UNL     1       7.729  -4.029  13.575  1.00  0.00    -0.744 OA
ENDBRANCH  91  95
ENDBRANCH  65  88
ENDBRANCH  39  40
ENDBRANCH  32  34
ENDBRANCH  31  32
ENDBRANCH  30  31
ENDBRANCH  29  30
ENDBRANCH  28  29
ENDBRANCH   1  28
TORSDOF 24
