REMARK SMILES CS(=O)(=O)c1ccc(C2=NN(c3ccc(C(=O)OCCOCCOCCOC(=O)c4ccc(-c5c6nc(c(-c7cc(S(=O)(=O)[O-])ccc7F)c7ccc([nH]7)c(-c7cc(S(=O)(=O)[O-])ccc7F)c7nc(c(-c8cc(S(=O)(=O)[O-])ccc8F)c8ccc5[nH]8)C=C7)C=C6)cc4)cc3)[C@H](c3ccc(F)cc3)C2)cc1
REMARK SMILES IDX 22 1 21 2 20 3 19 4 18 5 16 6 17 7 15 8 12 9 13 10 94 11
REMARK SMILES IDX 14 12 93 13 11 14 9 15 10 16 103 17 95 18 8 19 5 20 6 21
REMARK SMILES IDX 105 22 7 23 104 24 2 25 1 26 3 27 4 28 96 29 97 30 102 31
REMARK SMILES IDX 98 32 101 33 99 34 100 35 23 36 24 37 25 38 26 39 27 40
REMARK SMILES IDX 28 41 29 42 30 43 31 44 92 45 32 46 91 47 33 48 34 49 35 50
REMARK SMILES IDX 85 51 36 52 90 53 84 54 86 55 37 56 89 57 83 58 82 59 38 61
REMARK SMILES IDX 70 62 50 63 69 64 51 65 54 66 68 67 87 68 52 69 53 70 67 72
REMARK SMILES IDX 88 73 55 74 39 75 40 76 48 77 41 78 47 79 49 80 46 81 42 82
REMARK SMILES IDX 43 83 44 84 45 85 71 86 72 87 80 88 73 89 79 90 81 91 78 92
REMARK SMILES IDX 74 93 75 94 76 95 77 96 56 97 57 98 65 99 58 100 64 101
REMARK SMILES IDX 66 102 63 103 59 104 60 105 61 106 62 107
REMARK H PARENT 86 60 54 71
REMARK Flexibility Score: inf
ROOT
ATOM      1  C   UNL     1       8.506  -7.310   8.671  1.00  0.00     0.188 C 
ENDROOT
BRANCH   1   2
ATOM      2  O   UNL     1       9.389  -8.073   9.468  1.00  0.00    -0.376 OA
BRANCH   2   3
ATOM      3  C   UNL     1       8.952  -8.639  10.691  1.00  0.00     0.202 C 
BRANCH   3   4
ATOM      4  C   UNL     1       7.860  -8.023  11.581  1.00  0.00     0.261 C 
BRANCH   4   5
ATOM      5  O   UNL     1       6.743  -7.445  10.899  1.00  0.00    -0.460 OA
BRANCH   5   6
ATOM      6  C   UNL     1       6.604  -6.101  11.039  1.00  0.00     0.338 C 
ATOM      7  O   UNL     1       7.287  -5.368  11.735  1.00  0.00    -0.246 OA
BRANCH   6   8
ATOM      8  C   UNL     1       5.573  -5.589  10.103  1.00  0.00     0.060 A 
ATOM      9  C   UNL     1       3.602  -4.473   8.433  1.00  0.00     0.060 A 
ATOM     10  C   UNL     1       4.803  -3.792   8.663  1.00  0.00     0.029 A 
ATOM     11  C   UNL     1       3.459  -5.770   8.952  1.00  0.00     0.029 A 
ATOM     12  C   UNL     1       5.781  -4.341   9.501  1.00  0.00     0.018 A 
ATOM     13  C   UNL     1       4.425  -6.323   9.798  1.00  0.00     0.018 A 
BRANCH   9  14
ATOM     14  N   UNL     1       2.496  -3.842   7.839  1.00  0.00    -0.257 N 
ATOM     15  C   UNL     1       1.813  -2.294   6.525  1.00  0.00     0.071 C 
ATOM     16  N   UNL     1       2.627  -3.302   6.591  1.00  0.00    -0.176 NA
ATOM     17  C   UNL     1       1.073  -1.961   7.790  1.00  0.00     0.091 C 
ATOM     18  C   UNL     1       1.627  -3.040   8.728  1.00  0.00     0.144 C 
BRANCH  15  19
ATOM     19  C   UNL     1       1.545  -1.537   5.288  1.00  0.00    -0.002 A 
ATOM     20  C   UNL     1       0.817  -0.171   2.969  1.00  0.00     0.067 A 
ATOM     21  C   UNL     1       0.849  -1.569   2.966  1.00  0.00     0.021 A 
ATOM     22  C   UNL     1       1.169   0.547   4.118  1.00  0.00     0.021 A 
ATOM     23  C   UNL     1       1.230  -2.251   4.126  1.00  0.00     0.011 A 
ATOM     24  C   UNL     1       1.522  -0.139   5.286  1.00  0.00     0.011 A 
BRANCH  20  25
ATOM     25  S   UNL     1       0.269   0.715   1.524  1.00  0.00     0.175 S 
ATOM     26  C   UNL     1       1.065  -0.054   0.140  1.00  0.00     0.163 C 
ATOM     27  O   UNL     1       0.783   2.068   1.628  1.00  0.00    -0.224 OA
ATOM     28  O   UNL     1      -1.159   0.474   1.423  1.00  0.00    -0.224 OA
ENDBRANCH  20  25
ENDBRANCH  15  19
BRANCH  18  29
ATOM     29  C   UNL     1       0.628  -3.925   9.473  1.00  0.00    -0.023 A 
ATOM     30  C   UNL     1      -0.680  -4.178   9.030  1.00  0.00     0.009 A 
ATOM     31  C   UNL     1       1.065  -4.594  10.638  1.00  0.00     0.009 A 
ATOM     32  C   UNL     1      -1.507  -5.078   9.713  1.00  0.00     0.039 A 
ATOM     33  C   UNL     1       0.261  -5.531  11.288  1.00  0.00     0.039 A 
ATOM     34  C   UNL     1      -1.022  -5.762  10.820  1.00  0.00     0.123 A 
ATOM     35  F   UNL     1      -1.799  -6.662  11.437  1.00  0.00    -0.207 F 
ENDBRANCH  18  29
ENDBRANCH   9  14
ENDBRANCH   6   8
ENDBRANCH   5   6
ENDBRANCH   4   5
ENDBRANCH   3   4
ENDBRANCH   2   3
ENDBRANCH   1   2
BRANCH   1  36
ATOM     36  C   UNL     1       7.261  -7.978   8.053  1.00  0.00     0.188 C 
BRANCH  36  37
ATOM     37  O   UNL     1       6.904  -9.278   8.465  1.00  0.00    -0.376 OA
BRANCH  37  38
ATOM     38  C   UNL     1       7.673 -10.393   8.051  1.00  0.00     0.202 C 
BRANCH  38  39
ATOM     39  C   UNL     1       8.659 -10.418   6.866  1.00  0.00     0.261 C 
BRANCH  39  40
ATOM     40  O   UNL     1       9.256  -9.186   6.460  1.00  0.00    -0.460 OA
BRANCH  40  41
ATOM     41  C   UNL     1       8.784  -8.668   5.300  1.00  0.00     0.338 C 
ATOM     42  O   UNL     1       7.887  -9.122   4.601  1.00  0.00    -0.246 OA
BRANCH  41  43
ATOM     43  C   UNL     1       9.409  -7.354   5.074  1.00  0.00     0.060 A 
ATOM     44  C   UNL     1       8.625  -6.193   5.155  1.00  0.00     0.016 A 
ATOM     45  C   UNL     1      10.761  -7.278   4.745  1.00  0.00     0.016 A 
ATOM     46  C   UNL     1       9.194  -4.946   4.890  1.00  0.00     0.010 A 
ATOM     47  C   UNL     1      11.321  -6.033   4.453  1.00  0.00     0.010 A 
ATOM     48  C   UNL     1      10.535  -4.865   4.496  1.00  0.00    -0.014 A 
BRANCH  48  49
ATOM     49  C   UNL     1      11.082  -3.613   3.918  1.00  0.00     0.031 A 
ATOM     50  C   UNL     1      11.150  -3.506   2.418  1.00  0.00     0.074 A 
ATOM     51  C   UNL     1      11.543  -2.616   4.695  1.00  0.00     0.049 A 
ATOM     52  N   UNL     1      11.745  -2.613   1.674  1.00  0.00    -0.248 NA
ATOM     53  C   UNL     1      10.461  -4.564   1.659  1.00  0.00     0.031 C 
ATOM     54  C   UNL     1      11.470  -2.576   6.154  1.00  0.00     0.029 A 
ATOM     55  N   UNL     1      12.192  -1.452   4.359  1.00  0.00    -0.354 N 
ATOM     56  C   UNL     1      11.527  -3.013   0.360  1.00  0.00     0.074 A 
ATOM     57  C   UNL     1      10.758  -4.237   0.410  1.00  0.00     0.031 C 
ATOM     58  C   UNL     1      12.076  -1.456   6.589  1.00  0.00     0.029 A 
ATOM     59  C   UNL     1      12.630  -0.730   5.446  1.00  0.00     0.049 A 
ATOM     60  H   UNL     1      12.330  -1.161   3.428  1.00  0.00     0.167 HD
ATOM     61  C   UNL     1      11.940  -2.414  -0.782  1.00  0.00     0.034 A 
ATOM     62  C   UNL     1      13.424   0.360   5.508  1.00  0.00     0.034 A 
ATOM     63  C   UNL     1      12.708  -1.195  -0.811  1.00  0.00     0.049 A 
ATOM     64  C   UNL     1      13.950   0.959   4.218  1.00  0.00     0.074 A 
ATOM     65  C   UNL     1      13.161  -0.493  -1.914  1.00  0.00     0.029 A 
ATOM     66  N   UNL     1      13.149  -0.505   0.309  1.00  0.00    -0.354 N 
ATOM     67  N   UNL     1      13.741   0.573   2.980  1.00  0.00    -0.248 NA
ATOM     68  C   UNL     1      14.817   2.142   4.333  1.00  0.00     0.031 C 
ATOM     69  C   UNL     1      13.944   0.572  -1.462  1.00  0.00     0.029 A 
ATOM     70  C   UNL     1      13.895   0.595  -0.078  1.00  0.00     0.049 A 
ATOM     71  H   UNL     1      12.959  -0.760   1.241  1.00  0.00     0.167 HD
ATOM     72  C   UNL     1      14.402   1.500   2.174  1.00  0.00     0.074 A 
ATOM     73  C   UNL     1      15.019   2.459   3.063  1.00  0.00     0.031 C 
ATOM     74  C   UNL     1      14.482   1.560   0.821  1.00  0.00     0.034 A 
BRANCH  61  75
ATOM     75  C   UNL     1      11.624  -3.095  -2.089  1.00  0.00     0.023 A 
ATOM     76  C   UNL     1      10.307  -3.240  -2.555  1.00  0.00     0.031 A 
ATOM     77  C   UNL     1      12.668  -3.594  -2.889  1.00  0.00     0.131 A 
ATOM     78  C   UNL     1      10.065  -3.907  -3.766  1.00  0.00     0.055 A 
ATOM     79  C   UNL     1      12.426  -4.190  -4.127  1.00  0.00     0.041 A 
ATOM     80  F   UNL     1      13.943  -3.508  -2.479  1.00  0.00    -0.206 F 
ATOM     81  C   UNL     1      11.117  -4.357  -4.568  1.00  0.00     0.022 A 
BRANCH  78  82
ATOM     82  S   UNL     1       8.350  -4.274  -4.228  1.00  0.00     0.124 S 
ATOM     83  O   UNL     1       7.915  -5.109  -3.111  1.00  0.00    -0.237 OA
ATOM     84  O   UNL     1       7.750  -2.946  -4.301  1.00  0.00    -0.237 OA
ATOM     85  O   UNL     1       8.481  -4.971  -5.506  1.00  0.00    -0.744 OA
ENDBRANCH  78  82
ENDBRANCH  61  75
BRANCH  62  86
ATOM     86  C   UNL     1      13.836   0.940   6.823  1.00  0.00     0.023 A 
ATOM     87  C   UNL     1      13.542   2.275   7.148  1.00  0.00     0.031 A 
ATOM     88  C   UNL     1      14.622   0.205   7.729  1.00  0.00     0.131 A 
ATOM     89  C   UNL     1      14.093   2.854   8.302  1.00  0.00     0.055 A 
ATOM     90  C   UNL     1      15.106   0.764   8.913  1.00  0.00     0.041 A 
ATOM     91  F   UNL     1      14.945  -1.072   7.468  1.00  0.00    -0.206 F 
ATOM     92  C   UNL     1      14.860   2.104   9.195  1.00  0.00     0.022 A 
BRANCH  89  93
ATOM     93  S   UNL     1      13.917   4.645   8.540  1.00  0.00     0.124 S 
ATOM     94  O   UNL     1      14.489   5.162   7.301  1.00  0.00    -0.237 OA
ATOM     95  O   UNL     1      12.473   4.789   8.691  1.00  0.00    -0.237 OA
ATOM     96  O   UNL     1      14.699   4.906   9.746  1.00  0.00    -0.744 OA
ENDBRANCH  89  93
ENDBRANCH  62  86
BRANCH  74  97
ATOM     97  C   UNL     1      15.173   2.754   0.207  1.00  0.00     0.023 A 
ATOM     98  C   UNL     1      16.555   2.973   0.327  1.00  0.00     0.031 A 
ATOM     99  C   UNL     1      14.421   3.673  -0.552  1.00  0.00     0.131 A 
ATOM    100  C   UNL     1      17.137   4.103  -0.271  1.00  0.00     0.055 A 
ATOM    101  C   UNL     1      15.015   4.758  -1.194  1.00  0.00     0.041 A 
ATOM    102  F   UNL     1      13.096   3.514  -0.698  1.00  0.00    -0.206 F 
ATOM    103  C   UNL     1      16.379   4.984  -1.048  1.00  0.00     0.022 A 
BRANCH 100 104
ATOM    104  S   UNL     1      18.892   4.449   0.032  1.00  0.00     0.124 S 
ATOM    105  O   UNL     1      18.929   4.579   1.485  1.00  0.00    -0.237 OA
ATOM    106  O   UNL     1      19.544   3.266  -0.519  1.00  0.00    -0.237 OA
ATOM    107  O   UNL     1      19.130   5.688  -0.707  1.00  0.00    -0.744 OA
ENDBRANCH 100 104
ENDBRANCH  74  97
ENDBRANCH  48  49
ENDBRANCH  41  43
ENDBRANCH  40  41
ENDBRANCH  39  40
ENDBRANCH  38  39
ENDBRANCH  37  38
ENDBRANCH  36  37
ENDBRANCH   1  36
TORSDOF 24
