REMARK SMILES Cc1cnn(C2(C(=O)OCCOCCOCCOC(=O)c3ccc(-c4c5nc(c(-c6cc(S(=O)(=O)[O-])ccc6F)c6ccc([nH]6)c(-c6cc(S(=O)(=O)[O-])ccc6F)c6nc(c(-c7cc(S(=O)(=O)[O-])ccc7F)c7ccc4[nH]7)C=C6)C=C5)cc3)CCN(C(=O)c3cc4ccccc4[nH]3)CC2)c1
REMARK SMILES IDX 14 1 13 2 12 3 11 4 10 5 9 6 7 7 8 8 6 9 84 10 99 11 85 12
REMARK SMILES IDX 98 13 86 14 87 15 88 16 5 17 1 18 2 19 3 20 100 21 4 22
REMARK SMILES IDX 89 23 90 24 97 25 91 26 96 27 92 29 95 30 93 31 94 32 15 33
REMARK SMILES IDX 16 34 17 35 18 36 19 37 20 38 21 39 22 40 83 41 23 42 82 43
REMARK SMILES IDX 24 44 25 45 26 46 76 47 27 48 81 49 75 50 77 51 28 52 80 53
REMARK SMILES IDX 74 54 73 55 29 57 61 58 41 59 60 60 42 61 45 62 59 63 78 64
REMARK SMILES IDX 43 65 44 66 58 68 79 69 46 70 30 71 31 72 39 73 32 74 38 75
REMARK SMILES IDX 40 76 37 77 33 78 34 79 35 80 36 81 62 82 63 83 71 84 64 85
REMARK SMILES IDX 70 86 72 87 69 88 65 89 66 90 67 91 68 92 47 93 48 94 56 95
REMARK SMILES IDX 49 96 55 97 57 98 54 99 50 100 51 101 52 102 53 103
REMARK H PARENT 97 28 77 56 45 67
REMARK Flexibility Score: inf
ROOT
ATOM      1  C   UNL     1      -3.313   0.571   5.258  1.00  0.00     0.188 C 
ENDROOT
BRANCH   1   2
ATOM      2  C   UNL     1      -2.637  -0.673   5.841  1.00  0.00     0.188 C 
BRANCH   2   3
ATOM      3  O   UNL     1      -2.731  -0.919   7.225  1.00  0.00    -0.376 OA
BRANCH   3   4
ATOM      4  C   UNL     1      -2.230   0.061   8.118  1.00  0.00     0.202 C 
BRANCH   4   5
ATOM      5  C   UNL     1      -1.022   0.970   7.792  1.00  0.00     0.261 C 
BRANCH   5   6
ATOM      6  O   UNL     1      -0.999   1.609   6.498  1.00  0.00    -0.461 OA
BRANCH   6   7
ATOM      7  C   UNL     1       0.056   1.327   5.688  1.00  0.00     0.334 C 
ATOM      8  O   UNL     1       1.009   0.644   6.065  1.00  0.00    -0.249 OA
BRANCH   7   9
ATOM      9  C   UNL     1       0.050   2.072   4.315  1.00  0.00     0.163 C 
ATOM     10  C   UNL     1      -1.194   2.937   3.976  1.00  0.00     0.064 C 
ATOM     11  C   UNL     1       1.268   2.993   4.532  1.00  0.00     0.064 C 
ATOM     12  C   UNL     1      -0.948   4.040   2.951  1.00  0.00     0.123 C 
ATOM     13  C   UNL     1       1.450   4.102   3.528  1.00  0.00     0.123 C 
ATOM     14  N   UNL     1       0.217   4.837   3.274  1.00  0.00    -0.337 N 
ATOM     15  C   UNL     1       0.108   6.231   3.259  1.00  0.00     0.270 C 
ATOM     16  O   UNL     1      -0.974   6.811   3.241  1.00  0.00    -0.267 OA
BRANCH   9  17
ATOM     17  N   UNL     1       0.251   1.070   3.246  1.00  0.00    -0.255 N 
ATOM     18  C   UNL     1       0.926  -0.251  -0.101  1.00  0.00     0.048 C 
ATOM     19  C   UNL     1       0.591   0.047   1.308  1.00  0.00    -0.013 A 
ATOM     20  C   UNL     1       0.090  -0.825   2.290  1.00  0.00     0.138 A 
ATOM     21  C   UNL     1       0.669   1.262   1.955  1.00  0.00     0.113 A 
ATOM     22  N   UNL     1      -0.167  -0.201   3.439  1.00  0.00    -0.180 NA
ENDBRANCH   9  17
BRANCH  15  23
ATOM     23  C   UNL     1       1.343   6.974   3.342  1.00  0.00     0.105 A 
ATOM     24  C   UNL     1       2.560   6.773   2.715  1.00  0.00     0.042 A 
ATOM     25  N   UNL     1       1.497   8.074   4.152  1.00  0.00    -0.351 N 
ATOM     26  C   UNL     1       3.527   7.516   3.431  1.00  0.00     0.000 A 
ATOM     27  C   UNL     1       2.835   8.361   4.297  1.00  0.00     0.046 A 
ATOM     28  H   UNL     1       0.761   8.580   4.566  1.00  0.00     0.167 HD
ATOM     29  C   UNL     1       4.932   7.516   3.446  1.00  0.00     0.010 A 
ATOM     30  C   UNL     1       3.483   9.271   5.134  1.00  0.00     0.026 A 
ATOM     31  C   UNL     1       5.598   8.384   4.314  1.00  0.00     0.001 A 
ATOM     32  C   UNL     1       4.882   9.263   5.127  1.00  0.00     0.002 A 
ENDBRANCH  15  23
ENDBRANCH   7   9
ENDBRANCH   6   7
ENDBRANCH   5   6
ENDBRANCH   4   5
ENDBRANCH   3   4
ENDBRANCH   2   3
ENDBRANCH   1   2
BRANCH   1  33
ATOM     33  O   UNL     1      -3.528   1.716   6.057  1.00  0.00    -0.376 OA
BRANCH  33  34
ATOM     34  C   UNL     1      -4.692   1.978   6.824  1.00  0.00     0.202 C 
BRANCH  34  35
ATOM     35  C   UNL     1      -5.922   1.082   6.914  1.00  0.00     0.261 C 
BRANCH  35  36
ATOM     36  O   UNL     1      -5.936  -0.015   6.039  1.00  0.00    -0.460 OA
BRANCH  36  37
ATOM     37  C   UNL     1      -6.278   0.282   4.771  1.00  0.00     0.338 C 
ATOM     38  O   UNL     1      -6.425   1.400   4.285  1.00  0.00    -0.246 OA
BRANCH  37  39
ATOM     39  C   UNL     1      -6.388  -0.987   4.055  1.00  0.00     0.060 A 
ATOM     40  C   UNL     1      -6.474  -0.953   2.664  1.00  0.00     0.016 A 
ATOM     41  C   UNL     1      -6.642  -2.149   4.798  1.00  0.00     0.016 A 
ATOM     42  C   UNL     1      -7.109  -2.002   2.041  1.00  0.00     0.010 A 
ATOM     43  C   UNL     1      -7.294  -3.177   4.182  1.00  0.00     0.010 A 
ATOM     44  C   UNL     1      -7.625  -3.026   2.841  1.00  0.00    -0.014 A 
BRANCH  44  45
ATOM     45  C   UNL     1      -8.508  -4.009   2.257  1.00  0.00     0.031 A 
ATOM     46  C   UNL     1      -7.748  -5.033   1.520  1.00  0.00     0.074 A 
ATOM     47  C   UNL     1      -9.833  -4.000   2.512  1.00  0.00     0.049 A 
ATOM     48  N   UNL     1      -7.603  -5.119   0.241  1.00  0.00    -0.248 NA
ATOM     49  C   UNL     1      -6.822  -5.891   2.282  1.00  0.00     0.031 C 
ATOM     50  C   UNL     1     -10.569  -3.114   3.424  1.00  0.00     0.029 A 
ATOM     51  N   UNL     1     -10.806  -4.841   2.069  1.00  0.00    -0.354 N 
ATOM     52  C   UNL     1      -6.823  -6.251   0.051  1.00  0.00     0.074 A 
ATOM     53  C   UNL     1      -6.142  -6.472   1.293  1.00  0.00     0.031 C 
ATOM     54  C   UNL     1     -11.815  -3.604   3.628  1.00  0.00     0.029 A 
ATOM     55  C   UNL     1     -12.016  -4.755   2.761  1.00  0.00     0.049 A 
ATOM     56  H   UNL     1     -10.668  -5.463   1.318  1.00  0.00     0.167 HD
ATOM     57  C   UNL     1      -7.116  -7.113  -0.959  1.00  0.00     0.034 A 
ATOM     58  C   UNL     1     -13.092  -5.584   2.642  1.00  0.00     0.034 A 
ATOM     59  C   UNL     1      -7.996  -6.480  -1.919  1.00  0.00     0.049 A 
ATOM     60  C   UNL     1     -12.962  -6.235   1.318  1.00  0.00     0.074 A 
ATOM     61  C   UNL     1      -7.902  -5.424  -2.800  1.00  0.00     0.029 A 
ATOM     62  N   UNL     1      -9.338  -6.715  -1.724  1.00  0.00    -0.354 N 
ATOM     63  N   UNL     1     -13.043  -5.573   0.196  1.00  0.00    -0.248 NA
ATOM     64  C   UNL     1     -12.276  -7.516   1.224  1.00  0.00     0.031 C 
ATOM     65  C   UNL     1      -9.207  -4.846  -2.849  1.00  0.00     0.029 A 
ATOM     66  C   UNL     1     -10.070  -5.605  -2.055  1.00  0.00     0.049 A 
ATOM     67  H   UNL     1      -9.718  -7.561  -1.393  1.00  0.00     0.167 HD
ATOM     68  C   UNL     1     -12.056  -6.114  -0.611  1.00  0.00     0.074 A 
ATOM     69  C   UNL     1     -11.735  -7.399   0.006  1.00  0.00     0.031 C 
ATOM     70  C   UNL     1     -11.392  -5.329  -1.512  1.00  0.00     0.034 A 
BRANCH  57  71
ATOM     71  C   UNL     1      -7.042  -8.625  -0.834  1.00  0.00     0.023 A 
ATOM     72  C   UNL     1      -7.412  -9.370  -1.970  1.00  0.00     0.031 A 
ATOM     73  C   UNL     1      -6.930  -9.364   0.369  1.00  0.00     0.131 A 
ATOM     74  C   UNL     1      -7.739 -10.733  -1.866  1.00  0.00     0.055 A 
ATOM     75  C   UNL     1      -7.200 -10.732   0.454  1.00  0.00     0.041 A 
ATOM     76  F   UNL     1      -6.647  -8.809   1.551  1.00  0.00    -0.206 F 
ATOM     77  C   UNL     1      -7.637 -11.419  -0.660  1.00  0.00     0.022 A 
BRANCH  74  78
ATOM     78  S   UNL     1      -8.459 -11.558  -3.306  1.00  0.00     0.124 S 
ATOM     79  O   UNL     1      -9.610 -10.708  -3.589  1.00  0.00    -0.237 OA
ATOM     80  O   UNL     1      -7.359 -11.499  -4.264  1.00  0.00    -0.237 OA
ATOM     81  O   UNL     1      -8.777 -12.893  -2.805  1.00  0.00    -0.744 OA
ENDBRANCH  74  78
ENDBRANCH  57  71
BRANCH  58  82
ATOM     82  C   UNL     1     -13.996  -6.090   3.720  1.00  0.00     0.023 A 
ATOM     83  C   UNL     1     -15.300  -6.595   3.493  1.00  0.00     0.031 A 
ATOM     84  C   UNL     1     -13.448  -6.319   5.002  1.00  0.00     0.131 A 
ATOM     85  C   UNL     1     -15.988  -7.292   4.522  1.00  0.00     0.055 A 
ATOM     86  C   UNL     1     -14.129  -7.011   6.008  1.00  0.00     0.041 A 
ATOM     87  F   UNL     1     -12.190  -5.952   5.291  1.00  0.00    -0.206 F 
ATOM     88  C   UNL     1     -15.399  -7.508   5.770  1.00  0.00     0.022 A 
BRANCH  85  89
ATOM     89  S   UNL     1     -17.656  -7.990   4.246  1.00  0.00     0.124 S 
ATOM     90  O   UNL     1     -18.445  -6.808   3.921  1.00  0.00    -0.237 OA
ATOM     91  O   UNL     1     -17.423  -8.935   3.159  1.00  0.00    -0.237 OA
ATOM     92  O   UNL     1     -17.987  -8.610   5.531  1.00  0.00    -0.744 OA
ENDBRANCH  85  89
ENDBRANCH  58  82
BRANCH  70  93
ATOM     93  C   UNL     1     -12.029  -3.999  -1.872  1.00  0.00     0.023 A 
ATOM     94  C   UNL     1     -12.241  -2.922  -0.979  1.00  0.00     0.031 A 
ATOM     95  C   UNL     1     -12.370  -3.805  -3.221  1.00  0.00     0.131 A 
ATOM     96  C   UNL     1     -12.789  -1.712  -1.455  1.00  0.00     0.055 A 
ATOM     97  C   UNL     1     -12.887  -2.600  -3.691  1.00  0.00     0.041 A 
ATOM     98  F   UNL     1     -12.174  -4.786  -4.118  1.00  0.00    -0.206 F 
ATOM     99  C   UNL     1     -13.104  -1.550  -2.808  1.00  0.00     0.022 A 
BRANCH  96 100
ATOM    100  S   UNL     1     -13.120  -0.325  -0.317  1.00  0.00     0.124 S 
ATOM    101  O   UNL     1     -13.905  -0.939   0.747  1.00  0.00    -0.237 OA
ATOM    102  O   UNL     1     -11.775   0.112   0.050  1.00  0.00    -0.237 OA
ATOM    103  O   UNL     1     -13.860   0.629  -1.147  1.00  0.00    -0.744 OA
ENDBRANCH  96 100
ENDBRANCH  70  93
ENDBRANCH  44  45
ENDBRANCH  37  39
ENDBRANCH  36  37
ENDBRANCH  35  36
ENDBRANCH  34  35
ENDBRANCH  33  34
ENDBRANCH   1  33
TORSDOF 22
