REMARK SMILES COc1ccc(/C=C2\SC(=O)N(CC(=O)N[C@H](C)C(=O)OCCOCCOCCOC(=O)c3ccc(-c4c5nc(c(-c6cc(S(=O)(=O)[O-])ccc6F)c6ccc([nH]6)c(-c6cc(S(=O)(=O)[O-])ccc6F)c6nc(c(-c7cc(S(=O)(=O)[O-])ccc7F)c7ccc4[nH]7)C=C6)C=C5)cc3)C2=O)cc1OC
REMARK SMILES IDX 25 1 24 2 23 3 22 4 21 5 19 6 20 7 17 8 18 9 16 10 14 11
REMARK SMILES IDX 15 12 13 14 12 15 7 16 8 17 9 18 96 19 10 20 97 21 11 22
REMARK SMILES IDX 6 23 3 24 4 25 99 26 5 27 98 28 2 29 1 30 100 31 101 32
REMARK SMILES IDX 26 33 27 34 28 35 29 36 30 37 31 38 32 39 33 40 34 41 95 42
REMARK SMILES IDX 35 43 94 44 36 45 37 46 38 47 88 48 39 49 93 50 87 51 89 52
REMARK SMILES IDX 40 53 92 54 86 55 85 56 41 58 73 59 53 60 72 61 54 62 57 63
REMARK SMILES IDX 71 64 90 65 55 66 56 67 70 69 91 70 58 71 42 72 43 73 51 74
REMARK SMILES IDX 44 75 50 76 52 77 49 78 45 79 46 80 47 81 48 82 74 83 75 84
REMARK SMILES IDX 83 85 76 86 82 87 84 88 81 89 77 90 78 91 79 92 80 93 59 94
REMARK SMILES IDX 60 95 68 96 61 97 67 98 69 99 66 100 62 101 63 102 64 103
REMARK SMILES IDX 65 104
REMARK H PARENT 16 13 89 57 57 68
REMARK Flexibility Score: inf
ROOT
ATOM      1  C   UNL     1       6.214  -8.304 -10.059  1.00  0.00     0.188 C 
ENDROOT
BRANCH   1   2
ATOM      2  O   UNL     1       6.399  -9.715 -10.096  1.00  0.00    -0.376 OA
BRANCH   2   3
ATOM      3  C   UNL     1       5.269 -10.562 -10.286  1.00  0.00     0.202 C 
BRANCH   3   4
ATOM      4  C   UNL     1       4.011 -10.338  -9.428  1.00  0.00     0.261 C 
BRANCH   4   5
ATOM      5  O   UNL     1       3.482  -8.997  -9.487  1.00  0.00    -0.462 OA
BRANCH   5   6
ATOM      6  C   UNL     1       3.244  -8.384  -8.300  1.00  0.00     0.328 C 
ATOM      7  O   UNL     1       3.353  -8.939  -7.210  1.00  0.00    -0.250 OA
BRANCH   6   8
ATOM      8  C   UNL     1       2.973  -6.867  -8.428  1.00  0.00     0.189 C 
ATOM      9  C   UNL     1       2.405  -6.324  -9.739  1.00  0.00     0.043 C 
BRANCH   8  10
ATOM     10  N   UNL     1       2.084  -6.491  -7.331  1.00  0.00    -0.341 N 
ATOM     11  C   UNL     1       2.175  -5.532  -6.376  1.00  0.00     0.240 C 
ATOM     12  O   UNL     1       1.155  -5.341  -5.705  1.00  0.00    -0.273 OA
ATOM     13  H   UNL     1       1.266  -7.035  -7.274  1.00  0.00     0.164 HD
BRANCH  11  14
ATOM     14  C   UNL     1       3.377  -4.590  -6.252  1.00  0.00     0.229 C 
BRANCH  14  15
ATOM     15  N   UNL     1       4.677  -5.230  -6.123  1.00  0.00    -0.259 N 
ATOM     16  C   UNL     1       7.037  -7.102  -4.099  1.00  0.00     0.029 C 
ATOM     17  C   UNL     1       6.449  -6.403  -5.084  1.00  0.00     0.083 C 
ATOM     18  S   UNL     1       7.071  -5.989  -6.624  1.00  0.00    -0.022 SA
ATOM     19  C   UNL     1       5.041  -5.896  -4.974  1.00  0.00     0.268 C 
ATOM     20  C   UNL     1       5.645  -5.084  -7.079  1.00  0.00     0.294 C 
ATOM     21  O   UNL     1       4.324  -6.068  -3.998  1.00  0.00    -0.268 OA
ATOM     22  O   UNL     1       5.552  -4.485  -8.132  1.00  0.00    -0.261 OA
BRANCH  16  23
ATOM     23  C   UNL     1       8.380  -7.729  -3.986  1.00  0.00    -0.020 A 
ATOM     24  C   UNL     1      10.904  -8.920  -3.433  1.00  0.00     0.160 A 
ATOM     25  C   UNL     1       9.727  -9.488  -2.944  1.00  0.00     0.051 A 
ATOM     26  C   UNL     1      10.826  -7.813  -4.274  1.00  0.00     0.161 A 
ATOM     27  C   UNL     1       8.483  -8.899  -3.218  1.00  0.00     0.012 A 
ATOM     28  C   UNL     1       9.569  -7.213  -4.521  1.00  0.00     0.058 A 
BRANCH  24  29
ATOM     29  O   UNL     1      12.090  -9.544  -3.155  1.00  0.00    -0.493 OA
ATOM     30  C   UNL     1      12.634  -9.095  -1.908  1.00  0.00     0.278 C 
ENDBRANCH  24  29
BRANCH  26  31
ATOM     31  O   UNL     1      11.879  -7.325  -5.005  1.00  0.00    -0.493 OA
ATOM     32  C   UNL     1      13.068  -7.008  -4.282  1.00  0.00     0.278 C 
ENDBRANCH  26  31
ENDBRANCH  16  23
ENDBRANCH  14  15
ENDBRANCH  11  14
ENDBRANCH   8  10
ENDBRANCH   6   8
ENDBRANCH   5   6
ENDBRANCH   4   5
ENDBRANCH   3   4
ENDBRANCH   2   3
ENDBRANCH   1   2
BRANCH   1  33
ATOM     33  C   UNL     1       5.352  -7.634 -11.142  1.00  0.00     0.188 C 
BRANCH  33  34
ATOM     34  O   UNL     1       4.656  -8.534 -11.973  1.00  0.00    -0.376 OA
BRANCH  34  35
ATOM     35  C   UNL     1       5.008  -8.589 -13.345  1.00  0.00     0.202 C 
BRANCH  35  36
ATOM     36  C   UNL     1       6.486  -8.672 -13.785  1.00  0.00     0.261 C 
BRANCH  36  37
ATOM     37  O   UNL     1       7.455  -7.920 -13.033  1.00  0.00    -0.460 OA
BRANCH  37  38
ATOM     38  C   UNL     1       7.525  -6.588 -13.287  1.00  0.00     0.338 C 
ATOM     39  O   UNL     1       6.836  -5.974 -14.082  1.00  0.00    -0.246 OA
BRANCH  38  40
ATOM     40  C   UNL     1       8.404  -5.957 -12.267  1.00  0.00     0.060 A 
ATOM     41  C   UNL     1       7.859  -5.002 -11.398  1.00  0.00     0.016 A 
ATOM     42  C   UNL     1       9.760  -6.274 -12.184  1.00  0.00     0.016 A 
ATOM     43  C   UNL     1       8.675  -4.330 -10.479  1.00  0.00     0.010 A 
ATOM     44  C   UNL     1      10.580  -5.585 -11.273  1.00  0.00     0.010 A 
ATOM     45  C   UNL     1      10.054  -4.579 -10.435  1.00  0.00    -0.014 A 
BRANCH  45  46
ATOM     46  C   UNL     1      10.966  -3.628  -9.716  1.00  0.00     0.031 A 
ATOM     47  C   UNL     1      11.739  -2.638 -10.544  1.00  0.00     0.074 A 
ATOM     48  C   UNL     1      10.994  -3.479  -8.373  1.00  0.00     0.049 A 
ATOM     49  N   UNL     1      12.656  -1.786 -10.173  1.00  0.00    -0.248 NA
ATOM     50  C   UNL     1      11.396  -2.571 -11.975  1.00  0.00     0.031 C 
ATOM     51  C   UNL     1      10.089  -4.156  -7.461  1.00  0.00     0.029 A 
ATOM     52  N   UNL     1      11.748  -2.676  -7.541  1.00  0.00    -0.354 N 
ATOM     53  C   UNL     1      12.987  -1.069 -11.314  1.00  0.00     0.074 A 
ATOM     54  C   UNL     1      12.211  -1.620 -12.404  1.00  0.00     0.031 C 
ATOM     55  C   UNL     1      10.263  -3.668  -6.221  1.00  0.00     0.029 A 
ATOM     56  C   UNL     1      11.447  -2.811  -6.194  1.00  0.00     0.049 A 
ATOM     57  H   UNL     1      12.440  -2.061  -7.874  1.00  0.00     0.167 HD
ATOM     58  C   UNL     1      13.842  -0.026 -11.431  1.00  0.00     0.034 A 
ATOM     59  C   UNL     1      12.106  -2.381  -5.083  1.00  0.00     0.034 A 
ATOM     60  C   UNL     1      14.595   0.524 -10.333  1.00  0.00     0.049 A 
ATOM     61  C   UNL     1      13.396  -1.630  -5.337  1.00  0.00     0.074 A 
ATOM     62  C   UNL     1      15.482   1.586 -10.344  1.00  0.00     0.029 A 
ATOM     63  N   UNL     1      14.559   0.052  -9.029  1.00  0.00    -0.354 N 
ATOM     64  N   UNL     1      13.798  -1.031  -6.434  1.00  0.00    -0.248 NA
ATOM     65  C   UNL     1      14.349  -1.535  -4.225  1.00  0.00     0.031 C 
ATOM     66  C   UNL     1      16.050   1.695  -9.070  1.00  0.00     0.029 A 
ATOM     67  C   UNL     1      15.448   0.765  -8.240  1.00  0.00     0.049 A 
ATOM     68  H   UNL     1      13.985  -0.682  -8.711  1.00  0.00     0.167 HD
ATOM     69  C   UNL     1      14.962  -0.352  -6.087  1.00  0.00     0.074 A 
ATOM     70  C   UNL     1      15.245  -0.688  -4.709  1.00  0.00     0.031 C 
ATOM     71  C   UNL     1      15.684   0.518  -6.837  1.00  0.00     0.034 A 
BRANCH  58  72
ATOM     72  C   UNL     1      14.055   0.546 -12.806  1.00  0.00     0.023 A 
ATOM     73  C   UNL     1      13.043   1.234 -13.495  1.00  0.00     0.031 A 
ATOM     74  C   UNL     1      15.305   0.400 -13.432  1.00  0.00     0.131 A 
ATOM     75  C   UNL     1      13.287   1.716 -14.789  1.00  0.00     0.055 A 
ATOM     76  C   UNL     1      15.565   0.946 -14.688  1.00  0.00     0.041 A 
ATOM     77  F   UNL     1      16.295  -0.278 -12.829  1.00  0.00    -0.206 F 
ATOM     78  C   UNL     1      14.550   1.602 -15.377  1.00  0.00     0.022 A 
BRANCH  75  79
ATOM     79  S   UNL     1      11.902   2.396 -15.741  1.00  0.00     0.124 S 
ATOM     80  O   UNL     1      11.000   1.249 -15.811  1.00  0.00    -0.237 OA
ATOM     81  O   UNL     1      11.459   3.507 -14.906  1.00  0.00    -0.237 OA
ATOM     82  O   UNL     1      12.515   2.777 -17.012  1.00  0.00    -0.744 OA
ENDBRANCH  75  79
ENDBRANCH  58  72
BRANCH  59  83
ATOM     83  C   UNL     1      11.741  -2.769  -3.657  1.00  0.00     0.023 A 
ATOM     84  C   UNL     1      11.867  -1.927  -2.534  1.00  0.00     0.031 A 
ATOM     85  C   UNL     1      11.441  -4.106  -3.364  1.00  0.00     0.131 A 
ATOM     86  C   UNL     1      11.751  -2.454  -1.223  1.00  0.00     0.055 A 
ATOM     87  C   UNL     1      11.240  -4.617  -2.081  1.00  0.00     0.041 A 
ATOM     88  F   UNL     1      11.401  -4.986  -4.358  1.00  0.00    -0.206 F 
ATOM     89  C   UNL     1      11.423  -3.791  -0.994  1.00  0.00     0.022 A 
BRANCH  86  90
ATOM     90  S   UNL     1      12.235  -1.458   0.220  1.00  0.00     0.124 S 
ATOM     91  O   UNL     1      13.332  -0.659  -0.309  1.00  0.00    -0.237 OA
ATOM     92  O   UNL     1      10.996  -0.748   0.514  1.00  0.00    -0.237 OA
ATOM     93  O   UNL     1      12.623  -2.471   1.202  1.00  0.00    -0.744 OA
ENDBRANCH  86  90
ENDBRANCH  59  83
BRANCH  71  94
ATOM     94  C   UNL     1      16.676   1.387  -6.105  1.00  0.00     0.023 A 
ATOM     95  C   UNL     1      17.832   0.889  -5.485  1.00  0.00     0.031 A 
ATOM     96  C   UNL     1      16.398   2.763  -5.976  1.00  0.00     0.131 A 
ATOM     97  C   UNL     1      18.623   1.744  -4.701  1.00  0.00     0.055 A 
ATOM     98  C   UNL     1      17.231   3.623  -5.262  1.00  0.00     0.041 A 
ATOM     99  F   UNL     1      15.300   3.295  -6.539  1.00  0.00    -0.206 F 
ATOM    100  C   UNL     1      18.341   3.110  -4.602  1.00  0.00     0.022 A 
BRANCH  97 101
ATOM    101  S   UNL     1      19.955   1.024  -3.701  1.00  0.00     0.124 S 
ATOM    102  O   UNL     1      19.231   0.058  -2.882  1.00  0.00    -0.237 OA
ATOM    103  O   UNL     1      20.837   0.460  -4.718  1.00  0.00    -0.237 OA
ATOM    104  O   UNL     1      20.500   2.171  -2.977  1.00  0.00    -0.744 OA
ENDBRANCH  97 101
ENDBRANCH  71  94
ENDBRANCH  45  46
ENDBRANCH  38  40
ENDBRANCH  37  38
ENDBRANCH  36  37
ENDBRANCH  35  36
ENDBRANCH  34  35
ENDBRANCH  33  34
ENDBRANCH   1  33
TORSDOF 26
