REMARK SMILES O=C(/C=C\c1ccc(S(=O)(=O)N2CCCCCC2)cc1)OCCOCCOCCOC(=O)c1ccc(-c2c3nc(c(-c4cc(S(=O)(=O)[O-])ccc4F)c4ccc([nH]4)c(-c4cc(S(=O)(=O)[O-])ccc4F)c4nc(c(-c5cc(S(=O)(=O)[O-])ccc5F)c5ccc2[nH]5)C=C4)C=C3)cc1
REMARK SMILES IDX 24 1 23 2 22 3 21 4 2 5 1 6 3 7 4 8 5 9 6 10 20 11 7 12
REMARK SMILES IDX 19 13 8 14 9 15 10 16 11 17 12 18 13 19 14 20 15 21 18 23
REMARK SMILES IDX 17 24 16 25 25 27 26 28 27 29 28 30 29 31 30 32 31 33 32 34
REMARK SMILES IDX 33 35 34 36 95 37 35 38 94 39 36 40 37 41 38 42 88 43 39 44
REMARK SMILES IDX 93 45 87 46 89 47 40 48 92 49 86 50 85 51 41 53 73 54 53 55
REMARK SMILES IDX 72 56 54 57 57 58 71 59 90 60 55 61 56 62 70 64 91 65 58 66
REMARK SMILES IDX 42 67 43 68 51 69 44 70 50 71 52 72 49 73 45 74 46 75 47 76
REMARK SMILES IDX 48 77 74 78 75 79 83 80 76 81 82 82 84 83 81 84 77 85 78 86
REMARK SMILES IDX 79 87 80 88 59 89 60 90 68 91 61 92 67 93 69 94 66 95 62 96
REMARK SMILES IDX 63 97 64 98 65 99
REMARK H PARENT 89 52 57 63
REMARK Flexibility Score: 90.00
ROOT
ATOM      1  O   UNL     1       2.071  -1.834   0.403  1.00  0.00    -0.376 OA
ENDROOT
BRANCH   1   2
ATOM      2  C   UNL     1       3.275  -1.071   0.471  1.00  0.00     0.202 C 
BRANCH   2   3
ATOM      3  C   UNL     1       3.107   0.456   0.498  1.00  0.00     0.261 C 
BRANCH   3   4
ATOM      4  O   UNL     1       2.614   1.044  -0.713  1.00  0.00    -0.460 OA
BRANCH   4   5
ATOM      5  C   UNL     1       3.018   0.784  -1.966  1.00  0.00     0.330 C 
ATOM      6  O   UNL     1       2.265   1.043  -2.905  1.00  0.00    -0.247 OA
BRANCH   5   7
ATOM      7  C   UNL     1       4.320   0.161  -2.290  1.00  0.00     0.094 C 
ATOM      8  C   UNL     1       5.596   0.213  -1.865  1.00  0.00     0.015 C 
BRANCH   8   9
ATOM      9  C   UNL     1       6.249   0.967  -0.793  1.00  0.00    -0.025 A 
ATOM     10  C   UNL     1       6.895   2.176  -1.062  1.00  0.00     0.009 A 
ATOM     11  C   UNL     1       6.322   0.446   0.503  1.00  0.00     0.009 A 
ATOM     12  C   UNL     1       7.492   2.907  -0.026  1.00  0.00     0.022 A 
ATOM     13  C   UNL     1       6.846   1.202   1.556  1.00  0.00     0.022 A 
ATOM     14  C   UNL     1       7.419   2.443   1.293  1.00  0.00     0.082 A 
BRANCH  14  15
ATOM     15  S   UNL     1       8.034   3.481   2.608  1.00  0.00     0.243 S 
ATOM     16  O   UNL     1       9.329   2.976   2.977  1.00  0.00    -0.207 OA
ATOM     17  O   UNL     1       7.857   4.858   2.165  1.00  0.00    -0.207 OA
BRANCH  15  18
ATOM     18  N   UNL     1       6.963   3.245   3.913  1.00  0.00    -0.198 NA
BRANCH  18  19
ATOM     19  C   UNL     1       5.572   3.710   3.775  1.00  0.00     0.102 C 
BRANCH  19  20
ATOM     20  C   UNL     1       5.153   4.534   4.991  1.00  0.00     0.017 C 
BRANCH  20  21
ATOM     21  C   UNL     1       4.648   3.699   6.165  1.00  0.00     0.001 CG0
ATOM     22  G   UNL     1       5.676   2.745   6.758  1.00  0.00     0.000 G0
ENDBRANCH  20  21
ENDBRANCH  19  20
ENDBRANCH  18  19
BRANCH  18  23
ATOM     23  C   UNL     1       7.315   2.191   4.886  1.00  0.00     0.102 C 
BRANCH  23  24
ATOM     24  C   UNL     1       6.175   1.696   5.768  1.00  0.00     0.017 C 
BRANCH  24  25
ATOM     25  C   UNL     1       5.676   2.745   6.758  1.00  0.00     0.001 CG0
ATOM     26  G   UNL     1       4.648   3.699   6.165  1.00  0.00     0.000 G0
ENDBRANCH  24  25
ENDBRANCH  23  24
ENDBRANCH  18  23
ENDBRANCH  15  18
ENDBRANCH  14  15
ENDBRANCH   8   9
ENDBRANCH   5   7
ENDBRANCH   4   5
ENDBRANCH   3   4
ENDBRANCH   2   3
ENDBRANCH   1   2
BRANCH   1  27
ATOM     27  C   UNL     1       1.023  -1.454   1.293  1.00  0.00     0.188 C 
BRANCH  27  28
ATOM     28  C   UNL     1       1.345  -1.569   2.792  1.00  0.00     0.188 C 
BRANCH  28  29
ATOM     29  O   UNL     1       2.579  -0.924   3.124  1.00  0.00    -0.376 OA
BRANCH  29  30
ATOM     30  C   UNL     1       3.287  -1.533   4.199  1.00  0.00     0.202 C 
BRANCH  30  31
ATOM     31  C   UNL     1       4.114  -2.796   3.874  1.00  0.00     0.261 C 
BRANCH  31  32
ATOM     32  O   UNL     1       3.711  -3.545   2.721  1.00  0.00    -0.460 OA
BRANCH  32  33
ATOM     33  C   UNL     1       2.848  -4.564   2.944  1.00  0.00     0.338 C 
ATOM     34  O   UNL     1       2.316  -4.846   4.003  1.00  0.00    -0.246 OA
BRANCH  33  35
ATOM     35  C   UNL     1       2.580  -5.240   1.664  1.00  0.00     0.060 A 
ATOM     36  C   UNL     1       1.338  -5.072   1.043  1.00  0.00     0.016 A 
ATOM     37  C   UNL     1       3.537  -6.099   1.121  1.00  0.00     0.016 A 
ATOM     38  C   UNL     1       1.044  -5.766  -0.131  1.00  0.00     0.010 A 
ATOM     39  C   UNL     1       3.231  -6.817  -0.036  1.00  0.00     0.010 A 
ATOM     40  C   UNL     1       1.976  -6.671  -0.652  1.00  0.00    -0.014 A 
BRANCH  40  41
ATOM     41  C   UNL     1       1.578  -7.636  -1.703  1.00  0.00     0.031 A 
ATOM     42  C   UNL     1       1.051  -8.972  -1.265  1.00  0.00     0.074 A 
ATOM     43  C   UNL     1       1.744  -7.356  -3.006  1.00  0.00     0.049 A 
ATOM     44  N   UNL     1       0.805 -10.044  -1.968  1.00  0.00    -0.248 NA
ATOM     45  C   UNL     1       0.782  -9.113   0.174  1.00  0.00     0.031 C 
ATOM     46  C   UNL     1       2.195  -6.073  -3.540  1.00  0.00     0.029 A 
ATOM     47  N   UNL     1       1.582  -8.149  -4.114  1.00  0.00    -0.354 N 
ATOM     48  C   UNL     1       0.364 -10.997  -1.055  1.00  0.00     0.074 A 
ATOM     49  C   UNL     1       0.407 -10.378   0.253  1.00  0.00     0.031 C 
ATOM     50  C   UNL     1       2.320  -6.181  -4.874  1.00  0.00     0.029 A 
ATOM     51  C   UNL     1       2.003  -7.551  -5.278  1.00  0.00     0.049 A 
ATOM     52  H   UNL     1       1.203  -9.057  -4.079  1.00  0.00     0.167 HD
ATOM     53  C   UNL     1      -0.029 -12.273  -1.290  1.00  0.00     0.034 A 
ATOM     54  C   UNL     1       2.164  -8.068  -6.513  1.00  0.00     0.034 A 
ATOM     55  C   UNL     1      -0.013 -12.875  -2.601  1.00  0.00     0.049 A 
ATOM     56  C   UNL     1       1.819  -9.520  -6.746  1.00  0.00     0.074 A 
ATOM     57  C   UNL     1      -0.389 -14.154  -2.970  1.00  0.00     0.029 A 
ATOM     58  N   UNL     1       0.434 -12.244  -3.758  1.00  0.00    -0.354 N 
ATOM     59  N   UNL     1       1.397 -10.418  -5.884  1.00  0.00    -0.248 NA
ATOM     60  C   UNL     1       1.966 -10.027  -8.116  1.00  0.00     0.031 C 
ATOM     61  C   UNL     1      -0.089 -14.323  -4.326  1.00  0.00     0.029 A 
ATOM     62  C   UNL     1       0.382 -13.119  -4.830  1.00  0.00     0.049 A 
ATOM     63  H   UNL     1       0.742 -11.310  -3.807  1.00  0.00     0.167 HD
ATOM     64  C   UNL     1       1.195 -11.587  -6.615  1.00  0.00     0.074 A 
ATOM     65  C   UNL     1       1.547 -11.279  -7.987  1.00  0.00     0.031 C 
ATOM     66  C   UNL     1       0.745 -12.797  -6.194  1.00  0.00     0.034 A 
BRANCH  53  67
ATOM     67  C   UNL     1      -0.416 -13.103  -0.088  1.00  0.00     0.023 A 
ATOM     68  C   UNL     1      -1.478 -12.734   0.758  1.00  0.00     0.031 A 
ATOM     69  C   UNL     1       0.348 -14.227   0.274  1.00  0.00     0.131 A 
ATOM     70  C   UNL     1      -1.676 -13.411   1.971  1.00  0.00     0.055 A 
ATOM     71  C   UNL     1       0.082 -14.958   1.433  1.00  0.00     0.041 A 
ATOM     72  F   UNL     1       1.392 -14.614  -0.475  1.00  0.00    -0.206 F 
ATOM     73  C   UNL     1      -0.920 -14.537   2.302  1.00  0.00     0.022 A 
BRANCH  70  74
ATOM     74  S   UNL     1      -2.792 -12.675   3.199  1.00  0.00     0.124 S 
ATOM     75  O   UNL     1      -2.222 -11.338   3.353  1.00  0.00    -0.237 OA
ATOM     76  O   UNL     1      -4.086 -12.745   2.531  1.00  0.00    -0.237 OA
ATOM     77  O   UNL     1      -2.642 -13.545   4.364  1.00  0.00    -0.744 OA
ENDBRANCH  70  74
ENDBRANCH  53  67
BRANCH  54  78
ATOM     78  C   UNL     1       2.737  -7.225  -7.601  1.00  0.00     0.023 A 
ATOM     79  C   UNL     1       1.976  -6.853  -8.719  1.00  0.00     0.031 A 
ATOM     80  C   UNL     1       4.070  -6.778  -7.531  1.00  0.00     0.131 A 
ATOM     81  C   UNL     1       2.559  -6.076  -9.733  1.00  0.00     0.055 A 
ATOM     82  C   UNL     1       4.631  -5.967  -8.519  1.00  0.00     0.041 A 
ATOM     83  F   UNL     1       4.842  -7.106  -6.483  1.00  0.00    -0.206 F 
ATOM     84  C   UNL     1       3.875  -5.617  -9.633  1.00  0.00     0.022 A 
BRANCH  81  85
ATOM     85  S   UNL     1       1.586  -5.708 -11.220  1.00  0.00     0.124 S 
ATOM     86  O   UNL     1       1.336  -7.045 -11.748  1.00  0.00    -0.237 OA
ATOM     87  O   UNL     1       0.431  -5.011 -10.664  1.00  0.00    -0.237 OA
ATOM     88  O   UNL     1       2.486  -4.879 -12.019  1.00  0.00    -0.744 OA
ENDBRANCH  81  85
ENDBRANCH  54  78
BRANCH  66  89
ATOM     89  C   UNL     1       0.541 -13.868  -7.240  1.00  0.00     0.023 A 
ATOM     90  C   UNL     1       1.615 -14.469  -7.919  1.00  0.00     0.031 A 
ATOM     91  C   UNL     1      -0.761 -14.317  -7.531  1.00  0.00     0.131 A 
ATOM     92  C   UNL     1       1.363 -15.461  -8.882  1.00  0.00     0.055 A 
ATOM     93  C   UNL     1      -0.999 -15.343  -8.445  1.00  0.00     0.041 A 
ATOM     94  F   UNL     1      -1.823 -13.775  -6.914  1.00  0.00    -0.206 F 
ATOM     95  C   UNL     1       0.066 -15.915  -9.133  1.00  0.00     0.022 A 
BRANCH  92  96
ATOM     96  S   UNL     1       2.750 -16.106  -9.858  1.00  0.00     0.124 S 
ATOM     97  O   UNL     1       3.253 -14.898 -10.504  1.00  0.00    -0.237 OA
ATOM     98  O   UNL     1       3.610 -16.688  -8.833  1.00  0.00    -0.237 OA
ATOM     99  O   UNL     1       2.117 -17.071 -10.756  1.00  0.00    -0.744 OA
ENDBRANCH  92  96
ENDBRANCH  66  89
ENDBRANCH  40  41
ENDBRANCH  33  35
ENDBRANCH  32  33
ENDBRANCH  31  32
ENDBRANCH  30  31
ENDBRANCH  29  30
ENDBRANCH  28  29
ENDBRANCH  27  28
ENDBRANCH   1  27
TORSDOF 23
