REMARK SMILES CS(=O)(=O)c1ccc(/C=C(/C(=O)OCCOCCOCCOC(=O)c2ccc(-c3c4nc(c(-c5cc(S(=O)(=O)[O-])ccc5F)c5ccc([nH]5)c(-c5cc(S(=O)(=O)[O-])ccc5F)c5nc(c(-c6cc(S(=O)(=O)[O-])ccc6F)c6ccc3[nH]6)C=C5)C=C4)cc2)c2cccc(Br)c2)cc1
REMARK SMILES IDX 18 1 17 2 16 3 15 4 14 5 13 6 11 7 12 8 10 9 9 10 8 11 5 12
REMARK SMILES IDX 6 13 96 14 7 15 95 16 2 17 1 18 3 19 4 20 88 21 89 22 94 23
REMARK SMILES IDX 90 24 92 25 91 26 93 27 19 28 20 29 21 30 22 31 23 32 24 33
REMARK SMILES IDX 25 34 26 35 87 36 27 37 86 38 28 39 29 40 30 41 80 42 31 43
REMARK SMILES IDX 85 44 79 45 81 46 32 47 84 48 78 49 77 50 33 52 65 53 45 54
REMARK SMILES IDX 64 55 46 56 49 57 63 58 82 59 47 60 48 61 62 63 83 64 50 65
REMARK SMILES IDX 34 66 35 67 43 68 36 69 42 70 44 71 41 72 37 73 38 74 39 75
REMARK SMILES IDX 40 76 66 77 67 78 75 79 68 80 74 81 76 82 73 83 69 84 70 85
REMARK SMILES IDX 71 86 72 87 51 88 52 89 60 90 53 91 59 92 61 93 58 94 54 95
REMARK SMILES IDX 55 96 56 97 57 98
REMARK H PARENT 81 51 49 62
REMARK Flexibility Score: inf
ROOT
ATOM      1  C   UNL     1       5.699  -2.360  -8.025  1.00  0.00     0.188 C 
ENDROOT
BRANCH   1   2
ATOM      2  C   UNL     1       5.425  -3.268  -9.241  1.00  0.00     0.188 C 
BRANCH   2   3
ATOM      3  O   UNL     1       5.578  -2.610 -10.488  1.00  0.00    -0.376 OA
BRANCH   3   4
ATOM      4  C   UNL     1       4.364  -2.381 -11.191  1.00  0.00     0.202 C 
BRANCH   4   5
ATOM      5  C   UNL     1       3.417  -1.345 -10.564  1.00  0.00     0.261 C 
BRANCH   5   6
ATOM      6  O   UNL     1       3.108  -1.534  -9.169  1.00  0.00    -0.460 OA
BRANCH   6   7
ATOM      7  C   UNL     1       2.211  -2.499  -8.840  1.00  0.00     0.338 C 
ATOM      8  O   UNL     1       1.624  -3.202  -9.648  1.00  0.00    -0.246 OA
BRANCH   7   9
ATOM      9  C   UNL     1       2.122  -2.668  -7.342  1.00  0.00     0.067 C 
ATOM     10  C   UNL     1       2.293  -1.592  -6.531  1.00  0.00     0.024 C 
BRANCH  10  11
ATOM     11  C   UNL     1       2.124  -1.490  -5.057  1.00  0.00    -0.025 A 
ATOM     12  C   UNL     1       1.272  -1.329  -2.382  1.00  0.00     0.067 A 
ATOM     13  C   UNL     1       1.938  -2.467  -2.829  1.00  0.00     0.021 A 
ATOM     14  C   UNL     1       1.137  -0.221  -3.219  1.00  0.00     0.021 A 
ATOM     15  C   UNL     1       2.399  -2.523  -4.150  1.00  0.00     0.009 A 
ATOM     16  C   UNL     1       1.570  -0.304  -4.548  1.00  0.00     0.009 A 
BRANCH  12  17
ATOM     17  S   UNL     1       0.467  -1.336  -0.799  1.00  0.00     0.175 S 
ATOM     18  C   UNL     1       1.176   0.022   0.084  1.00  0.00     0.163 C 
ATOM     19  O   UNL     1       0.854  -2.547  -0.102  1.00  0.00    -0.224 OA
ATOM     20  O   UNL     1      -0.930  -1.024  -1.039  1.00  0.00    -0.224 OA
ENDBRANCH  12  17
ENDBRANCH  10  11
BRANCH   9  21
ATOM     21  C   UNL     1       1.869  -4.027  -6.812  1.00  0.00    -0.010 A 
ATOM     22  C   UNL     1       2.902  -4.979  -6.838  1.00  0.00     0.009 A 
ATOM     23  C   UNL     1       0.677  -4.341  -6.146  1.00  0.00     0.024 A 
ATOM     24  C   UNL     1       2.760  -6.204  -6.188  1.00  0.00     0.002 A 
ATOM     25  C   UNL     1       0.552  -5.564  -5.482  1.00  0.00     0.018 A 
ATOM     26  C   UNL     1       1.586  -6.498  -5.502  1.00  0.00     0.016 A 
ATOM     27  Br  UNL     1      -1.003  -5.918  -4.468  1.00  0.00    -0.051 Br
ENDBRANCH   9  21
ENDBRANCH   7   9
ENDBRANCH   6   7
ENDBRANCH   5   6
ENDBRANCH   4   5
ENDBRANCH   3   4
ENDBRANCH   2   3
ENDBRANCH   1   2
BRANCH   1  28
ATOM     28  O   UNL     1       6.273  -1.074  -8.197  1.00  0.00    -0.376 OA
BRANCH  28  29
ATOM     29  C   UNL     1       7.309  -0.902  -9.148  1.00  0.00     0.202 C 
BRANCH  29  30
ATOM     30  C   UNL     1       8.531  -1.843  -9.171  1.00  0.00     0.261 C 
BRANCH  30  31
ATOM     31  O   UNL     1       8.314  -3.219  -8.821  1.00  0.00    -0.460 OA
BRANCH  31  32
ATOM     32  C   UNL     1       8.636  -3.563  -7.549  1.00  0.00     0.338 C 
ATOM     33  O   UNL     1       9.097  -2.824  -6.690  1.00  0.00    -0.246 OA
BRANCH  32  34
ATOM     34  C   UNL     1       8.165  -4.941  -7.271  1.00  0.00     0.060 A 
ATOM     35  C   UNL     1       7.241  -5.136  -6.234  1.00  0.00     0.016 A 
ATOM     36  C   UNL     1       8.648  -6.037  -7.989  1.00  0.00     0.016 A 
ATOM     37  C   UNL     1       6.811  -6.423  -5.904  1.00  0.00     0.010 A 
ATOM     38  C   UNL     1       8.239  -7.332  -7.636  1.00  0.00     0.010 A 
ATOM     39  C   UNL     1       7.336  -7.534  -6.576  1.00  0.00    -0.014 A 
BRANCH  39  40
ATOM     40  C   UNL     1       7.083  -8.895  -6.029  1.00  0.00     0.031 A 
ATOM     41  C   UNL     1       8.086  -9.483  -5.073  1.00  0.00     0.074 A 
ATOM     42  C   UNL     1       5.960  -9.576  -6.323  1.00  0.00     0.049 A 
ATOM     43  N   UNL     1       8.073 -10.636  -4.458  1.00  0.00    -0.248 NA
ATOM     44  C   UNL     1       9.268  -8.657  -4.785  1.00  0.00     0.031 C 
ATOM     45  C   UNL     1       4.905  -9.109  -7.217  1.00  0.00     0.029 A 
ATOM     46  N   UNL     1       5.512 -10.800  -5.888  1.00  0.00    -0.354 N 
ATOM     47  C   UNL     1       9.247 -10.681  -3.712  1.00  0.00     0.074 A 
ATOM     48  C   UNL     1       9.961  -9.451  -3.983  1.00  0.00     0.031 C 
ATOM     49  C   UNL     1       3.914 -10.018  -7.236  1.00  0.00     0.029 A 
ATOM     50  C   UNL     1       4.291 -11.163  -6.409  1.00  0.00     0.049 A 
ATOM     51  H   UNL     1       6.019 -11.366  -5.262  1.00  0.00     0.167 HD
ATOM     52  C   UNL     1       9.688 -11.656  -2.879  1.00  0.00     0.034 A 
ATOM     53  C   UNL     1       3.575 -12.298  -6.257  1.00  0.00     0.034 A 
ATOM     54  C   UNL     1       8.982 -12.891  -2.637  1.00  0.00     0.049 A 
ATOM     55  C   UNL     1       4.129 -13.406  -5.387  1.00  0.00     0.074 A 
ATOM     56  C   UNL     1       9.343 -13.942  -1.812  1.00  0.00     0.029 A 
ATOM     57  N   UNL     1       7.779 -13.253  -3.232  1.00  0.00    -0.354 N 
ATOM     58  N   UNL     1       5.237 -13.431  -4.681  1.00  0.00    -0.248 NA
ATOM     59  C   UNL     1       3.335 -14.639  -5.298  1.00  0.00     0.031 C 
ATOM     60  C   UNL     1       8.408 -14.970  -1.973  1.00  0.00     0.029 A 
ATOM     61  C   UNL     1       7.408 -14.526  -2.822  1.00  0.00     0.049 A 
ATOM     62  H   UNL     1       7.265 -12.688  -3.853  1.00  0.00     0.167 HD
ATOM     63  C   UNL     1       5.257 -14.673  -4.047  1.00  0.00     0.074 A 
ATOM     64  C   UNL     1       4.037 -15.352  -4.431  1.00  0.00     0.031 C 
ATOM     65  C   UNL     1       6.197 -15.206  -3.223  1.00  0.00     0.034 A 
BRANCH  52  66
ATOM     66  C   UNL     1      11.033 -11.446  -2.223  1.00  0.00     0.023 A 
ATOM     67  C   UNL     1      11.263 -10.388  -1.326  1.00  0.00     0.031 A 
ATOM     68  C   UNL     1      12.111 -12.295  -2.530  1.00  0.00     0.131 A 
ATOM     69  C   UNL     1      12.556 -10.161  -0.829  1.00  0.00     0.055 A 
ATOM     70  C   UNL     1      13.374 -12.117  -1.962  1.00  0.00     0.041 A 
ATOM     71  F   UNL     1      11.960 -13.305  -3.400  1.00  0.00    -0.206 F 
ATOM     72  C   UNL     1      13.606 -11.035  -1.119  1.00  0.00     0.022 A 
BRANCH  69  73
ATOM     73  S   UNL     1      12.879  -8.619   0.069  1.00  0.00     0.124 S 
ATOM     74  O   UNL     1      12.489  -7.615  -0.919  1.00  0.00    -0.237 OA
ATOM     75  O   UNL     1      12.009  -8.742   1.232  1.00  0.00    -0.237 OA
ATOM     76  O   UNL     1      14.312  -8.681   0.350  1.00  0.00    -0.744 OA
ENDBRANCH  69  73
ENDBRANCH  52  66
BRANCH  53  77
ATOM     77  C   UNL     1       2.281 -12.492  -6.983  1.00  0.00     0.023 A 
ATOM     78  C   UNL     1       1.082 -12.729  -6.290  1.00  0.00     0.031 A 
ATOM     79  C   UNL     1       2.242 -12.528  -8.389  1.00  0.00     0.131 A 
ATOM     80  C   UNL     1      -0.088 -13.045  -7.000  1.00  0.00     0.055 A 
ATOM     81  C   UNL     1       1.061 -12.774  -9.091  1.00  0.00     0.041 A 
ATOM     82  F   UNL     1       3.359 -12.325  -9.105  1.00  0.00    -0.206 F 
ATOM     83  C   UNL     1      -0.111 -13.050  -8.396  1.00  0.00     0.022 A 
BRANCH  80  84
ATOM     84  S   UNL     1      -1.559 -13.564  -6.072  1.00  0.00     0.124 S 
ATOM     85  O   UNL     1      -1.058 -14.729  -5.351  1.00  0.00    -0.237 OA
ATOM     86  O   UNL     1      -1.840 -12.382  -5.264  1.00  0.00    -0.237 OA
ATOM     87  O   UNL     1      -2.539 -13.850  -7.118  1.00  0.00    -0.744 OA
ENDBRANCH  80  84
ENDBRANCH  53  77
BRANCH  65  88
ATOM     88  C   UNL     1       5.918 -16.579  -2.650  1.00  0.00     0.023 A 
ATOM     89  C   UNL     1       5.803 -17.718  -3.468  1.00  0.00     0.031 A 
ATOM     90  C   UNL     1       5.739 -16.747  -1.264  1.00  0.00     0.131 A 
ATOM     91  C   UNL     1       5.445 -18.953  -2.905  1.00  0.00     0.055 A 
ATOM     92  C   UNL     1       5.458 -17.993  -0.701  1.00  0.00     0.041 A 
ATOM     93  F   UNL     1       5.832 -15.698  -0.430  1.00  0.00    -0.206 F 
ATOM     94  C   UNL     1       5.292 -19.102  -1.524  1.00  0.00     0.022 A 
BRANCH  91  95
ATOM     95  S   UNL     1       5.058 -20.337  -4.013  1.00  0.00     0.124 S 
ATOM     96  O   UNL     1       4.002 -19.771  -4.846  1.00  0.00    -0.237 OA
ATOM     97  O   UNL     1       6.336 -20.572  -4.677  1.00  0.00    -0.237 OA
ATOM     98  O   UNL     1       4.630 -21.397  -3.103  1.00  0.00    -0.744 OA
ENDBRANCH  91  95
ENDBRANCH  65  88
ENDBRANCH  39  40
ENDBRANCH  32  34
ENDBRANCH  31  32
ENDBRANCH  30  31
ENDBRANCH  29  30
ENDBRANCH  28  29
ENDBRANCH   1  28
TORSDOF 23
