REMARK SMILES CCOc1ccc(N2C[C@H](C(=O)OCCOCCOCCOC(=O)c3ccc(-c4c5nc(c(-c6cc(S(=O)(=O)[O-])ccc6F)c6ccc([nH]6)c(-c6cc(S(=O)(=O)[O-])ccc6F)c6nc(c(-c7cc(S(=O)(=O)[O-])ccc7F)c7ccc4[nH]7)C=C6)C=C5)cc3)CC2=O)cc1C(F)(F)F
REMARK SMILES IDX 17 1 16 2 15 3 14 4 13 5 11 6 12 7 10 8 8 9 9 10 89 11 88 12
REMARK SMILES IDX 90 13 7 14 4 15 5 16 92 17 6 18 91 19 3 20 2 21 1 22 93 23
REMARK SMILES IDX 94 24 95 25 96 26 18 27 19 28 20 29 21 30 22 31 23 32 24 33
REMARK SMILES IDX 25 34 26 35 87 36 27 37 86 38 28 39 29 40 30 41 80 42 31 43
REMARK SMILES IDX 85 44 79 45 81 46 32 47 84 48 78 49 77 50 33 52 65 53 45 54
REMARK SMILES IDX 64 55 46 56 49 57 63 58 82 59 47 60 48 61 62 63 83 64 50 65
REMARK SMILES IDX 34 66 35 67 43 68 36 69 42 70 44 71 41 72 37 73 38 74 39 75
REMARK SMILES IDX 40 76 66 77 67 78 75 79 68 80 74 81 76 82 73 83 69 84 70 85
REMARK SMILES IDX 71 86 72 87 51 88 52 89 60 90 53 91 59 92 61 93 58 94 54 95
REMARK SMILES IDX 55 96 56 97 57 98
REMARK H PARENT 81 51 49 62
REMARK Flexibility Score: inf
ROOT
ATOM      1  C   UNL     1       7.009   5.373   4.960  1.00  0.00     0.188 C 
ENDROOT
BRANCH   1   2
ATOM      2  O   UNL     1       7.920   6.279   5.563  1.00  0.00    -0.376 OA
BRANCH   2   3
ATOM      3  C   UNL     1       9.207   6.425   4.980  1.00  0.00     0.202 C 
BRANCH   3   4
ATOM      4  C   UNL     1      10.041   5.146   4.899  1.00  0.00     0.261 C 
BRANCH   4   5
ATOM      5  O   UNL     1       9.644   4.324   3.776  1.00  0.00    -0.463 OA
BRANCH   5   6
ATOM      6  C   UNL     1       9.405   3.011   4.020  1.00  0.00     0.311 C 
ATOM      7  O   UNL     1       9.483   2.490   5.125  1.00  0.00    -0.252 OA
BRANCH   6   8
ATOM      8  C   UNL     1       8.957   2.230   2.799  1.00  0.00     0.128 C 
ATOM      9  N   UNL     1       6.915   2.003   1.614  1.00  0.00    -0.312 N 
ATOM     10  C   UNL     1       7.479   1.875   2.938  1.00  0.00     0.141 C 
ATOM     11  C   UNL     1       7.824   2.520   0.698  1.00  0.00     0.227 C 
ATOM     12  C   UNL     1       9.079   2.906   1.439  1.00  0.00     0.117 C 
ATOM     13  O   UNL     1       7.657   2.744  -0.494  1.00  0.00    -0.274 OA
BRANCH   9  14
ATOM     14  C   UNL     1       5.554   1.736   1.319  1.00  0.00     0.044 A 
ATOM     15  C   UNL     1       2.823   1.338   0.739  1.00  0.00     0.131 A 
ATOM     16  C   UNL     1       3.208   1.906   1.947  1.00  0.00     0.049 A 
ATOM     17  C   UNL     1       3.783   1.005  -0.216  1.00  0.00     0.100 A 
ATOM     18  C   UNL     1       4.565   2.063   2.243  1.00  0.00     0.030 A 
ATOM     19  C   UNL     1       5.150   1.209   0.089  1.00  0.00     0.043 A 
BRANCH  15  20
ATOM     20  O   UNL     1       1.494   1.228   0.456  1.00  0.00    -0.493 OA
BRANCH  20  21
ATOM     21  C   UNL     1       0.856   0.139   1.140  1.00  0.00     0.226 C 
ATOM     22  C   UNL     1       0.361  -0.860   0.112  1.00  0.00     0.049 C 
ENDBRANCH  20  21
ENDBRANCH  15  20
BRANCH  17  23
ATOM     23  C   UNL     1       3.403   0.396  -1.539  1.00  0.00     0.420 C 
ATOM     24  F   UNL     1       4.274   0.738  -2.535  1.00  0.00    -0.166 F 
ATOM     25  F   UNL     1       3.431  -0.968  -1.497  1.00  0.00    -0.166 F 
ATOM     26  F   UNL     1       2.176   0.736  -2.012  1.00  0.00    -0.166 F 
ENDBRANCH  17  23
ENDBRANCH   9  14
ENDBRANCH   6   8
ENDBRANCH   5   6
ENDBRANCH   4   5
ENDBRANCH   3   4
ENDBRANCH   2   3
ENDBRANCH   1   2
BRANCH   1  27
ATOM     27  C   UNL     1       6.782   5.453   3.434  1.00  0.00     0.188 C 
BRANCH  27  28
ATOM     28  O   UNL     1       7.044   6.678   2.771  1.00  0.00    -0.376 OA
BRANCH  28  29
ATOM     29  C   UNL     1       6.386   7.834   3.275  1.00  0.00     0.202 C 
BRANCH  29  30
ATOM     30  C   UNL     1       4.860   7.760   3.292  1.00  0.00     0.261 C 
BRANCH  30  31
ATOM     31  O   UNL     1       4.389   6.772   4.230  1.00  0.00    -0.460 OA
BRANCH  31  32
ATOM     32  C   UNL     1       3.123   6.358   3.986  1.00  0.00     0.338 C 
ATOM     33  O   UNL     1       2.369   6.830   3.149  1.00  0.00    -0.246 OA
BRANCH  32  34
ATOM     34  C   UNL     1       2.732   5.204   4.830  1.00  0.00     0.060 A 
ATOM     35  C   UNL     1       3.544   4.079   4.941  1.00  0.00     0.016 A 
ATOM     36  C   UNL     1       1.426   5.146   5.311  1.00  0.00     0.016 A 
ATOM     37  C   UNL     1       3.001   2.856   5.350  1.00  0.00     0.010 A 
ATOM     38  C   UNL     1       0.915   3.944   5.818  1.00  0.00     0.010 A 
ATOM     39  C   UNL     1       1.665   2.756   5.755  1.00  0.00    -0.014 A 
BRANCH  39  40
ATOM     40  C   UNL     1       1.009   1.425   5.970  1.00  0.00     0.031 A 
ATOM     41  C   UNL     1      -0.273   1.097   5.228  1.00  0.00     0.074 A 
ATOM     42  C   UNL     1       1.550   0.482   6.772  1.00  0.00     0.049 A 
ATOM     43  N   UNL     1      -1.138   0.139   5.443  1.00  0.00    -0.248 NA
ATOM     44  C   UNL     1      -0.629   1.970   4.096  1.00  0.00     0.031 C 
ATOM     45  C   UNL     1       2.833   0.590   7.471  1.00  0.00     0.029 A 
ATOM     46  N   UNL     1       1.083  -0.759   7.143  1.00  0.00    -0.354 N 
ATOM     47  C   UNL     1      -2.170   0.337   4.528  1.00  0.00     0.074 A 
ATOM     48  C   UNL     1      -1.818   1.500   3.744  1.00  0.00     0.031 C 
ATOM     49  C   UNL     1       3.060  -0.538   8.158  1.00  0.00     0.029 A 
ATOM     50  C   UNL     1       1.883  -1.392   8.071  1.00  0.00     0.049 A 
ATOM     51  H   UNL     1       0.258  -1.156   6.781  1.00  0.00     0.167 HD
ATOM     52  C   UNL     1      -3.310  -0.379   4.365  1.00  0.00     0.034 A 
ATOM     53  C   UNL     1       1.666  -2.480   8.839  1.00  0.00     0.034 A 
ATOM     54  C   UNL     1      -3.630  -1.562   5.126  1.00  0.00     0.049 A 
ATOM     55  C   UNL     1       0.349  -3.203   8.715  1.00  0.00     0.074 A 
ATOM     56  C   UNL     1      -4.763  -2.354   5.051  1.00  0.00     0.029 A 
ATOM     57  N   UNL     1      -2.817  -2.127   6.098  1.00  0.00    -0.354 N 
ATOM     58  N   UNL     1      -0.663  -2.946   7.917  1.00  0.00    -0.248 NA
ATOM     59  C   UNL     1       0.138  -4.351   9.604  1.00  0.00     0.031 C 
ATOM     60  C   UNL     1      -4.665  -3.355   6.024  1.00  0.00     0.029 A 
ATOM     61  C   UNL     1      -3.435  -3.238   6.649  1.00  0.00     0.049 A 
ATOM     62  H   UNL     1      -1.930  -1.787   6.358  1.00  0.00     0.167 HD
ATOM     63  C   UNL     1      -1.622  -3.916   8.200  1.00  0.00     0.074 A 
ATOM     64  C   UNL     1      -1.055  -4.775   9.218  1.00  0.00     0.031 C 
ATOM     65  C   UNL     1      -2.861  -4.080   7.670  1.00  0.00     0.034 A 
BRANCH  52  66
ATOM     66  C   UNL     1      -4.340   0.138   3.390  1.00  0.00     0.023 A 
ATOM     67  C   UNL     1      -4.151   0.112   1.998  1.00  0.00     0.031 A 
ATOM     68  C   UNL     1      -5.559   0.646   3.881  1.00  0.00     0.131 A 
ATOM     69  C   UNL     1      -5.152   0.613   1.149  1.00  0.00     0.055 A 
ATOM     70  C   UNL     1      -6.572   1.088   3.030  1.00  0.00     0.041 A 
ATOM     71  F   UNL     1      -5.785   0.715   5.202  1.00  0.00    -0.206 F 
ATOM     72  C   UNL     1      -6.370   1.079   1.654  1.00  0.00     0.022 A 
BRANCH  69  73
ATOM     73  S   UNL     1      -4.816   0.726  -0.630  1.00  0.00     0.124 S 
ATOM     74  O   UNL     1      -3.680   1.644  -0.653  1.00  0.00    -0.237 OA
ATOM     75  O   UNL     1      -4.527  -0.659  -0.983  1.00  0.00    -0.237 OA
ATOM     76  O   UNL     1      -6.058   1.265  -1.181  1.00  0.00    -0.744 OA
ENDBRANCH  69  73
ENDBRANCH  52  66
BRANCH  53  77
ATOM     77  C   UNL     1       2.656  -2.879   9.887  1.00  0.00     0.023 A 
ATOM     78  C   UNL     1       3.254  -4.149   9.890  1.00  0.00     0.031 A 
ATOM     79  C   UNL     1       2.971  -2.006  10.947  1.00  0.00     0.131 A 
ATOM     80  C   UNL     1       4.097  -4.524  10.950  1.00  0.00     0.055 A 
ATOM     81  C   UNL     1       3.865  -2.357  11.958  1.00  0.00     0.041 A 
ATOM     82  F   UNL     1       2.417  -0.784  11.010  1.00  0.00    -0.206 F 
ATOM     83  C   UNL     1       4.423  -3.629  11.972  1.00  0.00     0.022 A 
BRANCH  80  84
ATOM     84  S   UNL     1       4.673  -6.242  11.039  1.00  0.00     0.124 S 
ATOM     85  O   UNL     1       3.416  -6.979  11.002  1.00  0.00    -0.237 OA
ATOM     86  O   UNL     1       5.511  -6.340   9.848  1.00  0.00    -0.237 OA
ATOM     87  O   UNL     1       5.392  -6.293  12.310  1.00  0.00    -0.744 OA
ENDBRANCH  80  84
ENDBRANCH  53  77
BRANCH  65  88
ATOM     88  C   UNL     1      -3.652  -5.271   8.151  1.00  0.00     0.023 A 
ATOM     89  C   UNL     1      -4.101  -5.373   9.479  1.00  0.00     0.031 A 
ATOM     90  C   UNL     1      -3.919  -6.341   7.278  1.00  0.00     0.131 A 
ATOM     91  C   UNL     1      -4.723  -6.551   9.917  1.00  0.00     0.055 A 
ATOM     92  C   UNL     1      -4.601  -7.482   7.701  1.00  0.00     0.041 A 
ATOM     93  F   UNL     1      -3.511  -6.297   5.999  1.00  0.00    -0.206 F 
ATOM     94  C   UNL     1      -4.990  -7.600   9.032  1.00  0.00     0.022 A 
BRANCH  91  95
ATOM     95  S   UNL     1      -5.064  -6.747  11.687  1.00  0.00     0.124 S 
ATOM     96  O   UNL     1      -3.743  -6.550  12.274  1.00  0.00    -0.237 OA
ATOM     97  O   UNL     1      -6.036  -5.687  11.936  1.00  0.00    -0.237 OA
ATOM     98  O   UNL     1      -5.590  -8.107  11.787  1.00  0.00    -0.744 OA
ENDBRANCH  91  95
ENDBRANCH  65  88
ENDBRANCH  39  40
ENDBRANCH  32  34
ENDBRANCH  31  32
ENDBRANCH  30  31
ENDBRANCH  29  30
ENDBRANCH  28  29
ENDBRANCH  27  28
ENDBRANCH   1  27
TORSDOF 24
