REMARK SMILES CC(=O)Nc1cnc(N2CC=C(c3ccccc3C)CC2)c(C(=O)OCCOCCOCCOC(=O)c2ccc(-c3c4nc(c(-c5cc(S(=O)(=O)[O-])ccc5F)c5ccc([nH]5)c(-c5cc(S(=O)(=O)[O-])ccc5F)c5nc(c(-c6cc(S(=O)(=O)[O-])ccc6F)c6ccc3[nH]6)C=C5)C=C4)cc2)c1
REMARK SMILES IDX 30 1 29 2 28 3 27 4 26 5 25 6 23 7 24 8 22 9 5 10 6 11
REMARK SMILES IDX 100 12 7 13 8 14 4 15 1 16 2 17 3 18 9 20 10 21 21 22 11 23
REMARK SMILES IDX 20 24 12 25 13 26 14 27 18 28 15 29 17 30 19 31 16 32 31 33
REMARK SMILES IDX 32 34 33 35 34 36 35 37 36 38 37 39 38 40 99 41 39 42 98 43
REMARK SMILES IDX 40 44 41 45 42 46 92 47 43 48 97 49 91 50 93 51 44 52 96 53
REMARK SMILES IDX 90 54 89 55 45 57 77 58 57 59 76 60 58 61 61 62 75 63 94 64
REMARK SMILES IDX 59 65 60 66 74 68 95 69 62 70 46 71 47 72 55 73 48 74 54 75
REMARK SMILES IDX 56 76 53 77 49 78 50 79 51 80 52 81 78 82 79 83 87 84 80 85
REMARK SMILES IDX 86 86 88 87 85 88 81 89 82 90 83 91 84 92 63 93 64 94 72 95
REMARK SMILES IDX 65 96 71 97 73 98 70 99 66 100 67 101 68 102 69 103
REMARK H PARENT 4 19 93 56 61 67
REMARK Flexibility Score: inf
ROOT
ATOM      1  C   UNL     1       9.928  -0.283  -2.219  1.00  0.00     0.188 C 
ENDROOT
BRANCH   1   2
ATOM      2  C   UNL     1       9.076   0.994  -2.198  1.00  0.00     0.188 C 
BRANCH   2   3
ATOM      3  O   UNL     1       8.104   1.277  -1.165  1.00  0.00    -0.376 OA
BRANCH   3   4
ATOM      4  C   UNL     1       7.511   0.335  -0.263  1.00  0.00     0.202 C 
BRANCH   4   5
ATOM      5  C   UNL     1       5.856  -0.042  -0.044  1.00  0.00     0.261 C 
BRANCH   5   6
ATOM      6  O   UNL     1       4.604  -0.735  -1.119  1.00  0.00    -0.460 OA
BRANCH   6   7
ATOM      7  C   UNL     1       3.755  -0.410  -2.283  1.00  0.00     0.342 C 
ATOM      8  O   UNL     1       3.550   0.686  -2.803  1.00  0.00    -0.246 OA
BRANCH   7   9
ATOM      9  C   UNL     1       2.793  -1.365  -2.850  1.00  0.00     0.104 A 
ATOM     10  C   UNL     1       0.685  -2.348  -2.228  1.00  0.00     0.060 A 
ATOM     11  C   UNL     1       0.441  -2.538  -3.576  1.00  0.00     0.139 A 
ATOM     12  C   UNL     1       1.908  -1.817  -1.864  1.00  0.00     0.047 A 
ATOM     13  N   UNL     1       1.253  -2.103  -4.562  1.00  0.00    -0.236 NA
ATOM     14  C   UNL     1       2.388  -1.429  -4.236  1.00  0.00     0.143 A 
BRANCH  10  15
ATOM     15  N   UNL     1      -0.282  -2.701  -1.282  1.00  0.00    -0.325 N 
ATOM     16  C   UNL     1      -0.295  -0.570   0.004  1.00  0.00     0.114 C 
ATOM     17  C   UNL     1      -0.643  -2.034  -0.140  1.00  0.00     0.221 C 
ATOM     18  O   UNL     1      -1.330  -2.619   0.699  1.00  0.00    -0.275 OA
ATOM     19  H   UNL     1      -0.768  -3.538  -1.460  1.00  0.00     0.169 HD
ENDBRANCH  10  15
BRANCH  14  20
ATOM     20  N   UNL     1       3.044  -0.896  -5.357  1.00  0.00    -0.352 N 
ATOM     21  C   UNL     1       2.245  -0.040  -6.266  1.00  0.00     0.146 C 
ATOM     22  C   UNL     1       4.092  -1.739  -5.920  1.00  0.00     0.123 C 
ATOM     23  C   UNL     1       2.859   0.180  -7.651  1.00  0.00    -0.002 C 
ATOM     24  C   UNL     1       4.132  -1.863  -7.456  1.00  0.00     0.057 C 
ATOM     25  C   UNL     1       3.766  -0.628  -8.239  1.00  0.00    -0.041 C 
BRANCH  25  26
ATOM     26  C   UNL     1       4.482  -0.339  -9.544  1.00  0.00    -0.020 A 
ATOM     27  C   UNL     1       4.913   0.975  -9.832  1.00  0.00     0.008 A 
ATOM     28  C   UNL     1       4.886  -1.335 -10.468  1.00  0.00    -0.044 A 
ATOM     29  C   UNL     1       5.823   1.270 -10.862  1.00  0.00     0.001 A 
ATOM     30  C   UNL     1       5.788  -1.023 -11.517  1.00  0.00     0.004 A 
ATOM     31  C   UNL     1       4.415  -2.759 -10.398  1.00  0.00     0.045 C 
ATOM     32  C   UNL     1       6.276   0.265 -11.697  1.00  0.00     0.000 A 
ENDBRANCH  25  26
ENDBRANCH  14  20
ENDBRANCH   7   9
ENDBRANCH   6   7
ENDBRANCH   5   6
ENDBRANCH   4   5
ENDBRANCH   3   4
ENDBRANCH   2   3
ENDBRANCH   1   2
BRANCH   1  33
ATOM     33  O   UNL     1       9.196  -1.379  -1.710  1.00  0.00    -0.376 OA
BRANCH  33  34
ATOM     34  C   UNL     1       9.932  -2.523  -1.339  1.00  0.00     0.202 C 
BRANCH  34  35
ATOM     35  C   UNL     1      10.128  -3.481  -2.517  1.00  0.00     0.261 C 
BRANCH  35  36
ATOM     36  O   UNL     1       8.872  -3.924  -3.083  1.00  0.00    -0.460 OA
BRANCH  36  37
ATOM     37  C   UNL     1       8.524  -3.372  -4.295  1.00  0.00     0.338 C 
ATOM     38  O   UNL     1       8.893  -3.829  -5.368  1.00  0.00    -0.246 OA
BRANCH  37  39
ATOM     39  C   UNL     1       7.549  -2.256  -4.112  1.00  0.00     0.060 A 
ATOM     40  C   UNL     1       7.455  -1.048  -4.817  1.00  0.00     0.016 A 
ATOM     41  C   UNL     1       6.817  -2.332  -2.983  1.00  0.00     0.016 A 
ATOM     42  C   UNL     1       6.739   0.128  -4.278  1.00  0.00     0.010 A 
ATOM     43  C   UNL     1       6.409  -1.115  -2.438  1.00  0.00     0.010 A 
ATOM     44  C   UNL     1       6.219   0.215  -2.981  1.00  0.00    -0.014 A 
BRANCH  44  45
ATOM     45  C   UNL     1       5.655   1.701  -2.178  1.00  0.00     0.031 A 
ATOM     46  C   UNL     1       4.350   2.067  -0.968  1.00  0.00     0.074 A 
ATOM     47  C   UNL     1       6.188   2.898  -2.555  1.00  0.00     0.049 A 
ATOM     48  N   UNL     1       3.914   3.280  -0.636  1.00  0.00    -0.248 NA
ATOM     49  C   UNL     1       3.494   1.151  -0.104  1.00  0.00     0.031 C 
ATOM     50  C   UNL     1       6.145   4.139  -1.770  1.00  0.00     0.029 A 
ATOM     51  N   UNL     1       6.846   3.337  -3.688  1.00  0.00    -0.354 N 
ATOM     52  C   UNL     1       3.070   3.235   0.496  1.00  0.00     0.074 A 
ATOM     53  C   UNL     1       2.809   1.886   0.742  1.00  0.00     0.031 C 
ATOM     54  C   UNL     1       6.398   5.186  -2.564  1.00  0.00     0.029 A 
ATOM     55  C   UNL     1       6.519   4.682  -3.907  1.00  0.00     0.049 A 
ATOM     56  H   UNL     1       7.446   2.794  -4.248  1.00  0.00     0.167 HD
ATOM     57  C   UNL     1       2.696   4.296   1.265  1.00  0.00     0.034 A 
ATOM     58  C   UNL     1       5.915   5.201  -5.019  1.00  0.00     0.034 A 
ATOM     59  C   UNL     1       3.023   5.524   0.599  1.00  0.00     0.049 A 
ATOM     60  C   UNL     1       4.676   6.053  -4.728  1.00  0.00     0.074 A 
ATOM     61  C   UNL     1       4.033   6.458   0.667  1.00  0.00     0.029 A 
ATOM     62  N   UNL     1       2.319   5.784  -0.546  1.00  0.00    -0.354 N 
ATOM     63  N   UNL     1       4.311   6.477  -3.550  1.00  0.00    -0.248 NA
ATOM     64  C   UNL     1       3.675   6.378  -5.757  1.00  0.00     0.031 C 
ATOM     65  C   UNL     1       3.934   7.269  -0.504  1.00  0.00     0.029 A 
ATOM     66  C   UNL     1       2.844   6.840  -1.240  1.00  0.00     0.049 A 
ATOM     67  H   UNL     1       1.529   5.273  -0.835  1.00  0.00     0.167 HD
ATOM     68  C   UNL     1       3.006   6.909  -3.619  1.00  0.00     0.074 A 
ATOM     69  C   UNL     1       2.674   6.896  -5.027  1.00  0.00     0.031 C 
ATOM     70  C   UNL     1       2.234   7.138  -2.519  1.00  0.00     0.034 A 
BRANCH  57  71
ATOM     71  C   UNL     1       2.178   4.225   2.711  1.00  0.00     0.023 A 
ATOM     72  C   UNL     1       2.381   5.352   3.532  1.00  0.00     0.031 A 
ATOM     73  C   UNL     1       1.585   3.128   3.383  1.00  0.00     0.131 A 
ATOM     74  C   UNL     1       2.162   5.310   4.926  1.00  0.00     0.055 A 
ATOM     75  C   UNL     1       1.459   3.049   4.781  1.00  0.00     0.041 A 
ATOM     76  F   UNL     1       0.999   2.114   2.735  1.00  0.00    -0.206 F 
ATOM     77  C   UNL     1       1.771   4.141   5.566  1.00  0.00     0.022 A 
BRANCH  74  78
ATOM     78  S   UNL     1       2.376   6.825   5.894  1.00  0.00     0.124 S 
ATOM     79  O   UNL     1       3.752   7.197   5.587  1.00  0.00    -0.237 OA
ATOM     80  O   UNL     1       1.331   7.682   5.347  1.00  0.00    -0.237 OA
ATOM     81  O   UNL     1       2.151   6.382   7.270  1.00  0.00    -0.744 OA
ENDBRANCH  74  78
ENDBRANCH  57  71
BRANCH  58  82
ATOM     82  C   UNL     1       6.024   4.284  -6.185  1.00  0.00     0.023 A 
ATOM     83  C   UNL     1       7.294   4.049  -6.767  1.00  0.00     0.031 A 
ATOM     84  C   UNL     1       5.043   3.295  -6.285  1.00  0.00     0.131 A 
ATOM     85  C   UNL     1       7.593   2.786  -7.302  1.00  0.00     0.055 A 
ATOM     86  C   UNL     1       5.384   2.042  -6.753  1.00  0.00     0.041 A 
ATOM     87  F   UNL     1       3.828   3.451  -5.741  1.00  0.00    -0.206 F 
ATOM     88  C   UNL     1       6.645   1.773  -7.275  1.00  0.00     0.022 A 
BRANCH  85  89
ATOM     89  S   UNL     1       9.308   2.348  -7.709  1.00  0.00     0.124 S 
ATOM     90  O   UNL     1       9.469   2.950  -9.027  1.00  0.00    -0.237 OA
ATOM     91  O   UNL     1      10.055   2.967  -6.619  1.00  0.00    -0.237 OA
ATOM     92  O   UNL     1       9.302   0.886  -7.676  1.00  0.00    -0.744 OA
ENDBRANCH  85  89
ENDBRANCH  58  82
BRANCH  70  93
ATOM     93  C   UNL     1       0.796   7.597  -2.572  1.00  0.00     0.023 A 
ATOM     94  C   UNL     1       0.432   8.702  -3.350  1.00  0.00     0.031 A 
ATOM     95  C   UNL     1      -0.213   7.056  -1.737  1.00  0.00     0.131 A 
ATOM     96  C   UNL     1      -0.869   9.231  -3.270  1.00  0.00     0.055 A 
ATOM     97  C   UNL     1      -1.470   7.644  -1.587  1.00  0.00     0.041 A 
ATOM     98  F   UNL     1      -0.034   5.910  -1.062  1.00  0.00    -0.206 F 
ATOM     99  C   UNL     1      -1.804   8.746  -2.355  1.00  0.00     0.022 A 
BRANCH  96 100
ATOM    100  S   UNL     1      -1.344  10.544  -4.420  1.00  0.00     0.124 S 
ATOM    101  O   UNL     1      -0.236  11.487  -4.310  1.00  0.00    -0.237 OA
ATOM    102  O   UNL     1      -1.431   9.810  -5.679  1.00  0.00    -0.237 OA
ATOM    103  O   UNL     1      -2.621  11.020  -3.891  1.00  0.00    -0.744 OA
ENDBRANCH  96 100
ENDBRANCH  70  93
ENDBRANCH  44  45
ENDBRANCH  37  39
ENDBRANCH  36  37
ENDBRANCH  35  36
ENDBRANCH  34  35
ENDBRANCH  33  34
ENDBRANCH   1  33
TORSDOF 23
