REMARK SMILES O=C(OCCOCCOCCOC(=O)[C@H]1[C@H]2CC[C@H](C2)[C@@H]1C(=O)Nc1sc2c(c1C(=O)NC1CCCCC1)CCCC2)c1ccc(-c2c3nc(c(-c4cc(S(=O)(=O)[O-])ccc4F)c4ccc([nH]4)c(-c4cc(S(=O)(=O)[O-])ccc4F)c4nc(c(-c5cc(S(=O)(=O)[O-])ccc5F)c5ccc2[nH]5)C=C4)C=C3)cc1
REMARK SMILES IDX 8 1 7 2 6 3 5 4 4 5 3 6 2 7 1 8 43 9 44 10 105 11 45 12
REMARK SMILES IDX 104 13 46 14 47 15 48 16 98 17 49 18 103 19 97 20 99 21
REMARK SMILES IDX 50 22 102 23 96 24 95 25 51 27 83 28 63 29 82 30 64 31 67 32
REMARK SMILES IDX 81 33 100 34 65 35 66 36 80 38 101 39 68 40 52 41 53 42
REMARK SMILES IDX 61 43 54 44 60 45 62 46 59 47 55 48 56 49 57 50 58 51 84 52
REMARK SMILES IDX 85 53 93 54 86 55 92 56 94 57 91 58 87 59 88 60 89 61 90 62
REMARK SMILES IDX 69 63 70 64 78 65 71 66 77 67 79 68 76 69 72 70 73 71 74 72
REMARK SMILES IDX 75 73 9 74 10 75 11 76 12 77 13 78 14 79 15 80 16 81 21 82
REMARK SMILES IDX 17 83 20 84 19 85 18 86 22 87 23 88 24 89 25 91 26 92 29 93
REMARK SMILES IDX 27 94 28 95 42 96 39 97 41 98 40 99 30 100 31 101 32 102
REMARK SMILES IDX 33 104 34 105 38 106 35 107 37 108 36 109
REMARK H PARENT 99 26 67 37 24 90 32 103
REMARK Flexibility Score: inf
ROOT
ATOM      1  C   UNL     1       1.813   4.515   1.551  1.00  0.00     0.188 C 
ENDROOT
BRANCH   1   2
ATOM      2  C   UNL     1       3.124   3.904   2.053  1.00  0.00     0.188 C 
BRANCH   2   3
ATOM      3  O   UNL     1       3.290   2.525   1.721  1.00  0.00    -0.376 OA
BRANCH   3   4
ATOM      4  C   UNL     1       3.889   1.730   2.751  1.00  0.00     0.202 C 
BRANCH   4   5
ATOM      5  C   UNL     1       5.371   2.017   3.063  1.00  0.00     0.261 C 
BRANCH   5   6
ATOM      6  O   UNL     1       5.777   3.367   2.779  1.00  0.00    -0.460 OA
BRANCH   6   7
ATOM      7  C   UNL     1       6.365   3.853   1.651  1.00  0.00     0.338 C 
ATOM      8  O   UNL     1       6.761   5.018   1.666  1.00  0.00    -0.246 OA
BRANCH   7   9
ATOM      9  C   UNL     1       6.541   3.046   0.400  1.00  0.00     0.060 A 
ATOM     10  C   UNL     1       5.822   1.895   0.091  1.00  0.00     0.016 A 
ATOM     11  C   UNL     1       7.455   3.503  -0.560  1.00  0.00     0.016 A 
ATOM     12  C   UNL     1       6.095   1.122  -1.029  1.00  0.00     0.010 A 
ATOM     13  C   UNL     1       7.660   2.785  -1.752  1.00  0.00     0.010 A 
ATOM     14  C   UNL     1       7.030   1.541  -1.960  1.00  0.00    -0.014 A 
BRANCH  14  15
ATOM     15  C   UNL     1       7.531   0.570  -2.969  1.00  0.00     0.031 A 
ATOM     16  C   UNL     1       8.980   0.182  -2.876  1.00  0.00     0.074 A 
ATOM     17  C   UNL     1       6.747  -0.146  -3.805  1.00  0.00     0.049 A 
ATOM     18  N   UNL     1       9.709  -0.525  -3.695  1.00  0.00    -0.248 NA
ATOM     19  C   UNL     1       9.687   0.606  -1.654  1.00  0.00     0.031 C 
ATOM     20  C   UNL     1       5.285  -0.190  -3.806  1.00  0.00     0.029 A 
ATOM     21  N   UNL     1       7.092  -0.991  -4.844  1.00  0.00    -0.354 N 
ATOM     22  C   UNL     1      10.936  -0.669  -3.064  1.00  0.00     0.074 A 
ATOM     23  C   UNL     1      10.902   0.136  -1.865  1.00  0.00     0.031 C 
ATOM     24  C   UNL     1       4.877  -0.969  -4.823  1.00  0.00     0.029 A 
ATOM     25  C   UNL     1       6.016  -1.293  -5.657  1.00  0.00     0.049 A 
ATOM     26  H   UNL     1       8.002  -1.338  -4.989  1.00  0.00     0.167 HD
ATOM     27  C   UNL     1      11.969  -1.471  -3.410  1.00  0.00     0.034 A 
ATOM     28  C   UNL     1       6.009  -1.617  -6.968  1.00  0.00     0.034 A 
ATOM     29  C   UNL     1      11.982  -2.276  -4.600  1.00  0.00     0.049 A 
ATOM     30  C   UNL     1       7.296  -2.084  -7.567  1.00  0.00     0.074 A 
ATOM     31  C   UNL     1      12.954  -3.152  -5.045  1.00  0.00     0.029 A 
ATOM     32  N   UNL     1      10.972  -2.282  -5.551  1.00  0.00    -0.354 N 
ATOM     33  N   UNL     1       8.486  -2.142  -7.030  1.00  0.00    -0.248 NA
ATOM     34  C   UNL     1       7.197  -2.639  -8.922  1.00  0.00     0.031 C 
ATOM     35  C   UNL     1      12.573  -3.619  -6.309  1.00  0.00     0.029 A 
ATOM     36  C   UNL     1      11.326  -3.099  -6.612  1.00  0.00     0.049 A 
ATOM     37  H   UNL     1      10.128  -1.780  -5.482  1.00  0.00     0.167 HD
ATOM     38  C   UNL     1       9.254  -2.855  -7.936  1.00  0.00     0.074 A 
ATOM     39  C   UNL     1       8.413  -3.124  -9.085  1.00  0.00     0.031 C 
ATOM     40  C   UNL     1      10.512  -3.329  -7.774  1.00  0.00     0.034 A 
BRANCH  27  41
ATOM     41  C   UNL     1      13.164  -1.450  -2.500  1.00  0.00     0.023 A 
ATOM     42  C   UNL     1      13.080  -1.868  -1.158  1.00  0.00     0.031 A 
ATOM     43  C   UNL     1      14.371  -0.894  -2.950  1.00  0.00     0.131 A 
ATOM     44  C   UNL     1      14.150  -1.624  -0.287  1.00  0.00     0.055 A 
ATOM     45  C   UNL     1      15.465  -0.740  -2.100  1.00  0.00     0.041 A 
ATOM     46  F   UNL     1      14.490  -0.450  -4.211  1.00  0.00    -0.206 F 
ATOM     47  C   UNL     1      15.352  -1.086  -0.756  1.00  0.00     0.022 A 
BRANCH  44  48
ATOM     48  S   UNL     1      13.884  -1.839   1.495  1.00  0.00     0.124 S 
ATOM     49  O   UNL     1      12.798  -0.895   1.748  1.00  0.00    -0.237 OA
ATOM     50  O   UNL     1      13.538  -3.252   1.597  1.00  0.00    -0.237 OA
ATOM     51  O   UNL     1      15.171  -1.468   2.080  1.00  0.00    -0.744 OA
ENDBRANCH  44  48
ENDBRANCH  27  41
BRANCH  28  52
ATOM     52  C   UNL     1       4.875  -1.433  -7.924  1.00  0.00     0.023 A 
ATOM     53  C   UNL     1       3.957  -2.446  -8.232  1.00  0.00     0.031 A 
ATOM     54  C   UNL     1       4.893  -0.286  -8.754  1.00  0.00     0.131 A 
ATOM     55  C   UNL     1       3.099  -2.289  -9.339  1.00  0.00     0.055 A 
ATOM     56  C   UNL     1       4.032  -0.132  -9.842  1.00  0.00     0.041 A 
ATOM     57  F   UNL     1       5.786   0.690  -8.535  1.00  0.00    -0.206 F 
ATOM     58  C   UNL     1       3.128  -1.140 -10.141  1.00  0.00     0.022 A 
BRANCH  55  59
ATOM     59  S   UNL     1       1.883  -3.582  -9.722  1.00  0.00     0.124 S 
ATOM     60  O   UNL     1       2.677  -4.514 -10.513  1.00  0.00    -0.237 OA
ATOM     61  O   UNL     1       1.486  -4.038  -8.394  1.00  0.00    -0.237 OA
ATOM     62  O   UNL     1       0.848  -2.853 -10.452  1.00  0.00    -0.744 OA
ENDBRANCH  55  59
ENDBRANCH  28  52
BRANCH  40  63
ATOM     63  C   UNL     1      10.967  -4.299  -8.824  1.00  0.00     0.023 A 
ATOM     64  C   UNL     1      11.133  -3.914 -10.162  1.00  0.00     0.031 A 
ATOM     65  C   UNL     1      11.062  -5.663  -8.498  1.00  0.00     0.131 A 
ATOM     66  C   UNL     1      11.259  -4.902 -11.147  1.00  0.00     0.055 A 
ATOM     67  C   UNL     1      11.296  -6.631  -9.472  1.00  0.00     0.041 A 
ATOM     68  F   UNL     1      10.879  -6.081  -7.235  1.00  0.00    -0.206 F 
ATOM     69  C   UNL     1      11.368  -6.254 -10.809  1.00  0.00     0.022 A 
BRANCH  66  70
ATOM     70  S   UNL     1      11.070  -4.409 -12.881  1.00  0.00     0.124 S 
ATOM     71  O   UNL     1       9.693  -3.927 -12.902  1.00  0.00    -0.237 OA
ATOM     72  O   UNL     1      12.103  -3.389 -13.032  1.00  0.00    -0.237 OA
ATOM     73  O   UNL     1      11.309  -5.649 -13.616  1.00  0.00    -0.744 OA
ENDBRANCH  66  70
ENDBRANCH  40  63
ENDBRANCH  14  15
ENDBRANCH   7   9
ENDBRANCH   6   7
ENDBRANCH   5   6
ENDBRANCH   4   5
ENDBRANCH   3   4
ENDBRANCH   2   3
ENDBRANCH   1   2
BRANCH   1  74
ATOM     74  O   UNL     1       0.595   3.897   1.946  1.00  0.00    -0.376 OA
BRANCH  74  75
ATOM     75  C   UNL     1       0.516   2.486   1.804  1.00  0.00     0.202 C 
BRANCH  75  76
ATOM     76  C   UNL     1       0.717   1.838   0.414  1.00  0.00     0.261 C 
BRANCH  76  77
ATOM     77  O   UNL     1       1.510   2.567  -0.555  1.00  0.00    -0.463 OA
BRANCH  77  78
ATOM     78  C   UNL     1       0.764   3.243  -1.460  1.00  0.00     0.310 C 
ATOM     79  O   UNL     1      -0.467   3.222  -1.441  1.00  0.00    -0.252 OA
BRANCH  78  80
ATOM     80  C   UNL     1       1.533   3.954  -2.584  1.00  0.00     0.115 C 
ATOM     81  C   UNL     1       0.475   4.965  -3.153  1.00  0.00     0.004 C 
ATOM     82  C   UNL     1       2.746   4.905  -2.371  1.00  0.00     0.096 C 
ATOM     83  C   UNL     1       0.103   6.072  -2.135  1.00  0.00     0.005 C 
ATOM     84  C   UNL     1       1.313   5.752  -4.115  1.00  0.00     0.009 C 
ATOM     85  C   UNL     1       2.296   6.220  -3.037  1.00  0.00     0.003 C 
ATOM     86  C   UNL     1       1.355   6.951  -2.081  1.00  0.00     0.005 C 
BRANCH  82  87
ATOM     87  C   UNL     1       4.166   4.510  -2.821  1.00  0.00     0.229 C 
ATOM     88  O   UNL     1       5.008   4.422  -1.917  1.00  0.00    -0.274 OA
ATOM     89  N   UNL     1       4.610   4.231  -4.077  1.00  0.00    -0.317 N 
ATOM     90  H   UNL     1       5.470   3.752  -4.104  1.00  0.00     0.170 HD
BRANCH  89  91
ATOM     91  C   UNL     1       4.073   4.496  -5.317  1.00  0.00     0.108 A 
ATOM     92  S   UNL     1       3.912   6.115  -5.846  1.00  0.00    -0.122 S 
ATOM     93  C   UNL     1       3.911   3.628  -6.389  1.00  0.00     0.078 A 
ATOM     94  C   UNL     1       2.958   5.575  -7.148  1.00  0.00     0.011 A 
ATOM     95  C   UNL     1       3.294   4.285  -7.508  1.00  0.00    -0.019 A 
ATOM     96  C   UNL     1       1.887   6.383  -7.794  1.00  0.00     0.047 C 
ATOM     97  C   UNL     1       2.859   3.698  -8.817  1.00  0.00     0.037 C 
ATOM     98  C   UNL     1       0.982   5.427  -8.595  1.00  0.00     0.006 C 
ATOM     99  C   UNL     1       1.826   4.572  -9.551  1.00  0.00     0.005 C 
BRANCH  93 100
ATOM    100  C   UNL     1       4.340   2.267  -6.254  1.00  0.00     0.254 C 
ATOM    101  O   UNL     1       5.519   2.044  -5.965  1.00  0.00    -0.269 OA
ATOM    102  N   UNL     1       3.466   1.226  -6.307  1.00  0.00    -0.349 N 
ATOM    103  H   UNL     1       3.855   0.425  -5.887  1.00  0.00     0.164 HD
BRANCH 102 104
ATOM    104  C   UNL     1       2.124   0.948  -6.801  1.00  0.00     0.082 C 
ATOM    105  C   UNL     1       1.646  -0.462  -6.400  1.00  0.00     0.025 C 
ATOM    106  C   UNL     1       1.006   1.903  -6.402  1.00  0.00     0.025 C 
ATOM    107  C   UNL     1       0.427  -0.862  -7.225  1.00  0.00     0.002 C 
ATOM    108  C   UNL     1      -0.194   1.611  -7.309  1.00  0.00     0.002 C 
ATOM    109  C   UNL     1      -0.691   0.172  -7.155  1.00  0.00     0.000 C 
ENDBRANCH 102 104
ENDBRANCH  93 100
ENDBRANCH  89  91
ENDBRANCH  82  87
ENDBRANCH  78  80
ENDBRANCH  77  78
ENDBRANCH  76  77
ENDBRANCH  75  76
ENDBRANCH  74  75
ENDBRANCH   1  74
TORSDOF 24
