REMARK SMILES Cc1ccc(S(=O)(=O)n2cc(C(=O)C(=O)NCC(=O)OCCOCCOCCOC(=O)c3ccc(-c4c5nc(c(-c6cc(S(=O)(=O)[O-])ccc6F)c6ccc([nH]6)c(-c6cc(S(=O)(=O)[O-])ccc6F)c6nc(c(-c7cc(S(=O)(=O)[O-])ccc7F)c7ccc4[nH]7)C=C6)C=C5)cc3)c3ccccc32)cc1
REMARK SMILES IDX 24 1 23 2 22 3 21 4 20 5 18 6 19 7 17 8 16 9 14 10 15 11
REMARK SMILES IDX 12 13 13 14 11 15 9 16 10 17 100 18 95 19 99 20 96 21 98 22
REMARK SMILES IDX 97 23 6 24 7 25 8 26 5 27 1 28 2 29 3 30 102 31 4 32 101 33
REMARK SMILES IDX 25 34 26 35 27 36 28 37 29 38 30 39 31 40 32 41 33 42 94 43
REMARK SMILES IDX 34 44 93 45 35 46 36 47 37 48 87 49 38 50 92 51 86 52 88 53
REMARK SMILES IDX 39 54 91 55 85 56 84 57 40 59 72 60 52 61 71 62 53 63 56 64
REMARK SMILES IDX 70 65 89 66 54 67 55 68 69 70 90 71 57 72 41 73 42 74 50 75
REMARK SMILES IDX 43 76 49 77 51 78 48 79 44 80 45 81 46 82 47 83 73 84 74 85
REMARK SMILES IDX 82 86 75 87 81 88 83 89 80 90 76 91 77 92 78 93 79 94 58 95
REMARK SMILES IDX 59 96 67 97 60 98 66 99 68 100 65 101 61 102 62 103 63 104
REMARK SMILES IDX 64 105
REMARK H PARENT 16 12 88 58 56 69
REMARK Flexibility Score: inf
ROOT
ATOM      1  C   UNL     1     -13.021   5.545   3.695  1.00  0.00     0.188 C 
ENDROOT
BRANCH   1   2
ATOM      2  O   UNL     1     -12.330   5.340   2.444  1.00  0.00    -0.376 OA
BRANCH   2   3
ATOM      3  C   UNL     1     -12.227   4.133   1.687  1.00  0.00     0.202 C 
BRANCH   3   4
ATOM      4  C   UNL     1     -10.763   3.292   1.354  1.00  0.00     0.261 C 
BRANCH   4   5
ATOM      5  O   UNL     1      -9.302   3.687   1.938  1.00  0.00    -0.462 OA
BRANCH   5   6
ATOM      6  C   UNL     1      -8.010   4.092   1.667  1.00  0.00     0.325 C 
ATOM      7  O   UNL     1      -7.446   3.977   0.581  1.00  0.00    -0.250 OA
BRANCH   6   8
ATOM      8  C   UNL     1      -7.176   4.631   2.877  1.00  0.00     0.239 C 
BRANCH   8   9
ATOM      9  N   UNL     1      -6.409   3.560   3.460  1.00  0.00    -0.338 N 
ATOM     10  C   UNL     1      -5.235   3.082   2.946  1.00  0.00     0.292 C 
ATOM     11  O   UNL     1      -4.652   2.142   3.473  1.00  0.00    -0.265 OA
ATOM     12  H   UNL     1      -6.753   3.145   4.284  1.00  0.00     0.164 HD
BRANCH  10  13
ATOM     13  C   UNL     1      -4.687   3.730   1.657  1.00  0.00     0.252 C 
ATOM     14  O   UNL     1      -4.342   4.907   1.705  1.00  0.00    -0.283 OA
BRANCH  13  15
ATOM     15  C   UNL     1      -4.502   2.896   0.476  1.00  0.00     0.054 A 
ATOM     16  N   UNL     1      -4.053   1.068  -0.694  1.00  0.00    -0.240 N 
ATOM     17  C   UNL     1      -4.569   1.518   0.488  1.00  0.00     0.117 A 
ATOM     18  C   UNL     1      -3.814   2.111  -1.564  1.00  0.00     0.065 A 
ATOM     19  C   UNL     1      -4.145   3.281  -0.859  1.00  0.00     0.012 A 
ATOM     20  C   UNL     1      -3.280   2.156  -2.864  1.00  0.00     0.028 A 
ATOM     21  C   UNL     1      -4.003   4.523  -1.515  1.00  0.00     0.011 A 
ATOM     22  C   UNL     1      -3.127   3.403  -3.475  1.00  0.00     0.002 A 
ATOM     23  C   UNL     1      -3.502   4.569  -2.820  1.00  0.00     0.001 A 
BRANCH  16  24
ATOM     24  S   UNL     1      -3.343  -0.476  -0.799  1.00  0.00     0.268 S 
ATOM     25  O   UNL     1      -3.419  -0.872  -2.192  1.00  0.00    -0.201 OA
ATOM     26  O   UNL     1      -3.957  -1.269   0.252  1.00  0.00    -0.201 OA
BRANCH  24  27
ATOM     27  C   UNL     1      -1.627  -0.277  -0.380  1.00  0.00     0.088 A 
ATOM     28  C   UNL     1       2.629  -0.017   0.162  1.00  0.00     0.044 C 
ATOM     29  C   UNL     1       1.138  -0.106   0.030  1.00  0.00    -0.051 A 
ATOM     30  C   UNL     1       0.522  -1.354  -0.132  1.00  0.00     0.005 A 
ATOM     31  C   UNL     1       0.349   1.048   0.044  1.00  0.00     0.005 A 
ATOM     32  C   UNL     1      -0.855  -1.441  -0.338  1.00  0.00     0.022 A 
ATOM     33  C   UNL     1      -1.031   0.967  -0.152  1.00  0.00     0.022 A 
ENDBRANCH  24  27
ENDBRANCH  16  24
ENDBRANCH  13  15
ENDBRANCH  10  13
ENDBRANCH   8   9
ENDBRANCH   6   8
ENDBRANCH   5   6
ENDBRANCH   4   5
ENDBRANCH   3   4
ENDBRANCH   2   3
ENDBRANCH   1   2
BRANCH   1  34
ATOM     34  C   UNL     1     -13.356   4.413   4.666  1.00  0.00     0.188 C 
BRANCH  34  35
ATOM     35  O   UNL     1     -12.508   3.293   4.470  1.00  0.00    -0.376 OA
BRANCH  35  36
ATOM     36  C   UNL     1     -12.687   2.251   5.417  1.00  0.00     0.202 C 
BRANCH  36  37
ATOM     37  C   UNL     1     -12.159   2.561   6.838  1.00  0.00     0.261 C 
BRANCH  37  38
ATOM     38  O   UNL     1     -10.744   2.870   6.838  1.00  0.00    -0.460 OA
BRANCH  38  39
ATOM     39  C   UNL     1     -10.365   4.145   7.245  1.00  0.00     0.338 C 
ATOM     40  O   UNL     1     -10.378   4.508   8.380  1.00  0.00    -0.246 OA
BRANCH  39  41
ATOM     41  C   UNL     1      -9.857   4.924   6.046  1.00  0.00     0.060 A 
ATOM     42  C   UNL     1      -9.670   6.308   5.903  1.00  0.00     0.016 A 
ATOM     43  C   UNL     1      -9.796   4.233   4.893  1.00  0.00     0.016 A 
ATOM     44  C   UNL     1      -9.551   6.960   4.578  1.00  0.00     0.010 A 
ATOM     45  C   UNL     1     -10.011   4.973   3.731  1.00  0.00     0.010 A 
ATOM     46  C   UNL     1      -9.770   6.291   3.367  1.00  0.00    -0.014 A 
BRANCH  46  47
ATOM     47  C   UNL     1     -10.086   6.877   1.904  1.00  0.00     0.031 A 
ATOM     48  C   UNL     1      -9.564   6.605   0.401  1.00  0.00     0.074 A 
ATOM     49  C   UNL     1     -11.049   7.827   1.883  1.00  0.00     0.049 A 
ATOM     50  N   UNL     1      -9.179   7.540  -0.456  1.00  0.00    -0.248 NA
ATOM     51  C   UNL     1      -9.529   5.336  -0.333  1.00  0.00     0.031 C 
ATOM     52  C   UNL     1     -11.678   8.485   0.739  1.00  0.00     0.029 A 
ATOM     53  N   UNL     1     -11.551   8.515   2.983  1.00  0.00    -0.354 N 
ATOM     54  C   UNL     1      -8.949   6.955  -1.723  1.00  0.00     0.074 A 
ATOM     55  C   UNL     1      -9.034   5.566  -1.539  1.00  0.00     0.031 C 
ATOM     56  C   UNL     1     -12.207   9.646   1.161  1.00  0.00     0.029 A 
ATOM     57  C   UNL     1     -11.853   9.808   2.561  1.00  0.00     0.049 A 
ATOM     58  H   UNL     1     -11.670   8.155   3.891  1.00  0.00     0.167 HD
ATOM     59  C   UNL     1      -8.892   7.550  -2.950  1.00  0.00     0.034 A 
ATOM     60  C   UNL     1     -11.210  10.859   3.140  1.00  0.00     0.034 A 
ATOM     61  C   UNL     1      -9.385   8.886  -2.860  1.00  0.00     0.049 A 
ATOM     62  C   UNL     1     -10.381  11.626   2.136  1.00  0.00     0.074 A 
ATOM     63  C   UNL     1     -10.655   9.404  -3.024  1.00  0.00     0.029 A 
ATOM     64  N   UNL     1      -8.649   9.802  -2.143  1.00  0.00    -0.354 N 
ATOM     65  N   UNL     1     -10.117  11.207   0.927  1.00  0.00    -0.248 NA
ATOM     66  C   UNL     1      -9.797  12.934   2.407  1.00  0.00     0.031 C 
ATOM     67  C   UNL     1     -10.717  10.596  -2.258  1.00  0.00     0.029 A 
ATOM     68  C   UNL     1      -9.458  10.836  -1.734  1.00  0.00     0.049 A 
ATOM     69  H   UNL     1      -7.686   9.727  -1.952  1.00  0.00     0.167 HD
ATOM     70  C   UNL     1      -9.340  12.128   0.276  1.00  0.00     0.074 A 
ATOM     71  C   UNL     1      -9.193  13.205   1.237  1.00  0.00     0.031 C 
ATOM     72  C   UNL     1      -8.870  11.930  -0.992  1.00  0.00     0.034 A 
BRANCH  59  73
ATOM     73  C   UNL     1      -8.725   6.730  -4.228  1.00  0.00     0.023 A 
ATOM     74  C   UNL     1      -9.608   6.836  -5.321  1.00  0.00     0.031 A 
ATOM     75  C   UNL     1      -7.713   5.746  -4.350  1.00  0.00     0.131 A 
ATOM     76  C   UNL     1      -9.545   5.917  -6.397  1.00  0.00     0.055 A 
ATOM     77  C   UNL     1      -7.682   4.805  -5.392  1.00  0.00     0.041 A 
ATOM     78  F   UNL     1      -6.757   5.636  -3.414  1.00  0.00    -0.206 F 
ATOM     79  C   UNL     1      -8.619   4.873  -6.413  1.00  0.00     0.022 A 
BRANCH  76  80
ATOM     80  S   UNL     1     -10.704   6.086  -7.790  1.00  0.00     0.124 S 
ATOM     81  O   UNL     1     -12.001   5.973  -7.132  1.00  0.00    -0.237 OA
ATOM     82  O   UNL     1     -10.362   7.402  -8.319  1.00  0.00    -0.237 OA
ATOM     83  O   UNL     1     -10.361   4.965  -8.665  1.00  0.00    -0.744 OA
ENDBRANCH  76  80
ENDBRANCH  59  73
BRANCH  60  84
ATOM     84  C   UNL     1     -10.956  10.670   4.611  1.00  0.00     0.023 A 
ATOM     85  C   UNL     1     -12.058  10.236   5.395  1.00  0.00     0.031 A 
ATOM     86  C   UNL     1      -9.686  10.574   5.193  1.00  0.00     0.131 A 
ATOM     87  C   UNL     1     -11.864   9.577   6.617  1.00  0.00     0.055 A 
ATOM     88  C   UNL     1      -9.504  10.001   6.468  1.00  0.00     0.041 A 
ATOM     89  F   UNL     1      -8.587  10.894   4.496  1.00  0.00    -0.206 F 
ATOM     90  C   UNL     1     -10.591   9.473   7.171  1.00  0.00     0.022 A 
BRANCH  87  91
ATOM     91  S   UNL     1     -13.226   8.619   7.356  1.00  0.00     0.124 S 
ATOM     92  O   UNL     1     -13.410   9.282   8.641  1.00  0.00    -0.237 OA
ATOM     93  O   UNL     1     -14.321   8.777   6.401  1.00  0.00    -0.237 OA
ATOM     94  O   UNL     1     -12.669   7.269   7.404  1.00  0.00    -0.744 OA
ENDBRANCH  87  91
ENDBRANCH  60  84
BRANCH  72  95
ATOM     95  C   UNL     1      -7.831  12.770  -1.695  1.00  0.00     0.023 A 
ATOM     96  C   UNL     1      -6.953  13.607  -1.007  1.00  0.00     0.031 A 
ATOM     97  C   UNL     1      -7.629  12.679  -3.098  1.00  0.00     0.131 A 
ATOM     98  C   UNL     1      -6.020  14.394  -1.697  1.00  0.00     0.055 A 
ATOM     99  C   UNL     1      -6.615  13.367  -3.766  1.00  0.00     0.041 A 
ATOM    100  F   UNL     1      -8.407  11.917  -3.882  1.00  0.00    -0.206 F 
ATOM    101  C   UNL     1      -5.816  14.255  -3.067  1.00  0.00     0.022 A 
BRANCH  98 102
ATOM    102  S   UNL     1      -5.187  15.702  -0.769  1.00  0.00     0.124 S 
ATOM    103  O   UNL     1      -6.320  16.498  -0.301  1.00  0.00    -0.237 OA
ATOM    104  O   UNL     1      -4.472  14.953   0.258  1.00  0.00    -0.237 OA
ATOM    105  O   UNL     1      -4.346  16.351  -1.772  1.00  0.00    -0.744 OA
ENDBRANCH  98 102
ENDBRANCH  72  95
ENDBRANCH  46  47
ENDBRANCH  39  41
ENDBRANCH  38  39
ENDBRANCH  37  38
ENDBRANCH  36  37
ENDBRANCH  35  36
ENDBRANCH  34  35
ENDBRANCH   1  34
TORSDOF 25
