REMARK SMILES CCc1cc(/C=C/C(=O)OCCOCCOCCOC(=O)c2ccc(-c3c4nc(c(-c5cc(S(=O)(=O)[O-])ccc5F)c5ccc([nH]5)c(-c5cc(S(=O)(=O)[O-])ccc5F)c5nc(c(-c6cc(S(=O)(=O)[O-])ccc6F)c6ccc3[nH]6)C=C5)C=C4)cc2)cc(C(=O)c2ccccc2)c1
REMARK SMILES IDX 14 1 13 2 12 3 11 4 10 5 8 6 9 7 7 8 6 9 5 10 3 11 4 12
REMARK SMILES IDX 95 13 86 14 85 15 2 16 1 17 87 18 88 19 89 20 90 21 94 22
REMARK SMILES IDX 91 23 93 24 92 25 15 26 16 27 17 28 18 29 19 30 20 31 21 32
REMARK SMILES IDX 22 33 23 34 84 35 24 36 83 37 25 38 26 39 27 40 77 41 28 42
REMARK SMILES IDX 82 43 76 44 78 45 29 46 81 47 75 48 74 49 30 51 62 52 42 53
REMARK SMILES IDX 61 54 43 55 46 56 60 57 79 58 44 59 45 60 59 62 80 63 47 64
REMARK SMILES IDX 31 65 32 66 40 67 33 68 39 69 41 70 38 71 34 72 35 73 36 74
REMARK SMILES IDX 37 75 63 76 64 77 72 78 65 79 71 80 73 81 70 82 66 83 67 84
REMARK SMILES IDX 68 85 69 86 48 87 49 88 57 89 50 90 56 91 58 92 55 93 51 94
REMARK SMILES IDX 52 95 53 96 54 97
REMARK H PARENT 78 50 46 61
REMARK Flexibility Score: inf
ROOT
ATOM      1  C   UNL     1      -0.810  -6.658   1.142  1.00  0.00     0.188 C 
ENDROOT
BRANCH   1   2
ATOM      2  O   UNL     1      -1.530  -7.883   1.243  1.00  0.00    -0.376 OA
BRANCH   2   3
ATOM      3  C   UNL     1      -1.374  -8.877   0.242  1.00  0.00     0.202 C 
BRANCH   3   4
ATOM      4  C   UNL     1      -1.691  -8.514  -1.214  1.00  0.00     0.261 C 
BRANCH   4   5
ATOM      5  O   UNL     1      -1.088  -7.291  -1.669  1.00  0.00    -0.460 OA
BRANCH   5   6
ATOM      6  C   UNL     1      -1.955  -6.326  -2.063  1.00  0.00     0.330 C 
ATOM      7  O   UNL     1      -3.170  -6.434  -2.142  1.00  0.00    -0.247 OA
BRANCH   6   8
ATOM      8  C   UNL     1      -1.287  -5.026  -2.291  1.00  0.00     0.094 C 
ATOM      9  C   UNL     1       0.012  -4.845  -2.582  1.00  0.00     0.015 C 
BRANCH   9  10
ATOM     10  C   UNL     1       0.620  -3.512  -2.757  1.00  0.00    -0.024 A 
ATOM     11  C   UNL     1       0.776  -1.135  -2.200  1.00  0.00    -0.047 A 
ATOM     12  C   UNL     1       0.203  -2.401  -2.007  1.00  0.00     0.011 A 
ATOM     13  C   UNL     1       1.797  -0.984  -3.146  1.00  0.00     0.016 A 
ATOM     14  C   UNL     1       2.269  -2.088  -3.867  1.00  0.00     0.023 A 
ATOM     15  C   UNL     1       1.674  -3.346  -3.666  1.00  0.00     0.020 A 
BRANCH  11  16
ATOM     16  C   UNL     1       0.300   0.049  -1.391  1.00  0.00     0.032 C 
ATOM     17  C   UNL     1       0.860   0.037   0.024  1.00  0.00     0.009 C 
ENDBRANCH  11  16
BRANCH  14  18
ATOM     18  C   UNL     1       3.345  -1.968  -4.897  1.00  0.00     0.193 C 
ATOM     19  O   UNL     1       3.564  -2.899  -5.670  1.00  0.00    -0.289 OA
BRANCH  18  20
ATOM     20  C   UNL     1       4.140  -0.729  -5.065  1.00  0.00     0.022 A 
ATOM     21  C   UNL     1       4.237  -0.175  -6.346  1.00  0.00     0.012 A 
ATOM     22  C   UNL     1       4.805  -0.130  -3.990  1.00  0.00     0.012 A 
ATOM     23  C   UNL     1       4.957   1.004  -6.543  1.00  0.00     0.001 A 
ATOM     24  C   UNL     1       5.522   1.052  -4.191  1.00  0.00     0.001 A 
ATOM     25  C   UNL     1       5.592   1.621  -5.465  1.00  0.00     0.000 A 
ENDBRANCH  18  20
ENDBRANCH  14  18
ENDBRANCH   9  10
ENDBRANCH   6   8
ENDBRANCH   5   6
ENDBRANCH   4   5
ENDBRANCH   3   4
ENDBRANCH   2   3
ENDBRANCH   1   2
BRANCH   1  26
ATOM     26  C   UNL     1       0.659  -6.651   0.669  1.00  0.00     0.188 C 
BRANCH  26  27
ATOM     27  O   UNL     1       1.231  -7.934   0.477  1.00  0.00    -0.376 OA
BRANCH  27  28
ATOM     28  C   UNL     1       2.265  -8.290   1.385  1.00  0.00     0.202 C 
BRANCH  28  29
ATOM     29  C   UNL     1       1.812  -8.546   2.830  1.00  0.00     0.261 C 
BRANCH  29  30
ATOM     30  O   UNL     1       1.144  -7.445   3.472  1.00  0.00    -0.460 OA
BRANCH  30  31
ATOM     31  C   UNL     1       1.900  -6.369   3.777  1.00  0.00     0.338 C 
ATOM     32  O   UNL     1       3.095  -6.232   3.555  1.00  0.00    -0.246 OA
BRANCH  31  33
ATOM     33  C   UNL     1       1.006  -5.299   4.266  1.00  0.00     0.060 A 
ATOM     34  C   UNL     1       0.954  -4.089   3.564  1.00  0.00     0.016 A 
ATOM     35  C   UNL     1       0.221  -5.485   5.408  1.00  0.00     0.016 A 
ATOM     36  C   UNL     1       0.132  -3.055   4.017  1.00  0.00     0.010 A 
ATOM     37  C   UNL     1      -0.593  -4.441   5.867  1.00  0.00     0.010 A 
ATOM     38  C   UNL     1      -0.625  -3.211   5.188  1.00  0.00    -0.014 A 
BRANCH  38  39
ATOM     39  C   UNL     1      -1.343  -2.039   5.756  1.00  0.00     0.031 A 
ATOM     40  C   UNL     1      -0.703  -1.258   6.874  1.00  0.00     0.074 A 
ATOM     41  C   UNL     1      -2.527  -1.643   5.254  1.00  0.00     0.049 A 
ATOM     42  N   UNL     1      -1.118  -0.172   7.475  1.00  0.00    -0.248 NA
ATOM     43  C   UNL     1       0.578  -1.774   7.378  1.00  0.00     0.031 C 
ATOM     44  C   UNL     1      -3.245  -2.304   4.166  1.00  0.00     0.029 A 
ATOM     45  N   UNL     1      -3.333  -0.583   5.592  1.00  0.00    -0.354 N 
ATOM     46  C   UNL     1      -0.145   0.134   8.421  1.00  0.00     0.074 A 
ATOM     47  C   UNL     1       0.854  -0.911   8.344  1.00  0.00     0.031 C 
ATOM     48  C   UNL     1      -4.384  -1.632   3.923  1.00  0.00     0.029 A 
ATOM     49  C   UNL     1      -4.491  -0.509   4.852  1.00  0.00     0.049 A 
ATOM     50  H   UNL     1      -3.104   0.063   6.299  1.00  0.00     0.167 HD
ATOM     51  C   UNL     1      -0.082   1.195   9.264  1.00  0.00     0.034 A 
ATOM     52  C   UNL     1      -5.521   0.359   4.923  1.00  0.00     0.034 A 
ATOM     53  C   UNL     1      -1.097   2.218   9.352  1.00  0.00     0.049 A 
ATOM     54  C   UNL     1      -5.465   1.490   5.923  1.00  0.00     0.074 A 
ATOM     55  C   UNL     1      -1.120   3.344  10.158  1.00  0.00     0.029 A 
ATOM     56  N   UNL     1      -2.281   2.231   8.626  1.00  0.00    -0.354 N 
ATOM     57  N   UNL     1      -4.518   1.792   6.782  1.00  0.00    -0.248 NA
ATOM     58  C   UNL     1      -6.614   2.405   5.950  1.00  0.00     0.031 C 
ATOM     59  C   UNL     1      -2.346   3.994   9.973  1.00  0.00     0.029 A 
ATOM     60  C   UNL     1      -3.056   3.323   8.992  1.00  0.00     0.049 A 
ATOM     61  H   UNL     1      -2.534   1.562   7.949  1.00  0.00     0.167 HD
ATOM     62  C   UNL     1      -4.948   2.947   7.432  1.00  0.00     0.074 A 
ATOM     63  C   UNL     1      -6.225   3.300   6.847  1.00  0.00     0.031 C 
ATOM     64  C   UNL     1      -4.343   3.654   8.422  1.00  0.00     0.034 A 
BRANCH  51  65
ATOM     65  C   UNL     1       1.109   1.270  10.191  1.00  0.00     0.023 A 
ATOM     66  C   UNL     1       2.419   1.420   9.700  1.00  0.00     0.031 A 
ATOM     67  C   UNL     1       0.937   1.159  11.582  1.00  0.00     0.131 A 
ATOM     68  C   UNL     1       3.507   1.384  10.586  1.00  0.00     0.055 A 
ATOM     69  C   UNL     1       2.018   1.204  12.464  1.00  0.00     0.041 A 
ATOM     70  F   UNL     1      -0.287   0.992  12.108  1.00  0.00    -0.206 F 
ATOM     71  C   UNL     1       3.314   1.302  11.966  1.00  0.00     0.022 A 
BRANCH  68  72
ATOM     72  S   UNL     1       5.183   1.304   9.897  1.00  0.00     0.124 S 
ATOM     73  O   UNL     1       5.111   0.093   9.082  1.00  0.00    -0.237 OA
ATOM     74  O   UNL     1       5.285   2.561   9.165  1.00  0.00    -0.237 OA
ATOM     75  O   UNL     1       6.036   1.199  11.079  1.00  0.00    -0.744 OA
ENDBRANCH  68  72
ENDBRANCH  51  65
BRANCH  52  76
ATOM     76  C   UNL     1      -6.716   0.190   4.045  1.00  0.00     0.023 A 
ATOM     77  C   UNL     1      -7.066   1.162   3.094  1.00  0.00     0.031 A 
ATOM     78  C   UNL     1      -7.564  -0.922   4.192  1.00  0.00     0.131 A 
ATOM     79  C   UNL     1      -8.255   1.027   2.359  1.00  0.00     0.055 A 
ATOM     80  C   UNL     1      -8.718  -1.079   3.423  1.00  0.00     0.041 A 
ATOM     81  F   UNL     1      -7.279  -1.879   5.090  1.00  0.00    -0.206 F 
ATOM     82  C   UNL     1      -9.076  -0.093   2.508  1.00  0.00     0.022 A 
BRANCH  79  83
ATOM     83  S   UNL     1      -8.759   2.382   1.263  1.00  0.00     0.124 S 
ATOM     84  O   UNL     1      -8.854   3.499   2.195  1.00  0.00    -0.237 OA
ATOM     85  O   UNL     1      -7.650   2.430   0.315  1.00  0.00    -0.237 OA
ATOM     86  O   UNL     1     -10.029   1.918   0.709  1.00  0.00    -0.744 OA
ENDBRANCH  79  83
ENDBRANCH  52  76
BRANCH  64  87
ATOM     87  C   UNL     1      -5.053   4.898   8.908  1.00  0.00     0.023 A 
ATOM     88  C   UNL     1      -6.303   4.833   9.550  1.00  0.00     0.031 A 
ATOM     89  C   UNL     1      -4.490   6.169   8.691  1.00  0.00     0.131 A 
ATOM     90  C   UNL     1      -6.982   6.016   9.883  1.00  0.00     0.055 A 
ATOM     91  C   UNL     1      -5.139   7.340   9.089  1.00  0.00     0.041 A 
ATOM     92  F   UNL     1      -3.300   6.296   8.081  1.00  0.00    -0.206 F 
ATOM     93  C   UNL     1      -6.400   7.268   9.672  1.00  0.00     0.022 A 
BRANCH  90  94
ATOM     94  S   UNL     1      -8.690   5.898  10.484  1.00  0.00     0.124 S 
ATOM     95  O   UNL     1      -9.340   5.158   9.407  1.00  0.00    -0.237 OA
ATOM     96  O   UNL     1      -8.529   5.181  11.744  1.00  0.00    -0.237 OA
ATOM     97  O   UNL     1      -9.104   7.294  10.614  1.00  0.00    -0.744 OA
ENDBRANCH  90  94
ENDBRANCH  64  87
ENDBRANCH  38  39
ENDBRANCH  31  33
ENDBRANCH  30  31
ENDBRANCH  29  30
ENDBRANCH  28  29
ENDBRANCH  27  28
ENDBRANCH  26  27
ENDBRANCH   1  26
TORSDOF 24
