REMARK SMILES O=C(OCCOCCOCCOC(=O)[C@H]1CC2(CC[NH+](C(=O)C3CC3)CC2)CN1C(=O)CCn1cccn1)c1ccc(-c2c3nc(c(-c4cc(S(=O)(=O)[O-])ccc4F)c4ccc([nH]4)c(-c4cc(S(=O)(=O)[O-])ccc4F)c4nc(c(-c5cc(S(=O)(=O)[O-])ccc5F)c5ccc2[nH]5)C=C4)C=C3)cc1
REMARK SMILES IDX 8 1 7 2 6 3 5 4 4 5 3 6 2 7 1 8 39 9 40 10 101 11 41 12
REMARK SMILES IDX 100 13 42 14 43 15 44 16 94 17 45 18 99 19 93 20 95 21 46 22
REMARK SMILES IDX 98 23 92 24 91 25 47 27 79 28 59 29 78 30 60 31 63 32 77 33
REMARK SMILES IDX 96 34 61 35 62 36 76 38 97 39 64 40 48 41 49 42 57 43 50 44
REMARK SMILES IDX 56 45 58 46 55 47 51 48 52 49 53 50 54 51 80 52 81 53 89 54
REMARK SMILES IDX 82 55 88 56 90 57 87 58 83 59 84 60 85 61 86 62 65 63 66 64
REMARK SMILES IDX 74 65 67 66 73 67 75 68 72 69 68 70 69 71 70 72 71 73 9 74
REMARK SMILES IDX 10 75 11 76 12 77 13 78 14 79 15 80 16 81 29 82 17 83 28 84
REMARK SMILES IDX 18 85 27 86 19 87 26 88 20 89 30 91 31 92 32 93 33 94 34 95
REMARK SMILES IDX 35 96 38 97 36 98 37 99 21 100 22 101 23 102 24 103 25 104
REMARK H PARENT 95 26 63 37 20 90
REMARK Flexibility Score: inf
ROOT
ATOM      1  C   UNL     1      -0.093   1.373   0.746  1.00  0.00     0.188 C 
ENDROOT
BRANCH   1   2
ATOM      2  C   UNL     1       0.338   2.826   1.048  1.00  0.00     0.188 C 
BRANCH   2   3
ATOM      3  O   UNL     1      -0.552   3.805   1.544  1.00  0.00    -0.376 OA
BRANCH   3   4
ATOM      4  C   UNL     1      -1.697   4.336   0.909  1.00  0.00     0.202 C 
BRANCH   4   5
ATOM      5  C   UNL     1      -2.108   4.149  -0.553  1.00  0.00     0.261 C 
BRANCH   5   6
ATOM      6  O   UNL     1      -1.617   3.001  -1.224  1.00  0.00    -0.460 OA
BRANCH   6   7
ATOM      7  C   UNL     1      -0.530   2.899  -2.018  1.00  0.00     0.338 C 
ATOM      8  O   UNL     1      -0.386   1.877  -2.688  1.00  0.00    -0.246 OA
BRANCH   7   9
ATOM      9  C   UNL     1       0.611   3.845  -1.947  1.00  0.00     0.060 A 
ATOM     10  C   UNL     1       0.536   5.201  -1.620  1.00  0.00     0.016 A 
ATOM     11  C   UNL     1       1.869   3.268  -2.231  1.00  0.00     0.016 A 
ATOM     12  C   UNL     1       1.617   6.015  -1.857  1.00  0.00     0.010 A 
ATOM     13  C   UNL     1       2.968   4.069  -2.424  1.00  0.00     0.010 A 
ATOM     14  C   UNL     1       2.761   5.439  -2.389  1.00  0.00    -0.014 A 
BRANCH  14  15
ATOM     15  C   UNL     1       3.661   6.327  -3.088  1.00  0.00     0.031 A 
ATOM     16  C   UNL     1       4.368   7.273  -2.201  1.00  0.00     0.074 A 
ATOM     17  C   UNL     1       3.745   6.210  -4.429  1.00  0.00     0.049 A 
ATOM     18  N   UNL     1       4.260   8.559  -2.166  1.00  0.00    -0.248 NA
ATOM     19  C   UNL     1       5.115   6.707  -1.065  1.00  0.00     0.031 C 
ATOM     20  C   UNL     1       3.146   5.181  -5.293  1.00  0.00     0.029 A 
ATOM     21  N   UNL     1       4.483   6.928  -5.307  1.00  0.00    -0.354 N 
ATOM     22  C   UNL     1       5.151   8.976  -1.183  1.00  0.00     0.074 A 
ATOM     23  C   UNL     1       5.453   7.811  -0.401  1.00  0.00     0.031 C 
ATOM     24  C   UNL     1       3.764   5.182  -6.493  1.00  0.00     0.029 A 
ATOM     25  C   UNL     1       4.688   6.298  -6.533  1.00  0.00     0.049 A 
ATOM     26  H   UNL     1       4.845   7.820  -5.098  1.00  0.00     0.167 HD
ATOM     27  C   UNL     1       5.797  10.168  -1.299  1.00  0.00     0.034 A 
ATOM     28  C   UNL     1       5.648   6.622  -7.441  1.00  0.00     0.034 A 
ATOM     29  C   UNL     1       5.058  11.069  -2.158  1.00  0.00     0.049 A 
ATOM     30  C   UNL     1       6.026   8.032  -7.142  1.00  0.00     0.074 A 
ATOM     31  C   UNL     1       3.789  11.615  -2.106  1.00  0.00     0.029 A 
ATOM     32  N   UNL     1       5.465  11.211  -3.468  1.00  0.00    -0.354 N 
ATOM     33  N   UNL     1       5.184   9.027  -7.270  1.00  0.00    -0.248 NA
ATOM     34  C   UNL     1       7.107   8.263  -6.191  1.00  0.00     0.031 C 
ATOM     35  C   UNL     1       3.317  11.574  -3.450  1.00  0.00     0.029 A 
ATOM     36  C   UNL     1       4.349  11.105  -4.265  1.00  0.00     0.049 A 
ATOM     37  H   UNL     1       6.388  11.361  -3.777  1.00  0.00     0.167 HD
ATOM     38  C   UNL     1       5.373   9.817  -6.143  1.00  0.00     0.074 A 
ATOM     39  C   UNL     1       6.621   9.331  -5.549  1.00  0.00     0.031 C 
ATOM     40  C   UNL     1       4.359  10.570  -5.617  1.00  0.00     0.034 A 
BRANCH  27  41
ATOM     41  C   UNL     1       7.274  10.341  -1.005  1.00  0.00     0.023 A 
ATOM     42  C   UNL     1       7.830  11.601  -1.289  1.00  0.00     0.031 A 
ATOM     43  C   UNL     1       8.206   9.301  -0.774  1.00  0.00     0.131 A 
ATOM     44  C   UNL     1       9.213  11.753  -1.477  1.00  0.00     0.055 A 
ATOM     45  C   UNL     1       9.586   9.472  -0.902  1.00  0.00     0.041 A 
ATOM     46  F   UNL     1       7.851   8.043  -0.495  1.00  0.00    -0.206 F 
ATOM     47  C   UNL     1      10.097  10.694  -1.296  1.00  0.00     0.022 A 
BRANCH  44  48
ATOM     48  S   UNL     1       9.811  13.316  -2.165  1.00  0.00     0.124 S 
ATOM     49  O   UNL     1       8.962  13.459  -3.343  1.00  0.00    -0.237 OA
ATOM     50  O   UNL     1       9.552  14.242  -1.068  1.00  0.00    -0.237 OA
ATOM     51  O   UNL     1      11.220  13.047  -2.439  1.00  0.00    -0.744 OA
ENDBRANCH  44  48
ENDBRANCH  27  41
BRANCH  28  52
ATOM     52  C   UNL     1       6.514   5.631  -8.152  1.00  0.00     0.023 A 
ATOM     53  C   UNL     1       7.231   5.929  -9.330  1.00  0.00     0.031 A 
ATOM     54  C   UNL     1       6.803   4.386  -7.540  1.00  0.00     0.131 A 
ATOM     55  C   UNL     1       8.170   5.000  -9.849  1.00  0.00     0.055 A 
ATOM     56  C   UNL     1       7.723   3.473  -8.059  1.00  0.00     0.041 A 
ATOM     57  F   UNL     1       6.254   4.041  -6.365  1.00  0.00    -0.206 F 
ATOM     58  C   UNL     1       8.417   3.780  -9.215  1.00  0.00     0.022 A 
BRANCH  55  59
ATOM     59  S   UNL     1       9.143   5.392 -11.341  1.00  0.00     0.124 S 
ATOM     60  O   UNL     1       8.120   5.430 -12.379  1.00  0.00    -0.237 OA
ATOM     61  O   UNL     1       9.757   6.667 -10.988  1.00  0.00    -0.237 OA
ATOM     62  O   UNL     1      10.080   4.272 -11.445  1.00  0.00    -0.744 OA
ENDBRANCH  55  59
ENDBRANCH  28  52
BRANCH  40  63
ATOM     63  C   UNL     1       3.067  10.704  -6.409  1.00  0.00     0.023 A 
ATOM     64  C   UNL     1       2.204   9.634  -6.751  1.00  0.00     0.031 A 
ATOM     65  C   UNL     1       2.625  12.008  -6.690  1.00  0.00     0.131 A 
ATOM     66  C   UNL     1       0.955   9.899  -7.355  1.00  0.00     0.055 A 
ATOM     67  C   UNL     1       1.383  12.265  -7.270  1.00  0.00     0.041 A 
ATOM     68  F   UNL     1       3.381  13.067  -6.356  1.00  0.00    -0.206 F 
ATOM     69  C   UNL     1       0.544  11.211  -7.609  1.00  0.00     0.022 A 
BRANCH  66  70
ATOM     70  S   UNL     1      -0.170   8.539  -7.825  1.00  0.00     0.124 S 
ATOM     71  O   UNL     1       0.692   7.629  -8.569  1.00  0.00    -0.237 OA
ATOM     72  O   UNL     1      -0.644   8.058  -6.529  1.00  0.00    -0.237 OA
ATOM     73  O   UNL     1      -1.193   9.206  -8.633  1.00  0.00    -0.744 OA
ENDBRANCH  66  70
ENDBRANCH  40  63
ENDBRANCH  14  15
ENDBRANCH   7   9
ENDBRANCH   6   7
ENDBRANCH   5   6
ENDBRANCH   4   5
ENDBRANCH   3   4
ENDBRANCH   2   3
ENDBRANCH   1   2
BRANCH   1  74
ATOM     74  O   UNL     1      -0.819   0.629   1.711  1.00  0.00    -0.376 OA
BRANCH  74  75
ATOM     75  C   UNL     1      -1.809   1.333   2.421  1.00  0.00     0.202 C 
BRANCH  75  76
ATOM     76  C   UNL     1      -1.319   1.887   3.773  1.00  0.00     0.261 C 
BRANCH  76  77
ATOM     77  O   UNL     1       0.050   2.363   3.884  1.00  0.00    -0.462 OA
BRANCH  77  78
ATOM     78  C   UNL     1       0.991   1.377   3.855  1.00  0.00     0.328 C 
ATOM     79  O   UNL     1       0.670   0.210   3.664  1.00  0.00    -0.250 OA
BRANCH  78  80
ATOM     80  C   UNL     1       2.473   1.831   3.902  1.00  0.00     0.195 C 
ATOM     81  C   UNL     1       2.747   3.239   4.505  1.00  0.00     0.046 C 
ATOM     82  N   UNL     1       3.546   1.018   4.517  1.00  0.00    -0.328 N 
ATOM     83  C   UNL     1       4.184   3.193   5.130  1.00  0.00     0.001 C 
ATOM     84  C   UNL     1       4.732   1.856   4.624  1.00  0.00     0.128 C 
ATOM     85  C   UNL     1       4.207   3.143   6.673  1.00  0.00     0.071 C 
ATOM     86  C   UNL     1       5.055   4.392   4.712  1.00  0.00     0.071 C 
ATOM     87  C   UNL     1       3.788   4.443   7.339  1.00  0.00     0.270 C 
ATOM     88  C   UNL     1       4.606   5.695   5.388  1.00  0.00     0.270 C 
ATOM     89  N   UNL     1       4.559   5.576   6.852  1.00  0.00    -0.272 N 
ATOM     90  H   UNL     1       3.976   5.620   7.644  1.00  0.00     0.356 HD
BRANCH  82  91
ATOM     91  C   UNL     1       3.615  -0.291   4.936  1.00  0.00     0.225 C 
ATOM     92  O   UNL     1       4.672  -0.751   5.390  1.00  0.00    -0.275 OA
BRANCH  91  93
ATOM     93  C   UNL     1       2.456  -1.251   4.816  1.00  0.00     0.124 C 
BRANCH  93  94
ATOM     94  C   UNL     1       1.353  -1.250   5.893  1.00  0.00     0.154 C 
BRANCH  94  95
ATOM     95  N   UNL     1       0.751  -0.039   6.425  1.00  0.00    -0.272 N 
ATOM     96  C   UNL     1      -0.588   0.163   6.672  1.00  0.00     0.108 A 
ATOM     97  N   UNL     1       1.492   1.015   6.811  1.00  0.00    -0.182 NA
ATOM     98  C   UNL     1      -0.720   1.464   7.101  1.00  0.00     0.042 A 
ATOM     99  C   UNL     1       0.595   1.941   7.161  1.00  0.00     0.135 A 
ENDBRANCH  94  95
ENDBRANCH  93  94
ENDBRANCH  91  93
ENDBRANCH  82  91
BRANCH  89 100
ATOM    100  C   UNL     1       5.091   6.637   7.601  1.00  0.00     0.315 C 
ATOM    101  O   UNL     1       5.594   7.603   7.045  1.00  0.00    -0.231 OA
BRANCH 100 102
ATOM    102  C   UNL     1       5.130   6.690   9.100  1.00  0.00     0.119 C 
ATOM    103  C   UNL     1       4.241   6.057  10.129  1.00  0.00     0.019 C 
ATOM    104  C   UNL     1       5.643   5.538   9.927  1.00  0.00     0.019 C 
ENDBRANCH 100 102
ENDBRANCH  89 100
ENDBRANCH  78  80
ENDBRANCH  77  78
ENDBRANCH  76  77
ENDBRANCH  75  76
ENDBRANCH  74  75
ENDBRANCH   1  74
TORSDOF 26
