REMARK SMILES CC(C)C[C@H](NC(=O)[C@H]1N2C(=O)c3ccccc3[C@@H]2SC1(C)C)C(=O)N[C@@H](C)C(=O)OCCOCCOCCOC(=O)c1ccc(-c2c3nc(c(-c4cc(S(=O)(=O)[O-])ccc4F)c4ccc([nH]4)c(-c4cc(S(=O)(=O)[O-])ccc4F)c4nc(c(-c5cc(S(=O)(=O)[O-])ccc5F)c5ccc2[nH]5)C=C4)C=C3)cc1
REMARK SMILES IDX 35 1 34 2 33 3 32 4 31 5 29 6 30 7 27 8 28 9 26 10 24 11
REMARK SMILES IDX 25 12 5 14 4 15 2 16 1 17 3 18 6 19 7 20 8 22 9 23 10 24
REMARK SMILES IDX 21 25 11 26 19 27 20 28 22 29 23 30 12 31 13 32 18 33 14 34
REMARK SMILES IDX 17 35 15 36 16 37 36 38 37 39 38 40 39 41 40 42 41 43 42 44
REMARK SMILES IDX 43 45 44 46 105 47 45 48 104 49 46 50 47 51 48 52 98 53
REMARK SMILES IDX 49 54 103 55 97 56 99 57 50 58 102 59 96 60 95 61 51 63
REMARK SMILES IDX 83 64 63 65 82 66 64 67 67 68 81 69 100 70 65 71 66 72 80 74
REMARK SMILES IDX 101 75 68 76 52 77 53 78 61 79 54 80 60 81 62 82 59 83 55 84
REMARK SMILES IDX 56 85 57 86 58 87 84 88 85 89 93 90 86 91 92 92 94 93 91 94
REMARK SMILES IDX 87 95 88 96 89 97 90 98 69 99 70 100 78 101 71 102 77 103
REMARK SMILES IDX 79 104 76 105 72 106 73 107 74 108 75 109
REMARK H PARENT 26 13 6 21 99 62 67 73
REMARK Flexibility Score: inf
ROOT
ATOM      1  C   UNL     1      -4.088  -2.931  -5.237  1.00  0.00     0.188 C 
ENDROOT
BRANCH   1   2
ATOM      2  O   UNL     1      -4.324  -4.180  -5.867  1.00  0.00    -0.376 OA
BRANCH   2   3
ATOM      3  C   UNL     1      -5.423  -4.924  -5.382  1.00  0.00     0.202 C 
BRANCH   3   4
ATOM      4  C   UNL     1      -5.352  -5.434  -3.931  1.00  0.00     0.261 C 
BRANCH   4   5
ATOM      5  O   UNL     1      -4.874  -4.488  -2.939  1.00  0.00    -0.462 OA
BRANCH   5   6
ATOM      6  C   UNL     1      -3.849  -4.941  -2.156  1.00  0.00     0.328 C 
ATOM      7  O   UNL     1      -3.360  -6.063  -2.257  1.00  0.00    -0.250 OA
BRANCH   6   8
ATOM      8  C   UNL     1      -3.365  -3.947  -1.065  1.00  0.00     0.189 C 
ATOM      9  C   UNL     1      -3.595  -4.612   0.291  1.00  0.00     0.043 C 
BRANCH   8  10
ATOM     10  N   UNL     1      -3.948  -2.600  -1.002  1.00  0.00    -0.341 N 
ATOM     11  C   UNL     1      -3.398  -1.406  -0.615  1.00  0.00     0.243 C 
ATOM     12  O   UNL     1      -4.190  -0.567  -0.166  1.00  0.00    -0.273 OA
ATOM     13  H   UNL     1      -4.889  -2.547  -1.284  1.00  0.00     0.164 HD
BRANCH  11  14
ATOM     14  C   UNL     1      -1.872  -1.044  -0.734  1.00  0.00     0.171 C 
BRANCH  14  15
ATOM     15  C   UNL     1      -1.238  -1.573  -1.999  1.00  0.00     0.038 C 
BRANCH  15  16
ATOM     16  C   UNL     1      -2.023  -1.245  -3.251  1.00  0.00    -0.015 C 
ATOM     17  C   UNL     1      -2.374   0.234  -3.395  1.00  0.00     0.007 C 
ATOM     18  C   UNL     1      -1.219  -1.876  -4.382  1.00  0.00     0.007 C 
ENDBRANCH  15  16
ENDBRANCH  14  15
BRANCH  14  19
ATOM     19  N   UNL     1      -1.025  -1.340   0.400  1.00  0.00    -0.342 N 
ATOM     20  C   UNL     1       0.265  -0.968   0.664  1.00  0.00     0.244 C 
ATOM     21  H   UNL     1      -1.444  -1.899   1.094  1.00  0.00     0.164 HD
ATOM     22  O   UNL     1       0.748  -1.572   1.632  1.00  0.00    -0.273 OA
BRANCH  20  23
ATOM     23  C   UNL     1       1.177  -0.030  -0.238  1.00  0.00     0.191 C 
ATOM     24  N   UNL     1       0.586   0.847  -1.254  1.00  0.00    -0.309 N 
ATOM     25  C   UNL     1       2.107   0.945   0.563  1.00  0.00     0.042 C 
ATOM     26  C   UNL     1       1.147   0.978  -2.535  1.00  0.00     0.256 C 
ATOM     27  C   UNL     1       0.057   2.101  -0.793  1.00  0.00     0.176 C 
ATOM     28  S   UNL     1       1.262   2.620   0.444  1.00  0.00    -0.123 SA
ATOM     29  C   UNL     1       2.301   0.657   2.049  1.00  0.00     0.026 C 
ATOM     30  C   UNL     1       3.494   1.036  -0.105  1.00  0.00     0.026 C 
ATOM     31  O   UNL     1       1.810   0.178  -3.128  1.00  0.00    -0.269 OA
ATOM     32  C   UNL     1       0.712   2.295  -3.046  1.00  0.00     0.046 A 
ATOM     33  C   UNL     1      -0.022   2.916  -2.042  1.00  0.00    -0.002 A 
ATOM     34  C   UNL     1       0.826   2.811  -4.322  1.00  0.00     0.014 A 
ATOM     35  C   UNL     1      -0.767   4.045  -2.345  1.00  0.00     0.007 A 
ATOM     36  C   UNL     1       0.060   3.930  -4.642  1.00  0.00     0.001 A 
ATOM     37  C   UNL     1      -0.745   4.531  -3.663  1.00  0.00     0.000 A 
ENDBRANCH  20  23
ENDBRANCH  14  19
ENDBRANCH  11  14
ENDBRANCH   8  10
ENDBRANCH   6   8
ENDBRANCH   5   6
ENDBRANCH   4   5
ENDBRANCH   3   4
ENDBRANCH   2   3
ENDBRANCH   1   2
BRANCH   1  38
ATOM     38  C   UNL     1      -5.277  -2.037  -4.885  1.00  0.00     0.188 C 
BRANCH  38  39
ATOM     39  O   UNL     1      -6.145  -1.936  -6.005  1.00  0.00    -0.376 OA
BRANCH  39  40
ATOM     40  C   UNL     1      -6.227  -0.633  -6.564  1.00  0.00     0.202 C 
BRANCH  40  41
ATOM     41  C   UNL     1      -5.117  -0.264  -7.566  1.00  0.00     0.261 C 
BRANCH  41  42
ATOM     42  O   UNL     1      -3.767  -0.124  -7.052  1.00  0.00    -0.460 OA
BRANCH  42  43
ATOM     43  C   UNL     1      -3.001   0.766  -7.770  1.00  0.00     0.338 C 
ATOM     44  O   UNL     1      -3.441   1.634  -8.510  1.00  0.00    -0.246 OA
BRANCH  43  45
ATOM     45  C   UNL     1      -1.535   0.505  -7.669  1.00  0.00     0.060 A 
ATOM     46  C   UNL     1      -0.713   0.406  -8.796  1.00  0.00     0.016 A 
ATOM     47  C   UNL     1      -0.918   0.471  -6.438  1.00  0.00     0.016 A 
ATOM     48  C   UNL     1       0.688   0.196  -8.663  1.00  0.00     0.010 A 
ATOM     49  C   UNL     1       0.447   0.197  -6.301  1.00  0.00     0.010 A 
ATOM     50  C   UNL     1       1.288   0.059  -7.400  1.00  0.00    -0.014 A 
BRANCH  50  51
ATOM     51  C   UNL     1       2.762   0.031  -7.121  1.00  0.00     0.031 A 
ATOM     52  C   UNL     1       3.465  -1.145  -6.463  1.00  0.00     0.074 A 
ATOM     53  C   UNL     1       3.426   1.207  -7.132  1.00  0.00     0.049 A 
ATOM     54  N   UNL     1       4.745  -1.314  -6.223  1.00  0.00    -0.248 NA
ATOM     55  C   UNL     1       2.626  -2.248  -5.973  1.00  0.00     0.031 C 
ATOM     56  C   UNL     1       2.823   2.503  -7.452  1.00  0.00     0.029 A 
ATOM     57  N   UNL     1       4.713   1.523  -6.768  1.00  0.00    -0.354 N 
ATOM     58  C   UNL     1       4.870  -2.554  -5.594  1.00  0.00     0.074 A 
ATOM     59  C   UNL     1       3.522  -3.044  -5.397  1.00  0.00     0.031 C 
ATOM     60  C   UNL     1       3.714   3.474  -7.204  1.00  0.00     0.029 A 
ATOM     61  C   UNL     1       4.979   2.872  -6.787  1.00  0.00     0.049 A 
ATOM     62  H   UNL     1       5.383   0.846  -6.518  1.00  0.00     0.167 HD
ATOM     63  C   UNL     1       6.003  -3.234  -5.266  1.00  0.00     0.034 A 
ATOM     64  C   UNL     1       6.119   3.558  -6.556  1.00  0.00     0.034 A 
ATOM     65  C   UNL     1       7.329  -2.686  -5.452  1.00  0.00     0.049 A 
ATOM     66  C   UNL     1       7.402   2.789  -6.375  1.00  0.00     0.074 A 
ATOM     67  C   UNL     1       8.551  -3.334  -5.394  1.00  0.00     0.029 A 
ATOM     68  N   UNL     1       7.605  -1.349  -5.694  1.00  0.00    -0.354 N 
ATOM     69  N   UNL     1       7.568   1.506  -6.161  1.00  0.00    -0.248 NA
ATOM     70  C   UNL     1       8.659   3.538  -6.507  1.00  0.00     0.031 C 
ATOM     71  C   UNL     1       9.563  -2.382  -5.536  1.00  0.00     0.029 A 
ATOM     72  C   UNL     1       8.974  -1.151  -5.772  1.00  0.00     0.049 A 
ATOM     73  H   UNL     1       6.927  -0.642  -5.796  1.00  0.00     0.167 HD
ATOM     74  C   UNL     1       8.942   1.283  -6.196  1.00  0.00     0.074 A 
ATOM     75  C   UNL     1       9.562   2.565  -6.455  1.00  0.00     0.031 C 
ATOM     76  C   UNL     1       9.615   0.114  -6.046  1.00  0.00     0.034 A 
BRANCH  63  77
ATOM     77  C   UNL     1       5.917  -4.685  -4.808  1.00  0.00     0.023 A 
ATOM     78  C   UNL     1       6.614  -5.142  -3.666  1.00  0.00     0.031 A 
ATOM     79  C   UNL     1       5.335  -5.660  -5.643  1.00  0.00     0.131 A 
ATOM     80  C   UNL     1       6.745  -6.522  -3.425  1.00  0.00     0.055 A 
ATOM     81  C   UNL     1       5.420  -7.027  -5.367  1.00  0.00     0.041 A 
ATOM     82  F   UNL     1       4.698  -5.304  -6.770  1.00  0.00    -0.206 F 
ATOM     83  C   UNL     1       6.142  -7.463  -4.264  1.00  0.00     0.022 A 
BRANCH  80  84
ATOM     84  S   UNL     1       7.787  -7.168  -2.083  1.00  0.00     0.124 S 
ATOM     85  O   UNL     1       6.835  -7.982  -1.328  1.00  0.00    -0.237 OA
ATOM     86  O   UNL     1       8.799  -7.922  -2.818  1.00  0.00    -0.237 OA
ATOM     87  O   UNL     1       8.262  -5.973  -1.397  1.00  0.00    -0.744 OA
ENDBRANCH  80  84
ENDBRANCH  63  77
BRANCH  64  88
ATOM     88  C   UNL     1       6.098   5.033  -6.769  1.00  0.00     0.023 A 
ATOM     89  C   UNL     1       5.449   5.904  -5.875  1.00  0.00     0.031 A 
ATOM     90  C   UNL     1       6.573   5.556  -7.985  1.00  0.00     0.131 A 
ATOM     91  C   UNL     1       5.256   7.245  -6.240  1.00  0.00     0.055 A 
ATOM     92  C   UNL     1       6.425   6.900  -8.319  1.00  0.00     0.041 A 
ATOM     93  F   UNL     1       7.163   4.749  -8.881  1.00  0.00    -0.206 F 
ATOM     94  C   UNL     1       5.751   7.750  -7.449  1.00  0.00     0.022 A 
BRANCH  91  95
ATOM     95  S   UNL     1       4.245   8.364  -5.229  1.00  0.00     0.124 S 
ATOM     96  O   UNL     1       5.175   9.456  -4.957  1.00  0.00    -0.237 OA
ATOM     97  O   UNL     1       3.150   8.682  -6.143  1.00  0.00    -0.237 OA
ATOM     98  O   UNL     1       3.875   7.549  -4.076  1.00  0.00    -0.744 OA
ENDBRANCH  91  95
ENDBRANCH  64  88
BRANCH  76  99
ATOM     99  C   UNL     1      11.122   0.106  -6.171  1.00  0.00     0.023 A 
ATOM    100  C   UNL     1      11.738  -0.696  -7.154  1.00  0.00     0.031 A 
ATOM    101  C   UNL     1      11.947   0.751  -5.234  1.00  0.00     0.131 A 
ATOM    102  C   UNL     1      13.128  -0.870  -7.147  1.00  0.00     0.055 A 
ATOM    103  C   UNL     1      13.337   0.618  -5.264  1.00  0.00     0.041 A 
ATOM    104  F   UNL     1      11.414   1.516  -4.267  1.00  0.00    -0.206 F 
ATOM    105  C   UNL     1      13.932  -0.208  -6.213  1.00  0.00     0.022 A 
BRANCH 102 106
ATOM    106  S   UNL     1      13.936  -2.031  -8.283  1.00  0.00     0.124 S 
ATOM    107  O   UNL     1      14.852  -1.156  -9.011  1.00  0.00    -0.237 OA
ATOM    108  O   UNL     1      14.573  -2.969  -7.362  1.00  0.00    -0.237 OA
ATOM    109  O   UNL     1      12.838  -2.575  -9.075  1.00  0.00    -0.744 OA
ENDBRANCH 102 106
ENDBRANCH  76  99
ENDBRANCH  50  51
ENDBRANCH  43  45
ENDBRANCH  42  43
ENDBRANCH  41  42
ENDBRANCH  40  41
ENDBRANCH  39  40
ENDBRANCH  38  39
ENDBRANCH   1  38
TORSDOF 26
