REMARK SMILES O=C(CCC(=O)OCCOCCOCCOC(=O)c1ccc(-c2c3nc(c(-c4cc(S(=O)(=O)[O-])ccc4F)c4ccc([nH]4)c(-c4cc(S(=O)(=O)[O-])ccc4F)c4nc(c(-c5cc(S(=O)(=O)[O-])ccc5F)c5ccc2[nH]5)C=C4)C=C3)cc1)Nc1ccc(Br)c([N+](=O)[O-])c1
REMARK SMILES IDX 11 1 10 2 9 3 8 4 7 5 5 6 6 7 4 8 3 9 2 10 1 11 82 12 83 14
REMARK SMILES IDX 84 15 92 16 85 17 88 18 86 19 87 20 89 21 90 22 91 23 12 24
REMARK SMILES IDX 13 25 14 26 15 27 16 28 17 29 18 30 19 31 20 32 81 33 21 34
REMARK SMILES IDX 80 35 22 36 23 37 24 38 74 39 25 40 79 41 73 42 75 43 26 44
REMARK SMILES IDX 78 45 72 46 71 47 27 49 59 50 39 51 58 52 40 53 43 54 57 55
REMARK SMILES IDX 76 56 41 57 42 58 56 60 77 61 44 62 28 63 29 64 37 65 30 66
REMARK SMILES IDX 36 67 38 68 35 69 31 70 32 71 33 72 34 73 60 74 61 75 69 76
REMARK SMILES IDX 62 77 68 78 70 79 67 80 63 81 64 82 65 83 66 84 45 85 46 86
REMARK SMILES IDX 54 87 47 88 53 89 55 90 52 91 48 92 49 93 50 94 51 95
REMARK H PARENT 82 13 75 48 43 59
REMARK Flexibility Score: inf
ROOT
ATOM      1  C   UNL     1       6.729  -0.194   0.423  1.00  0.00     0.188 C 
ENDROOT
BRANCH   1   2
ATOM      2  O   UNL     1       7.499  -1.256  -0.134  1.00  0.00    -0.376 OA
BRANCH   2   3
ATOM      3  C   UNL     1       6.815  -2.141  -1.018  1.00  0.00     0.202 C 
BRANCH   3   4
ATOM      4  C   UNL     1       5.628  -2.897  -0.402  1.00  0.00     0.261 C 
BRANCH   4   5
ATOM      5  O   UNL     1       4.595  -2.025   0.125  1.00  0.00    -0.463 OA
BRANCH   5   6
ATOM      6  C   UNL     1       4.172  -2.298   1.391  1.00  0.00     0.306 C 
ATOM      7  O   UNL     1       4.509  -3.292   2.024  1.00  0.00    -0.252 OA
BRANCH   6   8
ATOM      8  C   UNL     1       3.295  -1.222   2.014  1.00  0.00     0.132 C 
BRANCH   8   9
ATOM      9  C   UNL     1       2.730  -0.071   1.188  1.00  0.00     0.112 C 
BRANCH   9  10
ATOM     10  C   UNL     1       1.739  -0.464   0.110  1.00  0.00     0.224 C 
ATOM     11  O   UNL     1       0.536  -0.254   0.227  1.00  0.00    -0.275 OA
ATOM     12  N   UNL     1       2.334  -1.086  -0.963  1.00  0.00    -0.326 N 
ATOM     13  H   UNL     1       3.304  -1.246  -0.902  1.00  0.00     0.169 HD
BRANCH  12  14
ATOM     14  C   UNL     1       1.696  -1.512  -2.132  1.00  0.00     0.048 A 
ATOM     15  C   UNL     1       2.212  -2.647  -2.755  1.00  0.00     0.028 A 
ATOM     16  C   UNL     1       0.623  -0.832  -2.704  1.00  0.00     0.113 A 
ATOM     17  C   UNL     1       1.630  -3.134  -3.922  1.00  0.00     0.025 A 
ATOM     18  C   UNL     1       0.077  -1.282  -3.923  1.00  0.00     0.285 A 
ATOM     19  C   UNL     1       0.566  -2.451  -4.527  1.00  0.00     0.095 A 
ATOM     20  Br  UNL     1      -0.047  -3.218  -6.156  1.00  0.00    -0.043 Br
BRANCH  18  21
ATOM     21  N   UNL     1      -0.957  -0.445  -4.536  1.00  0.00     0.064 N 
ATOM     22  O   UNL     1      -1.810  -0.978  -5.255  1.00  0.00    -0.258 OA
ATOM     23  O   UNL     1      -0.922   0.769  -4.288  1.00  0.00    -0.258 OA
ENDBRANCH  18  21
ENDBRANCH  12  14
ENDBRANCH   9  10
ENDBRANCH   8   9
ENDBRANCH   6   8
ENDBRANCH   5   6
ENDBRANCH   4   5
ENDBRANCH   3   4
ENDBRANCH   2   3
ENDBRANCH   1   2
BRANCH   1  24
ATOM     24  C   UNL     1       6.103   0.753  -0.600  1.00  0.00     0.188 C 
BRANCH  24  25
ATOM     25  O   UNL     1       5.365   0.145  -1.656  1.00  0.00    -0.376 OA
BRANCH  25  26
ATOM     26  C   UNL     1       4.971   1.027  -2.720  1.00  0.00     0.202 C 
BRANCH  26  27
ATOM     27  C   UNL     1       6.067   1.907  -3.375  1.00  0.00     0.261 C 
BRANCH  27  28
ATOM     28  O   UNL     1       6.779   2.819  -2.507  1.00  0.00    -0.460 OA
BRANCH  28  29
ATOM     29  C   UNL     1       6.038   3.613  -1.691  1.00  0.00     0.338 C 
ATOM     30  O   UNL     1       4.845   3.807  -1.787  1.00  0.00    -0.246 OA
BRANCH  29  31
ATOM     31  C   UNL     1       6.848   3.958  -0.481  1.00  0.00     0.060 A 
ATOM     32  C   UNL     1       6.184   3.987   0.755  1.00  0.00     0.016 A 
ATOM     33  C   UNL     1       8.227   4.185  -0.526  1.00  0.00     0.016 A 
ATOM     34  C   UNL     1       6.873   4.312   1.927  1.00  0.00     0.010 A 
ATOM     35  C   UNL     1       8.917   4.526   0.650  1.00  0.00     0.010 A 
ATOM     36  C   UNL     1       8.233   4.643   1.875  1.00  0.00    -0.014 A 
BRANCH  36  37
ATOM     37  C   UNL     1       8.840   5.377   3.024  1.00  0.00     0.031 A 
ATOM     38  C   UNL     1       8.930   6.882   2.921  1.00  0.00     0.074 A 
ATOM     39  C   UNL     1       9.221   4.765   4.162  1.00  0.00     0.049 A 
ATOM     40  N   UNL     1       9.418   7.752   3.767  1.00  0.00    -0.248 NA
ATOM     41  C   UNL     1       8.394   7.481   1.688  1.00  0.00     0.031 C 
ATOM     42  C   UNL     1       9.136   3.330   4.425  1.00  0.00     0.029 A 
ATOM     43  N   UNL     1       9.756   5.284   5.319  1.00  0.00    -0.354 N 
ATOM     44  C   UNL     1       9.236   8.998   3.174  1.00  0.00     0.074 A 
ATOM     45  C   UNL     1       8.652   8.764   1.872  1.00  0.00     0.031 C 
ATOM     46  C   UNL     1       9.611   3.083   5.660  1.00  0.00     0.029 A 
ATOM     47  C   UNL     1      10.065   4.334   6.268  1.00  0.00     0.049 A 
ATOM     48  H   UNL     1       9.904   6.248   5.457  1.00  0.00     0.167 HD
ATOM     49  C   UNL     1       9.505  10.230   3.673  1.00  0.00     0.034 A 
ATOM     50  C   UNL     1      10.664   4.458   7.473  1.00  0.00     0.034 A 
ATOM     51  C   UNL     1      10.103  10.464   4.963  1.00  0.00     0.049 A 
ATOM     52  C   UNL     1      11.053   5.839   7.966  1.00  0.00     0.074 A 
ATOM     53  C   UNL     1      10.455  11.670   5.544  1.00  0.00     0.029 A 
ATOM     54  N   UNL     1      10.440   9.472   5.874  1.00  0.00    -0.354 N 
ATOM     55  N   UNL     1      10.891   7.006   7.384  1.00  0.00    -0.248 NA
ATOM     56  C   UNL     1      11.685   5.917   9.291  1.00  0.00     0.031 C 
ATOM     57  C   UNL     1      11.063  11.404   6.775  1.00  0.00     0.029 A 
ATOM     58  C   UNL     1      11.006  10.039   7.006  1.00  0.00     0.049 A 
ATOM     59  H   UNL     1      10.297   8.508   5.737  1.00  0.00     0.167 HD
ATOM     60  C   UNL     1      11.356   7.955   8.297  1.00  0.00     0.074 A 
ATOM     61  C   UNL     1      11.784   7.225   9.470  1.00  0.00     0.031 C 
ATOM     62  C   UNL     1      11.420   9.307   8.178  1.00  0.00     0.034 A 
BRANCH  49  63
ATOM     63  C   UNL     1       9.181  11.415   2.795  1.00  0.00     0.023 A 
ATOM     64  C   UNL     1       7.858  11.714   2.422  1.00  0.00     0.031 A 
ATOM     65  C   UNL     1      10.206  12.241   2.303  1.00  0.00     0.131 A 
ATOM     66  C   UNL     1       7.603  12.767   1.532  1.00  0.00     0.055 A 
ATOM     67  C   UNL     1       9.937  13.340   1.485  1.00  0.00     0.041 A 
ATOM     68  F   UNL     1      11.491  11.987   2.600  1.00  0.00    -0.206 F 
ATOM     69  C   UNL     1       8.630  13.600   1.084  1.00  0.00     0.022 A 
BRANCH  66  70
ATOM     70  S   UNL     1       5.929  12.942   0.856  1.00  0.00     0.124 S 
ATOM     71  O   UNL     1       5.748  11.657   0.184  1.00  0.00    -0.237 OA
ATOM     72  O   UNL     1       5.125  13.156   2.053  1.00  0.00    -0.237 OA
ATOM     73  O   UNL     1       6.040  14.094  -0.037  1.00  0.00    -0.744 OA
ENDBRANCH  66  70
ENDBRANCH  49  63
BRANCH  50  74
ATOM     74  C   UNL     1      10.995   3.254   8.299  1.00  0.00     0.023 A 
ATOM     75  C   UNL     1      10.498   3.096   9.604  1.00  0.00     0.031 A 
ATOM     76  C   UNL     1      11.915   2.297   7.832  1.00  0.00     0.131 A 
ATOM     77  C   UNL     1      10.981   2.058  10.420  1.00  0.00     0.055 A 
ATOM     78  C   UNL     1      12.336   1.225   8.622  1.00  0.00     0.041 A 
ATOM     79  F   UNL     1      12.433   2.399   6.597  1.00  0.00    -0.206 F 
ATOM     80  C   UNL     1      11.885   1.113   9.932  1.00  0.00     0.022 A 
BRANCH  77  81
ATOM     81  S   UNL     1      10.520   2.044  12.177  1.00  0.00     0.124 S 
ATOM     82  O   UNL     1      10.962   3.365  12.607  1.00  0.00    -0.237 OA
ATOM     83  O   UNL     1       9.077   1.840  12.108  1.00  0.00    -0.237 OA
ATOM     84  O   UNL     1      11.282   0.921  12.719  1.00  0.00    -0.744 OA
ENDBRANCH  77  81
ENDBRANCH  50  74
BRANCH  62  85
ATOM     85  C   UNL     1      11.894  10.090   9.384  1.00  0.00     0.023 A 
ATOM     86  C   UNL     1      13.189   9.944   9.912  1.00  0.00     0.031 A 
ATOM     87  C   UNL     1      11.015  10.974  10.037  1.00  0.00     0.131 A 
ATOM     88  C   UNL     1      13.538  10.601  11.103  1.00  0.00     0.055 A 
ATOM     89  C   UNL     1      11.395  11.686  11.176  1.00  0.00     0.041 A 
ATOM     90  F   UNL     1       9.765  11.158   9.582  1.00  0.00    -0.206 F 
ATOM     91  C   UNL     1      12.656  11.485  11.728  1.00  0.00     0.022 A 
BRANCH  88  92
ATOM     92  S   UNL     1      15.110  10.173  11.903  1.00  0.00     0.124 S 
ATOM     93  O   UNL     1      15.001   8.724  12.029  1.00  0.00    -0.237 OA
ATOM     94  O   UNL     1      16.091  10.658  10.938  1.00  0.00    -0.237 OA
ATOM     95  O   UNL     1      15.064  10.911  13.164  1.00  0.00    -0.744 OA
ENDBRANCH  88  92
ENDBRANCH  62  85
ENDBRANCH  36  37
ENDBRANCH  29  31
ENDBRANCH  28  29
ENDBRANCH  27  28
ENDBRANCH  26  27
ENDBRANCH  25  26
ENDBRANCH  24  25
ENDBRANCH   1  24
TORSDOF 24
