REMARK SMILES O=C(OCCOCCOCCOC(=O)[C@H]1CC2=c3ccccc3=N[C@H]2[C@@H](c2ccccc2)[NH2+]1)c1ccc(-c2c3nc(c(-c4cc(S(=O)(=O)[O-])ccc4F)c4ccc([nH]4)c(-c4cc(S(=O)(=O)[O-])ccc4F)c4nc(c(-c5cc(S(=O)(=O)[O-])ccc5F)c5ccc2[nH]5)C=C4)C=C3)cc1
REMARK SMILES IDX 7 1 6 2 5 3 4 4 3 5 2 6 1 7 34 8 35 9 96 10 36 11 95 12
REMARK SMILES IDX 37 13 38 14 39 15 89 16 40 17 94 18 88 19 90 20 41 21 93 22
REMARK SMILES IDX 87 23 86 24 42 26 74 27 54 28 73 29 55 30 58 31 72 32 91 33
REMARK SMILES IDX 56 34 57 35 71 37 92 38 59 39 43 40 44 41 52 42 45 43 51 44
REMARK SMILES IDX 53 45 50 46 46 47 47 48 48 49 49 50 75 51 76 52 84 53 77 54
REMARK SMILES IDX 83 55 85 56 82 57 78 58 79 59 80 60 81 61 60 62 61 63 69 64
REMARK SMILES IDX 62 65 68 66 70 67 67 68 63 69 64 70 65 71 66 72 8 73 9 74
REMARK SMILES IDX 10 75 11 76 12 77 13 78 14 79 15 80 16 81 33 82 17 83 26 84
REMARK SMILES IDX 18 87 25 88 19 89 23 90 24 91 20 92 22 93 21 94 27 95 28 96
REMARK SMILES IDX 32 97 29 98 31 99 30 100
REMARK H PARENT 90 25 58 36 33 85 33 86
REMARK Flexibility Score: inf
ROOT
ATOM      1  C   UNL     1       2.752   0.894  -1.403  1.00  0.00     0.188 C 
ENDROOT
BRANCH   1   2
ATOM      2  O   UNL     1       4.149   0.834  -1.090  1.00  0.00    -0.376 OA
BRANCH   2   3
ATOM      3  C   UNL     1       4.744  -0.453  -1.231  1.00  0.00     0.202 C 
BRANCH   3   4
ATOM      4  C   UNL     1       4.601  -1.392  -0.030  1.00  0.00     0.261 C 
BRANCH   4   5
ATOM      5  O   UNL     1       3.338  -1.349   0.649  1.00  0.00    -0.460 OA
BRANCH   5   6
ATOM      6  C   UNL     1       2.925  -0.492   1.615  1.00  0.00     0.338 C 
ATOM      7  O   UNL     1       1.903  -0.777   2.239  1.00  0.00    -0.246 OA
BRANCH   6   8
ATOM      8  C   UNL     1       3.549   0.851   1.861  1.00  0.00     0.060 A 
ATOM      9  C   UNL     1       2.697   1.855   2.354  1.00  0.00     0.016 A 
ATOM     10  C   UNL     1       4.893   1.183   1.665  1.00  0.00     0.016 A 
ATOM     11  C   UNL     1       3.175   3.147   2.612  1.00  0.00     0.010 A 
ATOM     12  C   UNL     1       5.372   2.477   1.901  1.00  0.00     0.010 A 
ATOM     13  C   UNL     1       4.526   3.467   2.395  1.00  0.00    -0.014 A 
BRANCH  13  14
ATOM     14  C   UNL     1       5.099   4.705   2.967  1.00  0.00     0.031 A 
ATOM     15  C   UNL     1       5.563   5.874   2.162  1.00  0.00     0.074 A 
ATOM     16  C   UNL     1       5.265   4.746   4.301  1.00  0.00     0.049 A 
ATOM     17  N   UNL     1       5.551   7.131   2.516  1.00  0.00    -0.248 NA
ATOM     18  C   UNL     1       6.087   5.649   0.808  1.00  0.00     0.031 C 
ATOM     19  C   UNL     1       5.039   3.625   5.213  1.00  0.00     0.029 A 
ATOM     20  N   UNL     1       5.706   5.758   5.107  1.00  0.00    -0.354 N 
ATOM     21  C   UNL     1       5.840   7.850   1.364  1.00  0.00     0.074 A 
ATOM     22  C   UNL     1       6.179   6.895   0.340  1.00  0.00     0.031 C 
ATOM     23  C   UNL     1       5.385   4.000   6.452  1.00  0.00     0.029 A 
ATOM     24  C   UNL     1       5.831   5.390   6.422  1.00  0.00     0.049 A 
ATOM     25  H   UNL     1       5.915   6.661   4.777  1.00  0.00     0.167 HD
ATOM     26  C   UNL     1       5.743   9.188   1.219  1.00  0.00     0.034 A 
ATOM     27  C   UNL     1       6.253   6.105   7.481  1.00  0.00     0.034 A 
ATOM     28  C   UNL     1       5.755  10.083   2.345  1.00  0.00     0.049 A 
ATOM     29  C   UNL     1       6.485   7.580   7.293  1.00  0.00     0.074 A 
ATOM     30  C   UNL     1       5.760  11.465   2.328  1.00  0.00     0.029 A 
ATOM     31  N   UNL     1       5.915   9.690   3.661  1.00  0.00    -0.354 N 
ATOM     32  N   UNL     1       6.293   8.311   6.220  1.00  0.00    -0.248 NA
ATOM     33  C   UNL     1       6.945   8.341   8.460  1.00  0.00     0.031 C 
ATOM     34  C   UNL     1       6.061  11.901   3.615  1.00  0.00     0.029 A 
ATOM     35  C   UNL     1       6.149  10.797   4.450  1.00  0.00     0.049 A 
ATOM     36  H   UNL     1       5.869   8.761   3.986  1.00  0.00     0.167 HD
ATOM     37  C   UNL     1       6.550   9.625   6.598  1.00  0.00     0.074 A 
ATOM     38  C   UNL     1       6.914   9.586   7.998  1.00  0.00     0.031 C 
ATOM     39  C   UNL     1       6.475  10.757   5.855  1.00  0.00     0.034 A 
BRANCH  26  40
ATOM     40  C   UNL     1       5.580   9.843  -0.123  1.00  0.00     0.023 A 
ATOM     41  C   UNL     1       6.670  10.372  -0.831  1.00  0.00     0.031 A 
ATOM     42  C   UNL     1       4.285  10.309  -0.433  1.00  0.00     0.131 A 
ATOM     43  C   UNL     1       6.445  11.382  -1.783  1.00  0.00     0.055 A 
ATOM     44  C   UNL     1       4.082  11.349  -1.337  1.00  0.00     0.041 A 
ATOM     45  F   UNL     1       3.218   9.855   0.246  1.00  0.00    -0.206 F 
ATOM     46  C   UNL     1       5.162  11.889  -2.020  1.00  0.00     0.022 A 
BRANCH  43  47
ATOM     47  S   UNL     1       7.828  12.195  -2.629  1.00  0.00     0.124 S 
ATOM     48  O   UNL     1       7.701  11.662  -3.984  1.00  0.00    -0.237 OA
ATOM     49  O   UNL     1       7.503  13.613  -2.487  1.00  0.00    -0.237 OA
ATOM     50  O   UNL     1       9.000  11.745  -1.888  1.00  0.00    -0.744 OA
ENDBRANCH  43  47
ENDBRANCH  26  40
BRANCH  27  51
ATOM     51  C   UNL     1       6.389   5.420   8.794  1.00  0.00     0.023 A 
ATOM     52  C   UNL     1       7.260   4.323   8.934  1.00  0.00     0.031 A 
ATOM     53  C   UNL     1       5.574   5.763   9.882  1.00  0.00     0.131 A 
ATOM     54  C   UNL     1       7.247   3.567  10.111  1.00  0.00     0.055 A 
ATOM     55  C   UNL     1       5.616   5.050  11.081  1.00  0.00     0.041 A 
ATOM     56  F   UNL     1       4.710   6.785   9.786  1.00  0.00    -0.206 F 
ATOM     57  C   UNL     1       6.442   3.935  11.193  1.00  0.00     0.022 A 
BRANCH  54  58
ATOM     58  S   UNL     1       8.159   2.002  10.216  1.00  0.00     0.124 S 
ATOM     59  O   UNL     1       9.129   2.287  11.269  1.00  0.00    -0.237 OA
ATOM     60  O   UNL     1       7.100   1.060  10.571  1.00  0.00    -0.237 OA
ATOM     61  O   UNL     1       8.712   1.834   8.877  1.00  0.00    -0.744 OA
ENDBRANCH  54  58
ENDBRANCH  27  51
BRANCH  39  62
ATOM     62  C   UNL     1       6.767  12.085   6.502  1.00  0.00     0.023 A 
ATOM     63  C   UNL     1       5.782  13.091   6.474  1.00  0.00     0.031 A 
ATOM     64  C   UNL     1       8.058  12.427   6.933  1.00  0.00     0.131 A 
ATOM     65  C   UNL     1       6.123  14.408   6.794  1.00  0.00     0.055 A 
ATOM     66  C   UNL     1       8.374  13.727   7.325  1.00  0.00     0.041 A 
ATOM     67  F   UNL     1       9.037  11.507   6.955  1.00  0.00    -0.206 F 
ATOM     68  C   UNL     1       7.411  14.729   7.233  1.00  0.00     0.022 A 
BRANCH  65  69
ATOM     69  S   UNL     1       4.956  15.764   6.495  1.00  0.00     0.124 S 
ATOM     70  O   UNL     1       4.704  16.247   7.850  1.00  0.00    -0.237 OA
ATOM     71  O   UNL     1       5.737  16.661   5.646  1.00  0.00    -0.237 OA
ATOM     72  O   UNL     1       3.823  15.117   5.842  1.00  0.00    -0.744 OA
ENDBRANCH  65  69
ENDBRANCH  39  62
ENDBRANCH  13  14
ENDBRANCH   6   8
ENDBRANCH   5   6
ENDBRANCH   4   5
ENDBRANCH   3   4
ENDBRANCH   2   3
ENDBRANCH   1   2
BRANCH   1  73
ATOM     73  C   UNL     1       2.432   1.028  -2.897  1.00  0.00     0.188 C 
BRANCH  73  74
ATOM     74  O   UNL     1       3.366   0.301  -3.683  1.00  0.00    -0.376 OA
BRANCH  74  75
ATOM     75  C   UNL     1       4.284   1.075  -4.454  1.00  0.00     0.202 C 
BRANCH  75  76
ATOM     76  C   UNL     1       5.125   2.206  -3.807  1.00  0.00     0.261 C 
BRANCH  76  77
ATOM     77  O   UNL     1       4.386   3.010  -2.878  1.00  0.00    -0.459 OA
BRANCH  77  78
ATOM     78  C   UNL     1       4.302   4.358  -3.029  1.00  0.00     0.365 C 
ATOM     79  O   UNL     1       4.949   5.019  -3.841  1.00  0.00    -0.245 OA
BRANCH  78  80
ATOM     80  C   UNL     1       3.096   4.862  -2.224  1.00  0.00     0.298 C 
ATOM     81  C   UNL     1       3.353   5.887  -1.069  1.00  0.00     0.111 C 
ATOM     82  N   UNL     1       1.992   5.182  -3.195  1.00  0.00    -0.326 N 
ATOM     83  C   UNL     1       2.049   6.188  -0.373  1.00  0.00    -0.024 C 
ATOM     84  C   UNL     1       1.084   6.267  -2.695  1.00  0.00     0.243 C 
ATOM     85  H   UNL     1       1.440   4.339  -3.352  1.00  0.00     0.347 HD
ATOM     86  H   UNL     1       2.425   5.512  -4.058  1.00  0.00     0.347 HD
ATOM     87  C   UNL     1       1.631   6.630   0.810  1.00  0.00     0.002 A 
ATOM     88  C   UNL     1       0.865   5.835  -1.213  1.00  0.00     0.196 C 
ATOM     89  C   UNL     1       2.117   7.242   2.007  1.00  0.00     0.010 A 
ATOM     90  C   UNL     1       0.194   6.261   0.743  1.00  0.00     0.066 A 
ATOM     91  N   UNL     1      -0.359   6.141  -0.435  1.00  0.00    -0.270 NA
ATOM     92  C   UNL     1       1.380   7.129   3.129  1.00  0.00     0.001 A 
ATOM     93  C   UNL     1      -0.416   5.885   2.045  1.00  0.00     0.028 A 
ATOM     94  C   UNL     1       0.220   6.255   3.170  1.00  0.00     0.002 A 
BRANCH  84  95
ATOM     95  C   UNL     1       1.605   7.671  -3.101  1.00  0.00     0.012 A 
ATOM     96  C   UNL     1       1.083   8.840  -2.530  1.00  0.00     0.010 A 
ATOM     97  C   UNL     1       2.542   7.859  -4.154  1.00  0.00     0.010 A 
ATOM     98  C   UNL     1       1.450  10.112  -3.013  1.00  0.00     0.001 A 
ATOM     99  C   UNL     1       2.930   9.122  -4.612  1.00  0.00     0.001 A 
ATOM    100  C   UNL     1       2.371  10.254  -4.050  1.00  0.00     0.000 A 
ENDBRANCH  84  95
ENDBRANCH  78  80
ENDBRANCH  77  78
ENDBRANCH  76  77
ENDBRANCH  75  76
ENDBRANCH  74  75
ENDBRANCH  73  74
ENDBRANCH   1  73
TORSDOF 21
