REMARK SMILES O=C(/C=C/c1cc(F)cc(C[N@@H+]2CCC[C@H]2CO)c1)OCCOCCOCCOC(=O)c1ccc(-c2c3nc(c(-c4cc(S(=O)(=O)[O-])ccc4F)c4ccc([nH]4)c(-c4cc(S(=O)(=O)[O-])ccc4F)c4nc(c(-c5cc(S(=O)(=O)[O-])ccc5F)c5ccc2[nH]5)C=C4)C=C3)cc1
REMARK SMILES IDX 24 1 23 2 22 3 21 4 20 5 2 6 1 7 3 8 4 9 5 10 6 11 19 12
REMARK SMILES IDX 7 13 10 14 8 15 9 16 11 17 12 18 13 19 16 20 14 22 15 23
REMARK SMILES IDX 17 24 18 25 25 27 26 28 27 29 28 30 29 31 30 32 31 33 32 34
REMARK SMILES IDX 33 35 94 36 34 37 93 38 35 39 36 40 37 41 87 42 38 43 92 44
REMARK SMILES IDX 86 45 88 46 39 47 91 48 85 49 84 50 40 52 72 53 52 54 71 55
REMARK SMILES IDX 53 56 56 57 70 58 89 59 54 60 55 61 69 63 90 64 57 65 41 66
REMARK SMILES IDX 42 67 50 68 43 69 49 70 51 71 48 72 44 73 45 74 46 75 47 76
REMARK SMILES IDX 73 77 74 78 82 79 75 80 81 81 83 82 80 83 76 84 77 85 78 86
REMARK SMILES IDX 79 87 58 88 59 89 67 90 60 91 66 92 68 93 65 94 61 95 62 96
REMARK SMILES IDX 63 97 64 98
REMARK H PARENT 12 21 18 26 88 51 56 62
REMARK Flexibility Score: inf
ROOT
ATOM      1  C   UNL     1       2.819   1.207   1.205  1.00  0.00     0.188 C 
ENDROOT
BRANCH   1   2
ATOM      2  O   UNL     1       4.211   0.975   1.120  1.00  0.00    -0.376 OA
BRANCH   2   3
ATOM      3  C   UNL     1       4.838   0.807  -0.140  1.00  0.00     0.202 C 
BRANCH   3   4
ATOM      4  C   UNL     1       4.055   0.557  -1.425  1.00  0.00     0.261 C 
BRANCH   4   5
ATOM      5  O   UNL     1       3.008  -0.436  -1.554  1.00  0.00    -0.460 OA
BRANCH   5   6
ATOM      6  C   UNL     1       2.622  -1.542  -0.900  1.00  0.00     0.330 C 
ATOM      7  O   UNL     1       1.613  -2.146  -1.251  1.00  0.00    -0.247 OA
BRANCH   6   8
ATOM      8  C   UNL     1       3.338  -2.001   0.286  1.00  0.00     0.094 C 
ATOM      9  C   UNL     1       4.635  -2.324   0.263  1.00  0.00     0.016 C 
BRANCH   9  10
ATOM     10  C   UNL     1       5.312  -2.881   1.433  1.00  0.00    -0.022 A 
ATOM     11  C   UNL     1       5.195  -4.243   1.700  1.00  0.00     0.047 A 
ATOM     12  C   UNL     1       6.145  -2.080   2.234  1.00  0.00     0.018 A 
ATOM     13  C   UNL     1       5.976  -4.804   2.698  1.00  0.00     0.124 A 
ATOM     14  C   UNL     1       6.942  -2.644   3.248  1.00  0.00     0.010 A 
ATOM     15  F   UNL     1       5.915  -6.123   2.917  1.00  0.00    -0.207 F 
ATOM     16  C   UNL     1       6.867  -4.031   3.437  1.00  0.00     0.048 A 
BRANCH  14  17
ATOM     17  C   UNL     1       7.962  -1.793   3.978  1.00  0.00     0.299 C 
BRANCH  17  18
ATOM     18  N   UNL     1       7.866  -1.590   5.426  1.00  0.00    -0.327 N 
ATOM     19  C   UNL     1       8.041  -2.773   6.264  1.00  0.00     0.263 C 
ATOM     20  C   UNL     1       6.657  -0.896   5.909  1.00  0.00     0.210 C 
ATOM     21  H   UNL     1       8.675  -0.979   5.537  1.00  0.00     0.348 HD
ATOM     22  C   UNL     1       6.653  -3.199   6.708  1.00  0.00     0.068 C 
ATOM     23  C   UNL     1       5.780  -1.964   6.556  1.00  0.00     0.073 C 
BRANCH  20  24
ATOM     24  C   UNL     1       7.081   0.176   6.939  1.00  0.00     0.220 C 
BRANCH  24  25
ATOM     25  O   UNL     1       7.750   1.250   6.276  1.00  0.00    -0.390 OA
ATOM     26  H   UNL     1       8.540   0.911   5.828  1.00  0.00     0.210 HD
ENDBRANCH  24  25
ENDBRANCH  20  24
ENDBRANCH  17  18
ENDBRANCH  14  17
ENDBRANCH   9  10
ENDBRANCH   6   8
ENDBRANCH   5   6
ENDBRANCH   4   5
ENDBRANCH   3   4
ENDBRANCH   2   3
ENDBRANCH   1   2
BRANCH   1  27
ATOM     27  C   UNL     1       2.293   2.643   1.085  1.00  0.00     0.188 C 
BRANCH  27  28
ATOM     28  O   UNL     1       3.161   3.656   0.611  1.00  0.00    -0.376 OA
BRANCH  28  29
ATOM     29  C   UNL     1       4.336   3.951   1.363  1.00  0.00     0.202 C 
BRANCH  29  30
ATOM     30  C   UNL     1       4.241   4.172   2.877  1.00  0.00     0.261 C 
BRANCH  30  31
ATOM     31  O   UNL     1       3.880   2.986   3.609  1.00  0.00    -0.460 OA
BRANCH  31  32
ATOM     32  C   UNL     1       2.786   3.130   4.396  1.00  0.00     0.338 C 
ATOM     33  O   UNL     1       2.086   4.123   4.496  1.00  0.00    -0.246 OA
BRANCH  32  34
ATOM     34  C   UNL     1       2.430   1.866   5.066  1.00  0.00     0.060 A 
ATOM     35  C   UNL     1       1.133   1.379   4.869  1.00  0.00     0.016 A 
ATOM     36  C   UNL     1       3.268   1.292   6.025  1.00  0.00     0.016 A 
ATOM     37  C   UNL     1       0.638   0.366   5.687  1.00  0.00     0.010 A 
ATOM     38  C   UNL     1       2.764   0.281   6.855  1.00  0.00     0.010 A 
ATOM     39  C   UNL     1       1.429  -0.146   6.725  1.00  0.00    -0.014 A 
BRANCH  39  40
ATOM     40  C   UNL     1       0.767  -0.936   7.796  1.00  0.00     0.031 A 
ATOM     41  C   UNL     1       0.321  -0.220   9.046  1.00  0.00     0.074 A 
ATOM     42  C   UNL     1       0.472  -2.237   7.625  1.00  0.00     0.049 A 
ATOM     43  N   UNL     1      -0.316  -0.689  10.088  1.00  0.00    -0.248 NA
ATOM     44  C   UNL     1       0.628   1.218   9.128  1.00  0.00     0.031 C 
ATOM     45  C   UNL     1       0.791  -3.027   6.437  1.00  0.00     0.029 A 
ATOM     46  N   UNL     1      -0.185  -3.118   8.449  1.00  0.00    -0.354 N 
ATOM     47  C   UNL     1      -0.494   0.395  10.942  1.00  0.00     0.074 A 
ATOM     48  C   UNL     1       0.134   1.536  10.316  1.00  0.00     0.031 C 
ATOM     49  C   UNL     1       0.317  -4.275   6.604  1.00  0.00     0.029 A 
ATOM     50  C   UNL     1      -0.315  -4.381   7.920  1.00  0.00     0.049 A 
ATOM     51  H   UNL     1      -0.531  -2.869   9.336  1.00  0.00     0.167 HD
ATOM     52  C   UNL     1      -1.136   0.441  12.134  1.00  0.00     0.034 A 
ATOM     53  C   UNL     1      -0.870  -5.495   8.440  1.00  0.00     0.034 A 
ATOM     54  C   UNL     1      -1.770  -0.692  12.755  1.00  0.00     0.049 A 
ATOM     55  C   UNL     1      -1.490  -5.444   9.814  1.00  0.00     0.074 A 
ATOM     56  C   UNL     1      -2.458  -0.741  13.954  1.00  0.00     0.029 A 
ATOM     57  N   UNL     1      -1.787  -1.975  12.231  1.00  0.00    -0.354 N 
ATOM     58  N   UNL     1      -1.625  -4.417  10.619  1.00  0.00    -0.248 NA
ATOM     59  C   UNL     1      -2.026  -6.703  10.354  1.00  0.00     0.031 C 
ATOM     60  C   UNL     1      -2.844  -2.065  14.183  1.00  0.00     0.029 A 
ATOM     61  C   UNL     1      -2.444  -2.830  13.099  1.00  0.00     0.049 A 
ATOM     62  H   UNL     1      -1.392  -2.239  11.368  1.00  0.00     0.167 HD
ATOM     63  C   UNL     1      -2.271  -4.904  11.752  1.00  0.00     0.074 A 
ATOM     64  C   UNL     1      -2.502  -6.315  11.529  1.00  0.00     0.031 C 
ATOM     65  C   UNL     1      -2.646  -4.239  12.873  1.00  0.00     0.034 A 
BRANCH  52  66
ATOM     66  C   UNL     1      -1.155   1.756  12.863  1.00  0.00     0.023 A 
ATOM     67  C   UNL     1      -1.942   2.831  12.418  1.00  0.00     0.031 A 
ATOM     68  C   UNL     1      -0.387   1.926  14.027  1.00  0.00     0.131 A 
ATOM     69  C   UNL     1      -1.915   4.046  13.118  1.00  0.00     0.055 A 
ATOM     70  C   UNL     1      -0.407   3.120  14.749  1.00  0.00     0.041 A 
ATOM     71  F   UNL     1       0.394   0.933  14.480  1.00  0.00    -0.206 F 
ATOM     72  C   UNL     1      -1.170   4.191  14.292  1.00  0.00     0.022 A 
BRANCH  69  73
ATOM     73  S   UNL     1      -2.822   5.463  12.442  1.00  0.00     0.124 S 
ATOM     74  O   UNL     1      -2.064   5.745  11.226  1.00  0.00    -0.237 OA
ATOM     75  O   UNL     1      -4.162   4.922  12.247  1.00  0.00    -0.237 OA
ATOM     76  O   UNL     1      -2.707   6.475  13.491  1.00  0.00    -0.744 OA
ENDBRANCH  69  73
ENDBRANCH  52  66
BRANCH  53  77
ATOM     77  C   UNL     1      -0.823  -6.775   7.681  1.00  0.00     0.023 A 
ATOM     78  C   UNL     1      -1.988  -7.358   7.159  1.00  0.00     0.031 A 
ATOM     79  C   UNL     1       0.397  -7.449   7.495  1.00  0.00     0.131 A 
ATOM     80  C   UNL     1      -1.911  -8.592   6.494  1.00  0.00     0.055 A 
ATOM     81  C   UNL     1       0.473  -8.657   6.803  1.00  0.00     0.041 A 
ATOM     82  F   UNL     1       1.537  -6.930   7.979  1.00  0.00    -0.206 F 
ATOM     83  C   UNL     1      -0.687  -9.239   6.302  1.00  0.00     0.022 A 
BRANCH  80  84
ATOM     84  S   UNL     1      -3.443  -9.365   5.903  1.00  0.00     0.124 S 
ATOM     85  O   UNL     1      -4.131  -9.653   7.156  1.00  0.00    -0.237 OA
ATOM     86  O   UNL     1      -4.021  -8.308   5.080  1.00  0.00    -0.237 OA
ATOM     87  O   UNL     1      -2.970 -10.535   5.166  1.00  0.00    -0.744 OA
ENDBRANCH  80  84
ENDBRANCH  53  77
BRANCH  65  88
ATOM     88  C   UNL     1      -3.355  -5.018  13.946  1.00  0.00     0.023 A 
ATOM     89  C   UNL     1      -2.653  -5.877  14.807  1.00  0.00     0.031 A 
ATOM     90  C   UNL     1      -4.733  -4.838  14.156  1.00  0.00     0.131 A 
ATOM     91  C   UNL     1      -3.338  -6.539  15.837  1.00  0.00     0.055 A 
ATOM     92  C   UNL     1      -5.402  -5.471  15.204  1.00  0.00     0.041 A 
ATOM     93  F   UNL     1      -5.442  -4.019  13.363  1.00  0.00    -0.206 F 
ATOM     94  C   UNL     1      -4.704  -6.327  16.051  1.00  0.00     0.022 A 
BRANCH  91  95
ATOM     95  S   UNL     1      -2.421  -7.679  16.909  1.00  0.00     0.124 S 
ATOM     96  O   UNL     1      -2.133  -8.783  15.998  1.00  0.00    -0.237 OA
ATOM     97  O   UNL     1      -1.272  -6.878  17.321  1.00  0.00    -0.237 OA
ATOM     98  O   UNL     1      -3.372  -7.987  17.976  1.00  0.00    -0.744 OA
ENDBRANCH  91  95
ENDBRANCH  65  88
ENDBRANCH  39  40
ENDBRANCH  32  34
ENDBRANCH  31  32
ENDBRANCH  30  31
ENDBRANCH  29  30
ENDBRANCH  28  29
ENDBRANCH  27  28
ENDBRANCH   1  27
TORSDOF 25
