REMARK SMILES Cc1cccc(N2C(=O)/C(=C/c3ccc(C(=O)OCCOCCOCCOC(=O)c4ccc(-c5c6nc(c(-c7cc(S(=O)(=O)[O-])ccc7F)c7ccc([nH]7)c(-c7cc(S(=O)(=O)[O-])ccc7F)c7nc(c(-c8cc(S(=O)(=O)[O-])ccc8F)c8ccc5[nH]8)C=C7)C=C6)cc4)cc3)c3ccccc3C2=O)c1
REMARK SMILES IDX 23 1 22 2 21 3 20 4 19 5 18 6 16 7 17 8 15 9 12 10 13 11
REMARK SMILES IDX 94 12 14 13 93 14 11 15 7 16 8 17 101 18 9 19 10 20 100 21
REMARK SMILES IDX 102 22 95 23 99 24 96 25 98 26 97 27 6 28 1 29 2 30 3 31
REMARK SMILES IDX 103 32 4 33 5 34 24 35 25 36 26 37 27 38 28 39 29 40 30 41
REMARK SMILES IDX 31 42 92 43 32 44 91 45 33 46 34 47 35 48 85 49 36 50 90 51
REMARK SMILES IDX 84 52 86 53 37 54 89 55 83 56 82 57 38 59 70 60 50 61 69 62
REMARK SMILES IDX 51 63 54 64 68 65 87 66 52 67 53 68 67 70 88 71 55 72 39 73
REMARK SMILES IDX 40 74 48 75 41 76 47 77 49 78 46 79 42 80 43 81 44 82 45 83
REMARK SMILES IDX 71 84 72 85 80 86 73 87 79 88 81 89 78 90 74 91 75 92 76 93
REMARK SMILES IDX 77 94 56 95 57 96 65 97 58 98 64 99 66 100 63 101 59 102
REMARK SMILES IDX 60 103 61 104 62 105
REMARK H PARENT 86 58 54 69
REMARK Flexibility Score: inf
ROOT
ATOM      1  C   UNL     1      -3.474  15.432   2.032  1.00  0.00     0.188 C 
ENDROOT
BRANCH   1   2
ATOM      2  C   UNL     1      -4.246  15.131   0.750  1.00  0.00     0.188 C 
BRANCH   2   3
ATOM      3  O   UNL     1      -5.347  14.192   0.734  1.00  0.00    -0.376 OA
BRANCH   3   4
ATOM      4  C   UNL     1      -5.796  13.450   1.861  1.00  0.00     0.202 C 
BRANCH   4   5
ATOM      5  C   UNL     1      -6.188  11.848   1.854  1.00  0.00     0.261 C 
BRANCH   5   6
ATOM      6  O   UNL     1      -5.358  10.381   1.481  1.00  0.00    -0.460 OA
BRANCH   6   7
ATOM      7  C   UNL     1      -4.907   9.657   0.351  1.00  0.00     0.338 C 
ATOM      8  O   UNL     1      -5.060   9.867  -0.848  1.00  0.00    -0.246 OA
BRANCH   7   9
ATOM      9  C   UNL     1      -4.029   8.496   0.295  1.00  0.00     0.060 A 
ATOM     10  C   UNL     1      -2.458   6.444  -0.767  1.00  0.00    -0.025 A 
ATOM     11  C   UNL     1      -1.903   7.708  -0.631  1.00  0.00     0.009 A 
ATOM     12  C   UNL     1      -3.844   6.263  -0.652  1.00  0.00     0.009 A 
ATOM     13  C   UNL     1      -2.696   8.727  -0.118  1.00  0.00     0.016 A 
ATOM     14  C   UNL     1      -4.626   7.288  -0.113  1.00  0.00     0.016 A 
BRANCH  10  15
ATOM     15  C   UNL     1      -1.545   5.314  -0.624  1.00  0.00     0.022 C 
ATOM     16  N   UNL     1      -1.476   2.266   0.767  1.00  0.00    -0.242 N 
ATOM     17  C   UNL     1      -0.698   3.427   0.580  1.00  0.00     0.265 C 
ATOM     18  C   UNL     1      -2.821   2.356   1.240  1.00  0.00     0.265 C 
ATOM     19  O   UNL     1       0.513   3.563   0.442  1.00  0.00    -0.268 OA
ATOM     20  C   UNL     1      -1.520   4.644   0.550  1.00  0.00     0.049 C 
ATOM     21  C   UNL     1      -3.266   3.653   1.837  1.00  0.00     0.048 A 
ATOM     22  O   UNL     1      -3.664   1.461   1.265  1.00  0.00    -0.268 OA
ATOM     23  C   UNL     1      -2.493   4.786   1.629  1.00  0.00    -0.000 A 
ATOM     24  C   UNL     1      -4.454   3.760   2.573  1.00  0.00     0.014 A 
ATOM     25  C   UNL     1      -2.796   5.983   2.291  1.00  0.00     0.010 A 
ATOM     26  C   UNL     1      -4.824   4.986   3.136  1.00  0.00     0.001 A 
ATOM     27  C   UNL     1      -3.979   6.089   3.022  1.00  0.00     0.001 A 
BRANCH  16  28
ATOM     28  C   UNL     1      -0.883   0.968   0.457  1.00  0.00     0.053 A 
ATOM     29  C   UNL     1       2.601  -0.529  -0.120  1.00  0.00     0.044 C 
ATOM     30  C   UNL     1       1.109  -0.431   0.004  1.00  0.00    -0.049 A 
ATOM     31  C   UNL     1       0.305  -1.554  -0.149  1.00  0.00     0.003 A 
ATOM     32  C   UNL     1       0.509   0.801   0.316  1.00  0.00     0.030 A 
ATOM     33  C   UNL     1      -1.073  -1.431  -0.021  1.00  0.00     0.002 A 
ATOM     34  C   UNL     1      -1.654  -0.189   0.269  1.00  0.00     0.027 A 
ENDBRANCH  16  28
ENDBRANCH  10  15
ENDBRANCH   7   9
ENDBRANCH   6   7
ENDBRANCH   5   6
ENDBRANCH   4   5
ENDBRANCH   3   4
ENDBRANCH   2   3
ENDBRANCH   1   2
BRANCH   1  35
ATOM     35  O   UNL     1      -3.291  14.227   2.752  1.00  0.00    -0.376 OA
BRANCH  35  36
ATOM     36  C   UNL     1      -2.752  14.346   4.049  1.00  0.00     0.202 C 
BRANCH  36  37
ATOM     37  C   UNL     1      -1.225  14.259   3.998  1.00  0.00     0.261 C 
BRANCH  37  38
ATOM     38  O   UNL     1      -0.815  13.036   3.337  1.00  0.00    -0.460 OA
BRANCH  38  39
ATOM     39  C   UNL     1      -0.300  13.168   2.065  1.00  0.00     0.338 C 
ATOM     40  O   UNL     1       0.774  13.702   1.836  1.00  0.00    -0.246 OA
BRANCH  39  41
ATOM     41  C   UNL     1      -1.241  12.577   1.048  1.00  0.00     0.060 A 
ATOM     42  C   UNL     1      -1.367  12.917  -0.305  1.00  0.00     0.016 A 
ATOM     43  C   UNL     1      -2.257  11.835   1.546  1.00  0.00     0.016 A 
ATOM     44  C   UNL     1      -2.597  12.649  -1.072  1.00  0.00     0.010 A 
ATOM     45  C   UNL     1      -3.471  11.890   0.848  1.00  0.00     0.010 A 
ATOM     46  C   UNL     1      -3.800  12.201  -0.491  1.00  0.00    -0.014 A 
BRANCH  46  47
ATOM     47  C   UNL     1      -5.359  12.315  -1.175  1.00  0.00     0.031 A 
ATOM     48  C   UNL     1      -6.728  11.280  -1.257  1.00  0.00     0.074 A 
ATOM     49  C   UNL     1      -5.567  13.346  -2.027  1.00  0.00     0.049 A 
ATOM     50  N   UNL     1      -7.294  10.887  -2.392  1.00  0.00    -0.248 NA
ATOM     51  C   UNL     1      -7.441  10.520  -0.174  1.00  0.00     0.031 C 
ATOM     52  C   UNL     1      -6.812  13.705  -2.701  1.00  0.00     0.029 A 
ATOM     53  N   UNL     1      -4.623  14.191  -2.596  1.00  0.00    -0.354 N 
ATOM     54  C   UNL     1      -8.337   9.984  -2.109  1.00  0.00     0.074 A 
ATOM     55  C   UNL     1      -8.268   9.674  -0.747  1.00  0.00     0.031 C 
ATOM     56  C   UNL     1      -6.520  14.469  -3.763  1.00  0.00     0.029 A 
ATOM     57  C   UNL     1      -5.076  14.555  -3.862  1.00  0.00     0.049 A 
ATOM     58  H   UNL     1      -3.781  14.482  -2.178  1.00  0.00     0.167 HD
ATOM     59  C   UNL     1      -9.385   9.645  -2.904  1.00  0.00     0.034 A 
ATOM     60  C   UNL     1      -4.318  14.361  -4.975  1.00  0.00     0.034 A 
ATOM     61  C   UNL     1      -9.380  10.483  -4.056  1.00  0.00     0.049 A 
ATOM     62  C   UNL     1      -5.023  13.550  -6.035  1.00  0.00     0.074 A 
ATOM     63  C   UNL     1      -9.944  11.725  -4.276  1.00  0.00     0.029 A 
ATOM     64  N   UNL     1      -8.405  10.287  -5.004  1.00  0.00    -0.354 N 
ATOM     65  N   UNL     1      -6.106  12.853  -5.829  1.00  0.00    -0.248 NA
ATOM     66  C   UNL     1      -4.557  13.451  -7.413  1.00  0.00     0.031 C 
ATOM     67  C   UNL     1      -9.277  12.295  -5.383  1.00  0.00     0.029 A 
ATOM     68  C   UNL     1      -8.365  11.367  -5.852  1.00  0.00     0.049 A 
ATOM     69  H   UNL     1      -7.823   9.495  -5.065  1.00  0.00     0.167 HD
ATOM     70  C   UNL     1      -6.451  12.183  -6.978  1.00  0.00     0.074 A 
ATOM     71  C   UNL     1      -5.469  12.622  -7.949  1.00  0.00     0.031 C 
ATOM     72  C   UNL     1      -7.501  11.308  -7.008  1.00  0.00     0.034 A 
BRANCH  59  73
ATOM     73  C   UNL     1     -10.590   8.890  -2.356  1.00  0.00     0.023 A 
ATOM     74  C   UNL     1     -11.885   9.374  -2.610  1.00  0.00     0.031 A 
ATOM     75  C   UNL     1     -10.515   7.770  -1.494  1.00  0.00     0.131 A 
ATOM     76  C   UNL     1     -13.002   8.861  -1.922  1.00  0.00     0.055 A 
ATOM     77  C   UNL     1     -11.616   7.308  -0.753  1.00  0.00     0.041 A 
ATOM     78  F   UNL     1      -9.352   7.126  -1.292  1.00  0.00    -0.206 F 
ATOM     79  C   UNL     1     -12.867   7.872  -0.949  1.00  0.00     0.022 A 
BRANCH  76  80
ATOM     80  S   UNL     1     -14.647   9.510  -2.323  1.00  0.00     0.124 S 
ATOM     81  O   UNL     1     -14.494  10.935  -2.051  1.00  0.00    -0.237 OA
ATOM     82  O   UNL     1     -14.791   9.129  -3.723  1.00  0.00    -0.237 OA
ATOM     83  O   UNL     1     -15.529   8.799  -1.397  1.00  0.00    -0.744 OA
ENDBRANCH  76  80
ENDBRANCH  59  73
BRANCH  60  84
ATOM     84  C   UNL     1      -2.843  14.421  -4.738  1.00  0.00     0.023 A 
ATOM     85  C   UNL     1      -2.334  15.585  -4.115  1.00  0.00     0.031 A 
ATOM     86  C   UNL     1      -2.010  13.295  -4.785  1.00  0.00     0.131 A 
ATOM     87  C   UNL     1      -1.101  15.561  -3.448  1.00  0.00     0.055 A 
ATOM     88  C   UNL     1      -0.747  13.294  -4.171  1.00  0.00     0.041 A 
ATOM     89  F   UNL     1      -2.445  12.143  -5.316  1.00  0.00    -0.206 F 
ATOM     90  C   UNL     1      -0.300  14.419  -3.474  1.00  0.00     0.022 A 
BRANCH  87  91
ATOM     91  S   UNL     1      -0.686  16.919  -2.309  1.00  0.00     0.124 S 
ATOM     92  O   UNL     1       0.163  17.766  -3.139  1.00  0.00    -0.237 OA
ATOM     93  O   UNL     1      -1.992  17.473  -1.958  1.00  0.00    -0.237 OA
ATOM     94  O   UNL     1      -0.015  16.230  -1.210  1.00  0.00    -0.744 OA
ENDBRANCH  87  91
ENDBRANCH  60  84
BRANCH  72  95
ATOM     95  C   UNL     1      -7.870  10.316  -8.095  1.00  0.00     0.023 A 
ATOM     96  C   UNL     1      -7.050  10.038  -9.189  1.00  0.00     0.031 A 
ATOM     97  C   UNL     1      -9.061   9.538  -8.017  1.00  0.00     0.131 A 
ATOM     98  C   UNL     1      -7.433   9.100 -10.164  1.00  0.00     0.055 A 
ATOM     99  C   UNL     1      -9.391   8.537  -8.932  1.00  0.00     0.041 A 
ATOM    100  F   UNL     1      -9.968   9.708  -7.043  1.00  0.00    -0.206 F 
ATOM    101  C   UNL     1      -8.580   8.323 -10.029  1.00  0.00     0.022 A 
BRANCH  98 102
ATOM    102  S   UNL     1      -6.438   9.001 -11.671  1.00  0.00     0.124 S 
ATOM    103  O   UNL     1      -6.493  10.377 -12.157  1.00  0.00    -0.237 OA
ATOM    104  O   UNL     1      -5.144   8.560 -11.161  1.00  0.00    -0.237 OA
ATOM    105  O   UNL     1      -7.153   8.026 -12.492  1.00  0.00    -0.744 OA
ENDBRANCH  98 102
ENDBRANCH  72  95
ENDBRANCH  46  47
ENDBRANCH  39  41
ENDBRANCH  38  39
ENDBRANCH  37  38
ENDBRANCH  36  37
ENDBRANCH  35  36
ENDBRANCH   1  35
TORSDOF 22
