REMARK SMILES C[C@H](C(=O)OCCOCCOCCOC(=O)c1ccc(-c2c3nc(c(-c4cc(S(=O)(=O)[O-])ccc4F)c4ccc([nH]4)c(-c4cc(S(=O)(=O)[O-])ccc4F)c4nc(c(-c5cc(S(=O)(=O)[O-])ccc5F)c5ccc2[nH]5)C=C4)C=C3)cc1)[C@H](C)[NH+]1CCN(c2ccccc2Cl)CC1
REMARK SMILES IDX 9 1 8 2 7 3 6 4 5 5 3 6 4 7 2 8 1 9 80 10 81 11 82 12 83 13
REMARK SMILES IDX 94 14 84 16 93 17 85 18 86 19 87 20 91 21 88 22 90 23 92 24
REMARK SMILES IDX 89 25 10 26 11 27 12 28 13 29 14 30 15 31 16 32 17 33 18 34
REMARK SMILES IDX 79 35 19 36 78 37 20 38 21 39 22 40 72 41 23 42 77 43 71 44
REMARK SMILES IDX 73 45 24 46 76 47 70 48 69 49 25 51 57 52 37 53 56 54 38 55
REMARK SMILES IDX 41 56 55 57 74 58 39 59 40 60 54 62 75 63 42 64 26 65 27 66
REMARK SMILES IDX 35 67 28 68 34 69 36 70 33 71 29 72 30 73 31 74 32 75 58 76
REMARK SMILES IDX 59 77 67 78 60 79 66 80 68 81 65 82 61 83 62 84 63 85 64 86
REMARK SMILES IDX 43 87 44 88 52 89 45 90 51 91 53 92 50 93 46 94 47 95 48 96
REMARK SMILES IDX 49 97
REMARK H PARENT 82 15 73 50 41 61
REMARK Flexibility Score: inf
ROOT
ATOM      1  C   UNL     1       1.199  -2.688  -3.011  1.00  0.00     0.188 C 
ENDROOT
BRANCH   1   2
ATOM      2  O   UNL     1       0.845  -3.641  -3.981  1.00  0.00    -0.376 OA
BRANCH   2   3
ATOM      3  C   UNL     1      -0.418  -4.268  -3.993  1.00  0.00     0.202 C 
BRANCH   3   4
ATOM      4  C   UNL     1      -1.783  -3.742  -3.478  1.00  0.00     0.261 C 
BRANCH   4   5
ATOM      5  O   UNL     1      -1.960  -2.488  -2.809  1.00  0.00    -0.463 OA
BRANCH   5   6
ATOM      6  C   UNL     1      -1.567  -2.501  -1.514  1.00  0.00     0.314 C 
ATOM      7  O   UNL     1      -0.833  -3.380  -1.088  1.00  0.00    -0.252 OA
BRANCH   6   8
ATOM      8  C   UNL     1      -2.034  -1.322  -0.696  1.00  0.00     0.154 C 
ATOM      9  C   UNL     1      -3.531  -1.070  -0.878  1.00  0.00     0.026 C 
BRANCH   8  10
ATOM     10  C   UNL     1      -1.570  -1.431   0.804  1.00  0.00     0.195 C 
ATOM     11  C   UNL     1      -0.118  -0.902   0.909  1.00  0.00     0.076 C 
BRANCH  10  12
ATOM     12  N   UNL     1      -1.824  -2.629   1.627  1.00  0.00    -0.329 N 
ATOM     13  C   UNL     1      -2.994  -3.473   1.386  1.00  0.00     0.284 C 
ATOM     14  C   UNL     1      -0.713  -3.461   2.132  1.00  0.00     0.284 C 
ATOM     15  H   UNL     1      -2.068  -1.983   2.378  1.00  0.00     0.348 HD
ATOM     16  C   UNL     1      -2.768  -4.752   0.545  1.00  0.00     0.178 C 
ATOM     17  C   UNL     1      -0.344  -4.721   1.308  1.00  0.00     0.178 C 
ATOM     18  N   UNL     1      -1.543  -5.475   0.913  1.00  0.00    -0.359 N 
BRANCH  18  19
ATOM     19  C   UNL     1      -1.375  -6.711   0.289  1.00  0.00     0.056 A 
ATOM     20  C   UNL     1      -0.956  -6.804  -1.047  1.00  0.00     0.027 A 
ATOM     21  C   UNL     1      -1.725  -7.902   0.945  1.00  0.00     0.064 A 
ATOM     22  C   UNL     1      -0.971  -8.024  -1.735  1.00  0.00     0.002 A 
ATOM     23  C   UNL     1      -1.725  -9.125   0.269  1.00  0.00     0.023 A 
ATOM     24  Cl  UNL     1      -2.191  -7.892   2.612  1.00  0.00    -0.082 Cl
ATOM     25  C   UNL     1      -1.373  -9.183  -1.079  1.00  0.00     0.002 A 
ENDBRANCH  18  19
ENDBRANCH  10  12
ENDBRANCH   8  10
ENDBRANCH   6   8
ENDBRANCH   5   6
ENDBRANCH   4   5
ENDBRANCH   3   4
ENDBRANCH   2   3
ENDBRANCH   1   2
BRANCH   1  26
ATOM     26  C   UNL     1       0.660  -1.288  -3.322  1.00  0.00     0.188 C 
BRANCH  26  27
ATOM     27  O   UNL     1       0.062  -1.047  -4.581  1.00  0.00    -0.376 OA
BRANCH  27  28
ATOM     28  C   UNL     1       0.722  -1.474  -5.760  1.00  0.00     0.202 C 
BRANCH  28  29
ATOM     29  C   UNL     1       2.261  -1.510  -5.932  1.00  0.00     0.261 C 
BRANCH  29  30
ATOM     30  O   UNL     1       3.103  -1.438  -4.772  1.00  0.00    -0.460 OA
BRANCH  30  31
ATOM     31  C   UNL     1       3.432  -0.199  -4.329  1.00  0.00     0.338 C 
ATOM     32  O   UNL     1       3.110   0.857  -4.841  1.00  0.00    -0.246 OA
BRANCH  31  33
ATOM     33  C   UNL     1       4.044  -0.327  -2.976  1.00  0.00     0.060 A 
ATOM     34  C   UNL     1       3.418   0.300  -1.884  1.00  0.00     0.016 A 
ATOM     35  C   UNL     1       5.222  -1.048  -2.776  1.00  0.00     0.016 A 
ATOM     36  C   UNL     1       3.974   0.231  -0.605  1.00  0.00     0.010 A 
ATOM     37  C   UNL     1       5.805  -1.076  -1.501  1.00  0.00     0.010 A 
ATOM     38  C   UNL     1       5.204  -0.406  -0.416  1.00  0.00    -0.014 A 
BRANCH  38  39
ATOM     39  C   UNL     1       5.980  -0.148   0.827  1.00  0.00     0.031 A 
ATOM     40  C   UNL     1       7.042   0.921   0.781  1.00  0.00     0.074 A 
ATOM     41  C   UNL     1       5.742  -0.806   1.976  1.00  0.00     0.049 A 
ATOM     42  N   UNL     1       7.921   1.266   1.685  1.00  0.00    -0.248 NA
ATOM     43  C   UNL     1       7.119   1.701  -0.465  1.00  0.00     0.031 C 
ATOM     44  C   UNL     1       4.694  -1.802   2.182  1.00  0.00     0.029 A 
ATOM     45  N   UNL     1       6.385  -0.738   3.190  1.00  0.00    -0.354 N 
ATOM     46  C   UNL     1       8.665   2.294   1.113  1.00  0.00     0.074 A 
ATOM     47  C   UNL     1       8.156   2.488  -0.227  1.00  0.00     0.031 C 
ATOM     48  C   UNL     1       4.780  -2.270   3.441  1.00  0.00     0.029 A 
ATOM     49  C   UNL     1       5.918  -1.643   4.115  1.00  0.00     0.049 A 
ATOM     50  H   UNL     1       7.111  -0.101   3.380  1.00  0.00     0.167 HD
ATOM     51  C   UNL     1       9.678   3.014   1.657  1.00  0.00     0.034 A 
ATOM     52  C   UNL     1       6.379  -1.956   5.346  1.00  0.00     0.034 A 
ATOM     53  C   UNL     1      10.187   2.802   2.989  1.00  0.00     0.049 A 
ATOM     54  C   UNL     1       7.587  -1.222   5.891  1.00  0.00     0.074 A 
ATOM     55  C   UNL     1      11.209   3.474   3.637  1.00  0.00     0.029 A 
ATOM     56  N   UNL     1       9.725   1.837   3.875  1.00  0.00    -0.354 N 
ATOM     57  N   UNL     1       8.295  -0.263   5.338  1.00  0.00    -0.248 NA
ATOM     58  C   UNL     1       8.055  -1.613   7.229  1.00  0.00     0.031 C 
ATOM     59  C   UNL     1      11.421   2.862   4.876  1.00  0.00     0.029 A 
ATOM     60  C   UNL     1      10.466   1.872   5.047  1.00  0.00     0.049 A 
ATOM     61  H   UNL     1       8.979   1.219   3.697  1.00  0.00     0.167 HD
ATOM     62  C   UNL     1       9.264   0.088   6.278  1.00  0.00     0.074 A 
ATOM     63  C   UNL     1       9.042  -0.754   7.435  1.00  0.00     0.031 C 
ATOM     64  C   UNL     1      10.243   1.026   6.196  1.00  0.00     0.034 A 
BRANCH  51  65
ATOM     65  C   UNL     1      10.337   4.053   0.782  1.00  0.00     0.023 A 
ATOM     66  C   UNL     1       9.633   5.167   0.291  1.00  0.00     0.031 A 
ATOM     67  C   UNL     1      11.685   3.910   0.407  1.00  0.00     0.131 A 
ATOM     68  C   UNL     1      10.257   6.050  -0.603  1.00  0.00     0.055 A 
ATOM     69  C   UNL     1      12.325   4.841  -0.413  1.00  0.00     0.041 A 
ATOM     70  F   UNL     1      12.402   2.853   0.821  1.00  0.00    -0.206 F 
ATOM     71  C   UNL     1      11.606   5.911  -0.936  1.00  0.00     0.022 A 
BRANCH  68  72
ATOM     72  S   UNL     1       9.238   7.292  -1.446  1.00  0.00     0.124 S 
ATOM     73  O   UNL     1       8.244   6.454  -2.112  1.00  0.00    -0.237 OA
ATOM     74  O   UNL     1       8.750   8.105  -0.339  1.00  0.00    -0.237 OA
ATOM     75  O   UNL     1      10.181   7.957  -2.343  1.00  0.00    -0.744 OA
ENDBRANCH  68  72
ENDBRANCH  51  65
BRANCH  52  76
ATOM     76  C   UNL     1       5.748  -3.054   6.138  1.00  0.00     0.023 A 
ATOM     77  C   UNL     1       5.167  -2.809   7.393  1.00  0.00     0.031 A 
ATOM     78  C   UNL     1       5.786  -4.385   5.682  1.00  0.00     0.131 A 
ATOM     79  C   UNL     1       4.695  -3.880   8.169  1.00  0.00     0.055 A 
ATOM     80  C   UNL     1       5.257  -5.439   6.429  1.00  0.00     0.041 A 
ATOM     81  F   UNL     1       6.341  -4.681   4.496  1.00  0.00    -0.206 F 
ATOM     82  C   UNL     1       4.720  -5.191   7.688  1.00  0.00     0.022 A 
BRANCH  79  83
ATOM     83  S   UNL     1       4.146  -3.549   9.866  1.00  0.00     0.124 S 
ATOM     84  O   UNL     1       5.343  -2.960  10.454  1.00  0.00    -0.237 OA
ATOM     85  O   UNL     1       3.024  -2.642   9.650  1.00  0.00    -0.237 OA
ATOM     86  O   UNL     1       3.788  -4.872  10.373  1.00  0.00    -0.744 OA
ENDBRANCH  79  83
ENDBRANCH  52  76
BRANCH  64  87
ATOM     87  C   UNL     1      11.113   1.238   7.416  1.00  0.00     0.023 A 
ATOM     88  C   UNL     1      11.982   0.243   7.897  1.00  0.00     0.031 A 
ATOM     89  C   UNL     1      11.069   2.463   8.107  1.00  0.00     0.131 A 
ATOM     90  C   UNL     1      12.727   0.469   9.066  1.00  0.00     0.055 A 
ATOM     91  C   UNL     1      11.864   2.708   9.228  1.00  0.00     0.041 A 
ATOM     92  F   UNL     1      10.255   3.450   7.698  1.00  0.00    -0.206 F 
ATOM     93  C   UNL     1      12.689   1.702   9.722  1.00  0.00     0.022 A 
BRANCH  90  94
ATOM     94  S   UNL     1      13.671  -0.905   9.780  1.00  0.00     0.124 S 
ATOM     95  O   UNL     1      12.633  -1.908   9.992  1.00  0.00    -0.237 OA
ATOM     96  O   UNL     1      14.638  -1.200   8.727  1.00  0.00    -0.237 OA
ATOM     97  O   UNL     1      14.240  -0.334  11.000  1.00  0.00    -0.744 OA
ENDBRANCH  90  94
ENDBRANCH  64  87
ENDBRANCH  38  39
ENDBRANCH  31  33
ENDBRANCH  30  31
ENDBRANCH  29  30
ENDBRANCH  28  29
ENDBRANCH  27  28
ENDBRANCH  26  27
ENDBRANCH   1  26
TORSDOF 23
