REMARK SMILES O=C1O[C@@H](c2ccc(O)c(O)c2)[C@H](C(=O)OCCOCCOCCOC(=O)c2ccc(-c3c4nc(c(-c5cc(S(=O)(=O)[O-])ccc5F)c5ccc([nH]5)c(-c5cc(S(=O)(=O)[O-])ccc5F)c5nc(c(-c6cc(S(=O)(=O)[O-])ccc6F)c6ccc3[nH]6)C=C5)C=C4)cc2)/C1=C\c1ccc(O)c(O)c1
REMARK SMILES IDX 21 1 20 2 19 3 18 4 17 5 16 6 14 7 15 8 13 9 1 10 2 11 3 12
REMARK SMILES IDX 91 13 4 14 92 15 5 16 6 17 12 18 7 19 10 20 8 21 11 22 9 24
REMARK SMILES IDX 93 26 94 27 100 28 95 29 98 30 96 31 99 32 97 34 22 36 23 37
REMARK SMILES IDX 24 38 25 39 26 40 27 41 28 42 29 43 90 44 30 45 89 46 31 47
REMARK SMILES IDX 32 48 33 49 83 50 34 51 88 52 82 53 84 54 35 55 87 56 81 57
REMARK SMILES IDX 80 58 36 60 68 61 48 62 67 63 49 64 52 65 66 66 85 67 50 68
REMARK SMILES IDX 51 69 65 71 86 72 53 73 37 74 38 75 46 76 39 77 45 78 47 79
REMARK SMILES IDX 44 80 40 81 41 82 42 83 43 84 69 85 70 86 78 87 71 88 77 89
REMARK SMILES IDX 79 90 76 91 72 92 73 93 74 94 75 95 54 96 55 97 63 98 56 99
REMARK SMILES IDX 62 100 64 101 61 102 57 103 58 104 59 105 60 106
REMARK H PARENT 11 23 9 25 99 33 97 35 84 59 52 70
REMARK Flexibility Score: inf
ROOT
ATOM      1  C   UNL     1       3.112   3.381   1.500  1.00  0.00     0.188 C 
ENDROOT
BRANCH   1   2
ATOM      2  C   UNL     1       1.943   3.364   2.518  1.00  0.00     0.188 C 
BRANCH   2   3
ATOM      3  O   UNL     1       2.232   3.352   3.890  1.00  0.00    -0.376 OA
BRANCH   3   4
ATOM      4  C   UNL     1       2.811   2.213   4.476  1.00  0.00     0.202 C 
BRANCH   4   5
ATOM      5  C   UNL     1       2.812   0.815   3.827  1.00  0.00     0.261 C 
BRANCH   5   6
ATOM      6  O   UNL     1       2.598   0.730   2.408  1.00  0.00    -0.463 OA
BRANCH   6   7
ATOM      7  C   UNL     1       1.356   0.328   1.992  1.00  0.00     0.317 C 
ATOM      8  O   UNL     1       0.482  -0.087   2.738  1.00  0.00    -0.251 OA
BRANCH   7   9
ATOM      9  C   UNL     1       1.223   0.510   0.477  1.00  0.00     0.182 C 
ATOM     10  O   UNL     1      -1.791  -1.172  -0.212  1.00  0.00    -0.247 OA
ATOM     11  C   UNL     1      -0.644  -0.781  -0.131  1.00  0.00     0.335 C 
ATOM     12  O   UNL     1       0.464  -1.581  -0.181  1.00  0.00    -0.453 OA
ATOM     13  C   UNL     1      -0.191   0.626   0.036  1.00  0.00     0.056 C 
ATOM     14  C   UNL     1       1.662  -0.787  -0.166  1.00  0.00     0.226 C 
ATOM     15  C   UNL     1      -0.969   1.678  -0.293  1.00  0.00     0.020 C 
BRANCH  14  16
ATOM     16  C   UNL     1       2.279  -0.655  -1.556  1.00  0.00    -0.002 A 
ATOM     17  C   UNL     1       3.371   0.209  -1.792  1.00  0.00     0.012 A 
ATOM     18  C   UNL     1       1.829  -1.458  -2.617  1.00  0.00     0.057 A 
ATOM     19  C   UNL     1       3.980   0.282  -3.054  1.00  0.00     0.050 A 
ATOM     20  C   UNL     1       2.446  -1.388  -3.859  1.00  0.00     0.157 A 
ATOM     21  C   UNL     1       3.513  -0.526  -4.081  1.00  0.00     0.157 A 
BRANCH  20  22
ATOM     22  O   UNL     1       1.998  -2.194  -4.865  1.00  0.00    -0.504 OA
ATOM     23  H   UNL     1       2.403  -2.159  -5.710  1.00  0.00     0.293 HD
ENDBRANCH  20  22
BRANCH  21  24
ATOM     24  O   UNL     1       4.080  -0.524  -5.325  1.00  0.00    -0.504 OA
ATOM     25  H   UNL     1       4.801   0.044  -5.511  1.00  0.00     0.293 HD
ENDBRANCH  21  24
ENDBRANCH  14  16
BRANCH  15  26
ATOM     26  C   UNL     1      -0.644   3.129  -0.272  1.00  0.00    -0.021 A 
ATOM     27  C   UNL     1       0.014   3.899  -1.729  1.00  0.00     0.012 A 
ATOM     28  C   UNL     1      -1.050   4.033   1.170  1.00  0.00     0.058 A 
ATOM     29  C   UNL     1       0.345   5.634  -1.872  1.00  0.00     0.051 A 
ATOM     30  C   UNL     1      -0.778   5.818   1.210  1.00  0.00     0.157 A 
ATOM     31  C   UNL     1      -0.008   6.705  -0.453  1.00  0.00     0.157 A 
BRANCH  30  32
ATOM     32  O   UNL     1      -1.122   6.197   2.514  1.00  0.00    -0.504 OA
ATOM     33  H   UNL     1      -1.060   7.095   2.773  1.00  0.00     0.293 HD
ENDBRANCH  30  32
BRANCH  31  34
ATOM     34  O   UNL     1       0.476   7.977  -0.763  1.00  0.00    -0.504 OA
ATOM     35  H   UNL     1       0.791   8.161  -1.627  1.00  0.00     0.293 HD
ENDBRANCH  31  34
ENDBRANCH  15  26
ENDBRANCH   7   9
ENDBRANCH   6   7
ENDBRANCH   5   6
ENDBRANCH   4   5
ENDBRANCH   3   4
ENDBRANCH   2   3
ENDBRANCH   1   2
BRANCH   1  36
ATOM     36  O   UNL     1       4.414   3.156   1.975  1.00  0.00    -0.376 OA
BRANCH  36  37
ATOM     37  C   UNL     1       5.023   4.204   2.710  1.00  0.00     0.202 C 
BRANCH  37  38
ATOM     38  C   UNL     1       4.540   5.674   2.709  1.00  0.00     0.261 C 
BRANCH  38  39
ATOM     39  O   UNL     1       3.133   5.907   2.559  1.00  0.00    -0.460 OA
BRANCH  39  40
ATOM     40  C   UNL     1       2.758   6.456   1.377  1.00  0.00     0.338 C 
ATOM     41  O   UNL     1       3.486   6.854   0.483  1.00  0.00    -0.246 OA
BRANCH  40  42
ATOM     42  C   UNL     1       1.308   6.340   1.195  1.00  0.00     0.060 A 
ATOM     43  C   UNL     1       0.582   5.030   0.164  1.00  0.00     0.016 A 
ATOM     44  C   UNL     1       0.359   7.769   1.551  1.00  0.00     0.016 A 
ATOM     45  C   UNL     1      -1.297   5.321  -0.541  1.00  0.00     0.010 A 
ATOM     46  C   UNL     1      -1.280   8.018   0.921  1.00  0.00     0.010 A 
ATOM     47  C   UNL     1      -2.122   6.864  -0.110  1.00  0.00    -0.014 A 
BRANCH  47  48
ATOM     48  C   UNL     1      -3.440   7.212  -0.648  1.00  0.00     0.031 A 
ATOM     49  C   UNL     1      -3.604   8.452  -1.471  1.00  0.00     0.074 A 
ATOM     50  C   UNL     1      -4.471   6.419  -0.320  1.00  0.00     0.049 A 
ATOM     51  N   UNL     1      -4.692   8.974  -1.969  1.00  0.00    -0.248 NA
ATOM     52  C   UNL     1      -2.393   9.233  -1.755  1.00  0.00     0.031 C 
ATOM     53  C   UNL     1      -4.376   5.228   0.524  1.00  0.00     0.029 A 
ATOM     54  N   UNL     1      -5.797   6.491  -0.634  1.00  0.00    -0.354 N 
ATOM     55  C   UNL     1      -4.290  10.140  -2.614  1.00  0.00     0.074 A 
ATOM     56  C   UNL     1      -2.874  10.286  -2.392  1.00  0.00     0.031 C 
ATOM     57  C   UNL     1      -5.579   4.651   0.622  1.00  0.00     0.029 A 
ATOM     58  C   UNL     1      -6.545   5.479  -0.079  1.00  0.00     0.049 A 
ATOM     59  H   UNL     1      -6.180   7.198  -1.202  1.00  0.00     0.167 HD
ATOM     60  C   UNL     1      -5.046  11.001  -3.335  1.00  0.00     0.034 A 
ATOM     61  C   UNL     1      -7.871   5.270  -0.108  1.00  0.00     0.034 A 
ATOM     62  C   UNL     1      -6.466  10.825  -3.489  1.00  0.00     0.049 A 
ATOM     63  C   UNL     1      -8.699   6.267  -0.869  1.00  0.00     0.074 A 
ATOM     64  C   UNL     1      -7.365  11.605  -4.189  1.00  0.00     0.029 A 
ATOM     65  N   UNL     1      -7.196   9.792  -2.906  1.00  0.00    -0.354 N 
ATOM     66  N   UNL     1      -8.303   7.350  -1.503  1.00  0.00    -0.248 NA
ATOM     67  C   UNL     1     -10.138   6.017  -0.928  1.00  0.00     0.031 C 
ATOM     68  C   UNL     1      -8.646  11.096  -3.954  1.00  0.00     0.029 A 
ATOM     69  C   UNL     1      -8.539   9.935  -3.200  1.00  0.00     0.049 A 
ATOM     70  H   UNL     1      -6.812   9.066  -2.363  1.00  0.00     0.167 HD
ATOM     71  C   UNL     1      -9.448   7.897  -2.066  1.00  0.00     0.074 A 
ATOM     72  C   UNL     1     -10.539   7.007  -1.710  1.00  0.00     0.031 C 
ATOM     73  C   UNL     1      -9.592   9.026  -2.808  1.00  0.00     0.034 A 
BRANCH  60  74
ATOM     74  C   UNL     1      -4.357  12.205  -3.935  1.00  0.00     0.023 A 
ATOM     75  C   UNL     1      -3.305  12.073  -4.861  1.00  0.00     0.031 A 
ATOM     76  C   UNL     1      -4.713  13.504  -3.533  1.00  0.00     0.131 A 
ATOM     77  C   UNL     1      -2.596  13.207  -5.287  1.00  0.00     0.055 A 
ATOM     78  C   UNL     1      -4.064  14.636  -4.033  1.00  0.00     0.041 A 
ATOM     79  F   UNL     1      -5.682  13.698  -2.624  1.00  0.00    -0.206 F 
ATOM     80  C   UNL     1      -2.988  14.491  -4.904  1.00  0.00     0.022 A 
BRANCH  77  81
ATOM     81  S   UNL     1      -1.052  12.968  -6.211  1.00  0.00     0.124 S 
ATOM     82  O   UNL     1      -0.259  12.184  -5.266  1.00  0.00    -0.237 OA
ATOM     83  O   UNL     1      -1.501  12.261  -7.405  1.00  0.00    -0.237 OA
ATOM     84  O   UNL     1      -0.571  14.330  -6.436  1.00  0.00    -0.744 OA
ENDBRANCH  77  81
ENDBRANCH  60  74
BRANCH  61  85
ATOM     85  C   UNL     1      -8.471   4.105   0.600  1.00  0.00     0.023 A 
ATOM     86  C   UNL     1      -9.177   3.119  -0.104  1.00  0.00     0.031 A 
ATOM     87  C   UNL     1      -8.359   3.961   1.996  1.00  0.00     0.131 A 
ATOM     88  C   UNL     1      -9.789   2.065   0.591  1.00  0.00     0.055 A 
ATOM     89  C   UNL     1      -8.905   2.870   2.675  1.00  0.00     0.041 A 
ATOM     90  F   UNL     1      -7.692   4.872   2.723  1.00  0.00    -0.206 F 
ATOM     91  C   UNL     1      -9.640   1.922   1.972  1.00  0.00     0.022 A 
BRANCH  88  92
ATOM     92  S   UNL     1     -10.890   0.955  -0.325  1.00  0.00     0.124 S 
ATOM     93  O   UNL     1     -11.831   1.898  -0.919  1.00  0.00    -0.237 OA
ATOM     94  O   UNL     1      -9.967   0.303  -1.247  1.00  0.00    -0.237 OA
ATOM     95  O   UNL     1     -11.445   0.093   0.717  1.00  0.00    -0.744 OA
ENDBRANCH  88  92
ENDBRANCH  61  85
BRANCH  73  96
ATOM     96  C   UNL     1     -10.979   9.313  -3.316  1.00  0.00     0.023 A 
ATOM     97  C   UNL     1     -12.042   9.580  -2.440  1.00  0.00     0.031 A 
ATOM     98  C   UNL     1     -11.240   9.287  -4.697  1.00  0.00     0.131 A 
ATOM     99  C   UNL     1     -13.337   9.719  -2.950  1.00  0.00     0.055 A 
ATOM    100  C   UNL     1     -12.514   9.525  -5.204  1.00  0.00     0.041 A 
ATOM    101  F   UNL     1     -10.257   9.028  -5.575  1.00  0.00    -0.206 F 
ATOM    102  C   UNL     1     -13.577   9.722  -4.327  1.00  0.00     0.022 A 
BRANCH  99 103
ATOM    103  S   UNL     1     -14.721   9.734  -1.781  1.00  0.00     0.124 S 
ATOM    104  O   UNL     1     -14.532   8.468  -1.079  1.00  0.00    -0.237 OA
ATOM    105  O   UNL     1     -14.460  10.940  -1.002  1.00  0.00    -0.237 OA
ATOM    106  O   UNL     1     -15.897   9.795  -2.646  1.00  0.00    -0.744 OA
ENDBRANCH  99 103
ENDBRANCH  73  96
ENDBRANCH  47  48
ENDBRANCH  40  42
ENDBRANCH  39  40
ENDBRANCH  38  39
ENDBRANCH  37  38
ENDBRANCH  36  37
ENDBRANCH   1  36
TORSDOF 26
