REMARK SMILES O=C(CCC(=O)N1CCC[C@@]2(CCC(=O)N(Cc3ccncc3)C2)C1)OCCOCCOCCOC(=O)c1ccc(-c2c3nc(c(-c4cc(S(=O)(=O)[O-])ccc4F)c4ccc([nH]4)c(-c4cc(S(=O)(=O)[O-])ccc4F)c4nc(c(-c5cc(S(=O)(=O)[O-])ccc5F)c5ccc2[nH]5)C=C4)C=C3)cc1
REMARK SMILES IDX 30 1 29 2 28 3 27 4 26 5 2 6 1 7 3 8 4 9 5 10 6 11 7 12 8 13
REMARK SMILES IDX 25 14 9 15 11 16 10 17 12 18 24 19 13 20 16 21 14 22 15 23
REMARK SMILES IDX 17 24 18 25 19 26 23 27 20 28 22 29 21 30 31 31 32 32 33 33
REMARK SMILES IDX 34 34 35 35 36 36 37 37 38 38 39 39 100 40 40 41 99 42 41 43
REMARK SMILES IDX 42 44 43 45 93 46 44 47 98 48 92 49 94 50 45 51 97 52 91 53
REMARK SMILES IDX 90 54 46 56 78 57 58 58 77 59 59 60 62 61 76 62 95 63 60 64
REMARK SMILES IDX 61 65 75 67 96 68 63 69 47 70 48 71 56 72 49 73 55 74 57 75
REMARK SMILES IDX 54 76 50 77 51 78 52 79 53 80 79 81 80 82 88 83 81 84 87 85
REMARK SMILES IDX 89 86 86 87 82 88 83 89 84 90 85 91 64 92 65 93 73 94 66 95
REMARK SMILES IDX 72 96 74 97 71 98 67 99 68 100 69 101 70 102
REMARK H PARENT 94 55 62 66
REMARK Flexibility Score: inf
ROOT
ATOM      1  C   UNL     1       3.164   2.589   1.151  1.00  0.00     0.188 C 
ENDROOT
BRANCH   1   2
ATOM      2  O   UNL     1       4.492   2.927   1.520  1.00  0.00    -0.376 OA
BRANCH   2   3
ATOM      3  C   UNL     1       5.567   2.113   1.087  1.00  0.00     0.202 C 
BRANCH   3   4
ATOM      4  C   UNL     1       5.407   0.597   1.003  1.00  0.00     0.261 C 
BRANCH   4   5
ATOM      5  O   UNL     1       4.087   0.209   0.597  1.00  0.00    -0.463 OA
BRANCH   5   6
ATOM      6  C   UNL     1       3.286  -0.702   1.187  1.00  0.00     0.306 C 
ATOM      7  O   UNL     1       2.086  -0.744   0.923  1.00  0.00    -0.252 OA
BRANCH   6   8
ATOM      8  C   UNL     1       3.925  -1.738   2.052  1.00  0.00     0.132 C 
BRANCH   8   9
ATOM      9  C   UNL     1       4.608  -2.841   1.247  1.00  0.00     0.112 C 
BRANCH   9  10
ATOM     10  C   UNL     1       5.087  -2.398  -0.138  1.00  0.00     0.223 C 
ATOM     11  O   UNL     1       6.243  -2.000  -0.287  1.00  0.00    -0.275 OA
BRANCH  10  12
ATOM     12  N   UNL     1       4.135  -2.318  -1.145  1.00  0.00    -0.342 N 
ATOM     13  C   UNL     1       4.080  -1.108  -1.994  1.00  0.00     0.119 C 
ATOM     14  C   UNL     1       3.046  -3.281  -1.244  1.00  0.00     0.128 C 
ATOM     15  C   UNL     1       3.428  -1.248  -3.364  1.00  0.00     0.022 C 
ATOM     16  C   UNL     1       2.744  -3.580  -2.715  1.00  0.00     0.006 C 
ATOM     17  C   UNL     1       2.285  -2.248  -3.351  1.00  0.00     0.012 C 
ATOM     18  C   UNL     1       3.985  -4.200  -3.397  1.00  0.00     0.020 C 
ATOM     19  C   UNL     1       1.652  -4.638  -2.836  1.00  0.00     0.128 C 
ATOM     20  C   UNL     1       3.731  -4.497  -4.862  1.00  0.00     0.101 C 
ATOM     21  N   UNL     1       1.359  -4.902  -4.239  1.00  0.00    -0.338 N 
ATOM     22  C   UNL     1       2.351  -5.029  -5.204  1.00  0.00     0.222 C 
ATOM     23  O   UNL     1       2.127  -5.410  -6.353  1.00  0.00    -0.275 OA
BRANCH  21  24
ATOM     24  C   UNL     1      -0.032  -4.908  -4.661  1.00  0.00     0.155 C 
BRANCH  24  25
ATOM     25  C   UNL     1      -0.516  -6.254  -5.113  1.00  0.00    -0.026 A 
ATOM     26  C   UNL     1      -0.498  -7.362  -4.265  1.00  0.00     0.025 A 
ATOM     27  C   UNL     1      -0.982  -6.418  -6.420  1.00  0.00     0.025 A 
ATOM     28  C   UNL     1      -0.935  -8.578  -4.764  1.00  0.00     0.111 A 
ATOM     29  C   UNL     1      -1.396  -7.673  -6.824  1.00  0.00     0.111 A 
ATOM     30  N   UNL     1      -1.390  -8.760  -6.023  1.00  0.00    -0.265 NA
ENDBRANCH  24  25
ENDBRANCH  21  24
ENDBRANCH  10  12
ENDBRANCH   9  10
ENDBRANCH   8   9
ENDBRANCH   6   8
ENDBRANCH   5   6
ENDBRANCH   4   5
ENDBRANCH   3   4
ENDBRANCH   2   3
ENDBRANCH   1   2
BRANCH   1  31
ATOM     31  C   UNL     1       2.687   2.688  -0.318  1.00  0.00     0.188 C 
BRANCH  31  32
ATOM     32  O   UNL     1       3.624   2.480  -1.361  1.00  0.00    -0.376 OA
BRANCH  32  33
ATOM     33  C   UNL     1       4.457   3.553  -1.794  1.00  0.00     0.202 C 
BRANCH  33  34
ATOM     34  C   UNL     1       4.175   5.028  -1.459  1.00  0.00     0.261 C 
BRANCH  34  35
ATOM     35  O   UNL     1       3.937   5.276  -0.066  1.00  0.00    -0.460 OA
BRANCH  35  36
ATOM     36  C   UNL     1       2.785   5.959   0.208  1.00  0.00     0.338 C 
ATOM     37  O   UNL     1       2.054   6.482  -0.599  1.00  0.00    -0.246 OA
BRANCH  36  38
ATOM     38  C   UNL     1       2.402   5.732   1.627  1.00  0.00     0.060 A 
ATOM     39  C   UNL     1       1.086   5.305   1.875  1.00  0.00     0.016 A 
ATOM     40  C   UNL     1       3.320   5.816   2.678  1.00  0.00     0.016 A 
ATOM     41  C   UNL     1       0.688   4.967   3.171  1.00  0.00     0.010 A 
ATOM     42  C   UNL     1       2.908   5.514   3.985  1.00  0.00     0.010 A 
ATOM     43  C   UNL     1       1.583   5.113   4.242  1.00  0.00    -0.014 A 
BRANCH  43  44
ATOM     44  C   UNL     1       1.034   5.178   5.623  1.00  0.00     0.031 A 
ATOM     45  C   UNL     1       0.518   6.520   6.074  1.00  0.00     0.074 A 
ATOM     46  C   UNL     1       0.944   4.111   6.440  1.00  0.00     0.049 A 
ATOM     47  N   UNL     1      -0.036   6.868   7.205  1.00  0.00    -0.248 NA
ATOM     48  C   UNL     1       0.646   7.619   5.102  1.00  0.00     0.031 C 
ATOM     49  C   UNL     1       1.364   2.750   6.117  1.00  0.00     0.029 A 
ATOM     50  N   UNL     1       0.460   4.015   7.725  1.00  0.00    -0.354 N 
ATOM     51  C   UNL     1      -0.350   8.216   7.067  1.00  0.00     0.074 A 
ATOM     52  C   UNL     1       0.127   8.634   5.768  1.00  0.00     0.031 C 
ATOM     53  C   UNL     1       1.131   1.957   7.181  1.00  0.00     0.029 A 
ATOM     54  C   UNL     1       0.566   2.755   8.271  1.00  0.00     0.049 A 
ATOM     55  H   UNL     1       0.073   4.779   8.211  1.00  0.00     0.167 HD
ATOM     56  C   UNL     1      -0.991   9.036   7.934  1.00  0.00     0.034 A 
ATOM     57  C   UNL     1       0.255   2.310   9.509  1.00  0.00     0.034 A 
ATOM     58  C   UNL     1      -1.408   8.637   9.251  1.00  0.00     0.049 A 
ATOM     59  C   UNL     1      -0.343   3.277  10.512  1.00  0.00     0.074 A 
ATOM     60  C   UNL     1      -2.025   9.398  10.227  1.00  0.00     0.029 A 
ATOM     61  N   UNL     1      -1.230   7.369   9.786  1.00  0.00    -0.354 N 
ATOM     62  N   UNL     1      -0.650   4.546  10.362  1.00  0.00    -0.248 NA
ATOM     63  C   UNL     1      -0.645   2.747  11.850  1.00  0.00     0.031 C 
ATOM     64  C   UNL     1      -2.159   8.609  11.375  1.00  0.00     0.029 A 
ATOM     65  C   UNL     1      -1.700   7.333  11.089  1.00  0.00     0.049 A 
ATOM     66  H   UNL     1      -0.828   6.606   9.310  1.00  0.00     0.167 HD
ATOM     67  C   UNL     1      -1.217   4.949  11.572  1.00  0.00     0.074 A 
ATOM     68  C   UNL     1      -1.221   3.787  12.434  1.00  0.00     0.031 C 
ATOM     69  C   UNL     1      -1.697   6.165  11.938  1.00  0.00     0.034 A 
BRANCH  56  70
ATOM     70  C   UNL     1      -1.215  10.455   7.481  1.00  0.00     0.023 A 
ATOM     71  C   UNL     1      -2.043  10.749   6.381  1.00  0.00     0.031 A 
ATOM     72  C   UNL     1      -0.542  11.518   8.104  1.00  0.00     0.131 A 
ATOM     73  C   UNL     1      -2.115  12.062   5.893  1.00  0.00     0.055 A 
ATOM     74  C   UNL     1      -0.683  12.835   7.664  1.00  0.00     0.041 A 
ATOM     75  F   UNL     1       0.286  11.291   9.136  1.00  0.00    -0.206 F 
ATOM     76  C   UNL     1      -1.461  13.111   6.543  1.00  0.00     0.022 A 
BRANCH  73  77
ATOM     77  S   UNL     1      -2.952  12.352   4.310  1.00  0.00     0.124 S 
ATOM     78  O   UNL     1      -2.164  11.519   3.404  1.00  0.00    -0.237 OA
ATOM     79  O   UNL     1      -4.309  11.894   4.581  1.00  0.00    -0.237 OA
ATOM     80  O   UNL     1      -2.807  13.792   4.106  1.00  0.00    -0.744 OA
ENDBRANCH  73  77
ENDBRANCH  56  70
BRANCH  57  81
ATOM     81  C   UNL     1       0.538   0.898   9.917  1.00  0.00     0.023 A 
ATOM     82  C   UNL     1      -0.492   0.033  10.328  1.00  0.00     0.031 A 
ATOM     83  C   UNL     1       1.861   0.430  10.010  1.00  0.00     0.131 A 
ATOM     84  C   UNL     1      -0.178  -1.226  10.868  1.00  0.00     0.055 A 
ATOM     85  C   UNL     1       2.163  -0.845  10.495  1.00  0.00     0.041 A 
ATOM     86  F   UNL     1       2.886   1.213   9.641  1.00  0.00    -0.206 F 
ATOM     87  C   UNL     1       1.141  -1.675  10.944  1.00  0.00     0.022 A 
BRANCH  84  88
ATOM     88  S   UNL     1      -1.515  -2.231  11.577  1.00  0.00     0.124 S 
ATOM     89  O   UNL     1      -2.058  -1.331  12.588  1.00  0.00    -0.237 OA
ATOM     90  O   UNL     1      -2.359  -2.475  10.412  1.00  0.00    -0.237 OA
ATOM     91  O   UNL     1      -0.818  -3.407  12.095  1.00  0.00    -0.744 OA
ENDBRANCH  84  88
ENDBRANCH  57  81
BRANCH  69  92
ATOM     92  C   UNL     1      -2.321   6.285  13.309  1.00  0.00     0.023 A 
ATOM     93  C   UNL     1      -1.565   6.147  14.486  1.00  0.00     0.031 A 
ATOM     94  C   UNL     1      -3.698   6.543  13.435  1.00  0.00     0.131 A 
ATOM     95  C   UNL     1      -2.200   6.213  15.736  1.00  0.00     0.055 A 
ATOM     96  C   UNL     1      -4.313   6.669  14.681  1.00  0.00     0.041 A 
ATOM     97  F   UNL     1      -4.470   6.685  12.345  1.00  0.00    -0.206 F 
ATOM     98  C   UNL     1      -3.566   6.490  15.841  1.00  0.00     0.022 A 
BRANCH  95  99
ATOM     99  S   UNL     1      -1.235   5.840  17.226  1.00  0.00     0.124 S 
ATOM    100  O   UNL     1      -0.742   4.496  16.941  1.00  0.00    -0.237 OA
ATOM    101  O   UNL     1      -0.233   6.901  17.222  1.00  0.00    -0.237 OA
ATOM    102  O   UNL     1      -2.220   5.924  18.303  1.00  0.00    -0.744 OA
ENDBRANCH  95  99
ENDBRANCH  69  92
ENDBRANCH  43  44
ENDBRANCH  36  38
ENDBRANCH  35  36
ENDBRANCH  34  35
ENDBRANCH  33  34
ENDBRANCH  32  33
ENDBRANCH  31  32
ENDBRANCH   1  31
TORSDOF 25
