REMARK SMILES O=C(CSc1ccc2ccccc2n1)NCc1ccc(C(=O)OCCOCCOCCOC(=O)c2ccc(-c3c4nc(c(-c5cc(S(=O)(=O)[O-])ccc5F)c5ccc([nH]5)c(-c5cc(S(=O)(=O)[O-])ccc5F)c5nc(c(-c6cc(S(=O)(=O)[O-])ccc6F)c6ccc3[nH]6)C=C5)C=C4)cc2)cc1
REMARK SMILES IDX 27 1 26 2 25 3 24 4 23 5 21 6 22 7 20 8 17 9 18 10 99 11
REMARK SMILES IDX 19 12 98 13 16 14 15 15 1 16 2 17 3 19 4 20 5 21 6 22 14 23
REMARK SMILES IDX 7 24 13 25 8 26 12 27 9 28 11 29 10 30 28 31 29 32 30 33
REMARK SMILES IDX 31 34 32 35 33 36 34 37 35 38 36 39 97 40 37 41 96 42 38 43
REMARK SMILES IDX 39 44 40 45 90 46 41 47 95 48 89 49 91 50 42 51 94 52 88 53
REMARK SMILES IDX 87 54 43 56 75 57 55 58 74 59 56 60 59 61 73 62 92 63 57 64
REMARK SMILES IDX 58 65 72 67 93 68 60 69 44 70 45 71 53 72 46 73 52 74 54 75
REMARK SMILES IDX 51 76 47 77 48 78 49 79 50 80 76 81 77 82 85 83 78 84 84 85
REMARK SMILES IDX 86 86 83 87 79 88 80 89 81 90 82 91 61 92 62 93 70 94 63 95
REMARK SMILES IDX 69 96 71 97 68 98 64 99 65 100 66 101 67 102
REMARK H PARENT 15 18 91 55 59 66
REMARK Flexibility Score: inf
ROOT
ATOM      1  C   UNL     1       1.749   7.466   3.727  1.00  0.00     0.188 C 
ENDROOT
BRANCH   1   2
ATOM      2  O   UNL     1       2.296   8.629   4.332  1.00  0.00    -0.376 OA
BRANCH   2   3
ATOM      3  C   UNL     1       3.006   9.576   3.550  1.00  0.00     0.202 C 
BRANCH   3   4
ATOM      4  C   UNL     1       4.077   9.142   2.536  1.00  0.00     0.261 C 
BRANCH   4   5
ATOM      5  O   UNL     1       3.717   8.039   1.695  1.00  0.00    -0.460 OA
BRANCH   5   6
ATOM      6  C   UNL     1       4.477   6.923   1.862  1.00  0.00     0.338 C 
ATOM      7  O   UNL     1       5.447   6.800   2.574  1.00  0.00    -0.246 OA
BRANCH   6   8
ATOM      8  C   UNL     1       3.848   5.780   1.161  1.00  0.00     0.060 A 
ATOM      9  C   UNL     1       2.758   3.513  -0.080  1.00  0.00    -0.029 A 
ATOM     10  C   UNL     1       3.141   3.471   1.269  1.00  0.00     0.006 A 
ATOM     11  C   UNL     1       2.863   4.729  -0.777  1.00  0.00     0.006 A 
ATOM     12  C   UNL     1       3.705   4.589   1.879  1.00  0.00     0.016 A 
ATOM     13  C   UNL     1       3.402   5.863  -0.159  1.00  0.00     0.016 A 
BRANCH   9  14
ATOM     14  C   UNL     1       2.191   2.288  -0.757  1.00  0.00     0.151 C 
BRANCH  14  15
ATOM     15  N   UNL     1       2.834   1.071  -0.308  1.00  0.00    -0.351 N 
ATOM     16  O   UNL     1       0.911  -0.163  -0.221  1.00  0.00    -0.274 OA
ATOM     17  C   UNL     1       2.128  -0.090  -0.077  1.00  0.00     0.230 C 
ATOM     18  H   UNL     1       3.808   1.073  -0.162  1.00  0.00     0.163 HD
BRANCH  17  19
ATOM     19  C   UNL     1       2.974  -1.279   0.348  1.00  0.00     0.176 C 
BRANCH  19  20
ATOM     20  S   UNL     1       4.194  -1.708  -0.941  1.00  0.00    -0.096 SA
BRANCH  20  21
ATOM     21  C   UNL     1       3.099  -2.252  -2.237  1.00  0.00     0.097 A 
ATOM     22  C   UNL     1       2.404  -1.330  -3.006  1.00  0.00     0.036 A 
ATOM     23  N   UNL     1       3.057  -3.581  -2.473  1.00  0.00    -0.241 NA
ATOM     24  C   UNL     1       1.605  -1.790  -4.043  1.00  0.00     0.013 A 
ATOM     25  C   UNL     1       2.298  -4.027  -3.491  1.00  0.00     0.072 A 
ATOM     26  C   UNL     1       1.547  -3.158  -4.312  1.00  0.00     0.000 A 
ATOM     27  C   UNL     1       2.249  -5.386  -3.773  1.00  0.00     0.029 A 
ATOM     28  C   UNL     1       0.778  -3.662  -5.375  1.00  0.00     0.010 A 
ATOM     29  C   UNL     1       1.493  -5.893  -4.836  1.00  0.00     0.002 A 
ATOM     30  C   UNL     1       0.756  -5.029  -5.638  1.00  0.00     0.001 A 
ENDBRANCH  20  21
ENDBRANCH  19  20
ENDBRANCH  17  19
ENDBRANCH  14  15
ENDBRANCH   9  14
ENDBRANCH   6   8
ENDBRANCH   5   6
ENDBRANCH   4   5
ENDBRANCH   3   4
ENDBRANCH   2   3
ENDBRANCH   1   2
BRANCH   1  31
ATOM     31  C   UNL     1       0.882   7.589   2.457  1.00  0.00     0.188 C 
BRANCH  31  32
ATOM     32  O   UNL     1       0.768   8.886   1.922  1.00  0.00    -0.376 OA
BRANCH  32  33
ATOM     33  C   UNL     1      -0.271   9.750   2.348  1.00  0.00     0.202 C 
BRANCH  33  34
ATOM     34  C   UNL     1      -1.159   9.571   3.596  1.00  0.00     0.261 C 
BRANCH  34  35
ATOM     35  O   UNL     1      -1.016   8.388   4.382  1.00  0.00    -0.460 OA
BRANCH  35  36
ATOM     36  C   UNL     1      -1.928   7.412   4.155  1.00  0.00     0.338 C 
ATOM     37  O   UNL     1      -2.807   7.411   3.310  1.00  0.00    -0.246 OA
BRANCH  36  38
ATOM     38  C   UNL     1      -1.579   6.250   4.995  1.00  0.00     0.060 A 
ATOM     39  C   UNL     1      -1.145   5.074   4.372  1.00  0.00     0.016 A 
ATOM     40  C   UNL     1      -1.697   6.317   6.385  1.00  0.00     0.016 A 
ATOM     41  C   UNL     1      -0.845   3.950   5.140  1.00  0.00     0.010 A 
ATOM     42  C   UNL     1      -1.412   5.182   7.152  1.00  0.00     0.010 A 
ATOM     43  C   UNL     1      -1.008   3.986   6.532  1.00  0.00    -0.014 A 
BRANCH  43  44
ATOM     44  C   UNL     1      -0.921   2.729   7.318  1.00  0.00     0.031 A 
ATOM     45  C   UNL     1      -2.197   2.015   7.676  1.00  0.00     0.074 A 
ATOM     46  C   UNL     1       0.267   2.219   7.690  1.00  0.00     0.049 A 
ATOM     47  N   UNL     1      -2.374   0.936   8.392  1.00  0.00    -0.248 NA
ATOM     48  C   UNL     1      -3.439   2.608   7.158  1.00  0.00     0.031 C 
ATOM     49  C   UNL     1       1.571   2.795   7.365  1.00  0.00     0.029 A 
ATOM     50  N   UNL     1       0.567   1.103   8.431  1.00  0.00    -0.354 N 
ATOM     51  C   UNL     1      -3.748   0.717   8.412  1.00  0.00     0.074 A 
ATOM     52  C   UNL     1      -4.356   1.802   7.670  1.00  0.00     0.031 C 
ATOM     53  C   UNL     1       2.532   2.031   7.914  1.00  0.00     0.029 A 
ATOM     54  C   UNL     1       1.913   0.938   8.662  1.00  0.00     0.049 A 
ATOM     55  H   UNL     1      -0.117   0.479   8.765  1.00  0.00     0.167 HD
ATOM     56  C   UNL     1      -4.437  -0.299   8.989  1.00  0.00     0.034 A 
ATOM     57  C   UNL     1       2.565   0.026   9.413  1.00  0.00     0.034 A 
ATOM     58  C   UNL     1      -3.818  -1.363   9.741  1.00  0.00     0.049 A 
ATOM     59  C   UNL     1       1.768  -1.041  10.130  1.00  0.00     0.074 A 
ATOM     60  C   UNL     1      -4.420  -2.446  10.357  1.00  0.00     0.029 A 
ATOM     61  N   UNL     1      -2.457  -1.470   9.997  1.00  0.00    -0.354 N 
ATOM     62  N   UNL     1       0.470  -1.245  10.132  1.00  0.00    -0.248 NA
ATOM     63  C   UNL     1       2.527  -2.003  10.941  1.00  0.00     0.031 C 
ATOM     64  C   UNL     1      -3.437  -3.161  11.048  1.00  0.00     0.029 A 
ATOM     65  C   UNL     1      -2.206  -2.578  10.793  1.00  0.00     0.049 A 
ATOM     66  H   UNL     1      -1.769  -0.849   9.662  1.00  0.00     0.167 HD
ATOM     67  C   UNL     1       0.264  -2.379  10.916  1.00  0.00     0.074 A 
ATOM     68  C   UNL     1       1.571  -2.821  11.356  1.00  0.00     0.031 C 
ATOM     69  C   UNL     1      -0.899  -3.003  11.237  1.00  0.00     0.034 A 
BRANCH  56  70
ATOM     70  C   UNL     1      -5.942  -0.267   8.872  1.00  0.00     0.023 A 
ATOM     71  C   UNL     1      -6.593  -0.365   7.629  1.00  0.00     0.031 A 
ATOM     72  C   UNL     1      -6.738  -0.105  10.019  1.00  0.00     0.131 A 
ATOM     73  C   UNL     1      -7.987  -0.227   7.556  1.00  0.00     0.055 A 
ATOM     74  C   UNL     1      -8.132  -0.052   9.948  1.00  0.00     0.041 A 
ATOM     75  F   UNL     1      -6.174   0.019  11.231  1.00  0.00    -0.206 F 
ATOM     76  C   UNL     1      -8.763  -0.098   8.710  1.00  0.00     0.022 A 
BRANCH  73  77
ATOM     77  S   UNL     1      -8.760  -0.071   5.922  1.00  0.00     0.124 S 
ATOM     78  O   UNL     1      -8.074   1.101   5.381  1.00  0.00    -0.237 OA
ATOM     79  O   UNL     1      -8.435  -1.347   5.296  1.00  0.00    -0.237 OA
ATOM     80  O   UNL     1     -10.174   0.132   6.229  1.00  0.00    -0.744 OA
ENDBRANCH  73  77
ENDBRANCH  56  70
BRANCH  57  81
ATOM     81  C   UNL     1       4.047   0.095   9.573  1.00  0.00     0.023 A 
ATOM     82  C   UNL     1       4.876  -0.950   9.134  1.00  0.00     0.031 A 
ATOM     83  C   UNL     1       4.651   1.181  10.232  1.00  0.00     0.131 A 
ATOM     84  C   UNL     1       6.254  -0.910   9.402  1.00  0.00     0.055 A 
ATOM     85  C   UNL     1       6.029   1.243  10.445  1.00  0.00     0.041 A 
ATOM     86  F   UNL     1       3.905   2.204  10.679  1.00  0.00    -0.206 F 
ATOM     87  C   UNL     1       6.838   0.186  10.041  1.00  0.00     0.022 A 
BRANCH  84  88
ATOM     88  S   UNL     1       7.263  -2.358   8.983  1.00  0.00     0.124 S 
ATOM     89  O   UNL     1       6.611  -3.407   9.758  1.00  0.00    -0.237 OA
ATOM     90  O   UNL     1       7.098  -2.432   7.535  1.00  0.00    -0.237 OA
ATOM     91  O   UNL     1       8.601  -1.984   9.437  1.00  0.00    -0.744 OA
ENDBRANCH  84  88
ENDBRANCH  57  81
BRANCH  69  92
ATOM     92  C   UNL     1      -0.802  -4.263  12.068  1.00  0.00     0.023 A 
ATOM     93  C   UNL     1      -0.345  -4.245  13.398  1.00  0.00     0.031 A 
ATOM     94  C   UNL     1      -1.168  -5.503  11.514  1.00  0.00     0.131 A 
ATOM     95  C   UNL     1      -0.213  -5.448  14.109  1.00  0.00     0.055 A 
ATOM     96  C   UNL     1      -1.096  -6.688  12.247  1.00  0.00     0.041 A 
ATOM     97  F   UNL     1      -1.609  -5.583  10.248  1.00  0.00    -0.206 F 
ATOM     98  C   UNL     1      -0.603  -6.667  13.548  1.00  0.00     0.022 A 
BRANCH  95  99
ATOM     99  S   UNL     1       0.568  -5.413  15.746  1.00  0.00     0.124 S 
ATOM    100  O   UNL     1       1.872  -4.831  15.448  1.00  0.00    -0.237 OA
ATOM    101  O   UNL     1      -0.346  -4.571  16.511  1.00  0.00    -0.237 OA
ATOM    102  O   UNL     1       0.593  -6.820  16.145  1.00  0.00    -0.744 OA
ENDBRANCH  95  99
ENDBRANCH  69  92
ENDBRANCH  43  44
ENDBRANCH  36  38
ENDBRANCH  35  36
ENDBRANCH  34  35
ENDBRANCH  33  34
ENDBRANCH  32  33
ENDBRANCH  31  32
ENDBRANCH   1  31
TORSDOF 25
