REMARK SMILES C=C1C(=O)O[C@@H]2[C@H]1[C@H](OC(=O)[C@]1(C)O[C@@H]1C)[C@H](OC(C)=O)/C(C(=O)OCCOCCOCCOC(=O)c1ccc(-c3c4nc(c(-c5cc(S(=O)(=O)[O-])ccc5F)c5ccc([nH]5)c(-c5cc(S(=O)(=O)[O-])ccc5F)c5nc(c(-c6cc(S(=O)(=O)[O-])ccc6F)c6ccc3[nH]6)C=C5)C=C4)cc1)=C\[C@H]1O[C@H]1[C@@]1(C)O[C@@H]21
REMARK SMILES IDX 29 1 28 2 27 3 26 4 25 5 23 6 24 7 22 8 100 9 17 10 8 11
REMARK SMILES IDX 7 12 1 13 2 14 3 15 4 16 5 17 6 18 107 19 104 20 106 21
REMARK SMILES IDX 105 22 9 24 10 25 11 26 12 27 14 28 15 29 13 30 16 31 18 32
REMARK SMILES IDX 19 33 20 34 21 35 101 36 102 37 103 38 30 40 31 41 32 42
REMARK SMILES IDX 33 43 34 44 35 45 36 46 37 47 38 48 99 49 39 50 98 51 40 52
REMARK SMILES IDX 41 53 42 54 92 55 43 56 97 57 91 58 93 59 44 60 96 61 90 62
REMARK SMILES IDX 89 63 45 65 77 66 57 67 76 68 58 69 61 70 75 71 94 72 59 73
REMARK SMILES IDX 60 74 74 76 95 77 62 78 46 79 47 80 55 81 48 82 54 83 56 84
REMARK SMILES IDX 53 85 49 86 50 87 51 88 52 89 78 90 79 91 87 92 80 93 86 94
REMARK SMILES IDX 88 95 85 96 81 97 82 98 83 99 84 100 63 101 64 102 72 103
REMARK SMILES IDX 65 104 71 105 73 106 70 107 66 108 67 109 68 110 69 111
REMARK H PARENT 93 64 61 75
REMARK Flexibility Score: 90.00
ROOT
ATOM      1  C   UNL     1      -4.816  -1.393  -4.223  1.00  0.00     0.188 C 
ENDROOT
BRANCH   1   2
ATOM      2  O   UNL     1      -3.915  -1.967  -3.281  1.00  0.00    -0.376 OA
BRANCH   2   3
ATOM      3  C   UNL     1      -3.307  -1.053  -2.394  1.00  0.00     0.202 C 
BRANCH   3   4
ATOM      4  C   UNL     1      -4.106  -0.820  -1.114  1.00  0.00     0.261 C 
BRANCH   4   5
ATOM      5  O   UNL     1      -5.460  -0.350  -1.210  1.00  0.00    -0.460 OA
BRANCH   5   6
ATOM      6  C   UNL     1      -5.663   0.798  -1.877  1.00  0.00     0.337 C 
ATOM      7  O   UNL     1      -5.007   1.212  -2.820  1.00  0.00    -0.246 OA
BRANCH   6   8
ATOM      8  C   UNL     1      -6.596   1.628  -1.105  1.00  0.00     0.080 C 
ATOM      9  C   UNL     1      -7.918   1.636  -1.367  1.00  0.00     0.022 C 
BRANCH   8  10
ATOM     10  C   UNL     1      -5.871   2.405  -0.055  1.00  0.00     0.255 C 
BRANCH  10  11
ATOM     11  C   UNL     1      -4.756   3.347  -0.633  1.00  0.00     0.234 C 
BRANCH  11  12
ATOM     12  C   UNL     1      -4.563   4.567   0.277  1.00  0.00     0.115 C 
ATOM     13  C   UNL     1      -3.577   6.405  -1.334  1.00  0.00     0.021 C 
ATOM     14  C   UNL     1      -3.969   5.865  -0.173  1.00  0.00     0.041 C 
ATOM     15  C   UNL     1      -4.136   6.749   1.000  1.00  0.00     0.334 C 
ATOM     16  O   UNL     1      -3.401   7.670   1.338  1.00  0.00    -0.247 OA
ATOM     17  O   UNL     1      -5.236   6.304   1.669  1.00  0.00    -0.455 OA
ATOM     18  C   UNL     1      -5.798   5.155   0.978  1.00  0.00     0.220 C 
BRANCH  18  19
ATOM     19  C   UNL     1      -6.908   5.613   0.066  1.00  0.00     0.195 C 
ATOM     20  C   UNL     1      -8.209   4.875  -0.422  1.00  0.00     0.125 CG0
ATOM     21  O   UNL     1      -8.164   5.766   0.716  1.00  0.00    -0.359 OA
ATOM     22  C   UNL     1      -8.745   5.563  -1.674  1.00  0.00     0.048 C 
ATOM     23  G   UNL     1      -9.159   3.683  -0.148  1.00  0.00     0.000 G0
ENDBRANCH  18  19
ENDBRANCH  11  12
BRANCH  11  24
ATOM     24  O   UNL     1      -4.946   3.751  -2.001  1.00  0.00    -0.455 OA
BRANCH  24  25
ATOM     25  C   UNL     1      -4.080   3.638  -3.085  1.00  0.00     0.341 C 
ATOM     26  O   UNL     1      -4.527   3.994  -4.172  1.00  0.00    -0.249 OA
BRANCH  25  27
ATOM     27  C   UNL     1      -2.599   3.221  -2.964  1.00  0.00     0.188 C 
ATOM     28  O   UNL     1      -1.731   4.145  -3.660  1.00  0.00    -0.354 OA
ATOM     29  C   UNL     1      -1.776   2.828  -4.217  1.00  0.00     0.160 C 
ATOM     30  C   UNL     1      -1.925   2.743  -1.705  1.00  0.00     0.058 C 
ATOM     31  C   UNL     1      -2.192   2.799  -5.638  1.00  0.00     0.042 C 
ENDBRANCH  25  27
ENDBRANCH  24  25
ENDBRANCH  11  24
ENDBRANCH  10  11
BRANCH  10  32
ATOM     32  O   UNL     1      -5.197   1.484   0.858  1.00  0.00    -0.453 OA
BRANCH  32  33
ATOM     33  C   UNL     1      -5.622   1.044   2.060  1.00  0.00     0.303 C 
ATOM     34  C   UNL     1      -6.445   1.953   2.915  1.00  0.00     0.139 C 
ATOM     35  O   UNL     1      -5.183  -0.011   2.512  1.00  0.00    -0.253 OA
ENDBRANCH  32  33
ENDBRANCH  10  32
ENDBRANCH   8  10
BRANCH   9  36
ATOM     36  C   UNL     1      -9.014   2.227  -0.572  1.00  0.00     0.174 C 
ATOM     37  O   UNL     1      -8.782   2.667   0.777  1.00  0.00    -0.362 OA
ATOM     38  C   UNL     1      -9.159   3.683  -0.148  1.00  0.00     0.186 CG0
ATOM     39  G   UNL     1      -8.209   4.875  -0.422  1.00  0.00     0.000 G0
ENDBRANCH   9  36
ENDBRANCH   6   8
ENDBRANCH   5   6
ENDBRANCH   4   5
ENDBRANCH   3   4
ENDBRANCH   2   3
ENDBRANCH   1   2
BRANCH   1  40
ATOM     40  C   UNL     1      -6.300  -1.617  -3.870  1.00  0.00     0.188 C 
BRANCH  40  41
ATOM     41  O   UNL     1      -6.672  -2.810  -3.193  1.00  0.00    -0.376 OA
BRANCH  41  42
ATOM     42  C   UNL     1      -6.013  -4.011  -3.570  1.00  0.00     0.202 C 
BRANCH  42  43
ATOM     43  C   UNL     1      -6.203  -4.503  -5.014  1.00  0.00     0.261 C 
BRANCH  43  44
ATOM     44  O   UNL     1      -5.848  -3.541  -6.030  1.00  0.00    -0.460 OA
BRANCH  44  45
ATOM     45  C   UNL     1      -6.886  -2.953  -6.685  1.00  0.00     0.338 C 
ATOM     46  O   UNL     1      -8.063  -3.249  -6.579  1.00  0.00    -0.246 OA
BRANCH  45  47
ATOM     47  C   UNL     1      -6.424  -1.712  -7.372  1.00  0.00     0.060 A 
ATOM     48  C   UNL     1      -7.145  -0.523  -7.155  1.00  0.00     0.016 A 
ATOM     49  C   UNL     1      -5.325  -1.705  -8.230  1.00  0.00     0.016 A 
ATOM     50  C   UNL     1      -6.805   0.657  -7.825  1.00  0.00     0.010 A 
ATOM     51  C   UNL     1      -5.012  -0.534  -8.937  1.00  0.00     0.010 A 
ATOM     52  C   UNL     1      -5.779   0.639  -8.775  1.00  0.00    -0.014 A 
BRANCH  52  53
ATOM     53  C   UNL     1      -5.721   1.684  -9.836  1.00  0.00     0.031 A 
ATOM     54  C   UNL     1      -6.483   1.410 -11.104  1.00  0.00     0.074 A 
ATOM     55  C   UNL     1      -5.020   2.826  -9.722  1.00  0.00     0.049 A 
ATOM     56  N   UNL     1      -6.444   2.027 -12.254  1.00  0.00    -0.248 NA
ATOM     57  C   UNL     1      -7.413   0.271 -11.056  1.00  0.00     0.031 C 
ATOM     58  C   UNL     1      -4.354   3.288  -8.513  1.00  0.00     0.029 A 
ATOM     59  N   UNL     1      -4.739   3.800 -10.652  1.00  0.00    -0.354 N 
ATOM     60  C   UNL     1      -7.339   1.347 -13.072  1.00  0.00     0.074 A 
ATOM     61  C   UNL     1      -7.873   0.249 -12.295  1.00  0.00     0.031 C 
ATOM     62  C   UNL     1      -3.695   4.431  -8.783  1.00  0.00     0.029 A 
ATOM     63  C   UNL     1      -3.862   4.760 -10.198  1.00  0.00     0.049 A 
ATOM     64  H   UNL     1      -5.128   3.809 -11.557  1.00  0.00     0.167 HD
ATOM     65  C   UNL     1      -7.688   1.611 -14.354  1.00  0.00     0.034 A 
ATOM     66  C   UNL     1      -3.241   5.759 -10.861  1.00  0.00     0.034 A 
ATOM     67  C   UNL     1      -7.124   2.685 -15.130  1.00  0.00     0.049 A 
ATOM     68  C   UNL     1      -3.507   5.939 -12.341  1.00  0.00     0.074 A 
ATOM     69  C   UNL     1      -7.369   3.018 -16.449  1.00  0.00     0.029 A 
ATOM     70  N   UNL     1      -6.187   3.595 -14.657  1.00  0.00    -0.354 N 
ATOM     71  N   UNL     1      -4.312   5.259 -13.125  1.00  0.00    -0.248 NA
ATOM     72  C   UNL     1      -2.782   7.020 -13.025  1.00  0.00     0.031 C 
ATOM     73  C   UNL     1      -6.534   4.085 -16.794  1.00  0.00     0.029 A 
ATOM     74  C   UNL     1      -5.825   4.471 -15.666  1.00  0.00     0.049 A 
ATOM     75  H   UNL     1      -5.832   3.614 -13.739  1.00  0.00     0.167 HD
ATOM     76  C   UNL     1      -4.230   5.867 -14.377  1.00  0.00     0.074 A 
ATOM     77  C   UNL     1      -3.286   6.957 -14.250  1.00  0.00     0.031 C 
ATOM     78  C   UNL     1      -4.893   5.564 -15.522  1.00  0.00     0.034 A 
BRANCH  65  79
ATOM     79  C   UNL     1      -8.671   0.665 -14.994  1.00  0.00     0.023 A 
ATOM     80  C   UNL     1      -9.984   0.530 -14.507  1.00  0.00     0.031 A 
ATOM     81  C   UNL     1      -8.265  -0.178 -16.041  1.00  0.00     0.131 A 
ATOM     82  C   UNL     1     -10.809  -0.491 -15.001  1.00  0.00     0.055 A 
ATOM     83  C   UNL     1      -9.123  -1.131 -16.592  1.00  0.00     0.041 A 
ATOM     84  F   UNL     1      -7.014  -0.114 -16.525  1.00  0.00    -0.206 F 
ATOM     85  C   UNL     1     -10.397  -1.305 -16.058  1.00  0.00     0.022 A 
BRANCH  82  86
ATOM     86  S   UNL     1     -12.351  -0.855 -14.118  1.00  0.00     0.124 S 
ATOM     87  O   UNL     1     -11.859  -1.156 -12.776  1.00  0.00    -0.237 OA
ATOM     88  O   UNL     1     -13.099   0.388 -14.261  1.00  0.00    -0.237 OA
ATOM     89  O   UNL     1     -12.898  -2.000 -14.844  1.00  0.00    -0.744 OA
ENDBRANCH  82  86
ENDBRANCH  65  79
BRANCH  66  90
ATOM     90  C   UNL     1      -2.257   6.644 -10.167  1.00  0.00     0.023 A 
ATOM     91  C   UNL     1      -2.482   8.025 -10.046  1.00  0.00     0.031 A 
ATOM     92  C   UNL     1      -1.037   6.133  -9.688  1.00  0.00     0.131 A 
ATOM     93  C   UNL     1      -1.485   8.854  -9.505  1.00  0.00     0.055 A 
ATOM     94  C   UNL     1      -0.069   6.954  -9.105  1.00  0.00     0.041 A 
ATOM     95  F   UNL     1      -0.763   4.822  -9.789  1.00  0.00    -0.206 F 
ATOM     96  C   UNL     1      -0.285   8.326  -9.023  1.00  0.00     0.022 A 
BRANCH  93  97
ATOM     97  S   UNL     1      -1.740  10.651  -9.524  1.00  0.00     0.124 S 
ATOM     98  O   UNL     1      -1.889  10.913 -10.951  1.00  0.00    -0.237 OA
ATOM     99  O   UNL     1      -2.946  10.795  -8.716  1.00  0.00    -0.237 OA
ATOM    100  O   UNL     1      -0.519  11.175  -8.917  1.00  0.00    -0.744 OA
ENDBRANCH  93  97
ENDBRANCH  66  90
BRANCH  78 101
ATOM    101  C   UNL     1      -4.697   6.476 -16.709  1.00  0.00     0.023 A 
ATOM    102  C   UNL     1      -3.494   6.523 -17.432  1.00  0.00     0.031 A 
ATOM    103  C   UNL     1      -5.764   7.286 -17.141  1.00  0.00     0.131 A 
ATOM    104  C   UNL     1      -3.378   7.385 -18.535  1.00  0.00     0.055 A 
ATOM    105  C   UNL     1      -5.659   8.104 -18.266  1.00  0.00     0.041 A 
ATOM    106  F   UNL     1      -6.936   7.277 -16.486  1.00  0.00    -0.206 F 
ATOM    107  C   UNL     1      -4.458   8.162 -18.966  1.00  0.00     0.022 A 
BRANCH 104 108
ATOM    108  S   UNL     1      -1.778   7.518 -19.381  1.00  0.00     0.124 S 
ATOM    109  O   UNL     1      -0.911   8.012 -18.317  1.00  0.00    -0.237 OA
ATOM    110  O   UNL     1      -1.537   6.145 -19.813  1.00  0.00    -0.237 OA
ATOM    111  O   UNL     1      -2.038   8.468 -20.461  1.00  0.00    -0.744 OA
ENDBRANCH 104 108
ENDBRANCH  78 101
ENDBRANCH  52  53
ENDBRANCH  45  47
ENDBRANCH  44  45
ENDBRANCH  43  44
ENDBRANCH  42  43
ENDBRANCH  41  42
ENDBRANCH  40  41
ENDBRANCH   1  40
TORSDOF 25
