REMARK SMILES C[C@H](C(=O)NC1CCCC1)[N@@H+]1CCn2nc(CCC(=O)OCCOCCOCCOC(=O)c3ccc(-c4c5nc(c(-c6cc(S(=O)(=O)[O-])ccc6F)c6ccc([nH]6)c(-c6cc(S(=O)(=O)[O-])ccc6F)c6nc(c(-c7cc(S(=O)(=O)[O-])ccc7F)c7ccc4[nH]7)C=C6)C=C5)cc3)cc2C1
REMARK SMILES IDX 25 1 24 2 23 3 22 4 21 5 19 6 20 7 18 8 17 9 16 10 11 11
REMARK SMILES IDX 12 12 98 13 13 15 97 16 14 17 96 18 15 19 2 20 1 21 3 22
REMARK SMILES IDX 4 23 5 24 6 26 7 27 10 28 8 29 9 30 26 31 27 32 28 33 29 34
REMARK SMILES IDX 30 35 31 36 32 37 33 38 34 39 95 40 35 41 94 42 36 43 37 44
REMARK SMILES IDX 38 45 88 46 39 47 93 48 87 49 89 50 40 51 92 52 86 53 85 54
REMARK SMILES IDX 41 56 73 57 53 58 72 59 54 60 57 61 71 62 90 63 55 64 56 65
REMARK SMILES IDX 70 67 91 68 58 69 42 70 43 71 51 72 44 73 50 74 52 75 49 76
REMARK SMILES IDX 45 77 46 78 47 79 48 80 74 81 75 82 83 83 76 84 82 85 84 86
REMARK SMILES IDX 81 87 77 88 78 89 79 90 80 91 59 92 60 93 68 94 61 95 67 96
REMARK SMILES IDX 69 97 66 98 62 99 63 100 64 101 65 102
REMARK H PARENT 11 14 5 25 89 55 57 66
REMARK Flexibility Score: inf
ROOT
ATOM      1  C   UNL     1      -5.648   2.550  -6.230  1.00  0.00     0.188 C 
ENDROOT
BRANCH   1   2
ATOM      2  O   UNL     1      -5.246   1.313  -6.822  1.00  0.00    -0.376 OA
BRANCH   2   3
ATOM      3  C   UNL     1      -4.079   0.693  -6.277  1.00  0.00     0.202 C 
BRANCH   3   4
ATOM      4  C   UNL     1      -2.828   1.573  -6.052  1.00  0.00     0.261 C 
BRANCH   4   5
ATOM      5  O   UNL     1      -3.087   2.835  -5.390  1.00  0.00    -0.463 OA
BRANCH   5   6
ATOM      6  C   UNL     1      -2.296   3.885  -5.706  1.00  0.00     0.306 C 
ATOM      7  O   UNL     1      -1.405   3.820  -6.554  1.00  0.00    -0.252 OA
BRANCH   6   8
ATOM      8  C   UNL     1      -2.686   5.238  -5.095  1.00  0.00     0.129 C 
BRANCH   8   9
ATOM      9  C   UNL     1      -3.244   5.443  -3.677  1.00  0.00     0.070 C 
BRANCH   9  10
ATOM     10  C   UNL     1      -2.577   4.672  -2.600  1.00  0.00     0.064 A 
ATOM     11  N   UNL     1      -0.880   1.728   0.542  1.00  0.00    -0.318 N 
ATOM     12  C   UNL     1      -1.884   1.006  -0.196  1.00  0.00     0.287 C 
ATOM     13  C   UNL     1      -1.215   3.189   0.569  1.00  0.00     0.319 C 
ATOM     14  H   UNL     1      -0.919   1.417   1.513  1.00  0.00     0.349 HD
ATOM     15  C   UNL     1      -2.374   1.471  -1.529  1.00  0.00     0.206 C 
ATOM     16  C   UNL     1      -1.754   3.729  -0.732  1.00  0.00     0.093 A 
ATOM     17  N   UNL     1      -2.176   2.863  -1.677  1.00  0.00    -0.258 N 
ATOM     18  C   UNL     1      -2.106   4.964  -1.277  1.00  0.00     0.055 A 
ATOM     19  N   UNL     1      -2.462   3.380  -2.844  1.00  0.00    -0.177 NA
BRANCH  11  20
ATOM     20  C   UNL     1       0.535   1.354   0.246  1.00  0.00     0.271 C 
ATOM     21  C   UNL     1       1.183   2.117  -0.918  1.00  0.00     0.086 C 
BRANCH  20  22
ATOM     22  C   UNL     1       1.057  -0.168   0.208  1.00  0.00     0.278 C 
ATOM     23  O   UNL     1       2.292  -0.307   0.362  1.00  0.00    -0.268 OA
ATOM     24  N   UNL     1       0.469  -1.378  -0.038  1.00  0.00    -0.348 N 
ATOM     25  H   UNL     1       1.141  -2.096  -0.081  1.00  0.00     0.163 HD
BRANCH  24  26
ATOM     26  C   UNL     1      -0.872  -1.900  -0.255  1.00  0.00     0.082 C 
ATOM     27  C   UNL     1      -1.320  -1.878  -1.728  1.00  0.00     0.025 C 
ATOM     28  C   UNL     1      -1.177  -3.367   0.047  1.00  0.00     0.025 C 
ATOM     29  C   UNL     1      -2.734  -2.420  -1.609  1.00  0.00     0.002 C 
ATOM     30  C   UNL     1      -2.589  -3.539  -0.570  1.00  0.00     0.002 C 
ENDBRANCH  24  26
ENDBRANCH  20  22
ENDBRANCH  11  20
ENDBRANCH   9  10
ENDBRANCH   8   9
ENDBRANCH   6   8
ENDBRANCH   5   6
ENDBRANCH   4   5
ENDBRANCH   3   4
ENDBRANCH   2   3
ENDBRANCH   1   2
BRANCH   1  31
ATOM     31  C   UNL     1      -5.872   2.562  -4.702  1.00  0.00     0.188 C 
BRANCH  31  32
ATOM     32  O   UNL     1      -5.066   1.613  -4.029  1.00  0.00    -0.376 OA
BRANCH  32  33
ATOM     33  C   UNL     1      -5.527   0.771  -2.991  1.00  0.00     0.202 C 
BRANCH  33  34
ATOM     34  C   UNL     1      -6.736  -0.131  -3.187  1.00  0.00     0.261 C 
BRANCH  34  35
ATOM     35  O   UNL     1      -7.830   0.495  -3.808  1.00  0.00    -0.460 OA
BRANCH  35  36
ATOM     36  C   UNL     1      -8.383   1.535  -3.155  1.00  0.00     0.338 C 
ATOM     37  O   UNL     1      -8.013   2.040  -2.107  1.00  0.00    -0.246 OA
BRANCH  36  38
ATOM     38  C   UNL     1      -9.489   1.990  -3.998  1.00  0.00     0.060 A 
ATOM     39  C   UNL     1     -10.127   3.186  -3.667  1.00  0.00     0.016 A 
ATOM     40  C   UNL     1      -9.984   1.117  -4.981  1.00  0.00     0.016 A 
ATOM     41  C   UNL     1     -11.407   3.373  -4.130  1.00  0.00     0.010 A 
ATOM     42  C   UNL     1     -11.265   1.284  -5.410  1.00  0.00     0.010 A 
ATOM     43  C   UNL     1     -11.984   2.352  -4.888  1.00  0.00    -0.014 A 
BRANCH  43  44
ATOM     44  C   UNL     1     -13.404   2.366  -5.120  1.00  0.00     0.031 A 
ATOM     45  C   UNL     1     -13.787   3.180  -6.282  1.00  0.00     0.074 A 
ATOM     46  C   UNL     1     -14.213   1.566  -4.401  1.00  0.00     0.049 A 
ATOM     47  N   UNL     1     -14.393   4.317  -6.264  1.00  0.00    -0.248 NA
ATOM     48  C   UNL     1     -13.240   2.813  -7.600  1.00  0.00     0.031 C 
ATOM     49  C   UNL     1     -13.828   0.539  -3.426  1.00  0.00     0.029 A 
ATOM     50  N   UNL     1     -15.557   1.413  -4.485  1.00  0.00    -0.354 N 
ATOM     51  C   UNL     1     -14.556   4.654  -7.599  1.00  0.00     0.074 A 
ATOM     52  C   UNL     1     -13.599   3.870  -8.326  1.00  0.00     0.031 C 
ATOM     53  C   UNL     1     -14.884  -0.275  -3.200  1.00  0.00     0.029 A 
ATOM     54  C   UNL     1     -16.037   0.233  -3.928  1.00  0.00     0.049 A 
ATOM     55  H   UNL     1     -16.145   2.082  -4.907  1.00  0.00     0.167 HD
ATOM     56  C   UNL     1     -15.681   5.293  -8.015  1.00  0.00     0.034 A 
ATOM     57  C   UNL     1     -17.263  -0.322  -4.136  1.00  0.00     0.034 A 
ATOM     58  C   UNL     1     -16.383   5.882  -6.892  1.00  0.00     0.049 A 
ATOM     59  C   UNL     1     -18.147   0.768  -4.634  1.00  0.00     0.074 A 
ATOM     60  C   UNL     1     -16.021   6.771  -5.897  1.00  0.00     0.029 A 
ATOM     61  N   UNL     1     -17.519   5.250  -6.430  1.00  0.00    -0.354 N 
ATOM     62  N   UNL     1     -18.494   1.794  -3.904  1.00  0.00    -0.248 NA
ATOM     63  C   UNL     1     -18.216   0.995  -6.073  1.00  0.00     0.031 C 
ATOM     64  C   UNL     1     -16.648   6.281  -4.715  1.00  0.00     0.029 A 
ATOM     65  C   UNL     1     -17.437   5.180  -5.058  1.00  0.00     0.049 A 
ATOM     66  H   UNL     1     -18.258   4.910  -6.984  1.00  0.00     0.167 HD
ATOM     67  C   UNL     1     -18.375   2.893  -4.743  1.00  0.00     0.074 A 
ATOM     68  C   UNL     1     -18.310   2.330  -6.091  1.00  0.00     0.031 C 
ATOM     69  C   UNL     1     -18.031   4.124  -4.255  1.00  0.00     0.034 A 
BRANCH  56  70
ATOM     70  C   UNL     1     -16.343   5.053  -9.353  1.00  0.00     0.023 A 
ATOM     71  C   UNL     1     -17.484   5.820  -9.636  1.00  0.00     0.031 A 
ATOM     72  C   UNL     1     -16.106   3.962 -10.224  1.00  0.00     0.131 A 
ATOM     73  C   UNL     1     -18.375   5.439 -10.652  1.00  0.00     0.055 A 
ATOM     74  C   UNL     1     -16.956   3.632 -11.281  1.00  0.00     0.041 A 
ATOM     75  F   UNL     1     -15.103   3.093 -10.059  1.00  0.00    -0.206 F 
ATOM     76  C   UNL     1     -18.119   4.351 -11.480  1.00  0.00     0.022 A 
BRANCH  73  77
ATOM     77  S   UNL     1     -19.968   6.288 -10.743  1.00  0.00     0.124 S 
ATOM     78  O   UNL     1     -20.464   6.123  -9.381  1.00  0.00    -0.237 OA
ATOM     79  O   UNL     1     -19.565   7.637 -11.125  1.00  0.00    -0.237 OA
ATOM     80  O   UNL     1     -20.691   5.537 -11.767  1.00  0.00    -0.744 OA
ENDBRANCH  73  77
ENDBRANCH  56  70
BRANCH  57  81
ATOM     81  C   UNL     1     -17.588  -1.775  -4.245  1.00  0.00     0.023 A 
ATOM     82  C   UNL     1     -18.904  -2.276  -4.144  1.00  0.00     0.031 A 
ATOM     83  C   UNL     1     -16.602  -2.689  -4.685  1.00  0.00     0.131 A 
ATOM     84  C   UNL     1     -19.183  -3.626  -4.472  1.00  0.00     0.055 A 
ATOM     85  C   UNL     1     -16.880  -4.021  -4.997  1.00  0.00     0.041 A 
ATOM     86  F   UNL     1     -15.339  -2.298  -4.915  1.00  0.00    -0.206 F 
ATOM     87  C   UNL     1     -18.177  -4.494  -4.901  1.00  0.00     0.022 A 
BRANCH  84  88
ATOM     88  S   UNL     1     -20.894  -4.258  -4.444  1.00  0.00     0.124 S 
ATOM     89  O   UNL     1     -21.184  -4.306  -3.016  1.00  0.00    -0.237 OA
ATOM     90  O   UNL     1     -21.613  -3.254  -5.220  1.00  0.00    -0.237 OA
ATOM     91  O   UNL     1     -20.785  -5.566  -5.093  1.00  0.00    -0.744 OA
ENDBRANCH  84  88
ENDBRANCH  57  81
BRANCH  69  92
ATOM     92  C   UNL     1     -18.067   4.338  -2.750  1.00  0.00     0.023 A 
ATOM     93  C   UNL     1     -17.377   3.548  -1.800  1.00  0.00     0.031 A 
ATOM     94  C   UNL     1     -18.756   5.467  -2.271  1.00  0.00     0.131 A 
ATOM     95  C   UNL     1     -17.414   3.889  -0.432  1.00  0.00     0.055 A 
ATOM     96  C   UNL     1     -18.769   5.816  -0.921  1.00  0.00     0.041 A 
ATOM     97  F   UNL     1     -19.409   6.278  -3.121  1.00  0.00    -0.206 F 
ATOM     98  C   UNL     1     -18.106   5.022   0.006  1.00  0.00     0.022 A 
BRANCH  95  99
ATOM     99  S   UNL     1     -16.591   2.844   0.814  1.00  0.00     0.124 S 
ATOM    100  O   UNL     1     -16.949   1.487   0.418  1.00  0.00    -0.237 OA
ATOM    101  O   UNL     1     -15.185   3.208   0.649  1.00  0.00    -0.237 OA
ATOM    102  O   UNL     1     -17.188   3.288   2.075  1.00  0.00    -0.744 OA
ENDBRANCH  95  99
ENDBRANCH  69  92
ENDBRANCH  43  44
ENDBRANCH  36  38
ENDBRANCH  35  36
ENDBRANCH  34  35
ENDBRANCH  33  34
ENDBRANCH  32  33
ENDBRANCH  31  32
ENDBRANCH   1  31
TORSDOF 25
