REMARK SMILES O=C(C[C@H]1C[C@H]2CC[C@@H](C1)[N@H+]2[C@@H]1CCCSC1)OCCOCCOCCOC(=O)c1ccc(-c2c3nc(c(-c4cc(S(=O)(=O)[O-])ccc4F)c4ccc([nH]4)c(-c4cc(S(=O)(=O)[O-])ccc4F)c4nc(c(-c5cc(S(=O)(=O)[O-])ccc5F)c5ccc2[nH]5)C=C4)C=C3)cc1
REMARK SMILES IDX 23 1 22 2 21 3 20 4 19 5 18 6 2 7 1 8 3 9 4 10 5 11 10 12
REMARK SMILES IDX 6 13 9 14 7 15 11 16 8 17 12 19 13 20 17 21 14 22 16 23
REMARK SMILES IDX 15 24 24 25 25 26 26 27 27 28 28 29 29 30 30 31 31 32 92 33
REMARK SMILES IDX 32 34 91 35 33 36 34 37 35 38 85 39 36 40 90 41 84 42 86 43
REMARK SMILES IDX 37 44 89 45 83 46 82 47 38 49 70 50 50 51 69 52 51 53 54 54
REMARK SMILES IDX 68 55 87 56 52 57 53 58 67 60 88 61 55 62 39 63 40 64 48 65
REMARK SMILES IDX 41 66 47 67 49 68 46 69 42 70 43 71 44 72 45 73 71 74 72 75
REMARK SMILES IDX 80 76 73 77 79 78 81 79 78 80 74 81 75 82 76 83 77 84 56 85
REMARK SMILES IDX 57 86 65 87 58 88 64 89 66 90 63 91 59 92 60 93 61 94 62 95
REMARK H PARENT 11 18 86 48 54 59
REMARK Flexibility Score: inf
ROOT
ATOM      1  C   UNL     1       2.320   1.310  -3.614  1.00  0.00     0.188 C 
ENDROOT
BRANCH   1   2
ATOM      2  C   UNL     1       2.802   0.944  -2.203  1.00  0.00     0.188 C 
BRANCH   2   3
ATOM      3  O   UNL     1       4.212   0.812  -2.095  1.00  0.00    -0.376 OA
BRANCH   3   4
ATOM      4  C   UNL     1       4.730   0.415  -0.836  1.00  0.00     0.202 C 
BRANCH   4   5
ATOM      5  C   UNL     1       4.458  -1.046  -0.481  1.00  0.00     0.261 C 
BRANCH   5   6
ATOM      6  O   UNL     1       3.083  -1.477  -0.322  1.00  0.00    -0.463 OA
BRANCH   6   7
ATOM      7  C   UNL     1       2.080  -0.992   0.438  1.00  0.00     0.306 C 
ATOM      8  O   UNL     1       0.996  -1.572   0.452  1.00  0.00    -0.252 OA
BRANCH   7   9
ATOM      9  C   UNL     1       2.280   0.272   1.232  1.00  0.00     0.126 C 
BRANCH   9  10
ATOM     10  C   UNL     1       3.214   0.063   2.423  1.00  0.00     0.012 C 
ATOM     11  C   UNL     1       3.924   1.374   2.846  1.00  0.00     0.069 C 
ATOM     12  C   UNL     1       2.489  -0.716   3.543  1.00  0.00     0.069 C 
ATOM     13  C   UNL     1       3.681   1.828   4.296  1.00  0.00     0.185 C 
ATOM     14  C   UNL     1       2.276   0.080   4.828  1.00  0.00     0.185 C 
ATOM     15  C   UNL     1       2.288   2.464   4.383  1.00  0.00     0.071 C 
ATOM     16  N   UNL     1       3.518   0.727   5.239  1.00  0.00    -0.327 N 
ATOM     17  C   UNL     1       1.348   1.282   4.603  1.00  0.00     0.071 C 
ATOM     18  H   UNL     1       3.455   1.080   6.194  1.00  0.00     0.348 HD
BRANCH  16  19
ATOM     19  C   UNL     1       4.667  -0.057   5.728  1.00  0.00     0.194 C 
ATOM     20  C   UNL     1       5.712  -0.472   4.669  1.00  0.00     0.067 C 
ATOM     21  C   UNL     1       4.194  -1.248   6.604  1.00  0.00     0.134 C 
ATOM     22  C   UNL     1       6.879  -1.316   5.180  1.00  0.00     0.017 C 
ATOM     23  S   UNL     1       5.525  -2.242   7.347  1.00  0.00    -0.156 SA
ATOM     24  C   UNL     1       6.433  -2.612   5.830  1.00  0.00     0.070 C 
ENDBRANCH  16  19
ENDBRANCH   9  10
ENDBRANCH   7   9
ENDBRANCH   6   7
ENDBRANCH   5   6
ENDBRANCH   4   5
ENDBRANCH   3   4
ENDBRANCH   2   3
ENDBRANCH   1   2
BRANCH   1  25
ATOM     25  O   UNL     1       3.167   0.973  -4.704  1.00  0.00    -0.376 OA
BRANCH  25  26
ATOM     26  C   UNL     1       4.461   1.577  -4.735  1.00  0.00     0.202 C 
BRANCH  26  27
ATOM     27  C   UNL     1       4.547   3.108  -4.629  1.00  0.00     0.261 C 
BRANCH  27  28
ATOM     28  O   UNL     1       4.063   3.668  -3.386  1.00  0.00    -0.460 OA
BRANCH  28  29
ATOM     29  C   UNL     1       3.110   4.625  -3.539  1.00  0.00     0.338 C 
ATOM     30  O   UNL     1       2.618   5.001  -4.590  1.00  0.00    -0.246 OA
BRANCH  29  31
ATOM     31  C   UNL     1       2.635   5.157  -2.247  1.00  0.00     0.060 A 
ATOM     32  C   UNL     1       1.336   4.843  -1.829  1.00  0.00     0.016 A 
ATOM     33  C   UNL     1       3.354   6.169  -1.606  1.00  0.00     0.016 A 
ATOM     34  C   UNL     1       0.731   5.584  -0.807  1.00  0.00     0.010 A 
ATOM     35  C   UNL     1       2.744   6.910  -0.583  1.00  0.00     0.010 A 
ATOM     36  C   UNL     1       1.411   6.657  -0.211  1.00  0.00    -0.014 A 
BRANCH  36  37
ATOM     37  C   UNL     1       0.669   7.609   0.663  1.00  0.00     0.031 A 
ATOM     38  C   UNL     1       0.159   8.905   0.081  1.00  0.00     0.074 A 
ATOM     39  C   UNL     1       0.412   7.318   1.952  1.00  0.00     0.049 A 
ATOM     40  N   UNL     1      -0.506   9.874   0.659  1.00  0.00    -0.248 NA
ATOM     41  C   UNL     1       0.441   9.138  -1.344  1.00  0.00     0.031 C 
ATOM     42  C   UNL     1       0.821   6.094   2.638  1.00  0.00     0.029 A 
ATOM     43  N   UNL     1      -0.252   8.038   2.916  1.00  0.00    -0.354 N 
ATOM     44  C   UNL     1      -0.737  10.824  -0.331  1.00  0.00     0.074 A 
ATOM     45  C   UNL     1      -0.096  10.334  -1.534  1.00  0.00     0.031 C 
ATOM     46  C   UNL     1       0.411   6.154   3.917  1.00  0.00     0.029 A 
ATOM     47  C   UNL     1      -0.269   7.428   4.148  1.00  0.00     0.049 A 
ATOM     48  H   UNL     1      -0.676   8.908   2.740  1.00  0.00     0.167 HD
ATOM     49  C   UNL     1      -1.430  11.989  -0.255  1.00  0.00     0.034 A 
ATOM     50  C   UNL     1      -0.758   7.854   5.331  1.00  0.00     0.034 A 
ATOM     51  C   UNL     1      -2.050  12.491   0.948  1.00  0.00     0.049 A 
ATOM     52  C   UNL     1      -1.465   9.187   5.410  1.00  0.00     0.074 A 
ATOM     53  C   UNL     1      -2.769  13.663   1.125  1.00  0.00     0.029 A 
ATOM     54  N   UNL     1      -2.021  11.860   2.184  1.00  0.00    -0.354 N 
ATOM     55  N   UNL     1      -1.683  10.067   4.460  1.00  0.00    -0.248 NA
ATOM     56  C   UNL     1      -2.006   9.573   6.721  1.00  0.00     0.031 C 
ATOM     57  C   UNL     1      -3.122  13.767   2.476  1.00  0.00     0.029 A 
ATOM     58  C   UNL     1      -2.684  12.627   3.130  1.00  0.00     0.049 A 
ATOM     59  H   UNL     1      -1.591  10.992   2.362  1.00  0.00     0.167 HD
ATOM     60  C   UNL     1      -2.407  11.098   5.058  1.00  0.00     0.074 A 
ATOM     61  C   UNL     1      -2.608  10.719   6.440  1.00  0.00     0.031 C 
ATOM     62  C   UNL     1      -2.865  12.255   4.513  1.00  0.00     0.034 A 
BRANCH  49  63
ATOM     63  C   UNL     1      -1.520  12.820  -1.512  1.00  0.00     0.023 A 
ATOM     64  C   UNL     1      -2.230  12.370  -2.640  1.00  0.00     0.031 A 
ATOM     65  C   UNL     1      -0.879  14.068  -1.590  1.00  0.00     0.131 A 
ATOM     66  C   UNL     1      -2.231  13.135  -3.816  1.00  0.00     0.055 A 
ATOM     67  C   UNL     1      -0.942  14.857  -2.740  1.00  0.00     0.041 A 
ATOM     68  F   UNL     1      -0.172  14.539  -0.550  1.00  0.00    -0.206 F 
ATOM     69  C   UNL     1      -1.611  14.386  -3.867  1.00  0.00     0.022 A 
BRANCH  66  70
ATOM     70  S   UNL     1      -2.954  12.420  -5.317  1.00  0.00     0.124 S 
ATOM     71  O   UNL     1      -2.131  11.227  -5.502  1.00  0.00    -0.237 OA
ATOM     72  O   UNL     1      -4.338  12.187  -4.921  1.00  0.00    -0.237 OA
ATOM     73  O   UNL     1      -2.761  13.463  -6.322  1.00  0.00    -0.744 OA
ENDBRANCH  66  70
ENDBRANCH  49  63
BRANCH  50  74
ATOM     74  C   UNL     1      -0.566   7.038   6.564  1.00  0.00     0.023 A 
ATOM     75  C   UNL     1      -1.659   6.497   7.259  1.00  0.00     0.031 A 
ATOM     76  C   UNL     1       0.718   6.856   7.107  1.00  0.00     0.131 A 
ATOM     77  C   UNL     1      -1.453   5.849   8.488  1.00  0.00     0.055 A 
ATOM     78  C   UNL     1       0.923   6.166   8.302  1.00  0.00     0.041 A 
ATOM     79  F   UNL     1       1.797   7.353   6.480  1.00  0.00    -0.206 F 
ATOM     80  C   UNL     1      -0.169   5.671   9.008  1.00  0.00     0.022 A 
BRANCH  77  81
ATOM     81  S   UNL     1      -2.902   5.327   9.446  1.00  0.00     0.124 S 
ATOM     82  O   UNL     1      -3.629   6.583   9.595  1.00  0.00    -0.237 OA
ATOM     83  O   UNL     1      -3.507   4.337   8.561  1.00  0.00    -0.237 OA
ATOM     84  O   UNL     1      -2.322   4.791  10.675  1.00  0.00    -0.744 OA
ENDBRANCH  77  81
ENDBRANCH  50  74
BRANCH  62  85
ATOM     85  C   UNL     1      -3.656  13.173   5.416  1.00  0.00     0.023 A 
ATOM     86  C   UNL     1      -3.064  13.816   6.519  1.00  0.00     0.031 A 
ATOM     87  C   UNL     1      -5.029  13.377   5.194  1.00  0.00     0.131 A 
ATOM     88  C   UNL     1      -3.855  14.578   7.394  1.00  0.00     0.055 A 
ATOM     89  C   UNL     1      -5.800  14.183   6.035  1.00  0.00     0.041 A 
ATOM     90  F   UNL     1      -5.649  12.789   4.158  1.00  0.00    -0.206 F 
ATOM     91  C   UNL     1      -5.216  14.775   7.151  1.00  0.00     0.022 A 
BRANCH  88  92
ATOM     92  S   UNL     1      -3.102  15.218   8.916  1.00  0.00     0.124 S 
ATOM     93  O   UNL     1      -2.574  14.004   9.530  1.00  0.00    -0.237 OA
ATOM     94  O   UNL     1      -2.110  16.155   8.401  1.00  0.00    -0.237 OA
ATOM     95  O   UNL     1      -4.225  15.831   9.623  1.00  0.00    -0.744 OA
ENDBRANCH  88  92
ENDBRANCH  62  85
ENDBRANCH  36  37
ENDBRANCH  29  31
ENDBRANCH  28  29
ENDBRANCH  27  28
ENDBRANCH  26  27
ENDBRANCH  25  26
ENDBRANCH   1  25
TORSDOF 22
