REMARK SMILES CC[C@@](C)([NH3+])C(=O)Nc1cc(C(=O)OCCOCCOCCOC(=O)c2ccc(-c3c4nc(c(-c5cc(S(=O)(=O)[O-])ccc5F)c5ccc([nH]5)c(-c5cc(S(=O)(=O)[O-])ccc5F)c5nc(c(-c6cc(S(=O)(=O)[O-])ccc6F)c6ccc3[nH]6)C=C5)C=C4)cc2)cc(C(F)(F)F)c1
REMARK SMILES IDX 18 1 17 2 16 3 15 4 14 5 12 6 13 7 11 8 9 9 10 10 95 11
REMARK SMILES IDX 90 12 89 13 8 14 6 15 7 16 3 18 4 19 2 20 1 21 5 22 91 26
REMARK SMILES IDX 92 27 93 28 94 29 19 30 20 31 21 32 22 33 23 34 24 35 25 36
REMARK SMILES IDX 26 37 27 38 88 39 28 40 87 41 29 42 30 43 31 44 81 45 32 46
REMARK SMILES IDX 86 47 80 48 82 49 33 50 85 51 79 52 78 53 34 55 66 56 46 57
REMARK SMILES IDX 65 58 47 59 50 60 64 61 83 62 48 63 49 64 63 66 84 67 51 68
REMARK SMILES IDX 35 69 36 70 44 71 37 72 43 73 45 74 42 75 38 76 39 77 40 78
REMARK SMILES IDX 41 79 67 80 68 81 76 82 69 83 75 84 77 85 74 86 70 87 71 88
REMARK SMILES IDX 72 89 73 90 52 91 53 92 61 93 54 94 60 95 62 96 59 97 55 98
REMARK SMILES IDX 56 99 57 100 58 101
REMARK H PARENT 8 17 5 23 5 24 5 25 82 54 50 65
REMARK Flexibility Score: inf
ROOT
ATOM      1  C   UNL     1       5.207   3.421   7.852  1.00  0.00     0.188 C 
ENDROOT
BRANCH   1   2
ATOM      2  O   UNL     1       5.503   4.655   8.499  1.00  0.00    -0.376 OA
BRANCH   2   3
ATOM      3  C   UNL     1       4.517   5.274   9.317  1.00  0.00     0.202 C 
BRANCH   3   4
ATOM      4  C   UNL     1       3.177   5.633   8.667  1.00  0.00     0.261 C 
BRANCH   4   5
ATOM      5  O   UNL     1       2.479   4.483   8.162  1.00  0.00    -0.460 OA
BRANCH   5   6
ATOM      6  C   UNL     1       2.153   4.520   6.846  1.00  0.00     0.338 C 
ATOM      7  O   UNL     1       2.260   5.463   6.081  1.00  0.00    -0.246 OA
BRANCH   6   8
ATOM      8  C   UNL     1       1.819   3.149   6.406  1.00  0.00     0.062 A 
ATOM      9  C   UNL     1       2.205   1.351   4.841  1.00  0.00     0.042 A 
ATOM     10  C   UNL     1       2.455   2.655   5.259  1.00  0.00     0.041 A 
ATOM     11  C   UNL     1       1.402   0.522   5.624  1.00  0.00     0.039 A 
ATOM     12  C   UNL     1       0.728   1.011   6.753  1.00  0.00     0.058 A 
ATOM     13  C   UNL     1       0.945   2.340   7.143  1.00  0.00     0.029 A 
BRANCH   9  14
ATOM     14  N   UNL     1       2.822   0.884   3.679  1.00  0.00    -0.321 N 
ATOM     15  C   UNL     1       2.338   0.066   2.685  1.00  0.00     0.285 C 
ATOM     16  O   UNL     1       3.177  -0.534   2.006  1.00  0.00    -0.267 OA
ATOM     17  H   UNL     1       3.750   1.188   3.551  1.00  0.00     0.170 HD
BRANCH  15  18
ATOM     18  C   UNL     1       0.799   0.020   2.333  1.00  0.00     0.171 C 
ATOM     19  C   UNL     1       0.191   1.433   2.307  1.00  0.00     0.090 C 
BRANCH  18  20
ATOM     20  C   UNL     1       0.595  -0.665   0.949  1.00  0.00     0.075 C 
ATOM     21  C   UNL     1       1.101   0.120  -0.258  1.00  0.00     0.011 C 
ENDBRANCH  18  20
BRANCH  18  22
ATOM     22  N   UNL     1       0.068  -0.821   3.317  1.00  0.00    -0.345 N 
ATOM     23  H   UNL     1      -0.923  -0.841   3.076  1.00  0.00     0.345 HD
ATOM     24  H   UNL     1       0.183  -0.430   4.251  1.00  0.00     0.345 HD
ATOM     25  H   UNL     1       0.441  -1.770   3.297  1.00  0.00     0.345 HD
ENDBRANCH  18  22
ENDBRANCH  15  18
ENDBRANCH   9  14
BRANCH  12  26
ATOM     26  C   UNL     1      -0.192   0.113   7.541  1.00  0.00     0.416 C 
ATOM     27  F   UNL     1       0.380  -0.356   8.682  1.00  0.00    -0.166 F 
ATOM     28  F   UNL     1      -1.331   0.754   7.928  1.00  0.00    -0.166 F 
ATOM     29  F   UNL     1      -0.611  -0.981   6.846  1.00  0.00    -0.166 F 
ENDBRANCH  12  26
ENDBRANCH   6   8
ENDBRANCH   5   6
ENDBRANCH   4   5
ENDBRANCH   3   4
ENDBRANCH   2   3
ENDBRANCH   1   2
BRANCH   1  30
ATOM     30  C   UNL     1       4.521   2.296   8.653  1.00  0.00     0.188 C 
BRANCH  30  31
ATOM     31  O   UNL     1       4.456   2.554  10.044  1.00  0.00    -0.376 OA
BRANCH  31  32
ATOM     32  C   UNL     1       5.241   1.723  10.881  1.00  0.00     0.202 C 
BRANCH  32  33
ATOM     33  C   UNL     1       6.766   1.818  10.727  1.00  0.00     0.261 C 
BRANCH  33  34
ATOM     34  O   UNL     1       7.283   1.709   9.392  1.00  0.00    -0.460 OA
BRANCH  34  35
ATOM     35  C   UNL     1       7.279   0.483   8.820  1.00  0.00     0.338 C 
ATOM     36  O   UNL     1       6.838  -0.542   9.306  1.00  0.00    -0.246 OA
BRANCH  35  37
ATOM     37  C   UNL     1       7.743   0.640   7.421  1.00  0.00     0.060 A 
ATOM     38  C   UNL     1       6.902   0.249   6.371  1.00  0.00     0.016 A 
ATOM     39  C   UNL     1       9.002   1.183   7.149  1.00  0.00     0.016 A 
ATOM     40  C   UNL     1       7.331   0.382   5.045  1.00  0.00     0.010 A 
ATOM     41  C   UNL     1       9.434   1.302   5.824  1.00  0.00     0.010 A 
ATOM     42  C   UNL     1       8.612   0.881   4.764  1.00  0.00    -0.014 A 
BRANCH  42  43
ATOM     43  C   UNL     1       9.166   0.803   3.386  1.00  0.00     0.031 A 
ATOM     44  C   UNL     1      10.036  -0.373   3.030  1.00  0.00     0.074 A 
ATOM     45  C   UNL     1       8.909   1.752   2.468  1.00  0.00     0.049 A 
ATOM     46  N   UNL     1      10.684  -0.627   1.923  1.00  0.00    -0.248 NA
ATOM     47  C   UNL     1      10.199  -1.395   4.074  1.00  0.00     0.031 C 
ATOM     48  C   UNL     1       8.050   2.916   2.673  1.00  0.00     0.029 A 
ATOM     49  N   UNL     1       9.356   1.887   1.176  1.00  0.00    -0.354 N 
ATOM     50  C   UNL     1      11.327  -1.843   2.132  1.00  0.00     0.074 A 
ATOM     51  C   UNL     1      11.027  -2.246   3.490  1.00  0.00     0.031 C 
ATOM     52  C   UNL     1       8.036   3.650   1.545  1.00  0.00     0.029 A 
ATOM     53  C   UNL     1       8.915   3.032   0.553  1.00  0.00     0.049 A 
ATOM     54  H   UNL     1       9.937   1.226   0.736  1.00  0.00     0.167 HD
ATOM     55  C   UNL     1      12.088  -2.564   1.270  1.00  0.00     0.034 A 
ATOM     56  C   UNL     1       9.210   3.534  -0.665  1.00  0.00     0.034 A 
ATOM     57  C   UNL     1      12.406  -2.137  -0.071  1.00  0.00     0.049 A 
ATOM     58  C   UNL     1      10.158   2.775  -1.566  1.00  0.00     0.074 A 
ATOM     59  C   UNL     1      13.171  -2.786  -1.025  1.00  0.00     0.029 A 
ATOM     60  N   UNL     1      11.991  -0.942  -0.644  1.00  0.00    -0.354 N 
ATOM     61  N   UNL     1      10.760   1.626  -1.358  1.00  0.00    -0.248 NA
ATOM     62  C   UNL     1      10.464   3.383  -2.869  1.00  0.00     0.031 C 
ATOM     63  C   UNL     1      13.279  -1.952  -2.144  1.00  0.00     0.029 A 
ATOM     64  C   UNL     1      12.514  -0.818  -1.923  1.00  0.00     0.049 A 
ATOM     65  H   UNL     1      11.410  -0.278  -0.206  1.00  0.00     0.167 HD
ATOM     66  C   UNL     1      11.484   1.360  -2.519  1.00  0.00     0.074 A 
ATOM     67  C   UNL     1      11.239   2.463  -3.423  1.00  0.00     0.031 C 
ATOM     68  C   UNL     1      12.273   0.294  -2.814  1.00  0.00     0.034 A 
BRANCH  55  69
ATOM     69  C   UNL     1      12.668  -3.859   1.787  1.00  0.00     0.023 A 
ATOM     70  C   UNL     1      11.846  -4.930   2.183  1.00  0.00     0.031 A 
ATOM     71  C   UNL     1      14.058  -4.006   1.939  1.00  0.00     0.131 A 
ATOM     72  C   UNL     1      12.414  -6.062   2.787  1.00  0.00     0.055 A 
ATOM     73  C   UNL     1      14.622  -5.171   2.462  1.00  0.00     0.041 A 
ATOM     74  F   UNL     1      14.892  -3.010   1.602  1.00  0.00    -0.206 F 
ATOM     75  C   UNL     1      13.798  -6.201   2.906  1.00  0.00     0.022 A 
BRANCH  72  76
ATOM     76  S   UNL     1      11.311  -7.275   3.564  1.00  0.00     0.124 S 
ATOM     77  O   UNL     1      10.584  -6.443   4.521  1.00  0.00    -0.237 OA
ATOM     78  O   UNL     1      10.538  -7.770   2.431  1.00  0.00    -0.237 OA
ATOM     79  O   UNL     1      12.230  -8.240   4.163  1.00  0.00    -0.744 OA
ENDBRANCH  72  76
ENDBRANCH  55  69
BRANCH  56  80
ATOM     80  C   UNL     1       8.643   4.842  -1.106  1.00  0.00     0.023 A 
ATOM     81  C   UNL     1       7.788   4.925  -2.216  1.00  0.00     0.031 A 
ATOM     82  C   UNL     1       9.005   6.040  -0.463  1.00  0.00     0.131 A 
ATOM     83  C   UNL     1       7.359   6.180  -2.679  1.00  0.00     0.055 A 
ATOM     84  C   UNL     1       8.534   7.281  -0.895  1.00  0.00     0.041 A 
ATOM     85  F   UNL     1       9.825   6.019   0.600  1.00  0.00    -0.206 F 
ATOM     86  C   UNL     1       7.716   7.357  -2.017  1.00  0.00     0.022 A 
BRANCH  83  87
ATOM     87  S   UNL     1       6.393   6.260  -4.213  1.00  0.00     0.124 S 
ATOM     88  O   UNL     1       7.309   5.653  -5.172  1.00  0.00    -0.237 OA
ATOM     89  O   UNL     1       5.212   5.476  -3.868  1.00  0.00    -0.237 OA
ATOM     90  O   UNL     1       6.157   7.691  -4.392  1.00  0.00    -0.744 OA
ENDBRANCH  83  87
ENDBRANCH  56  80
BRANCH  68  91
ATOM     91  C   UNL     1      12.884   0.248  -4.195  1.00  0.00     0.023 A 
ATOM     92  C   UNL     1      13.864   1.167  -4.608  1.00  0.00     0.031 A 
ATOM     93  C   UNL     1      12.470  -0.733  -5.115  1.00  0.00     0.131 A 
ATOM     94  C   UNL     1      14.361   1.118  -5.921  1.00  0.00     0.055 A 
ATOM     95  C   UNL     1      13.009  -0.813  -6.400  1.00  0.00     0.041 A 
ATOM     96  F   UNL     1      11.536  -1.636  -4.777  1.00  0.00    -0.206 F 
ATOM     97  C   UNL     1      13.952   0.124  -6.813  1.00  0.00     0.022 A 
BRANCH  94  98
ATOM     98  S   UNL     1      15.489   2.425  -6.479  1.00  0.00     0.124 S 
ATOM     99  O   UNL     1      14.686   3.627  -6.278  1.00  0.00    -0.237 OA
ATOM    100  O   UNL     1      16.627   2.261  -5.579  1.00  0.00    -0.237 OA
ATOM    101  O   UNL     1      15.751   2.081  -7.875  1.00  0.00    -0.744 OA
ENDBRANCH  94  98
ENDBRANCH  68  91
ENDBRANCH  42  43
ENDBRANCH  35  37
ENDBRANCH  34  35
ENDBRANCH  33  34
ENDBRANCH  32  33
ENDBRANCH  31  32
ENDBRANCH  30  31
ENDBRANCH   1  30
TORSDOF 25
