REMARK SMILES C[C@@H](C(=O)OCCOCCOCCOC(=O)c1ccc(-c2c3nc(c(-c4cc(S(=O)(=O)[O-])ccc4F)c4ccc([nH]4)c(-c4cc(S(=O)(=O)[O-])ccc4F)c4nc(c(-c5cc(S(=O)(=O)[O-])ccc5F)c5ccc2[nH]5)C=C4)C=C3)cc1)c1ccc(C[C@H]2CCCC2=O)c(-c2ccc(F)cc2)c1
REMARK SMILES IDX 9 1 8 2 7 3 6 4 5 5 3 6 4 7 2 8 1 9 80 10 81 11 99 12 82 13
REMARK SMILES IDX 91 14 83 15 92 16 93 17 98 18 94 19 97 20 95 21 96 22 84 23
REMARK SMILES IDX 85 24 86 25 89 26 87 27 88 28 90 29 10 30 11 31 12 32 13 33
REMARK SMILES IDX 14 34 15 35 16 36 17 37 18 38 79 39 19 40 78 41 20 42 21 43
REMARK SMILES IDX 22 44 72 45 23 46 77 47 71 48 73 49 24 50 76 51 70 52 69 53
REMARK SMILES IDX 25 55 57 56 37 57 56 58 38 59 41 60 55 61 74 62 39 63 40 64
REMARK SMILES IDX 54 66 75 67 42 68 26 69 27 70 35 71 28 72 34 73 36 74 33 75
REMARK SMILES IDX 29 76 30 77 31 78 32 79 58 80 59 81 67 82 60 83 66 84 68 85
REMARK SMILES IDX 65 86 61 87 62 88 63 89 64 90 43 91 44 92 52 93 45 94 51 95
REMARK SMILES IDX 53 96 50 97 46 98 47 99 48 100 49 101
REMARK H PARENT 73 54 41 65
REMARK Flexibility Score: inf
ROOT
ATOM      1  C   UNL     1       0.488  -3.334   1.820  1.00  0.00     0.188 C 
ENDROOT
BRANCH   1   2
ATOM      2  O   UNL     1       1.381  -4.389   2.094  1.00  0.00    -0.376 OA
BRANCH   2   3
ATOM      3  C   UNL     1       2.363  -4.745   1.134  1.00  0.00     0.202 C 
BRANCH   3   4
ATOM      4  C   UNL     1       2.527  -4.090  -0.253  1.00  0.00     0.261 C 
BRANCH   4   5
ATOM      5  O   UNL     1       1.961  -2.785  -0.432  1.00  0.00    -0.463 OA
BRANCH   5   6
ATOM      6  C   UNL     1       1.273  -2.583  -1.591  1.00  0.00     0.313 C 
ATOM      7  O   UNL     1       1.145  -3.437  -2.464  1.00  0.00    -0.252 OA
BRANCH   6   8
ATOM      8  C   UNL     1       0.614  -1.202  -1.688  1.00  0.00     0.126 C 
ATOM      9  C   UNL     1       1.456  -0.084  -1.049  1.00  0.00     0.025 C 
BRANCH   8  10
ATOM     10  C   UNL     1      -0.874  -1.154  -1.325  1.00  0.00    -0.033 A 
ATOM     11  C   UNL     1      -1.552   0.063  -1.262  1.00  0.00     0.005 A 
ATOM     12  C   UNL     1      -1.659  -2.308  -1.183  1.00  0.00     0.013 A 
ATOM     13  C   UNL     1      -2.941   0.116  -1.082  1.00  0.00     0.004 A 
ATOM     14  C   UNL     1      -3.069  -2.290  -0.966  1.00  0.00    -0.015 A 
ATOM     15  C   UNL     1      -3.733  -1.036  -0.915  1.00  0.00    -0.039 A 
BRANCH  14  16
ATOM     16  C   UNL     1      -3.711  -3.625  -0.877  1.00  0.00    -0.018 A 
ATOM     17  C   UNL     1      -4.662  -4.066  -1.812  1.00  0.00     0.012 A 
ATOM     18  C   UNL     1      -3.264  -4.554   0.089  1.00  0.00     0.012 A 
ATOM     19  C   UNL     1      -5.151  -5.380  -1.782  1.00  0.00     0.040 A 
ATOM     20  C   UNL     1      -3.742  -5.868   0.116  1.00  0.00     0.040 A 
ATOM     21  C   UNL     1      -4.680  -6.271  -0.824  1.00  0.00     0.123 A 
ATOM     22  F   UNL     1      -5.157  -7.522  -0.782  1.00  0.00    -0.207 F 
ENDBRANCH  14  16
BRANCH  15  23
ATOM     23  C   UNL     1      -5.255  -0.877  -0.885  1.00  0.00     0.047 C 
BRANCH  23  24
ATOM     24  C   UNL     1      -5.975   0.117   0.055  1.00  0.00     0.060 C 
ATOM     25  C   UNL     1      -5.821  -0.186   1.540  1.00  0.00     0.012 C 
ATOM     26  C   UNL     1      -5.551   1.569   0.002  1.00  0.00     0.136 C 
ATOM     27  C   UNL     1      -4.760   0.771   2.058  1.00  0.00     0.009 C 
ATOM     28  C   UNL     1      -5.050   2.072   1.335  1.00  0.00     0.076 C 
ATOM     29  O   UNL     1      -5.611   2.271  -1.001  1.00  0.00    -0.299 OA
ENDBRANCH  23  24
ENDBRANCH  15  23
ENDBRANCH   8  10
ENDBRANCH   6   8
ENDBRANCH   5   6
ENDBRANCH   4   5
ENDBRANCH   3   4
ENDBRANCH   2   3
ENDBRANCH   1   2
BRANCH   1  30
ATOM     30  C   UNL     1       1.007  -1.905   2.075  1.00  0.00     0.188 C 
BRANCH  30  31
ATOM     31  O   UNL     1       2.375  -1.686   2.363  1.00  0.00    -0.376 OA
BRANCH  31  32
ATOM     32  C   UNL     1       2.910  -2.313   3.522  1.00  0.00     0.202 C 
BRANCH  32  33
ATOM     33  C   UNL     1       2.145  -2.320   4.860  1.00  0.00     0.261 C 
BRANCH  33  34
ATOM     34  O   UNL     1       0.743  -2.633   4.782  1.00  0.00    -0.460 OA
BRANCH  34  35
ATOM     35  C   UNL     1      -0.098  -1.683   5.254  1.00  0.00     0.338 C 
ATOM     36  O   UNL     1       0.216  -0.604   5.764  1.00  0.00    -0.246 OA
BRANCH  35  37
ATOM     37  C   UNL     1      -1.496  -2.059   4.995  1.00  0.00     0.060 A 
ATOM     38  C   UNL     1      -2.079  -1.731   3.772  1.00  0.00     0.016 A 
ATOM     39  C   UNL     1      -2.277  -2.635   5.997  1.00  0.00     0.016 A 
ATOM     40  C   UNL     1      -3.424  -1.999   3.545  1.00  0.00     0.010 A 
ATOM     41  C   UNL     1      -3.651  -2.848   5.780  1.00  0.00     0.010 A 
ATOM     42  C   UNL     1      -4.251  -2.491   4.560  1.00  0.00    -0.014 A 
BRANCH  42  43
ATOM     43  C   UNL     1      -5.738  -2.402   4.392  1.00  0.00     0.031 A 
ATOM     44  C   UNL     1      -6.504  -1.362   5.166  1.00  0.00     0.074 A 
ATOM     45  C   UNL     1      -6.398  -3.072   3.425  1.00  0.00     0.049 A 
ATOM     46  N   UNL     1      -7.792  -1.131   5.186  1.00  0.00    -0.248 NA
ATOM     47  C   UNL     1      -5.717  -0.457   6.014  1.00  0.00     0.031 C 
ATOM     48  C   UNL     1      -5.766  -3.976   2.476  1.00  0.00     0.029 A 
ATOM     49  N   UNL     1      -7.713  -3.026   3.013  1.00  0.00    -0.354 N 
ATOM     50  C   UNL     1      -7.981  -0.112   6.111  1.00  0.00     0.074 A 
ATOM     51  C   UNL     1      -6.667   0.256   6.599  1.00  0.00     0.031 C 
ATOM     52  C   UNL     1      -6.663  -4.312   1.538  1.00  0.00     0.029 A 
ATOM     53  C   UNL     1      -7.966  -3.757   1.873  1.00  0.00     0.049 A 
ATOM     54  H   UNL     1      -8.408  -2.516   3.490  1.00  0.00     0.167 HD
ATOM     55  C   UNL     1      -9.144   0.440   6.535  1.00  0.00     0.034 A 
ATOM     56  C   UNL     1      -9.104  -3.997   1.183  1.00  0.00     0.034 A 
ATOM     57  C   UNL     1     -10.447   0.099   6.017  1.00  0.00     0.049 A 
ATOM     58  C   UNL     1     -10.396  -3.439   1.723  1.00  0.00     0.074 A 
ATOM     59  C   UNL     1     -11.684   0.566   6.430  1.00  0.00     0.029 A 
ATOM     60  N   UNL     1     -10.691  -0.781   4.972  1.00  0.00    -0.354 N 
ATOM     61  N   UNL     1     -10.579  -2.595   2.710  1.00  0.00    -0.248 NA
ATOM     62  C   UNL     1     -11.638  -3.902   1.087  1.00  0.00     0.031 C 
ATOM     63  C   UNL     1     -12.675  -0.089   5.691  1.00  0.00     0.029 A 
ATOM     64  C   UNL     1     -12.057  -0.899   4.753  1.00  0.00     0.049 A 
ATOM     65  H   UNL     1      -9.995  -1.254   4.459  1.00  0.00     0.167 HD
ATOM     66  C   UNL     1     -11.957  -2.436   2.819  1.00  0.00     0.074 A 
ATOM     67  C   UNL     1     -12.555  -3.229   1.766  1.00  0.00     0.031 C 
ATOM     68  C   UNL     1     -12.662  -1.713   3.726  1.00  0.00     0.034 A 
BRANCH  55  69
ATOM     69  C   UNL     1      -9.062   1.373   7.715  1.00  0.00     0.023 A 
ATOM     70  C   UNL     1      -8.440   2.630   7.650  1.00  0.00     0.031 A 
ATOM     71  C   UNL     1      -9.589   0.958   8.953  1.00  0.00     0.131 A 
ATOM     72  C   UNL     1      -8.304   3.397   8.818  1.00  0.00     0.055 A 
ATOM     73  C   UNL     1      -9.525   1.762  10.089  1.00  0.00     0.041 A 
ATOM     74  F   UNL     1     -10.164  -0.249   9.078  1.00  0.00    -0.206 F 
ATOM     75  C   UNL     1      -8.866   2.985  10.029  1.00  0.00     0.022 A 
BRANCH  72  76
ATOM     76  S   UNL     1      -7.245   4.869   8.769  1.00  0.00     0.124 S 
ATOM     77  O   UNL     1      -5.976   4.304   8.317  1.00  0.00    -0.237 OA
ATOM     78  O   UNL     1      -7.940   5.724   7.814  1.00  0.00    -0.237 OA
ATOM     79  O   UNL     1      -7.252   5.341  10.152  1.00  0.00    -0.744 OA
ENDBRANCH  72  76
ENDBRANCH  55  69
BRANCH  56  80
ATOM     80  C   UNL     1      -9.120  -4.891  -0.023  1.00  0.00     0.023 A 
ATOM     81  C   UNL     1      -9.640  -4.457  -1.256  1.00  0.00     0.031 A 
ATOM     82  C   UNL     1      -8.697  -6.231   0.066  1.00  0.00     0.131 A 
ATOM     83  C   UNL     1      -9.755  -5.361  -2.329  1.00  0.00     0.055 A 
ATOM     84  C   UNL     1      -8.738  -7.100  -1.025  1.00  0.00     0.041 A 
ATOM     85  F   UNL     1      -8.230  -6.721   1.225  1.00  0.00    -0.206 F 
ATOM     86  C   UNL     1      -9.283  -6.671  -2.228  1.00  0.00     0.022 A 
BRANCH  83  87
ATOM     87  S   UNL     1     -10.633  -4.839  -3.830  1.00  0.00     0.124 S 
ATOM     88  O   UNL     1     -11.948  -4.496  -3.300  1.00  0.00    -0.237 OA
ATOM     89  O   UNL     1      -9.812  -3.723  -4.286  1.00  0.00    -0.237 OA
ATOM     90  O   UNL     1     -10.592  -6.027  -4.680  1.00  0.00    -0.744 OA
ENDBRANCH  83  87
ENDBRANCH  56  80
BRANCH  68  91
ATOM     91  C   UNL     1     -14.167  -1.739   3.606  1.00  0.00     0.023 A 
ATOM     92  C   UNL     1     -14.902  -2.920   3.812  1.00  0.00     0.031 A 
ATOM     93  C   UNL     1     -14.874  -0.575   3.259  1.00  0.00     0.131 A 
ATOM     94  C   UNL     1     -16.291  -2.926   3.610  1.00  0.00     0.055 A 
ATOM     95  C   UNL     1     -16.263  -0.571   3.122  1.00  0.00     0.041 A 
ATOM     96  F   UNL     1     -14.225   0.581   3.045  1.00  0.00    -0.206 F 
ATOM     97  C   UNL     1     -16.978  -1.754   3.283  1.00  0.00     0.022 A 
BRANCH  94  98
ATOM     98  S   UNL     1     -17.177  -4.508   3.679  1.00  0.00     0.124 S 
ATOM     99  O   UNL     1     -16.500  -5.280   2.643  1.00  0.00    -0.237 OA
ATOM    100  O   UNL     1     -16.940  -4.939   5.053  1.00  0.00    -0.237 OA
ATOM    101  O   UNL     1     -18.559  -4.141   3.376  1.00  0.00    -0.744 OA
ENDBRANCH  94  98
ENDBRANCH  68  91
ENDBRANCH  42  43
ENDBRANCH  35  37
ENDBRANCH  34  35
ENDBRANCH  33  34
ENDBRANCH  32  33
ENDBRANCH  31  32
ENDBRANCH  30  31
ENDBRANCH   1  30
TORSDOF 24
