REMARK SMILES O=C(COc1cc(-c2ccccc2)nc(NCc2ccc(Cl)cc2)n1)OCCOCCOCCOC(=O)c1ccc(-c2c3nc(c(-c4cc(S(=O)(=O)[O-])ccc4F)c4ccc([nH]4)c(-c4cc(S(=O)(=O)[O-])ccc4F)c4nc(c(-c5cc(S(=O)(=O)[O-])ccc5F)c5ccc2[nH]5)C=C4)C=C3)cc1
REMARK SMILES IDX 30 1 29 2 28 3 27 4 26 5 2 6 1 7 3 8 4 9 5 10 6 11 25 12
REMARK SMILES IDX 7 13 15 14 14 15 8 16 9 17 13 18 10 19 12 20 11 21 16 22
REMARK SMILES IDX 17 24 18 25 19 26 24 27 20 28 23 29 21 30 22 31 31 32 32 33
REMARK SMILES IDX 33 34 34 35 35 36 36 37 37 38 38 39 39 40 100 41 40 42 99 43
REMARK SMILES IDX 41 44 42 45 43 46 93 47 44 48 98 49 92 50 94 51 45 52 97 53
REMARK SMILES IDX 91 54 90 55 46 57 78 58 58 59 77 60 59 61 62 62 76 63 95 64
REMARK SMILES IDX 60 65 61 66 75 68 96 69 63 70 47 71 48 72 56 73 49 74 55 75
REMARK SMILES IDX 57 76 54 77 50 78 51 79 52 80 53 81 79 82 80 83 88 84 81 85
REMARK SMILES IDX 87 86 89 87 86 88 82 89 83 90 84 91 85 92 64 93 65 94 73 95
REMARK SMILES IDX 66 96 72 97 74 98 71 99 67 100 68 101 69 102 70 103
REMARK H PARENT 16 23 94 56 62 67
REMARK Flexibility Score: inf
ROOT
ATOM      1  C   UNL     1       3.486   2.177   0.662  1.00  0.00     0.188 C 
ENDROOT
BRANCH   1   2
ATOM      2  O   UNL     1       4.782   1.873   0.178  1.00  0.00    -0.376 OA
BRANCH   2   3
ATOM      3  C   UNL     1       5.138   0.513   0.059  1.00  0.00     0.202 C 
BRANCH   3   4
ATOM      4  C   UNL     1       4.348  -0.235  -1.012  1.00  0.00     0.261 C 
BRANCH   4   5
ATOM      5  O   UNL     1       2.909  -0.290  -0.842  1.00  0.00    -0.461 OA
BRANCH   5   6
ATOM      6  C   UNL     1       2.209  -0.693   0.245  1.00  0.00     0.344 C 
ATOM      7  O   UNL     1       0.990  -0.545   0.272  1.00  0.00    -0.248 OA
BRANCH   6   8
ATOM      8  C   UNL     1       2.963  -1.300   1.419  1.00  0.00     0.353 C 
BRANCH   8   9
ATOM      9  O   UNL     1       4.057  -2.119   1.010  1.00  0.00    -0.466 OA
BRANCH   9  10
ATOM     10  C   UNL     1       3.574  -3.378   0.809  1.00  0.00     0.219 A 
ATOM     11  C   UNL     1       2.733  -3.641  -0.229  1.00  0.00     0.097 A 
ATOM     12  N   UNL     1       3.822  -4.211   1.802  1.00  0.00    -0.177 NA
ATOM     13  C   UNL     1       1.964  -4.769  -0.085  1.00  0.00     0.080 A 
ATOM     14  C   UNL     1       3.100  -5.327   1.842  1.00  0.00     0.226 A 
ATOM     15  N   UNL     1       2.136  -5.623   0.952  1.00  0.00    -0.213 NA
BRANCH  13  16
ATOM     16  C   UNL     1       0.813  -4.947  -0.989  1.00  0.00     0.000 A 
ATOM     17  C   UNL     1      -0.462  -5.245  -0.488  1.00  0.00     0.010 A 
ATOM     18  C   UNL     1       0.924  -4.651  -2.365  1.00  0.00     0.010 A 
ATOM     19  C   UNL     1      -1.585  -5.218  -1.323  1.00  0.00     0.001 A 
ATOM     20  C   UNL     1      -0.195  -4.617  -3.197  1.00  0.00     0.001 A 
ATOM     21  C   UNL     1      -1.452  -4.897  -2.673  1.00  0.00     0.000 A 
ENDBRANCH  13  16
BRANCH  14  22
ATOM     22  N   UNL     1       3.335  -6.178   2.881  1.00  0.00    -0.350 N 
ATOM     23  H   UNL     1       2.731  -6.939   3.041  1.00  0.00     0.164 HD
BRANCH  22  24
ATOM     24  C   UNL     1       4.470  -5.964   3.744  1.00  0.00     0.152 C 
BRANCH  24  25
ATOM     25  C   UNL     1       4.106  -6.275   5.169  1.00  0.00    -0.029 A 
ATOM     26  C   UNL     1       3.731  -5.246   6.048  1.00  0.00     0.007 A 
ATOM     27  C   UNL     1       4.127  -7.598   5.626  1.00  0.00     0.007 A 
ATOM     28  C   UNL     1       3.415  -5.536   7.375  1.00  0.00     0.021 A 
ATOM     29  C   UNL     1       3.810  -7.885   6.951  1.00  0.00     0.021 A 
ATOM     30  C   UNL     1       3.469  -6.854   7.823  1.00  0.00     0.041 A 
ATOM     31  Cl  UNL     1       3.151  -7.231   9.467  1.00  0.00    -0.084 Cl
ENDBRANCH  24  25
ENDBRANCH  22  24
ENDBRANCH  14  22
ENDBRANCH   9  10
ENDBRANCH   8   9
ENDBRANCH   6   8
ENDBRANCH   5   6
ENDBRANCH   4   5
ENDBRANCH   3   4
ENDBRANCH   2   3
ENDBRANCH   1   2
BRANCH   1  32
ATOM     32  C   UNL     1       2.563   2.830  -0.382  1.00  0.00     0.188 C 
BRANCH  32  33
ATOM     33  O   UNL     1       3.122   3.562  -1.466  1.00  0.00    -0.376 OA
BRANCH  33  34
ATOM     34  C   UNL     1       4.386   4.187  -1.315  1.00  0.00     0.202 C 
BRANCH  34  35
ATOM     35  C   UNL     1       4.533   5.300  -0.264  1.00  0.00     0.261 C 
BRANCH  35  36
ATOM     36  O   UNL     1       4.187   4.953   1.093  1.00  0.00    -0.460 OA
BRANCH  36  37
ATOM     37  C   UNL     1       2.993   5.424   1.544  1.00  0.00     0.338 C 
ATOM     38  O   UNL     1       2.217   6.127   0.922  1.00  0.00    -0.246 OA
BRANCH  37  39
ATOM     39  C   UNL     1       2.646   4.825   2.863  1.00  0.00     0.060 A 
ATOM     40  C   UNL     1       1.423   4.146   2.986  1.00  0.00     0.016 A 
ATOM     41  C   UNL     1       3.463   4.980   3.985  1.00  0.00     0.016 A 
ATOM     42  C   UNL     1       0.993   3.667   4.230  1.00  0.00     0.010 A 
ATOM     43  C   UNL     1       3.018   4.521   5.237  1.00  0.00     0.010 A 
ATOM     44  C   UNL     1       1.762   3.896   5.378  1.00  0.00    -0.014 A 
BRANCH  44  45
ATOM     45  C   UNL     1       1.168   3.684   6.731  1.00  0.00     0.031 A 
ATOM     46  C   UNL     1       0.604   4.879   7.464  1.00  0.00     0.074 A 
ATOM     47  C   UNL     1       1.102   2.470   7.310  1.00  0.00     0.049 A 
ATOM     48  N   UNL     1       0.118   4.964   8.676  1.00  0.00    -0.248 NA
ATOM     49  C   UNL     1       0.598   6.149   6.723  1.00  0.00     0.031 C 
ATOM     50  C   UNL     1       1.554   1.215   6.713  1.00  0.00     0.029 A 
ATOM     51  N   UNL     1       0.633   2.100   8.550  1.00  0.00    -0.354 N 
ATOM     52  C   UNL     1      -0.240   6.298   8.851  1.00  0.00     0.074 A 
ATOM     53  C   UNL     1       0.116   6.987   7.628  1.00  0.00     0.031 C 
ATOM     54  C   UNL     1       1.363   0.217   7.597  1.00  0.00     0.029 A 
ATOM     55  C   UNL     1       0.806   0.765   8.833  1.00  0.00     0.049 A 
ATOM     56  H   UNL     1       0.213   2.733   9.176  1.00  0.00     0.167 HD
ATOM     57  C   UNL     1      -0.814   6.897   9.924  1.00  0.00     0.034 A 
ATOM     58  C   UNL     1       0.577   0.073   9.968  1.00  0.00     0.034 A 
ATOM     59  C   UNL     1      -1.165   6.215  11.146  1.00  0.00     0.049 A 
ATOM     60  C   UNL     1       0.026   0.778  11.188  1.00  0.00     0.074 A 
ATOM     61  C   UNL     1      -1.774   6.733  12.277  1.00  0.00     0.029 A 
ATOM     62  N   UNL     1      -0.925   4.873  11.409  1.00  0.00    -0.354 N 
ATOM     63  N   UNL     1      -0.302   2.040  11.340  1.00  0.00    -0.248 NA
ATOM     64  C   UNL     1      -0.182  -0.043  12.392  1.00  0.00     0.031 C 
ATOM     65  C   UNL     1      -1.825   5.731  13.251  1.00  0.00     0.029 A 
ATOM     66  C   UNL     1      -1.335   4.560  12.698  1.00  0.00     0.049 A 
ATOM     67  H   UNL     1      -0.523   4.237  10.775  1.00  0.00     0.167 HD
ATOM     68  C   UNL     1      -0.785   2.151  12.644  1.00  0.00     0.074 A 
ATOM     69  C   UNL     1      -0.716   0.831  13.231  1.00  0.00     0.031 C 
ATOM     70  C   UNL     1      -1.252   3.248  13.293  1.00  0.00     0.034 A 
BRANCH  57  71
ATOM     71  C   UNL     1      -1.046   8.388   9.846  1.00  0.00     0.023 A 
ATOM     72  C   UNL     1      -1.935   8.955   8.917  1.00  0.00     0.031 A 
ATOM     73  C   UNL     1      -0.353   9.255  10.710  1.00  0.00     0.131 A 
ATOM     74  C   UNL     1      -2.055  10.351   8.827  1.00  0.00     0.055 A 
ATOM     75  C   UNL     1      -0.540  10.638  10.671  1.00  0.00     0.041 A 
ATOM     76  F   UNL     1       0.526   8.773  11.602  1.00  0.00    -0.206 F 
ATOM     77  C   UNL     1      -1.384  11.194   9.716  1.00  0.00     0.022 A 
BRANCH  74  78
ATOM     78  S   UNL     1      -2.989  11.053   7.440  1.00  0.00     0.124 S 
ATOM     79  O   UNL     1      -2.275  10.497   6.293  1.00  0.00    -0.237 OA
ATOM     80  O   UNL     1      -4.332  10.535   7.670  1.00  0.00    -0.237 OA
ATOM     81  O   UNL     1      -2.836  12.495   7.620  1.00  0.00    -0.744 OA
ENDBRANCH  74  78
ENDBRANCH  57  71
BRANCH  58  82
ATOM     82  C   UNL     1       0.938  -1.369  10.073  1.00  0.00     0.023 A 
ATOM     83  C   UNL     1      -0.045  -2.350  10.274  1.00  0.00     0.031 A 
ATOM     84  C   UNL     1       2.288  -1.759  10.118  1.00  0.00     0.131 A 
ATOM     85  C   UNL     1       0.337  -3.661  10.595  1.00  0.00     0.055 A 
ATOM     86  C   UNL     1       2.662  -3.073  10.395  1.00  0.00     0.041 A 
ATOM     87  F   UNL     1       3.263  -0.859   9.916  1.00  0.00    -0.206 F 
ATOM     88  C   UNL     1       1.683  -4.026  10.659  1.00  0.00     0.022 A 
BRANCH  85  89
ATOM     89  S   UNL     1      -0.951  -4.867  11.017  1.00  0.00     0.124 S 
ATOM     90  O   UNL     1      -1.471  -4.316  12.263  1.00  0.00    -0.237 OA
ATOM     91  O   UNL     1      -1.837  -4.785   9.860  1.00  0.00    -0.237 OA
ATOM     92  O   UNL     1      -0.215  -6.123  11.145  1.00  0.00    -0.744 OA
ENDBRANCH  85  89
ENDBRANCH  58  82
BRANCH  70  93
ATOM     93  C   UNL     1      -1.780   3.057  14.697  1.00  0.00     0.023 A 
ATOM     94  C   UNL     1      -0.945   2.679  15.765  1.00  0.00     0.031 A 
ATOM     95  C   UNL     1      -3.148   3.245  14.967  1.00  0.00     0.131 A 
ATOM     96  C   UNL     1      -1.495   2.450  17.037  1.00  0.00     0.055 A 
ATOM     97  C   UNL     1      -3.678   3.078  16.247  1.00  0.00     0.041 A 
ATOM     98  F   UNL     1      -3.995   3.599  13.987  1.00  0.00    -0.206 F 
ATOM     99  C   UNL     1      -2.853   2.665  17.288  1.00  0.00     0.022 A 
BRANCH  96 100
ATOM    100  S   UNL     1      -0.431   1.771  18.341  1.00  0.00     0.124 S 
ATOM    101  O   UNL     1       0.034   0.527  17.737  1.00  0.00    -0.237 OA
ATOM    102  O   UNL     1       0.573   2.817  18.500  1.00  0.00    -0.237 OA
ATOM    103  O   UNL     1      -1.339   1.608  19.475  1.00  0.00    -0.744 OA
ENDBRANCH  96 100
ENDBRANCH  70  93
ENDBRANCH  44  45
ENDBRANCH  37  39
ENDBRANCH  36  37
ENDBRANCH  35  36
ENDBRANCH  34  35
ENDBRANCH  33  34
ENDBRANCH  32  33
ENDBRANCH   1  32
TORSDOF 26
