REMARK SMILES O=C(OCCOCCOCCOC(=O)[C@@H]1CC=CC[C@H]1C(=O)N1CC[NH+](Cc2ccc3c(c2)OCO3)CC1)c1ccc(-c2c3nc(c(-c4cc(S(=O)(=O)[O-])ccc4F)c4ccc([nH]4)c(-c4cc(S(=O)(=O)[O-])ccc4F)c4nc(c(-c5cc(S(=O)(=O)[O-])ccc5F)c5ccc2[nH]5)C=C4)C=C3)cc1
REMARK SMILES IDX 7 1 6 2 5 3 4 4 3 5 2 6 1 7 39 8 40 9 101 10 41 11 100 12
REMARK SMILES IDX 42 13 43 14 44 15 94 16 45 17 99 18 93 19 95 20 46 21 98 22
REMARK SMILES IDX 92 23 91 24 47 26 79 27 59 28 78 29 60 30 63 31 77 32 96 33
REMARK SMILES IDX 61 34 62 35 76 37 97 38 64 39 48 40 49 41 57 42 50 43 56 44
REMARK SMILES IDX 58 45 55 46 51 47 52 48 53 49 54 50 80 51 81 52 89 53 82 54
REMARK SMILES IDX 88 55 90 56 87 57 83 58 84 59 85 60 86 61 65 62 66 63 74 64
REMARK SMILES IDX 67 65 73 66 75 67 72 68 68 69 69 70 70 71 71 72 8 73 9 74
REMARK SMILES IDX 10 75 11 76 12 77 13 78 14 79 15 80 16 81 20 82 17 83 19 84
REMARK SMILES IDX 18 85 21 86 22 87 23 88 24 89 38 90 25 91 37 92 26 93 27 95
REMARK SMILES IDX 28 96 29 97 33 98 30 99 32 100 31 101 34 102 36 103 35 104
REMARK H PARENT 95 25 63 36 26 94
REMARK Flexibility Score: inf
ROOT
ATOM      1  C   UNL     1       5.149  -7.692  -0.047  1.00  0.00     0.188 C 
ENDROOT
BRANCH   1   2
ATOM      2  O   UNL     1       3.851  -8.281   0.034  1.00  0.00    -0.376 OA
BRANCH   2   3
ATOM      3  C   UNL     1       3.717  -9.502  -0.696  1.00  0.00     0.202 C 
BRANCH   3   4
ATOM      4  C   UNL     1       3.810  -9.403  -2.233  1.00  0.00     0.261 C 
BRANCH   4   5
ATOM      5  O   UNL     1       4.451  -8.216  -2.731  1.00  0.00    -0.460 OA
BRANCH   5   6
ATOM      6  C   UNL     1       3.867  -7.119  -3.289  1.00  0.00     0.338 C 
ATOM      7  O   UNL     1       4.521  -6.449  -4.080  1.00  0.00    -0.246 OA
BRANCH   6   8
ATOM      8  C   UNL     1       2.466  -6.688  -2.963  1.00  0.00     0.060 A 
ATOM      9  C   UNL     1       1.699  -7.209  -1.925  1.00  0.00     0.016 A 
ATOM     10  C   UNL     1       1.893  -5.656  -3.725  1.00  0.00     0.016 A 
ATOM     11  C   UNL     1       0.387  -6.816  -1.699  1.00  0.00     0.010 A 
ATOM     12  C   UNL     1       0.585  -5.208  -3.471  1.00  0.00     0.010 A 
ATOM     13  C   UNL     1      -0.185  -5.811  -2.466  1.00  0.00    -0.014 A 
BRANCH  13  14
ATOM     14  C   UNL     1      -1.619  -5.507  -2.266  1.00  0.00     0.031 A 
ATOM     15  C   UNL     1      -2.596  -5.967  -3.298  1.00  0.00     0.074 A 
ATOM     16  C   UNL     1      -2.070  -4.983  -1.109  1.00  0.00     0.049 A 
ATOM     17  N   UNL     1      -3.883  -5.768  -3.349  1.00  0.00    -0.248 NA
ATOM     18  C   UNL     1      -2.065  -6.807  -4.384  1.00  0.00     0.031 C 
ATOM     19  C   UNL     1      -1.242  -4.737   0.065  1.00  0.00     0.029 A 
ATOM     20  N   UNL     1      -3.320  -4.578  -0.711  1.00  0.00    -0.354 N 
ATOM     21  C   UNL     1      -4.322  -6.461  -4.466  1.00  0.00     0.074 A 
ATOM     22  C   UNL     1      -3.161  -7.068  -5.080  1.00  0.00     0.031 C 
ATOM     23  C   UNL     1      -1.993  -4.184   1.029  1.00  0.00     0.029 A 
ATOM     24  C   UNL     1      -3.319  -3.943   0.512  1.00  0.00     0.049 A 
ATOM     25  H   UNL     1      -4.134  -4.726  -1.245  1.00  0.00     0.167 HD
ATOM     26  C   UNL     1      -5.590  -6.575  -4.921  1.00  0.00     0.034 A 
ATOM     27  C   UNL     1      -4.249  -3.187   1.125  1.00  0.00     0.034 A 
ATOM     28  C   UNL     1      -6.717  -5.942  -4.285  1.00  0.00     0.049 A 
ATOM     29  C   UNL     1      -5.589  -3.112   0.471  1.00  0.00     0.074 A 
ATOM     30  C   UNL     1      -8.043  -5.955  -4.673  1.00  0.00     0.029 A 
ATOM     31  N   UNL     1      -6.645  -5.162  -3.135  1.00  0.00    -0.354 N 
ATOM     32  N   UNL     1      -5.989  -3.721  -0.620  1.00  0.00    -0.248 NA
ATOM     33  C   UNL     1      -6.607  -2.292   1.129  1.00  0.00     0.031 C 
ATOM     34  C   UNL     1      -8.755  -5.112  -3.814  1.00  0.00     0.029 A 
ATOM     35  C   UNL     1      -7.892  -4.638  -2.838  1.00  0.00     0.049 A 
ATOM     36  H   UNL     1      -5.827  -5.006  -2.609  1.00  0.00     0.167 HD
ATOM     37  C   UNL     1      -7.324  -3.389  -0.760  1.00  0.00     0.074 A 
ATOM     38  C   UNL     1      -7.660  -2.535   0.365  1.00  0.00     0.031 C 
ATOM     39  C   UNL     1      -8.194  -3.769  -1.726  1.00  0.00     0.034 A 
BRANCH  26  40
ATOM     40  C   UNL     1      -5.787  -7.316  -6.213  1.00  0.00     0.023 A 
ATOM     41  C   UNL     1      -5.584  -8.702  -6.324  1.00  0.00     0.031 A 
ATOM     42  C   UNL     1      -6.141  -6.600  -7.370  1.00  0.00     0.131 A 
ATOM     43  C   UNL     1      -5.690  -9.320  -7.580  1.00  0.00     0.055 A 
ATOM     44  C   UNL     1      -6.312  -7.231  -8.600  1.00  0.00     0.041 A 
ATOM     45  F   UNL     1      -6.307  -5.268  -7.323  1.00  0.00    -0.206 F 
ATOM     46  C   UNL     1      -6.077  -8.598  -8.713  1.00  0.00     0.022 A 
BRANCH  43  47
ATOM     47  S   UNL     1      -5.204 -11.060  -7.739  1.00  0.00     0.124 S 
ATOM     48  O   UNL     1      -3.785 -11.003  -7.395  1.00  0.00    -0.237 OA
ATOM     49  O   UNL     1      -6.069 -11.723  -6.774  1.00  0.00    -0.237 OA
ATOM     50  O   UNL     1      -5.485 -11.367  -9.143  1.00  0.00    -0.744 OA
ENDBRANCH  43  47
ENDBRANCH  26  40
BRANCH  27  51
ATOM     51  C   UNL     1      -3.926  -2.357   2.324  1.00  0.00     0.023 A 
ATOM     52  C   UNL     1      -4.570  -2.536   3.556  1.00  0.00     0.031 A 
ATOM     53  C   UNL     1      -3.030  -1.277   2.207  1.00  0.00     0.131 A 
ATOM     54  C   UNL     1      -4.341  -1.626   4.604  1.00  0.00     0.055 A 
ATOM     55  C   UNL     1      -2.746  -0.422   3.275  1.00  0.00     0.041 A 
ATOM     56  F   UNL     1      -2.423  -1.026   1.036  1.00  0.00    -0.206 F 
ATOM     57  C   UNL     1      -3.416  -0.586   4.481  1.00  0.00     0.022 A 
BRANCH  54  58
ATOM     58  S   UNL     1      -5.389  -1.725   6.083  1.00  0.00     0.124 S 
ATOM     59  O   UNL     1      -6.724  -1.671   5.503  1.00  0.00    -0.237 OA
ATOM     60  O   UNL     1      -4.986  -3.006   6.653  1.00  0.00    -0.237 OA
ATOM     61  O   UNL     1      -4.996  -0.548   6.858  1.00  0.00    -0.744 OA
ENDBRANCH  54  58
ENDBRANCH  27  51
BRANCH  39  62
ATOM     62  C   UNL     1      -9.599  -3.269  -1.571  1.00  0.00     0.023 A 
ATOM     63  C   UNL     1      -9.898  -1.903  -1.683  1.00  0.00     0.031 A 
ATOM     64  C   UNL     1     -10.638  -4.164  -1.267  1.00  0.00     0.131 A 
ATOM     65  C   UNL     1     -11.199  -1.458  -1.425  1.00  0.00     0.055 A 
ATOM     66  C   UNL     1     -11.947  -3.723  -1.087  1.00  0.00     0.041 A 
ATOM     67  F   UNL     1     -10.393  -5.478  -1.136  1.00  0.00    -0.206 F 
ATOM     68  C   UNL     1     -12.230  -2.361  -1.152  1.00  0.00     0.022 A 
BRANCH  65  69
ATOM     69  S   UNL     1     -11.496   0.326  -1.344  1.00  0.00     0.124 S 
ATOM     70  O   UNL     1     -10.647   0.721  -0.225  1.00  0.00    -0.237 OA
ATOM     71  O   UNL     1     -11.063   0.777  -2.663  1.00  0.00    -0.237 OA
ATOM     72  O   UNL     1     -12.934   0.421  -1.098  1.00  0.00    -0.744 OA
ENDBRANCH  65  69
ENDBRANCH  39  62
ENDBRANCH  13  14
ENDBRANCH   6   8
ENDBRANCH   5   6
ENDBRANCH   4   5
ENDBRANCH   3   4
ENDBRANCH   2   3
ENDBRANCH   1   2
BRANCH   1  73
ATOM     73  C   UNL     1       5.474  -6.819   1.163  1.00  0.00     0.188 C 
BRANCH  73  74
ATOM     74  O   UNL     1       5.506  -7.452   2.438  1.00  0.00    -0.376 OA
BRANCH  74  75
ATOM     75  C   UNL     1       4.327  -8.146   2.825  1.00  0.00     0.202 C 
BRANCH  75  76
ATOM     76  C   UNL     1       3.019  -7.353   3.041  1.00  0.00     0.261 C 
BRANCH  76  77
ATOM     77  O   UNL     1       2.777  -6.210   2.192  1.00  0.00    -0.463 OA
BRANCH  77  78
ATOM     78  C   UNL     1       2.926  -5.000   2.797  1.00  0.00     0.310 C 
ATOM     79  O   UNL     1       3.298  -4.855   3.959  1.00  0.00    -0.252 OA
BRANCH  78  80
ATOM     80  C   UNL     1       2.532  -3.794   1.945  1.00  0.00     0.115 C 
ATOM     81  C   UNL     1       1.096  -3.459   2.314  1.00  0.00     0.043 C 
ATOM     82  C   UNL     1       2.787  -3.882   0.431  1.00  0.00     0.097 C 
ATOM     83  C   UNL     1       0.549  -2.343   1.487  1.00  0.00    -0.030 C 
ATOM     84  C   UNL     1       2.196  -2.675  -0.346  1.00  0.00     0.041 C 
ATOM     85  C   UNL     1       1.026  -2.004   0.286  1.00  0.00    -0.030 C 
BRANCH  82  86
ATOM     86  C   UNL     1       4.244  -3.893  -0.043  1.00  0.00     0.227 C 
ATOM     87  O   UNL     1       4.549  -4.503  -1.070  1.00  0.00    -0.275 OA
ATOM     88  N   UNL     1       5.114  -2.982   0.527  1.00  0.00    -0.331 N 
ATOM     89  C   UNL     1       6.091  -2.324  -0.334  1.00  0.00     0.181 C 
ATOM     90  C   UNL     1       5.547  -3.076   1.911  1.00  0.00     0.181 C 
ATOM     91  C   UNL     1       6.643  -1.012   0.284  1.00  0.00     0.284 C 
ATOM     92  C   UNL     1       5.868  -1.693   2.481  1.00  0.00     0.284 C 
ATOM     93  N   UNL     1       6.925  -0.995   1.734  1.00  0.00    -0.328 N 
ATOM     94  H   UNL     1       6.897  -0.009   1.992  1.00  0.00     0.348 HD
BRANCH  93  95
ATOM     95  C   UNL     1       8.290  -1.341   2.152  1.00  0.00     0.299 C 
BRANCH  95  96
ATOM     96  C   UNL     1       8.730  -2.781   1.980  1.00  0.00     0.010 A 
ATOM     97  C   UNL     1       9.151  -3.244   0.713  1.00  0.00     0.013 A 
ATOM     98  C   UNL     1       8.618  -3.698   3.045  1.00  0.00     0.060 A 
ATOM     99  C   UNL     1       9.348  -4.606   0.470  1.00  0.00     0.051 A 
ATOM    100  C   UNL     1       8.827  -5.037   2.776  1.00  0.00     0.166 A 
ATOM    101  C   UNL     1       9.166  -5.478   1.519  1.00  0.00     0.165 A 
ATOM    102  O   UNL     1       8.666  -6.060   3.658  1.00  0.00    -0.454 OA
ATOM    103  O   UNL     1       9.252  -6.833   1.448  1.00  0.00    -0.454 OA
ATOM    104  C   UNL     1       8.907  -7.197   2.802  1.00  0.00     0.468 C 
ENDBRANCH  95  96
ENDBRANCH  93  95
ENDBRANCH  82  86
ENDBRANCH  78  80
ENDBRANCH  77  78
ENDBRANCH  76  77
ENDBRANCH  75  76
ENDBRANCH  74  75
ENDBRANCH  73  74
ENDBRANCH   1  73
TORSDOF 23
