REMARK SMILES CS(=O)(=O)c1ccc(N2N=C(C(=O)OCCOCCOCCOC(=O)c3ccc(-c4c5nc(c(-c6cc(S(=O)(=O)[O-])ccc6F)c6ccc([nH]6)c(-c6cc(S(=O)(=O)[O-])ccc6F)c6nc(c(-c7cc(S(=O)(=O)[O-])ccc7F)c7ccc4[nH]7)C=C6)C=C5)cc3)C[C@H]2c2cccs2)cc1
REMARK SMILES IDX 19 1 18 2 17 3 16 4 15 5 14 6 12 7 13 8 11 9 9 10 10 11
REMARK SMILES IDX 90 12 89 13 8 14 5 15 6 16 97 17 7 18 96 19 2 20 1 21 3 22
REMARK SMILES IDX 4 23 91 24 92 25 95 26 93 27 94 28 20 29 21 30 22 31 23 32
REMARK SMILES IDX 24 33 25 34 26 35 27 36 88 37 28 38 87 39 29 40 30 41 31 42
REMARK SMILES IDX 81 43 32 44 86 45 80 46 82 47 33 48 85 49 79 50 78 51 34 53
REMARK SMILES IDX 66 54 46 55 65 56 47 57 50 58 64 59 83 60 48 61 49 62 63 64
REMARK SMILES IDX 84 65 51 66 35 67 36 68 44 69 37 70 43 71 45 72 42 73 38 74
REMARK SMILES IDX 39 75 40 76 41 77 67 78 68 79 76 80 69 81 75 82 77 83 74 84
REMARK SMILES IDX 70 85 71 86 72 87 73 88 52 89 53 90 61 91 54 92 60 93 62 94
REMARK SMILES IDX 59 95 55 96 56 97 57 98 58 99
REMARK H PARENT 82 52 50 63
REMARK Flexibility Score: inf
ROOT
ATOM      1  C   UNL     1       4.316   7.002  -7.804  1.00  0.00     0.188 C 
ENDROOT
BRANCH   1   2
ATOM      2  C   UNL     1       3.220   6.586  -8.806  1.00  0.00     0.188 C 
BRANCH   2   3
ATOM      3  O   UNL     1       2.924   7.446  -9.901  1.00  0.00    -0.376 OA
BRANCH   3   4
ATOM      4  C   UNL     1       2.640   8.820  -9.667  1.00  0.00     0.202 C 
BRANCH   4   5
ATOM      5  C   UNL     1       1.716   9.243  -8.512  1.00  0.00     0.261 C 
BRANCH   5   6
ATOM      6  O   UNL     1       2.039   8.637  -7.252  1.00  0.00    -0.459 OA
BRANCH   6   7
ATOM      7  C   UNL     1       1.016   8.014  -6.628  1.00  0.00     0.354 C 
ATOM      8  O   UNL     1      -0.160   8.062  -6.902  1.00  0.00    -0.245 OA
BRANCH   7   9
ATOM      9  C   UNL     1       1.559   7.128  -5.529  1.00  0.00     0.148 C 
ATOM     10  N   UNL     1       1.860   5.440  -4.281  1.00  0.00    -0.256 N 
ATOM     11  N   UNL     1       1.259   5.868  -5.434  1.00  0.00    -0.169 NA
ATOM     12  C   UNL     1       2.258   6.584  -3.429  1.00  0.00     0.154 C 
ATOM     13  C   UNL     1       2.519   7.649  -4.505  1.00  0.00     0.099 C 
BRANCH  10  14
ATOM     14  C   UNL     1       1.505   4.194  -3.769  1.00  0.00     0.060 A 
ATOM     15  C   UNL     1       0.843   1.684  -2.676  1.00  0.00     0.067 A 
ATOM     16  C   UNL     1       2.037   1.838  -3.383  1.00  0.00     0.022 A 
ATOM     17  C   UNL     1      -0.049   2.750  -2.561  1.00  0.00     0.022 A 
ATOM     18  C   UNL     1       2.365   3.094  -3.915  1.00  0.00     0.029 A 
ATOM     19  C   UNL     1       0.279   3.987  -3.123  1.00  0.00     0.029 A 
BRANCH  15  20
ATOM     20  S   UNL     1       0.404   0.108  -1.977  1.00  0.00     0.175 S 
ATOM     21  C   UNL     1       1.074   0.181  -0.338  1.00  0.00     0.163 C 
ATOM     22  O   UNL     1       1.129  -0.920  -2.698  1.00  0.00    -0.224 OA
ATOM     23  O   UNL     1      -1.039   0.071  -1.844  1.00  0.00    -0.224 OA
ENDBRANCH  15  20
ENDBRANCH  10  14
BRANCH  12  24
ATOM     24  C   UNL     1       1.258   7.038  -2.365  1.00  0.00     0.030 A 
ATOM     25  C   UNL     1       1.051   6.464  -1.121  1.00  0.00     0.017 A 
ATOM     26  S   UNL     1       0.181   8.362  -2.598  1.00  0.00    -0.147 S 
ATOM     27  C   UNL     1      -0.002   7.088  -0.390  1.00  0.00     0.012 A 
ATOM     28  C   UNL     1      -0.538   8.155  -1.070  1.00  0.00     0.065 A 
ENDBRANCH  12  24
ENDBRANCH   7   9
ENDBRANCH   6   7
ENDBRANCH   5   6
ENDBRANCH   4   5
ENDBRANCH   3   4
ENDBRANCH   2   3
ENDBRANCH   1   2
BRANCH   1  29
ATOM     29  O   UNL     1       4.797   8.316  -7.962  1.00  0.00    -0.376 OA
BRANCH  29  30
ATOM     30  C   UNL     1       6.008   8.521  -8.673  1.00  0.00     0.202 C 
BRANCH  30  31
ATOM     31  C   UNL     1       6.555   7.586  -9.776  1.00  0.00     0.261 C 
BRANCH  31  32
ATOM     32  O   UNL     1       6.044   6.252  -9.867  1.00  0.00    -0.460 OA
BRANCH  32  33
ATOM     33  C   UNL     1       6.693   5.299  -9.153  1.00  0.00     0.338 C 
ATOM     34  O   UNL     1       7.639   5.469  -8.406  1.00  0.00    -0.246 OA
BRANCH  33  35
ATOM     35  C   UNL     1       5.920   4.042  -9.267  1.00  0.00     0.060 A 
ATOM     36  C   UNL     1       5.260   3.541  -8.136  1.00  0.00     0.016 A 
ATOM     37  C   UNL     1       5.848   3.365 -10.485  1.00  0.00     0.016 A 
ATOM     38  C   UNL     1       4.536   2.350  -8.217  1.00  0.00     0.010 A 
ATOM     39  C   UNL     1       5.145   2.158 -10.557  1.00  0.00     0.010 A 
ATOM     40  C   UNL     1       4.508   1.631  -9.418  1.00  0.00    -0.014 A 
BRANCH  40  41
ATOM     41  C   UNL     1       3.978   0.243  -9.441  1.00  0.00     0.031 A 
ATOM     42  C   UNL     1       4.961  -0.895  -9.378  1.00  0.00     0.074 A 
ATOM     43  C   UNL     1       2.657  -0.005  -9.503  1.00  0.00     0.049 A 
ATOM     44  N   UNL     1       4.755  -2.182  -9.473  1.00  0.00    -0.248 NA
ATOM     45  C   UNL     1       6.372  -0.522  -9.188  1.00  0.00     0.031 C 
ATOM     46  C   UNL     1       1.606   1.010  -9.504  1.00  0.00     0.029 A 
ATOM     47  N   UNL     1       1.976  -1.195  -9.586  1.00  0.00    -0.354 N 
ATOM     48  C   UNL     1       6.008  -2.775  -9.363  1.00  0.00     0.074 A 
ATOM     49  C   UNL     1       6.971  -1.702  -9.235  1.00  0.00     0.031 C 
ATOM     50  C   UNL     1       0.412   0.400  -9.598  1.00  0.00     0.029 A 
ATOM     51  C   UNL     1       0.614  -1.044  -9.710  1.00  0.00     0.049 A 
ATOM     52  H   UNL     1       2.421  -2.073  -9.559  1.00  0.00     0.167 HD
ATOM     53  C   UNL     1       6.324  -4.093  -9.363  1.00  0.00     0.034 A 
ATOM     54  C   UNL     1      -0.351  -1.963  -9.923  1.00  0.00     0.034 A 
ATOM     55  C   UNL     1       5.352  -5.149  -9.508  1.00  0.00     0.049 A 
ATOM     56  C   UNL     1       0.037  -3.422 -10.030  1.00  0.00     0.074 A 
ATOM     57  C   UNL     1       5.561  -6.517  -9.515  1.00  0.00     0.029 A 
ATOM     58  N   UNL     1       3.987  -4.957  -9.686  1.00  0.00    -0.354 N 
ATOM     59  N   UNL     1       1.227  -3.973  -9.932  1.00  0.00    -0.248 NA
ATOM     60  C   UNL     1      -1.048  -4.382 -10.272  1.00  0.00     0.031 C 
ATOM     61  C   UNL     1       4.341  -7.146  -9.783  1.00  0.00     0.029 A 
ATOM     62  C   UNL     1       3.351  -6.179  -9.847  1.00  0.00     0.049 A 
ATOM     63  H   UNL     1       3.538  -4.081  -9.697  1.00  0.00     0.167 HD
ATOM     64  C   UNL     1       1.022  -5.346 -10.061  1.00  0.00     0.074 A 
ATOM     65  C   UNL     1      -0.402  -5.538 -10.235  1.00  0.00     0.031 C 
ATOM     66  C   UNL     1       1.928  -6.358 -10.031  1.00  0.00     0.034 A 
BRANCH  53  67
ATOM     67  C   UNL     1       7.787  -4.456  -9.264  1.00  0.00     0.023 A 
ATOM     68  C   UNL     1       8.558  -4.135  -8.132  1.00  0.00     0.031 A 
ATOM     69  C   UNL     1       8.429  -5.105 -10.334  1.00  0.00     0.131 A 
ATOM     70  C   UNL     1       9.937  -4.397  -8.127  1.00  0.00     0.055 A 
ATOM     71  C   UNL     1       9.783  -5.441 -10.287  1.00  0.00     0.041 A 
ATOM     72  F   UNL     1       7.753  -5.412 -11.452  1.00  0.00    -0.206 F 
ATOM     73  C   UNL     1      10.549  -5.074  -9.185  1.00  0.00     0.022 A 
BRANCH  70  74
ATOM     74  S   UNL     1      10.947  -3.706  -6.788  1.00  0.00     0.124 S 
ATOM     75  O   UNL     1      10.667  -2.278  -6.913  1.00  0.00    -0.237 OA
ATOM     76  O   UNL     1      10.400  -4.363  -5.607  1.00  0.00    -0.237 OA
ATOM     77  O   UNL     1      12.309  -4.099  -7.147  1.00  0.00    -0.744 OA
ENDBRANCH  70  74
ENDBRANCH  53  67
BRANCH  54  78
ATOM     78  C   UNL     1      -1.773  -1.544 -10.109  1.00  0.00     0.023 A 
ATOM     79  C   UNL     1      -2.785  -1.983  -9.239  1.00  0.00     0.031 A 
ATOM     80  C   UNL     1      -2.152  -0.753 -11.209  1.00  0.00     0.131 A 
ATOM     81  C   UNL     1      -4.127  -1.673  -9.512  1.00  0.00     0.055 A 
ATOM     82  C   UNL     1      -3.481  -0.393 -11.440  1.00  0.00     0.041 A 
ATOM     83  F   UNL     1      -1.230  -0.318 -12.083  1.00  0.00    -0.206 F 
ATOM     84  C   UNL     1      -4.480  -0.866 -10.596  1.00  0.00     0.022 A 
BRANCH  81  85
ATOM     85  S   UNL     1      -5.424  -2.436  -8.497  1.00  0.00     0.124 S 
ATOM     86  O   UNL     1      -5.153  -3.857  -8.688  1.00  0.00    -0.237 OA
ATOM     87  O   UNL     1      -5.133  -1.899  -7.173  1.00  0.00    -0.237 OA
ATOM     88  O   UNL     1      -6.662  -1.951  -9.105  1.00  0.00    -0.744 OA
ENDBRANCH  81  85
ENDBRANCH  54  78
BRANCH  66  89
ATOM     89  C   UNL     1       1.396  -7.770 -10.134  1.00  0.00     0.023 A 
ATOM     90  C   UNL     1       0.766  -8.248 -11.297  1.00  0.00     0.031 A 
ATOM     91  C   UNL     1       1.522  -8.652  -9.044  1.00  0.00     0.131 A 
ATOM     92  C   UNL     1       0.236  -9.547 -11.322  1.00  0.00     0.055 A 
ATOM     93  C   UNL     1       1.054  -9.965  -9.100  1.00  0.00     0.041 A 
ATOM     94  F   UNL     1       2.113  -8.253  -7.906  1.00  0.00    -0.206 F 
ATOM     95  C   UNL     1       0.394 -10.415 -10.239  1.00  0.00     0.022 A 
BRANCH  92  96
ATOM     96  S   UNL     1      -0.751 -10.061 -12.756  1.00  0.00     0.124 S 
ATOM     97  O   UNL     1      -1.810  -9.057 -12.772  1.00  0.00    -0.237 OA
ATOM     98  O   UNL     1       0.217  -9.984 -13.845  1.00  0.00    -0.237 OA
ATOM     99  O   UNL     1      -1.184 -11.413 -12.408  1.00  0.00    -0.744 OA
ENDBRANCH  92  96
ENDBRANCH  66  89
ENDBRANCH  40  41
ENDBRANCH  33  35
ENDBRANCH  32  33
ENDBRANCH  31  32
ENDBRANCH  30  31
ENDBRANCH  29  30
ENDBRANCH   1  29
TORSDOF 23
