REMARK SMILES COc1ccc([C@@H]2[C@@H](C(=O)c3cccc4c3CCCC4)[C@H](C(=O)OCCOCCOCCOC(=O)c3ccc(-c4c5nc(c(-c6cc(S(=O)(=O)[O-])ccc6F)c6ccc([nH]6)c(-c6cc(S(=O)(=O)[O-])ccc6F)c6nc(c(-c7cc(S(=O)(=O)[O-])ccc7F)c7ccc4[nH]7)C=C6)C=C5)cc3)SC3=NC(=O)S[C@H]32)cc1
REMARK SMILES IDX 29 1 28 2 27 3 26 4 25 5 24 6 22 7 23 8 21 9 7 10 8 11
REMARK SMILES IDX 105 12 100 13 104 14 99 15 101 16 102 17 103 18 6 19 3 20
REMARK SMILES IDX 4 21 107 22 5 23 106 24 2 25 1 26 9 27 10 28 11 29 12 30
REMARK SMILES IDX 16 31 13 32 15 33 17 34 14 35 20 36 18 37 19 38 30 39 31 40
REMARK SMILES IDX 32 41 33 42 34 43 35 44 36 45 37 46 98 47 38 48 97 49 39 50
REMARK SMILES IDX 40 51 41 52 91 53 42 54 96 55 90 56 92 57 43 58 95 59 89 60
REMARK SMILES IDX 88 61 44 63 76 64 56 65 75 66 57 67 60 68 74 69 93 70 58 71
REMARK SMILES IDX 59 72 73 74 94 75 61 76 45 77 46 78 54 79 47 80 53 81 55 82
REMARK SMILES IDX 52 83 48 84 49 85 50 86 51 87 77 88 78 89 86 90 79 91 85 92
REMARK SMILES IDX 87 93 84 94 80 95 81 96 82 97 83 98 62 99 63 100 71 101
REMARK SMILES IDX 64 102 70 103 72 104 69 105 65 106 66 107 67 108 68 109
REMARK H PARENT 92 62 60 73
REMARK Flexibility Score: inf
ROOT
ATOM      1  C   UNL     1       4.597   4.737  -6.957  1.00  0.00     0.188 C 
ENDROOT
BRANCH   1   2
ATOM      2  C   UNL     1       4.925   5.920  -7.875  1.00  0.00     0.188 C 
BRANCH   2   3
ATOM      3  O   UNL     1       6.290   6.320  -7.975  1.00  0.00    -0.376 OA
BRANCH   3   4
ATOM      4  C   UNL     1       7.097   6.289  -6.806  1.00  0.00     0.202 C 
BRANCH   4   5
ATOM      5  C   UNL     1       6.699   7.233  -5.668  1.00  0.00     0.261 C 
BRANCH   5   6
ATOM      6  O   UNL     1       5.566   6.818  -4.859  1.00  0.00    -0.462 OA
BRANCH   6   7
ATOM      7  C   UNL     1       4.483   7.649  -4.888  1.00  0.00     0.320 C 
ATOM      8  O   UNL     1       4.346   8.550  -5.710  1.00  0.00    -0.251 OA
BRANCH   7   9
ATOM      9  C   UNL     1       3.547   7.528  -3.668  1.00  0.00     0.174 C 
ATOM     10  C   UNL     1       2.238   6.050  -1.885  1.00  0.00     0.052 C 
ATOM     11  C   UNL     1       2.991   6.141  -3.266  1.00  0.00     0.095 C 
ATOM     12  C   UNL     1       2.967   6.710  -0.707  1.00  0.00     0.121 C 
ATOM     13  C   UNL     1       3.289   8.120  -1.092  1.00  0.00     0.093 C 
ATOM     14  S   UNL     1       1.869   6.981   0.728  1.00  0.00    -0.052 SA
ATOM     15  S   UNL     1       4.505   8.319  -2.295  1.00  0.00    -0.093 SA
ATOM     16  N   UNL     1       2.643   9.120  -0.606  1.00  0.00    -0.200 NA
ATOM     17  C   UNL     1       1.719   8.694   0.312  1.00  0.00     0.306 C 
ATOM     18  O   UNL     1       0.851   9.387   0.808  1.00  0.00    -0.259 OA
BRANCH  10  19
ATOM     19  C   UNL     1       1.870   4.594  -1.567  1.00  0.00    -0.042 A 
ATOM     20  C   UNL     1       1.115   1.909  -1.251  1.00  0.00     0.118 A 
ATOM     21  C   UNL     1       0.140   2.894  -1.346  1.00  0.00     0.047 A 
ATOM     22  C   UNL     1       2.464   2.247  -1.310  1.00  0.00     0.047 A 
ATOM     23  C   UNL     1       0.515   4.232  -1.473  1.00  0.00     0.008 A 
ATOM     24  C   UNL     1       2.842   3.586  -1.463  1.00  0.00     0.008 A 
BRANCH  20  25
ATOM     25  O   UNL     1       0.698   0.608  -1.189  1.00  0.00    -0.497 OA
ATOM     26  C   UNL     1       1.039   0.016   0.061  1.00  0.00     0.278 C 
ENDBRANCH  20  25
ENDBRANCH  10  19
BRANCH  11  27
ATOM     27  C   UNL     1       2.005   5.571  -4.289  1.00  0.00     0.168 C 
ATOM     28  O   UNL     1       2.316   4.559  -4.918  1.00  0.00    -0.294 OA
BRANCH  27  29
ATOM     29  C   UNL     1       0.624   6.215  -4.484  1.00  0.00     0.021 A 
ATOM     30  C   UNL     1      -0.341   5.237  -4.739  1.00  0.00     0.012 A 
ATOM     31  C   UNL     1       0.684   7.211  -5.440  1.00  0.00    -0.034 A 
ATOM     32  C   UNL     1      -0.693   4.993  -6.061  1.00  0.00     0.001 A 
ATOM     33  C   UNL     1       0.820   6.761  -6.737  1.00  0.00    -0.044 A 
ATOM     34  C   UNL     1      -0.143   8.507  -5.385  1.00  0.00     0.036 C 
ATOM     35  C   UNL     1      -0.028   5.703  -7.068  1.00  0.00     0.004 A 
ATOM     36  C   UNL     1       1.553   7.736  -7.598  1.00  0.00     0.036 C 
ATOM     37  C   UNL     1      -0.447   9.077  -6.801  1.00  0.00     0.005 C 
ATOM     38  C   UNL     1       0.763   9.027  -7.741  1.00  0.00     0.005 C 
ENDBRANCH  27  29
ENDBRANCH  11  27
ENDBRANCH   7   9
ENDBRANCH   6   7
ENDBRANCH   5   6
ENDBRANCH   4   5
ENDBRANCH   3   4
ENDBRANCH   2   3
ENDBRANCH   1   2
BRANCH   1  39
ATOM     39  O   UNL     1       5.670   3.805  -6.927  1.00  0.00    -0.376 OA
BRANCH  39  40
ATOM     40  C   UNL     1       5.371   2.497  -7.375  1.00  0.00     0.202 C 
BRANCH  40  41
ATOM     41  C   UNL     1       5.079   2.393  -8.875  1.00  0.00     0.261 C 
BRANCH  41  42
ATOM     42  O   UNL     1       3.950   3.195  -9.277  1.00  0.00    -0.460 OA
BRANCH  42  43
ATOM     43  C   UNL     1       3.026   2.634 -10.096  1.00  0.00     0.338 C 
ATOM     44  O   UNL     1       3.002   1.469 -10.453  1.00  0.00    -0.246 OA
BRANCH  43  45
ATOM     45  C   UNL     1       2.063   3.671 -10.576  1.00  0.00     0.060 A 
ATOM     46  C   UNL     1       1.795   4.807  -9.827  1.00  0.00     0.016 A 
ATOM     47  C   UNL     1       1.362   3.500 -11.779  1.00  0.00     0.016 A 
ATOM     48  C   UNL     1       0.827   5.720 -10.261  1.00  0.00     0.010 A 
ATOM     49  C   UNL     1       0.384   4.436 -12.201  1.00  0.00     0.010 A 
ATOM     50  C   UNL     1       0.079   5.556 -11.421  1.00  0.00    -0.014 A 
BRANCH  50  51
ATOM     51  C   UNL     1      -1.113   6.458 -11.589  1.00  0.00     0.031 A 
ATOM     52  C   UNL     1      -2.495   5.875 -11.429  1.00  0.00     0.074 A 
ATOM     53  C   UNL     1      -1.017   7.810 -11.589  1.00  0.00     0.049 A 
ATOM     54  N   UNL     1      -3.659   6.433 -11.646  1.00  0.00    -0.248 NA
ATOM     55  C   UNL     1      -2.575   4.495 -10.929  1.00  0.00     0.031 C 
ATOM     56  C   UNL     1       0.231   8.563 -11.478  1.00  0.00     0.029 A 
ATOM     57  N   UNL     1      -1.986   8.794 -11.581  1.00  0.00    -0.354 N 
ATOM     58  C   UNL     1      -4.604   5.441 -11.417  1.00  0.00     0.074 A 
ATOM     59  C   UNL     1      -3.881   4.271 -10.962  1.00  0.00     0.031 C 
ATOM     60  C   UNL     1      -0.056   9.863 -11.285  1.00  0.00     0.029 A 
ATOM     61  C   UNL     1      -1.496  10.074 -11.410  1.00  0.00     0.049 A 
ATOM     62  H   UNL     1      -2.946   8.599 -11.687  1.00  0.00     0.167 HD
ATOM     63  C   UNL     1      -5.942   5.491 -11.633  1.00  0.00     0.034 A 
ATOM     64  C   UNL     1      -2.118  11.278 -11.401  1.00  0.00     0.034 A 
ATOM     65  C   UNL     1      -6.648   6.680 -12.043  1.00  0.00     0.049 A 
ATOM     66  C   UNL     1      -3.592  11.317 -11.751  1.00  0.00     0.074 A 
ATOM     67  C   UNL     1      -7.964   6.811 -12.455  1.00  0.00     0.029 A 
ATOM     68  N   UNL     1      -6.102   7.955 -12.066  1.00  0.00    -0.354 N 
ATOM     69  N   UNL     1      -4.449  10.327 -11.844  1.00  0.00    -0.248 NA
ATOM     70  C   UNL     1      -4.162  12.633 -12.080  1.00  0.00     0.031 C 
ATOM     71  C   UNL     1      -8.192   8.153 -12.788  1.00  0.00     0.029 A 
ATOM     72  C   UNL     1      -7.042   8.872 -12.514  1.00  0.00     0.049 A 
ATOM     73  H   UNL     1      -5.180   8.178 -11.802  1.00  0.00     0.167 HD
ATOM     74  C   UNL     1      -5.642  10.898 -12.285  1.00  0.00     0.074 A 
ATOM     75  C   UNL     1      -5.419  12.325 -12.362  1.00  0.00     0.031 C 
ATOM     76  C   UNL     1      -6.805  10.291 -12.635  1.00  0.00     0.034 A 
BRANCH  63  77
ATOM     77  C   UNL     1      -6.675   4.176 -11.624  1.00  0.00     0.023 A 
ATOM     78  C   UNL     1      -6.926   3.440 -10.456  1.00  0.00     0.031 A 
ATOM     79  C   UNL     1      -7.073   3.622 -12.856  1.00  0.00     0.131 A 
ATOM     80  C   UNL     1      -7.510   2.166 -10.554  1.00  0.00     0.055 A 
ATOM     81  C   UNL     1      -7.715   2.389 -12.940  1.00  0.00     0.041 A 
ATOM     82  F   UNL     1      -6.823   4.270 -14.006  1.00  0.00    -0.206 F 
ATOM     83  C   UNL     1      -7.926   1.646 -11.784  1.00  0.00     0.022 A 
BRANCH  80  84
ATOM     84  S   UNL     1      -7.591   1.125  -9.069  1.00  0.00     0.124 S 
ATOM     85  O   UNL     1      -6.188   1.077  -8.664  1.00  0.00    -0.237 OA
ATOM     86  O   UNL     1      -8.481   1.886  -8.201  1.00  0.00    -0.237 OA
ATOM     87  O   UNL     1      -8.132  -0.139  -9.565  1.00  0.00    -0.744 OA
ENDBRANCH  80  84
ENDBRANCH  63  77
BRANCH  64  88
ATOM     88  C   UNL     1      -1.369  12.569 -11.204  1.00  0.00     0.023 A 
ATOM     89  C   UNL     1      -1.798  13.534 -10.269  1.00  0.00     0.031 A 
ATOM     90  C   UNL     1      -0.276  12.915 -12.020  1.00  0.00     0.131 A 
ATOM     91  C   UNL     1      -1.159  14.787 -10.198  1.00  0.00     0.055 A 
ATOM     92  C   UNL     1       0.413  14.122 -11.882  1.00  0.00     0.041 A 
ATOM     93  F   UNL     1       0.145  12.084 -12.987  1.00  0.00    -0.206 F 
ATOM     94  C   UNL     1      -0.036  15.072 -10.975  1.00  0.00     0.022 A 
BRANCH  91  95
ATOM     95  S   UNL     1      -1.892  16.101  -9.179  1.00  0.00     0.124 S 
ATOM     96  O   UNL     1      -3.225  16.216  -9.759  1.00  0.00    -0.237 OA
ATOM     97  O   UNL     1      -1.820  15.526  -7.840  1.00  0.00    -0.237 OA
ATOM     98  O   UNL     1      -1.012  17.245  -9.412  1.00  0.00    -0.744 OA
ENDBRANCH  91  95
ENDBRANCH  64  88
BRANCH  76  99
ATOM     99  C   UNL     1      -7.909  11.171 -13.171  1.00  0.00     0.023 A 
ATOM    100  C   UNL     1      -7.772  11.840 -14.403  1.00  0.00     0.031 A 
ATOM    101  C   UNL     1      -9.101  11.354 -12.451  1.00  0.00     0.131 A 
ATOM    102  C   UNL     1      -8.786  12.700 -14.852  1.00  0.00     0.055 A 
ATOM    103  C   UNL     1     -10.130  12.171 -12.928  1.00  0.00     0.041 A 
ATOM    104  F   UNL     1      -9.288  10.741 -11.272  1.00  0.00    -0.206 F 
ATOM    105  C   UNL     1      -9.970  12.859 -14.128  1.00  0.00     0.022 A 
BRANCH 102 106
ATOM    106  S   UNL     1      -8.506  13.671 -16.359  1.00  0.00     0.124 S 
ATOM    107  O   UNL     1      -7.321  14.446 -16.007  1.00  0.00    -0.237 OA
ATOM    108  O   UNL     1      -8.314  12.635 -17.368  1.00  0.00    -0.237 OA
ATOM    109  O   UNL     1      -9.736  14.450 -16.500  1.00  0.00    -0.744 OA
ENDBRANCH 102 106
ENDBRANCH  76  99
ENDBRANCH  50  51
ENDBRANCH  43  45
ENDBRANCH  42  43
ENDBRANCH  41  42
ENDBRANCH  40  41
ENDBRANCH  39  40
ENDBRANCH   1  39
TORSDOF 24
