REMARK SMILES O=C(OCCOCCOCCOC(=O)c1ccc(N2C(=O)[C@@H]3N=NC(c4ccccc4)=C3[C@H]2c2cccc(Br)c2)cc1)c1ccc(-c2c3nc(c(-c4cc(S(=O)(=O)[O-])ccc4F)c4ccc([nH]4)c(-c4cc(S(=O)(=O)[O-])ccc4F)c4nc(c(-c5cc(S(=O)(=O)[O-])ccc5F)c5ccc2[nH]5)C=C4)C=C3)cc1
REMARK SMILES IDX 7 1 6 2 5 3 4 4 3 5 2 6 1 7 43 8 44 9 105 10 45 11 104 12
REMARK SMILES IDX 46 13 47 14 48 15 98 16 49 17 103 18 97 19 99 20 50 21
REMARK SMILES IDX 102 22 96 23 95 24 51 26 83 27 63 28 82 29 64 30 67 31 81 32
REMARK SMILES IDX 100 33 65 34 66 35 80 37 101 38 68 39 52 40 53 41 61 42
REMARK SMILES IDX 54 43 60 44 62 45 59 46 55 47 56 48 57 49 58 50 84 51 85 52
REMARK SMILES IDX 93 53 86 54 92 55 94 56 91 57 87 58 88 59 89 60 90 61 69 62
REMARK SMILES IDX 70 63 78 64 71 65 77 66 79 67 76 68 72 69 73 70 74 71 75 72
REMARK SMILES IDX 8 73 9 74 10 75 11 76 12 77 13 78 14 79 15 80 16 81 42 82
REMARK SMILES IDX 17 83 41 84 18 85 19 86 20 87 33 88 22 89 21 90 32 91 23 92
REMARK SMILES IDX 25 93 24 94 34 95 35 96 40 97 36 98 38 99 37 100 39 101
REMARK SMILES IDX 26 102 27 103 31 104 28 105 30 106 29 107
REMARK H PARENT 99 25 67 36
REMARK Flexibility Score: inf
ROOT
ATOM      1  C   UNL     1       3.330  -1.562  -0.211  1.00  0.00     0.188 C 
ENDROOT
BRANCH   1   2
ATOM      2  O   UNL     1       4.665  -1.365   0.189  1.00  0.00    -0.376 OA
BRANCH   2   3
ATOM      3  C   UNL     1       5.217  -0.079   0.390  1.00  0.00     0.202 C 
BRANCH   3   4
ATOM      4  C   UNL     1       4.417   1.142   0.867  1.00  0.00     0.261 C 
BRANCH   4   5
ATOM      5  O   UNL     1       3.011   0.956   1.018  1.00  0.00    -0.460 OA
BRANCH   5   6
ATOM      6  C   UNL     1       1.959   1.333   0.265  1.00  0.00     0.338 C 
ATOM      7  O   UNL     1       0.837   1.175   0.751  1.00  0.00    -0.246 OA
BRANCH   6   8
ATOM      8  C   UNL     1       2.028   1.825  -1.143  1.00  0.00     0.060 A 
ATOM      9  C   UNL     1       3.170   2.197  -1.852  1.00  0.00     0.016 A 
ATOM     10  C   UNL     1       0.778   1.939  -1.790  1.00  0.00     0.016 A 
ATOM     11  C   UNL     1       3.045   2.837  -3.083  1.00  0.00     0.010 A 
ATOM     12  C   UNL     1       0.651   2.544  -3.032  1.00  0.00     0.010 A 
ATOM     13  C   UNL     1       1.783   3.060  -3.643  1.00  0.00    -0.014 A 
BRANCH  13  14
ATOM     14  C   UNL     1       1.707   3.740  -4.931  1.00  0.00     0.031 A 
ATOM     15  C   UNL     1       2.375   3.014  -6.038  1.00  0.00     0.074 A 
ATOM     16  C   UNL     1       1.050   4.898  -5.147  1.00  0.00     0.049 A 
ATOM     17  N   UNL     1       3.478   3.334  -6.626  1.00  0.00    -0.248 NA
ATOM     18  C   UNL     1       1.853   1.696  -6.423  1.00  0.00     0.031 C 
ATOM     19  C   UNL     1       0.153   5.608  -4.234  1.00  0.00     0.029 A 
ATOM     20  N   UNL     1       0.991   5.654  -6.283  1.00  0.00    -0.354 N 
ATOM     21  C   UNL     1       3.663   2.392  -7.632  1.00  0.00     0.074 A 
ATOM     22  C   UNL     1       2.753   1.319  -7.332  1.00  0.00     0.031 C 
ATOM     23  C   UNL     1      -0.519   6.563  -4.919  1.00  0.00     0.029 A 
ATOM     24  C   UNL     1      -0.006   6.627  -6.279  1.00  0.00     0.049 A 
ATOM     25  H   UNL     1       1.604   5.523  -7.042  1.00  0.00     0.167 HD
ATOM     26  C   UNL     1       4.379   2.699  -8.750  1.00  0.00     0.034 A 
ATOM     27  C   UNL     1      -0.413   7.399  -7.325  1.00  0.00     0.034 A 
ATOM     28  C   UNL     1       5.217   3.860  -8.520  1.00  0.00     0.049 A 
ATOM     29  C   UNL     1       0.716   7.460  -8.285  1.00  0.00     0.074 A 
ATOM     30  C   UNL     1       6.198   4.173  -7.596  1.00  0.00     0.029 A 
ATOM     31  N   UNL     1       4.838   5.067  -9.069  1.00  0.00    -0.354 N 
ATOM     32  N   UNL     1       1.843   8.063  -8.025  1.00  0.00    -0.248 NA
ATOM     33  C   UNL     1       0.782   6.454  -9.335  1.00  0.00     0.031 C 
ATOM     34  C   UNL     1       5.976   5.544  -7.274  1.00  0.00     0.029 A 
ATOM     35  C   UNL     1       4.942   6.017  -8.084  1.00  0.00     0.049 A 
ATOM     36  H   UNL     1       4.548   5.219  -9.997  1.00  0.00     0.167 HD
ATOM     37  C   UNL     1       2.822   7.223  -8.532  1.00  0.00     0.074 A 
ATOM     38  C   UNL     1       2.107   6.300  -9.412  1.00  0.00     0.031 C 
ATOM     39  C   UNL     1       4.071   7.173  -7.980  1.00  0.00     0.034 A 
BRANCH  26  40
ATOM     40  C   UNL     1       4.030   2.224 -10.148  1.00  0.00     0.023 A 
ATOM     41  C   UNL     1       4.793   2.759 -11.205  1.00  0.00     0.031 A 
ATOM     42  C   UNL     1       2.842   1.564 -10.531  1.00  0.00     0.131 A 
ATOM     43  C   UNL     1       4.295   2.783 -12.518  1.00  0.00     0.055 A 
ATOM     44  C   UNL     1       2.386   1.525 -11.853  1.00  0.00     0.041 A 
ATOM     45  F   UNL     1       2.010   0.990  -9.657  1.00  0.00    -0.206 F 
ATOM     46  C   UNL     1       3.089   2.176 -12.850  1.00  0.00     0.022 A 
BRANCH  43  47
ATOM     47  S   UNL     1       5.157   3.812 -13.732  1.00  0.00     0.124 S 
ATOM     48  O   UNL     1       5.158   5.106 -13.057  1.00  0.00    -0.237 OA
ATOM     49  O   UNL     1       6.447   3.137 -13.835  1.00  0.00    -0.237 OA
ATOM     50  O   UNL     1       4.308   3.721 -14.916  1.00  0.00    -0.744 OA
ENDBRANCH  43  47
ENDBRANCH  26  40
BRANCH  27  51
ATOM     51  C   UNL     1      -1.804   7.821  -7.667  1.00  0.00     0.023 A 
ATOM     52  C   UNL     1      -2.097   8.856  -8.584  1.00  0.00     0.031 A 
ATOM     53  C   UNL     1      -2.891   7.012  -7.265  1.00  0.00     0.131 A 
ATOM     54  C   UNL     1      -3.421   9.041  -9.056  1.00  0.00     0.055 A 
ATOM     55  C   UNL     1      -4.194   7.200  -7.732  1.00  0.00     0.041 A 
ATOM     56  F   UNL     1      -2.710   5.947  -6.468  1.00  0.00    -0.206 F 
ATOM     57  C   UNL     1      -4.463   8.210  -8.640  1.00  0.00     0.022 A 
BRANCH  54  58
ATOM     58  S   UNL     1      -3.802  10.315 -10.308  1.00  0.00     0.124 S 
ATOM     59  O   UNL     1      -3.650  11.551  -9.551  1.00  0.00    -0.237 OA
ATOM     60  O   UNL     1      -2.804  10.055 -11.339  1.00  0.00    -0.237 OA
ATOM     61  O   UNL     1      -5.178  10.005 -10.703  1.00  0.00    -0.744 OA
ENDBRANCH  54  58
ENDBRANCH  27  51
BRANCH  39  62
ATOM     62  C   UNL     1       4.507   8.282  -7.044  1.00  0.00     0.023 A 
ATOM     63  C   UNL     1       3.812   8.697  -5.885  1.00  0.00     0.031 A 
ATOM     64  C   UNL     1       5.758   8.876  -7.298  1.00  0.00     0.131 A 
ATOM     65  C   UNL     1       4.371   9.680  -5.042  1.00  0.00     0.055 A 
ATOM     66  C   UNL     1       6.317   9.831  -6.451  1.00  0.00     0.041 A 
ATOM     67  F   UNL     1       6.481   8.512  -8.370  1.00  0.00    -0.206 F 
ATOM     68  C   UNL     1       5.621  10.242  -5.322  1.00  0.00     0.022 A 
BRANCH  65  69
ATOM     69  S   UNL     1       3.474  10.273  -3.571  1.00  0.00     0.124 S 
ATOM     70  O   UNL     1       2.107  10.449  -4.046  1.00  0.00    -0.237 OA
ATOM     71  O   UNL     1       3.686   9.187  -2.617  1.00  0.00    -0.237 OA
ATOM     72  O   UNL     1       4.167  11.518  -3.232  1.00  0.00    -0.744 OA
ENDBRANCH  65  69
ENDBRANCH  39  62
ENDBRANCH  13  14
ENDBRANCH   6   8
ENDBRANCH   5   6
ENDBRANCH   4   5
ENDBRANCH   3   4
ENDBRANCH   2   3
ENDBRANCH   1   2
BRANCH   1  73
ATOM     73  C   UNL     1       2.357  -1.992   0.918  1.00  0.00     0.188 C 
BRANCH  73  74
ATOM     74  O   UNL     1       2.805  -2.515   2.166  1.00  0.00    -0.376 OA
BRANCH  74  75
ATOM     75  C   UNL     1       4.097  -3.073   2.286  1.00  0.00     0.202 C 
BRANCH  75  76
ATOM     76  C   UNL     1       4.369  -4.390   1.552  1.00  0.00     0.261 C 
BRANCH  76  77
ATOM     77  O   UNL     1       3.949  -4.440   0.177  1.00  0.00    -0.460 OA
BRANCH  77  78
ATOM     78  C   UNL     1       2.836  -5.165  -0.076  1.00  0.00     0.338 C 
ATOM     79  O   UNL     1       2.141  -5.773   0.729  1.00  0.00    -0.246 OA
BRANCH  78  80
ATOM     80  C   UNL     1       2.531  -5.151  -1.519  1.00  0.00     0.060 A 
ATOM     81  C   UNL     1       1.513  -4.333  -2.015  1.00  0.00     0.018 A 
ATOM     82  C   UNL     1       3.189  -6.035  -2.375  1.00  0.00     0.018 A 
ATOM     83  C   UNL     1       1.158  -4.398  -3.367  1.00  0.00     0.027 A 
ATOM     84  C   UNL     1       2.802  -6.122  -3.721  1.00  0.00     0.027 A 
ATOM     85  C   UNL     1       1.771  -5.321  -4.225  1.00  0.00     0.045 A 
BRANCH  85  86
ATOM     86  N   UNL     1       1.351  -5.418  -5.580  1.00  0.00    -0.299 N 
ATOM     87  C   UNL     1       1.159  -4.218  -6.342  1.00  0.00     0.259 C 
ATOM     88  C   UNL     1       0.436  -6.493  -6.028  1.00  0.00     0.152 C 
ATOM     89  C   UNL     1       0.160  -4.543  -7.429  1.00  0.00     0.248 C 
ATOM     90  O   UNL     1       1.676  -3.145  -6.145  1.00  0.00    -0.271 OA
ATOM     91  C   UNL     1      -0.565  -5.609  -6.688  1.00  0.00     0.021 C 
ATOM     92  N   UNL     1      -0.879  -3.534  -7.648  1.00  0.00    -0.170 NA
ATOM     93  C   UNL     1      -1.839  -5.214  -6.639  1.00  0.00     0.097 C 
ATOM     94  N   UNL     1      -1.997  -4.014  -7.311  1.00  0.00    -0.154 NA
BRANCH  88  95
ATOM     95  C   UNL     1       1.093  -7.455  -7.045  1.00  0.00    -0.020 A 
ATOM     96  C   UNL     1       0.564  -7.648  -8.342  1.00  0.00     0.006 A 
ATOM     97  C   UNL     1       2.265  -8.164  -6.736  1.00  0.00     0.022 A 
ATOM     98  C   UNL     1       1.233  -8.401  -9.313  1.00  0.00     0.002 A 
ATOM     99  C   UNL     1       2.929  -8.928  -7.706  1.00  0.00     0.018 A 
ATOM    100  C   UNL     1       2.431  -9.030  -9.000  1.00  0.00     0.016 A 
ATOM    101  Br  UNL     1       4.535  -9.824  -7.260  1.00  0.00    -0.051 Br
ENDBRANCH  88  95
BRANCH  93 102
ATOM    102  C   UNL     1      -2.967  -5.618  -5.793  1.00  0.00     0.002 A 
ATOM    103  C   UNL     1      -3.998  -6.417  -6.301  1.00  0.00     0.010 A 
ATOM    104  C   UNL     1      -3.183  -4.896  -4.608  1.00  0.00     0.010 A 
ATOM    105  C   UNL     1      -5.250  -6.430  -5.672  1.00  0.00     0.001 A 
ATOM    106  C   UNL     1      -4.435  -4.903  -3.990  1.00  0.00     0.001 A 
ATOM    107  C   UNL     1      -5.475  -5.652  -4.535  1.00  0.00     0.000 A 
ENDBRANCH  93 102
ENDBRANCH  85  86
ENDBRANCH  78  80
ENDBRANCH  77  78
ENDBRANCH  76  77
ENDBRANCH  75  76
ENDBRANCH  74  75
ENDBRANCH  73  74
ENDBRANCH   1  73
TORSDOF 23
