REMARK SMILES C[C@@H](NC(=O)[C@@H]1CC[C@@H]2CCCC[C@@H]2[NH2+]1)C(=O)OCCOCCOCCOC(=O)c1ccc(-c2c3nc(c(-c4cc(S(=O)(=O)[O-])ccc4F)c4ccc([nH]4)c(-c4cc(S(=O)(=O)[O-])ccc4F)c4nc(c(-c5cc(S(=O)(=O)[O-])ccc5F)c5ccc2[nH]5)C=C4)C=C3)cc1
REMARK SMILES IDX 23 1 22 2 21 3 20 4 19 5 18 6 16 7 17 8 2 9 1 10 3 11 4 12
REMARK SMILES IDX 5 14 6 15 7 16 15 17 8 18 14 19 9 22 13 23 10 24 12 25 11 26
REMARK SMILES IDX 24 27 25 28 26 29 27 30 28 31 29 32 30 33 31 34 92 35 32 36
REMARK SMILES IDX 91 37 33 38 34 39 35 40 85 41 36 42 90 43 84 44 86 45 37 46
REMARK SMILES IDX 89 47 83 48 82 49 38 51 70 52 50 53 69 54 51 55 54 56 68 57
REMARK SMILES IDX 87 58 52 59 53 60 67 62 88 63 55 64 39 65 40 66 48 67 41 68
REMARK SMILES IDX 47 69 49 70 46 71 42 72 43 73 44 74 45 75 71 76 72 77 80 78
REMARK SMILES IDX 73 79 79 80 81 81 78 82 74 83 75 84 76 85 77 86 56 87 57 88
REMARK SMILES IDX 65 89 58 90 64 91 66 92 63 93 59 94 60 95 61 96 62 97
REMARK H PARENT 3 13 15 20 15 21 86 50 54 61
REMARK Flexibility Score: inf
ROOT
ATOM      1  C   UNL     1      -1.760   0.542   1.498  1.00  0.00     0.188 C 
ENDROOT
BRANCH   1   2
ATOM      2  C   UNL     1      -2.962   1.214   0.812  1.00  0.00     0.188 C 
BRANCH   2   3
ATOM      3  O   UNL     1      -3.166   0.761  -0.535  1.00  0.00    -0.376 OA
BRANCH   3   4
ATOM      4  C   UNL     1      -3.880  -0.467  -0.630  1.00  0.00     0.202 C 
BRANCH   4   5
ATOM      5  C   UNL     1      -3.559  -1.211  -1.935  1.00  0.00     0.261 C 
BRANCH   5   6
ATOM      6  O   UNL     1      -2.163  -1.266  -2.292  1.00  0.00    -0.462 OA
BRANCH   6   7
ATOM      7  C   UNL     1      -1.262  -1.666  -1.361  1.00  0.00     0.328 C 
ATOM      8  O   UNL     1      -1.575  -2.280  -0.348  1.00  0.00    -0.250 OA
BRANCH   7   9
ATOM      9  C   UNL     1       0.161  -1.119  -1.655  1.00  0.00     0.189 C 
ATOM     10  C   UNL     1       1.201  -2.006  -0.966  1.00  0.00     0.043 C 
BRANCH   9  11
ATOM     11  N   UNL     1       0.537  -0.906  -3.068  1.00  0.00    -0.338 N 
ATOM     12  C   UNL     1       0.216   0.112  -3.935  1.00  0.00     0.278 C 
ATOM     13  H   UNL     1       1.110  -1.608  -3.452  1.00  0.00     0.164 HD
ATOM     14  O   UNL     1       0.867   0.171  -4.984  1.00  0.00    -0.268 OA
BRANCH  12  15
ATOM     15  C   UNL     1      -1.009   1.028  -3.682  1.00  0.00     0.272 C 
ATOM     16  C   UNL     1      -1.211   2.184  -4.678  1.00  0.00     0.076 C 
ATOM     17  N   UNL     1      -1.128   1.404  -2.269  1.00  0.00    -0.333 N 
ATOM     18  C   UNL     1      -0.674   3.536  -4.211  1.00  0.00     0.016 C 
ATOM     19  C   UNL     1      -0.542   2.673  -1.867  1.00  0.00     0.186 C 
ATOM     20  H   UNL     1      -0.681   0.671  -1.717  1.00  0.00     0.347 HD
ATOM     21  H   UNL     1      -2.130   1.515  -2.110  1.00  0.00     0.347 HD
ATOM     22  C   UNL     1      -1.068   3.795  -2.752  1.00  0.00     0.048 C 
ATOM     23  C   UNL     1       0.988   2.616  -1.803  1.00  0.00     0.065 C 
ATOM     24  C   UNL     1      -0.558   5.120  -2.191  1.00  0.00     0.010 C 
ATOM     25  C   UNL     1       1.671   3.970  -1.603  1.00  0.00     0.006 C 
ATOM     26  C   UNL     1       0.961   5.202  -2.169  1.00  0.00     0.001 C 
ENDBRANCH  12  15
ENDBRANCH   9  11
ENDBRANCH   7   9
ENDBRANCH   6   7
ENDBRANCH   5   6
ENDBRANCH   4   5
ENDBRANCH   3   4
ENDBRANCH   2   3
ENDBRANCH   1   2
BRANCH   1  27
ATOM     27  O   UNL     1      -1.950  -0.709   2.158  1.00  0.00    -0.376 OA
BRANCH  27  28
ATOM     28  C   UNL     1      -3.143  -0.940   2.893  1.00  0.00     0.202 C 
BRANCH  28  29
ATOM     29  C   UNL     1      -3.318  -0.220   4.232  1.00  0.00     0.261 C 
BRANCH  29  30
ATOM     30  O   UNL     1      -2.996   1.173   4.164  1.00  0.00    -0.460 OA
BRANCH  30  31
ATOM     31  C   UNL     1      -1.794   1.477   4.723  1.00  0.00     0.338 C 
ATOM     32  O   UNL     1      -1.042   0.723   5.305  1.00  0.00    -0.246 OA
BRANCH  31  33
ATOM     33  C   UNL     1      -1.431   2.860   4.364  1.00  0.00     0.060 A 
ATOM     34  C   UNL     1      -0.171   3.065   3.785  1.00  0.00     0.016 A 
ATOM     35  C   UNL     1      -2.275   3.935   4.645  1.00  0.00     0.016 A 
ATOM     36  C   UNL     1       0.276   4.356   3.529  1.00  0.00     0.010 A 
ATOM     37  C   UNL     1      -1.814   5.234   4.415  1.00  0.00     0.010 A 
ATOM     38  C   UNL     1      -0.520   5.446   3.903  1.00  0.00    -0.014 A 
BRANCH  38  39
ATOM     39  C   UNL     1       0.115   6.776   4.050  1.00  0.00     0.031 A 
ATOM     40  C   UNL     1       0.662   7.135   5.406  1.00  0.00     0.074 A 
ATOM     41  C   UNL     1       0.232   7.626   3.018  1.00  0.00     0.049 A 
ATOM     42  N   UNL     1       1.183   8.256   5.827  1.00  0.00    -0.248 NA
ATOM     43  C   UNL     1       0.602   6.075   6.425  1.00  0.00     0.031 C 
ATOM     44  C   UNL     1      -0.187   7.356   1.645  1.00  0.00     0.029 A 
ATOM     45  N   UNL     1       0.739   8.899   2.975  1.00  0.00    -0.354 N 
ATOM     46  C   UNL     1       1.504   8.041   7.164  1.00  0.00     0.074 A 
ATOM     47  C   UNL     1       1.083   6.696   7.488  1.00  0.00     0.031 C 
ATOM     48  C   UNL     1       0.066   8.443   0.894  1.00  0.00     0.029 A 
ATOM     49  C   UNL     1       0.625   9.495   1.743  1.00  0.00     0.049 A 
ATOM     50  H   UNL     1       1.146   9.344   3.753  1.00  0.00     0.167 HD
ATOM     51  C   UNL     1       2.100   8.886   8.039  1.00  0.00     0.034 A 
ATOM     52  C   UNL     1       0.910  10.757   1.361  1.00  0.00     0.034 A 
ATOM     53  C   UNL     1       2.491  10.232   7.703  1.00  0.00     0.049 A 
ATOM     54  C   UNL     1       1.468  11.724   2.380  1.00  0.00     0.074 A 
ATOM     55  C   UNL     1       3.091  11.184   8.508  1.00  0.00     0.029 A 
ATOM     56  N   UNL     1       2.305  10.824   6.459  1.00  0.00    -0.354 N 
ATOM     57  N   UNL     1       1.750  11.523   3.648  1.00  0.00    -0.248 NA
ATOM     58  C   UNL     1       1.748  13.088   1.912  1.00  0.00     0.031 C 
ATOM     59  C   UNL     1       3.200  12.371   7.774  1.00  0.00     0.029 A 
ATOM     60  C   UNL     1       2.748  12.137   6.484  1.00  0.00     0.049 A 
ATOM     61  H   UNL     1       1.916  10.375   5.674  1.00  0.00     0.167 HD
ATOM     62  C   UNL     1       2.276  12.726   4.117  1.00  0.00     0.074 A 
ATOM     63  C   UNL     1       2.274  13.643   2.995  1.00  0.00     0.031 C 
ATOM     64  C   UNL     1       2.730  13.042   5.358  1.00  0.00     0.034 A 
BRANCH  51  65
ATOM     65  C   UNL     1       2.282   8.388   9.453  1.00  0.00     0.023 A 
ATOM     66  C   UNL     1       3.084   7.271   9.749  1.00  0.00     0.031 A 
ATOM     67  C   UNL     1       1.576   8.989  10.511  1.00  0.00     0.131 A 
ATOM     68  C   UNL     1       3.085   6.734  11.046  1.00  0.00     0.055 A 
ATOM     69  C   UNL     1       1.655   8.504  11.818  1.00  0.00     0.041 A 
ATOM     70  F   UNL     1       0.772  10.039  10.286  1.00  0.00    -0.206 F 
ATOM     71  C   UNL     1       2.396   7.358  12.088  1.00  0.00     0.022 A 
BRANCH  68  72
ATOM     72  S   UNL     1       3.846   5.108  11.308  1.00  0.00     0.124 S 
ATOM     73  O   UNL     1       3.111   4.281  10.354  1.00  0.00    -0.237 OA
ATOM     74  O   UNL     1       5.246   5.360  10.990  1.00  0.00    -0.237 OA
ATOM     75  O   UNL     1       3.566   4.822  12.714  1.00  0.00    -0.744 OA
ENDBRANCH  68  72
ENDBRANCH  51  65
BRANCH  52  76
ATOM     76  C   UNL     1       0.636  11.201  -0.035  1.00  0.00     0.023 A 
ATOM     77  C   UNL     1       1.678  11.589  -0.891  1.00  0.00     0.031 A 
ATOM     78  C   UNL     1      -0.683  11.291  -0.516  1.00  0.00     0.131 A 
ATOM     79  C   UNL     1       1.383  12.086  -2.171  1.00  0.00     0.055 A 
ATOM     80  C   UNL     1      -0.968  11.740  -1.807  1.00  0.00     0.041 A 
ATOM     81  F   UNL     1      -1.716  10.935   0.263  1.00  0.00    -0.206 F 
ATOM     82  C   UNL     1       0.068  12.152  -2.638  1.00  0.00     0.022 A 
BRANCH  79  83
ATOM     83  S   UNL     1       2.742  12.713  -3.195  1.00  0.00     0.124 S 
ATOM     84  O   UNL     1       3.255  13.802  -2.372  1.00  0.00    -0.237 OA
ATOM     85  O   UNL     1       3.599  11.538  -3.314  1.00  0.00    -0.237 OA
ATOM     86  O   UNL     1       2.076  13.123  -4.429  1.00  0.00    -0.744 OA
ENDBRANCH  79  83
ENDBRANCH  52  76
BRANCH  64  87
ATOM     87  C   UNL     1       3.319  14.421   5.548  1.00  0.00     0.023 A 
ATOM     88  C   UNL     1       2.537  15.586   5.465  1.00  0.00     0.031 A 
ATOM     89  C   UNL     1       4.693  14.565   5.818  1.00  0.00     0.131 A 
ATOM     90  C   UNL     1       3.143  16.845   5.596  1.00  0.00     0.055 A 
ATOM     91  C   UNL     1       5.278  15.817   6.008  1.00  0.00     0.041 A 
ATOM     92  F   UNL     1       5.489  13.488   5.908  1.00  0.00    -0.206 F 
ATOM     93  C   UNL     1       4.505  16.967   5.884  1.00  0.00     0.022 A 
BRANCH  90  94
ATOM     94  S   UNL     1       2.147  18.330   5.291  1.00  0.00     0.124 S 
ATOM     95  O   UNL     1       1.668  18.101   3.931  1.00  0.00    -0.237 OA
ATOM     96  O   UNL     1       1.139  18.251   6.343  1.00  0.00    -0.237 OA
ATOM     97  O   UNL     1       3.106  19.424   5.434  1.00  0.00    -0.744 OA
ENDBRANCH  90  94
ENDBRANCH  64  87
ENDBRANCH  38  39
ENDBRANCH  31  33
ENDBRANCH  30  31
ENDBRANCH  29  30
ENDBRANCH  28  29
ENDBRANCH  27  28
ENDBRANCH   1  27
TORSDOF 22
