REMARK SMILES Cc1nnc(-c2ccccc2-c2cc(NCC(=O)OCCOCCOCCOC(=O)c3ccc(-c4c5nc(c(-c6cc(S(=O)(=O)[O-])ccc6F)c6ccc([nH]6)c(-c6cc(S(=O)(=O)[O-])ccc6F)c6nc(c(-c7cc(S(=O)(=O)[O-])ccc7F)c7ccc4[nH]7)C=C6)C=C5)cc3)nc3[nH]ccc23)o1
REMARK SMILES IDX 23 1 22 2 21 3 20 4 19 5 17 6 18 7 16 8 15 9 14 11 12 12
REMARK SMILES IDX 13 13 99 14 95 15 98 16 94 17 96 18 97 19 11 21 6 22 7 23
REMARK SMILES IDX 8 24 10 25 9 26 5 27 1 28 2 29 3 30 100 31 4 32 24 33 25 34
REMARK SMILES IDX 26 35 27 36 28 37 29 38 30 39 31 40 32 41 93 42 33 43 92 44
REMARK SMILES IDX 34 45 35 46 36 47 86 48 37 49 91 50 85 51 87 52 38 53 90 54
REMARK SMILES IDX 84 55 83 56 39 58 71 59 51 60 70 61 52 62 55 63 69 64 88 65
REMARK SMILES IDX 53 66 54 67 68 69 89 70 56 71 40 72 41 73 49 74 42 75 48 76
REMARK SMILES IDX 50 77 47 78 43 79 44 80 45 81 46 82 72 83 73 84 81 85 74 86
REMARK SMILES IDX 80 87 82 88 79 89 75 90 76 91 77 92 78 93 57 94 58 95 66 96
REMARK SMILES IDX 59 97 65 98 67 99 64 100 60 101 61 102 62 103 63 104
REMARK H PARENT 15 10 96 20 87 57 55 68
REMARK Flexibility Score: inf
ROOT
ATOM      1  C   UNL     1      -2.725  -2.316  -5.072  1.00  0.00     0.188 C 
ENDROOT
BRANCH   1   2
ATOM      2  O   UNL     1      -3.442  -3.321  -4.392  1.00  0.00    -0.376 OA
BRANCH   2   3
ATOM      3  C   UNL     1      -2.781  -4.557  -4.162  1.00  0.00     0.202 C 
BRANCH   3   4
ATOM      4  C   UNL     1      -1.286  -4.651  -3.771  1.00  0.00     0.261 C 
BRANCH   4   5
ATOM      5  O   UNL     1      -0.443  -3.556  -4.169  1.00  0.00    -0.462 OA
BRANCH   5   6
ATOM      6  C   UNL     1       0.519  -3.769  -5.104  1.00  0.00     0.325 C 
ATOM      7  O   UNL     1       0.699  -4.854  -5.652  1.00  0.00    -0.250 OA
BRANCH   6   8
ATOM      8  C   UNL     1       1.232  -2.486  -5.563  1.00  0.00     0.237 C 
BRANCH   8   9
ATOM      9  N   UNL     1       1.252  -1.354  -4.628  1.00  0.00    -0.359 N 
ATOM     10  H   UNL     1       0.484  -0.739  -4.602  1.00  0.00     0.162 HD
BRANCH   9  11
ATOM     11  C   UNL     1       2.325  -1.128  -3.780  1.00  0.00     0.129 A 
ATOM     12  C   UNL     1       3.351   0.276  -2.044  1.00  0.00    -0.003 A 
ATOM     13  C   UNL     1       2.264  -0.044  -2.886  1.00  0.00     0.056 A 
ATOM     14  C   UNL     1       4.482  -0.560  -2.166  1.00  0.00     0.027 A 
ATOM     15  C   UNL     1       4.403  -1.615  -3.066  1.00  0.00     0.140 A 
ATOM     16  C   UNL     1       5.781  -0.640  -1.579  1.00  0.00     0.030 A 
ATOM     17  N   UNL     1       3.381  -1.950  -3.863  1.00  0.00    -0.213 NA
ATOM     18  N   UNL     1       5.584  -2.298  -3.038  1.00  0.00    -0.346 N 
ATOM     19  C   UNL     1       6.440  -1.711  -2.145  1.00  0.00     0.085 A 
ATOM     20  H   UNL     1       5.790  -3.095  -3.578  1.00  0.00     0.167 HD
BRANCH  12  21
ATOM     21  C   UNL     1       3.370   1.409  -1.094  1.00  0.00    -0.005 A 
ATOM     22  C   UNL     1       2.459   1.548  -0.024  1.00  0.00     0.047 A 
ATOM     23  C   UNL     1       2.581   2.633   0.874  1.00  0.00     0.014 A 
ATOM     24  C   UNL     1       3.581   3.588   0.724  1.00  0.00     0.001 A 
ATOM     25  C   UNL     1       4.354   2.414  -1.239  1.00  0.00     0.009 A 
ATOM     26  C   UNL     1       4.462   3.484  -0.343  1.00  0.00     0.001 A 
BRANCH  22  27
ATOM     27  C   UNL     1       1.361   0.627   0.198  1.00  0.00     0.248 A 
ATOM     28  C   UNL     1      -2.114   0.411   0.616  1.00  0.00     0.113 C 
ATOM     29  C   UNL     1      -0.678   0.132   0.492  1.00  0.00     0.213 A 
ATOM     30  N   UNL     1      -0.015  -1.003   0.546  1.00  0.00    -0.113 NA
ATOM     31  O   UNL     1       0.128   1.214   0.299  1.00  0.00    -0.421 OA
ATOM     32  N   UNL     1       1.317  -0.680   0.344  1.00  0.00    -0.108 NA
ENDBRANCH  22  27
ENDBRANCH  12  21
ENDBRANCH   9  11
ENDBRANCH   8   9
ENDBRANCH   6   8
ENDBRANCH   5   6
ENDBRANCH   4   5
ENDBRANCH   3   4
ENDBRANCH   2   3
ENDBRANCH   1   2
BRANCH   1  33
ATOM     33  C   UNL     1      -2.062  -1.303  -4.125  1.00  0.00     0.188 C 
BRANCH  33  34
ATOM     34  O   UNL     1      -2.078  -1.489  -2.720  1.00  0.00    -0.376 OA
BRANCH  34  35
ATOM     35  C   UNL     1      -3.332  -1.701  -2.091  1.00  0.00     0.202 C 
BRANCH  35  36
ATOM     36  C   UNL     1      -4.435  -0.642  -2.251  1.00  0.00     0.261 C 
BRANCH  36  37
ATOM     37  O   UNL     1      -4.678  -0.200  -3.597  1.00  0.00    -0.460 OA
BRANCH  37  38
ATOM     38  C   UNL     1      -4.240   1.054  -3.896  1.00  0.00     0.338 C 
ATOM     39  O   UNL     1      -3.701   1.846  -3.137  1.00  0.00    -0.246 OA
BRANCH  38  40
ATOM     40  C   UNL     1      -4.301   1.232  -5.364  1.00  0.00     0.060 A 
ATOM     41  C   UNL     1      -3.109   1.401  -6.088  1.00  0.00     0.016 A 
ATOM     42  C   UNL     1      -5.528   1.209  -6.023  1.00  0.00     0.016 A 
ATOM     43  C   UNL     1      -3.137   1.505  -7.479  1.00  0.00     0.010 A 
ATOM     44  C   UNL     1      -5.558   1.360  -7.412  1.00  0.00     0.010 A 
ATOM     45  C   UNL     1      -4.366   1.511  -8.146  1.00  0.00    -0.014 A 
BRANCH  45  46
ATOM     46  C   UNL     1      -4.442   1.841  -9.590  1.00  0.00     0.031 A 
ATOM     47  C   UNL     1      -4.780   3.252  -9.978  1.00  0.00     0.074 A 
ATOM     48  C   UNL     1      -4.251   0.904 -10.535  1.00  0.00     0.049 A 
ATOM     49  N   UNL     1      -5.064   3.747 -11.153  1.00  0.00    -0.248 NA
ATOM     50  C   UNL     1      -4.811   4.231  -8.881  1.00  0.00     0.031 C 
ATOM     51  C   UNL     1      -3.845  -0.477 -10.286  1.00  0.00     0.029 A 
ATOM     52  N   UNL     1      -4.394   0.974 -11.898  1.00  0.00    -0.354 N 
ATOM     53  C   UNL     1      -5.330   5.095 -10.938  1.00  0.00     0.074 A 
ATOM     54  C   UNL     1      -5.198   5.327  -9.514  1.00  0.00     0.031 C 
ATOM     55  C   UNL     1      -3.788  -1.131 -11.461  1.00  0.00     0.029 A 
ATOM     56  C   UNL     1      -4.210  -0.232 -12.534  1.00  0.00     0.049 A 
ATOM     57  H   UNL     1      -4.609   1.808 -12.376  1.00  0.00     0.167 HD
ATOM     58  C   UNL     1      -5.654   6.048 -11.846  1.00  0.00     0.034 A 
ATOM     59  C   UNL     1      -4.401  -0.575 -13.825  1.00  0.00     0.034 A 
ATOM     60  C   UNL     1      -5.801   5.789 -13.257  1.00  0.00     0.049 A 
ATOM     61  C   UNL     1      -4.897   0.473 -14.798  1.00  0.00     0.074 A 
ATOM     62  C   UNL     1      -6.110   6.682 -14.268  1.00  0.00     0.029 A 
ATOM     63  N   UNL     1      -5.672   4.542 -13.856  1.00  0.00    -0.354 N 
ATOM     64  N   UNL     1      -5.146   1.746 -14.590  1.00  0.00    -0.248 NA
ATOM     65  C   UNL     1      -5.143   0.033 -16.179  1.00  0.00     0.031 C 
ATOM     66  C   UNL     1      -6.259   5.962 -15.458  1.00  0.00     0.029 A 
ATOM     67  C   UNL     1      -5.947   4.634 -15.212  1.00  0.00     0.049 A 
ATOM     68  H   UNL     1      -5.423   3.714 -13.386  1.00  0.00     0.167 HD
ATOM     69  C   UNL     1      -5.540   2.264 -15.823  1.00  0.00     0.074 A 
ATOM     70  C   UNL     1      -5.489   1.168 -16.768  1.00  0.00     0.031 C 
ATOM     71  C   UNL     1      -5.902   3.532 -16.146  1.00  0.00     0.034 A 
BRANCH  58  72
ATOM     72  C   UNL     1      -5.940   7.433 -11.319  1.00  0.00     0.023 A 
ATOM     73  C   UNL     1      -4.964   8.188 -10.646  1.00  0.00     0.031 A 
ATOM     74  C   UNL     1      -7.227   7.987 -11.447  1.00  0.00     0.131 A 
ATOM     75  C   UNL     1      -5.312   9.409 -10.050  1.00  0.00     0.055 A 
ATOM     76  C   UNL     1      -7.541   9.246 -10.934  1.00  0.00     0.041 A 
ATOM     77  F   UNL     1      -8.209   7.304 -12.056  1.00  0.00    -0.206 F 
ATOM     78  C   UNL     1      -6.587   9.957 -10.213  1.00  0.00     0.022 A 
BRANCH  75  79
ATOM     79  S   UNL     1      -4.131  10.180  -8.909  1.00  0.00     0.124 S 
ATOM     80  O   UNL     1      -3.915   9.108  -7.940  1.00  0.00    -0.237 OA
ATOM     81  O   UNL     1      -3.005  10.488  -9.783  1.00  0.00    -0.237 OA
ATOM     82  O   UNL     1      -4.858  11.338  -8.394  1.00  0.00    -0.744 OA
ENDBRANCH  75  79
ENDBRANCH  58  72
BRANCH  59  83
ATOM     83  C   UNL     1      -4.174  -1.977 -14.282  1.00  0.00     0.023 A 
ATOM     84  C   UNL     1      -3.205  -2.266 -15.257  1.00  0.00     0.031 A 
ATOM     85  C   UNL     1      -4.962  -3.039 -13.804  1.00  0.00     0.131 A 
ATOM     86  C   UNL     1      -3.081  -3.572 -15.755  1.00  0.00     0.055 A 
ATOM     87  C   UNL     1      -4.793  -4.348 -14.259  1.00  0.00     0.041 A 
ATOM     88  F   UNL     1      -5.912  -2.819 -12.880  1.00  0.00    -0.206 F 
ATOM     89  C   UNL     1      -3.856  -4.619 -15.251  1.00  0.00     0.022 A 
BRANCH  86  90
ATOM     90  S   UNL     1      -1.954  -3.865 -17.146  1.00  0.00     0.124 S 
ATOM     91  O   UNL     1      -2.508  -2.980 -18.165  1.00  0.00    -0.237 OA
ATOM     92  O   UNL     1      -0.668  -3.469 -16.583  1.00  0.00    -0.237 OA
ATOM     93  O   UNL     1      -2.104  -5.294 -17.411  1.00  0.00    -0.744 OA
ENDBRANCH  86  90
ENDBRANCH  59  83
BRANCH  71  94
ATOM     94  C   UNL     1      -6.221   3.819 -17.596  1.00  0.00     0.023 A 
ATOM     95  C   UNL     1      -7.343   3.266 -18.236  1.00  0.00     0.031 A 
ATOM     96  C   UNL     1      -5.392   4.677 -18.342  1.00  0.00     0.131 A 
ATOM     97  C   UNL     1      -7.582   3.542 -19.593  1.00  0.00     0.055 A 
ATOM     98  C   UNL     1      -5.670   4.999 -19.671  1.00  0.00     0.041 A 
ATOM     99  F   UNL     1      -4.303   5.231 -17.785  1.00  0.00    -0.206 F 
ATOM    100  C   UNL     1      -6.765   4.422 -20.307  1.00  0.00     0.022 A 
BRANCH  97 101
ATOM    101  S   UNL     1      -8.931   2.672 -20.438  1.00  0.00     0.124 S 
ATOM    102  O   UNL     1      -8.539   1.276 -20.276  1.00  0.00    -0.237 OA
ATOM    103  O   UNL     1     -10.102   3.098 -19.679  1.00  0.00    -0.237 OA
ATOM    104  O   UNL     1      -8.863   3.181 -21.807  1.00  0.00    -0.744 OA
ENDBRANCH  97 101
ENDBRANCH  71  94
ENDBRANCH  45  46
ENDBRANCH  38  40
ENDBRANCH  37  38
ENDBRANCH  36  37
ENDBRANCH  35  36
ENDBRANCH  34  35
ENDBRANCH  33  34
ENDBRANCH   1  33
TORSDOF 24
