REMARK SMILES O=C(N[C@@H](C(=O)OCCOCCOCCOC(=O)c1ccc(-c2c3nc(c(-c4cc(S(=O)(=O)[O-])ccc4F)c4ccc([nH]4)c(-c4cc(S(=O)(=O)[O-])ccc4F)c4nc(c(-c5cc(S(=O)(=O)[O-])ccc5F)c5ccc2[nH]5)C=C4)C=C3)cc1)c1ccccc1)c1ccc(Br)nc1
REMARK SMILES IDX 12 1 11 2 10 3 9 4 8 5 7 6 5 7 6 8 4 9 3 10 1 11 2 12 88 14
REMARK SMILES IDX 89 15 94 16 90 17 93 18 91 19 92 20 82 21 83 22 87 23 84 24
REMARK SMILES IDX 86 25 85 26 13 27 14 28 15 29 16 30 17 31 18 32 19 33 20 34
REMARK SMILES IDX 81 35 21 36 80 37 22 38 23 39 24 40 74 41 25 42 79 43 73 44
REMARK SMILES IDX 75 45 26 46 78 47 72 48 71 49 27 51 59 52 39 53 58 54 40 55
REMARK SMILES IDX 43 56 57 57 76 58 41 59 42 60 56 62 77 63 44 64 28 65 29 66
REMARK SMILES IDX 37 67 30 68 36 69 38 70 35 71 31 72 32 73 33 74 34 75 60 76
REMARK SMILES IDX 61 77 69 78 62 79 68 80 70 81 67 82 63 83 64 84 65 85 66 86
REMARK SMILES IDX 45 87 46 88 54 89 47 90 53 91 55 92 52 93 48 94 49 95 50 96
REMARK SMILES IDX 51 97
REMARK H PARENT 3 13 75 50 43 61
REMARK Flexibility Score: inf
ROOT
ATOM      1  C   UNL     1       3.270   1.401  -4.006  1.00  0.00     0.188 C 
ENDROOT
BRANCH   1   2
ATOM      2  C   UNL     1       4.670   1.952  -4.331  1.00  0.00     0.188 C 
BRANCH   2   3
ATOM      3  O   UNL     1       5.569   1.183  -5.122  1.00  0.00    -0.376 OA
BRANCH   3   4
ATOM      4  C   UNL     1       5.536  -0.233  -5.038  1.00  0.00     0.202 C 
BRANCH   4   5
ATOM      5  C   UNL     1       5.907  -0.865  -3.694  1.00  0.00     0.261 C 
BRANCH   5   6
ATOM      6  O   UNL     1       5.126  -0.401  -2.574  1.00  0.00    -0.461 OA
BRANCH   6   7
ATOM      7  C   UNL     1       5.828   0.204  -1.574  1.00  0.00     0.333 C 
ATOM      8  O   UNL     1       7.049   0.322  -1.576  1.00  0.00    -0.249 OA
BRANCH   7   9
ATOM      9  C   UNL     1       4.945   0.656  -0.378  1.00  0.00     0.223 C 
BRANCH   9  10
ATOM     10  N   UNL     1       3.479   0.527  -0.446  1.00  0.00    -0.335 N 
ATOM     11  O   UNL     1       1.429  -0.315  -0.006  1.00  0.00    -0.269 OA
ATOM     12  C   UNL     1       2.633  -0.312   0.228  1.00  0.00     0.253 C 
ATOM     13  H   UNL     1       3.038   1.141  -1.076  1.00  0.00     0.165 HD
BRANCH  12  14
ATOM     14  C   UNL     1       3.171  -1.263   1.204  1.00  0.00     0.058 A 
ATOM     15  C   UNL     1       2.978  -2.627   1.005  1.00  0.00     0.018 A 
ATOM     16  C   UNL     1       3.893  -0.845   2.312  1.00  0.00     0.126 A 
ATOM     17  C   UNL     1       3.601  -3.526   1.867  1.00  0.00     0.037 A 
ATOM     18  N   UNL     1       4.523  -1.698   3.153  1.00  0.00    -0.249 NA
ATOM     19  C   UNL     1       4.378  -3.019   2.901  1.00  0.00     0.106 A 
ATOM     20  Br  UNL     1       5.329  -4.232   4.005  1.00  0.00    -0.029 Br
ENDBRANCH  12  14
ENDBRANCH   9  10
BRANCH   9  21
ATOM     21  C   UNL     1       5.297   2.067   0.066  1.00  0.00    -0.014 A 
ATOM     22  C   UNL     1       6.136   2.254   1.176  1.00  0.00     0.006 A 
ATOM     23  C   UNL     1       4.820   3.201  -0.614  1.00  0.00     0.006 A 
ATOM     24  C   UNL     1       6.487   3.538   1.594  1.00  0.00     0.000 A 
ATOM     25  C   UNL     1       5.177   4.483  -0.194  1.00  0.00     0.000 A 
ATOM     26  C   UNL     1       6.010   4.651   0.908  1.00  0.00     0.000 A 
ENDBRANCH   9  21
ENDBRANCH   7   9
ENDBRANCH   6   7
ENDBRANCH   5   6
ENDBRANCH   4   5
ENDBRANCH   3   4
ENDBRANCH   2   3
ENDBRANCH   1   2
BRANCH   1  27
ATOM     27  O   UNL     1       2.781   0.478  -4.965  1.00  0.00    -0.376 OA
BRANCH  27  28
ATOM     28  C   UNL     1       1.565   0.841  -5.601  1.00  0.00     0.202 C 
BRANCH  28  29
ATOM     29  C   UNL     1       1.793   1.866  -6.716  1.00  0.00     0.261 C 
BRANCH  29  30
ATOM     30  O   UNL     1       2.312   3.127  -6.259  1.00  0.00    -0.460 OA
BRANCH  30  31
ATOM     31  C   UNL     1       1.503   3.845  -5.445  1.00  0.00     0.338 C 
ATOM     32  O   UNL     1       0.371   3.546  -5.104  1.00  0.00    -0.246 OA
BRANCH  31  33
ATOM     33  C   UNL     1       2.289   4.954  -4.858  1.00  0.00     0.060 A 
ATOM     34  C   UNL     1       2.182   5.194  -3.482  1.00  0.00     0.016 A 
ATOM     35  C   UNL     1       3.112   5.758  -5.652  1.00  0.00     0.016 A 
ATOM     36  C   UNL     1       2.864   6.269  -2.907  1.00  0.00     0.010 A 
ATOM     37  C   UNL     1       3.782   6.844  -5.077  1.00  0.00     0.010 A 
ATOM     38  C   UNL     1       3.636   7.123  -3.708  1.00  0.00    -0.014 A 
BRANCH  38  39
ATOM     39  C   UNL     1       4.084   8.432  -3.164  1.00  0.00     0.031 A 
ATOM     40  C   UNL     1       3.128   9.593  -3.251  1.00  0.00     0.074 A 
ATOM     41  C   UNL     1       5.292   8.595  -2.595  1.00  0.00     0.049 A 
ATOM     42  N   UNL     1       3.280  10.830  -2.855  1.00  0.00    -0.248 NA
ATOM     43  C   UNL     1       1.823   9.312  -3.870  1.00  0.00     0.031 C 
ATOM     44  C   UNL     1       6.295   7.548  -2.418  1.00  0.00     0.029 A 
ATOM     45  N   UNL     1       5.878   9.717  -2.061  1.00  0.00    -0.354 N 
ATOM     46  C   UNL     1       2.083  11.471  -3.156  1.00  0.00     0.074 A 
ATOM     47  C   UNL     1       1.234  10.494  -3.804  1.00  0.00     0.031 C 
ATOM     48  C   UNL     1       7.377   8.079  -1.819  1.00  0.00     0.029 A 
ATOM     49  C   UNL     1       7.159   9.510  -1.604  1.00  0.00     0.049 A 
ATOM     50  H   UNL     1       5.424  10.589  -2.010  1.00  0.00     0.167 HD
ATOM     51  C   UNL     1       1.718  12.754  -2.912  1.00  0.00     0.034 A 
ATOM     52  C   UNL     1       8.056  10.381  -1.095  1.00  0.00     0.034 A 
ATOM     53  C   UNL     1       2.589  13.741  -2.326  1.00  0.00     0.049 A 
ATOM     54  C   UNL     1       7.670  11.838  -0.943  1.00  0.00     0.074 A 
ATOM     55  C   UNL     1       2.332  15.077  -2.073  1.00  0.00     0.029 A 
ATOM     56  N   UNL     1       3.897  13.506  -1.923  1.00  0.00    -0.354 N 
ATOM     57  N   UNL     1       6.530  12.428  -1.218  1.00  0.00    -0.248 NA
ATOM     58  C   UNL     1       8.696  12.742  -0.403  1.00  0.00     0.031 C 
ATOM     59  C   UNL     1       3.504  15.665  -1.583  1.00  0.00     0.029 A 
ATOM     60  C   UNL     1       4.469  14.679  -1.453  1.00  0.00     0.049 A 
ATOM     61  H   UNL     1       4.353  12.634  -1.966  1.00  0.00     0.167 HD
ATOM     62  C   UNL     1       6.692  13.763  -0.847  1.00  0.00     0.074 A 
ATOM     63  C   UNL     1       8.034  13.886  -0.319  1.00  0.00     0.031 C 
ATOM     64  C   UNL     1       5.810  14.793  -0.929  1.00  0.00     0.034 A 
BRANCH  51  65
ATOM     65  C   UNL     1       0.334  13.160  -3.351  1.00  0.00     0.023 A 
ATOM     66  C   UNL     1      -0.815  12.594  -2.769  1.00  0.00     0.031 A 
ATOM     67  C   UNL     1       0.159  14.074  -4.403  1.00  0.00     0.131 A 
ATOM     68  C   UNL     1      -2.082  12.889  -3.295  1.00  0.00     0.055 A 
ATOM     69  C   UNL     1      -1.109  14.425  -4.868  1.00  0.00     0.041 A 
ATOM     70  F   UNL     1       1.221  14.624  -5.014  1.00  0.00    -0.206 F 
ATOM     71  C   UNL     1      -2.238  13.819  -4.325  1.00  0.00     0.022 A 
BRANCH  68  72
ATOM     72  S   UNL     1      -3.505  11.923  -2.719  1.00  0.00     0.124 S 
ATOM     73  O   UNL     1      -3.095  10.562  -3.057  1.00  0.00    -0.237 OA
ATOM     74  O   UNL     1      -3.549  12.243  -1.297  1.00  0.00    -0.237 OA
ATOM     75  O   UNL     1      -4.617  12.445  -3.511  1.00  0.00    -0.744 OA
ENDBRANCH  68  72
ENDBRANCH  51  65
BRANCH  52  76
ATOM     76  C   UNL     1       9.434   9.935  -0.727  1.00  0.00     0.023 A 
ATOM     77  C   UNL     1       9.904  10.035   0.592  1.00  0.00     0.031 A 
ATOM     78  C   UNL     1      10.332   9.492  -1.714  1.00  0.00     0.131 A 
ATOM     79  C   UNL     1      11.250   9.754   0.879  1.00  0.00     0.055 A 
ATOM     80  C   UNL     1      11.655   9.159  -1.413  1.00  0.00     0.041 A 
ATOM     81  F   UNL     1       9.938   9.384  -2.993  1.00  0.00    -0.206 F 
ATOM     82  C   UNL     1      12.125   9.305  -0.112  1.00  0.00     0.022 A 
BRANCH  79  83
ATOM     83  S   UNL     1      11.870  10.085   2.553  1.00  0.00     0.124 S 
ATOM     84  O   UNL     1      11.600  11.511   2.692  1.00  0.00    -0.237 OA
ATOM     85  O   UNL     1      11.045   9.193   3.362  1.00  0.00    -0.237 OA
ATOM     86  O   UNL     1      13.283   9.720   2.471  1.00  0.00    -0.744 OA
ENDBRANCH  79  83
ENDBRANCH  52  76
BRANCH  64  87
ATOM     87  C   UNL     1       6.249  16.130  -0.375  1.00  0.00     0.023 A 
ATOM     88  C   UNL     1       7.293  16.874  -0.953  1.00  0.00     0.031 A 
ATOM     89  C   UNL     1       5.612  16.663   0.761  1.00  0.00     0.131 A 
ATOM     90  C   UNL     1       7.707  18.078  -0.361  1.00  0.00     0.055 A 
ATOM     91  C   UNL     1       5.987  17.890   1.309  1.00  0.00     0.041 A 
ATOM     92  F   UNL     1       4.610  15.998   1.357  1.00  0.00    -0.206 F 
ATOM     93  C   UNL     1       7.050  18.598   0.757  1.00  0.00     0.022 A 
BRANCH  90  94
ATOM     94  S   UNL     1       9.181  18.911  -1.012  1.00  0.00     0.124 S 
ATOM     95  O   UNL     1      10.193  17.864  -0.912  1.00  0.00    -0.237 OA
ATOM     96  O   UNL     1       8.766  19.268  -2.365  1.00  0.00    -0.237 OA
ATOM     97  O   UNL     1       9.367  20.041  -0.103  1.00  0.00    -0.744 OA
ENDBRANCH  90  94
ENDBRANCH  64  87
ENDBRANCH  38  39
ENDBRANCH  31  33
ENDBRANCH  30  31
ENDBRANCH  29  30
ENDBRANCH  28  29
ENDBRANCH  27  28
ENDBRANCH   1  27
TORSDOF 23
