REMARK SMILES CC(C)N(CCC#N)C(=O)c1ccncc1/C=C/C(=O)OCCOCCOCCOC(=O)c1ccc(-c2c3nc(c(-c4cc(S(=O)(=O)[O-])ccc4F)c4ccc([nH]4)c(-c4cc(S(=O)(=O)[O-])ccc4F)c4nc(c(-c5cc(S(=O)(=O)[O-])ccc5F)c5ccc2[nH]5)C=C4)C=C3)cc1
REMARK SMILES IDX 24 1 23 2 22 3 21 4 19 5 20 6 18 7 17 8 16 9 11 10 12 11
REMARK SMILES IDX 13 12 15 13 14 14 9 15 10 16 4 17 2 18 1 19 3 20 5 21 6 22
REMARK SMILES IDX 7 23 8 24 25 25 26 26 27 27 28 28 29 29 30 30 31 31 32 32
REMARK SMILES IDX 33 33 34 34 95 35 35 36 94 37 36 38 37 39 38 40 88 41 39 42
REMARK SMILES IDX 93 43 87 44 89 45 40 46 92 47 86 48 85 49 41 51 73 52 53 53
REMARK SMILES IDX 72 54 54 55 57 56 71 57 90 58 55 59 56 60 70 62 91 63 58 64
REMARK SMILES IDX 42 65 43 66 51 67 44 68 50 69 52 70 49 71 45 72 46 73 47 74
REMARK SMILES IDX 48 75 74 76 75 77 83 78 76 79 82 80 84 81 81 82 77 83 78 84
REMARK SMILES IDX 79 85 80 86 59 87 60 88 68 89 61 90 67 91 69 92 66 93 62 94
REMARK SMILES IDX 63 95 64 96 65 97
REMARK H PARENT 89 50 57 61
REMARK Flexibility Score: inf
ROOT
ATOM      1  O   UNL     1      -2.829   6.662   2.526  1.00  0.00    -0.376 OA
ENDROOT
BRANCH   1   2
ATOM      2  C   UNL     1      -1.689   6.432   3.338  1.00  0.00     0.202 C 
BRANCH   2   3
ATOM      3  C   UNL     1      -1.376   5.134   4.112  1.00  0.00     0.261 C 
BRANCH   3   4
ATOM      4  O   UNL     1      -2.027   3.946   3.670  1.00  0.00    -0.460 OA
BRANCH   4   5
ATOM      5  C   UNL     1      -2.934   3.381   4.508  1.00  0.00     0.330 C 
ATOM      6  O   UNL     1      -3.229   3.767   5.629  1.00  0.00    -0.247 OA
BRANCH   5   7
ATOM      7  C   UNL     1      -3.709   2.345   3.776  1.00  0.00     0.094 C 
ATOM      8  C   UNL     1      -3.146   1.653   2.768  1.00  0.00     0.018 C 
BRANCH   8   9
ATOM      9  C   UNL     1      -3.835   0.963   1.642  1.00  0.00     0.006 A 
ATOM     10  C   UNL     1      -3.156   0.407   0.516  1.00  0.00     0.050 A 
ATOM     11  C   UNL     1      -3.874   0.315  -0.683  1.00  0.00     0.034 A 
ATOM     12  C   UNL     1      -5.247   0.510  -0.681  1.00  0.00     0.112 A 
ATOM     13  C   UNL     1      -5.225   1.098   1.526  1.00  0.00     0.119 A 
ATOM     14  N   UNL     1      -5.942   0.862   0.406  1.00  0.00    -0.264 NA
BRANCH  10  15
ATOM     15  C   UNL     1      -1.729  -0.111   0.619  1.00  0.00     0.254 C 
ATOM     16  O   UNL     1      -1.059   0.289   1.573  1.00  0.00    -0.269 OA
BRANCH  15  17
ATOM     17  N   UNL     1      -1.120  -1.064  -0.259  1.00  0.00    -0.335 N 
BRANCH  17  18
ATOM     18  C   UNL     1       0.351  -1.270  -0.087  1.00  0.00     0.079 C 
ATOM     19  C   UNL     1       1.170   0.033  -0.083  1.00  0.00     0.031 C 
ATOM     20  C   UNL     1       0.693  -2.146   1.121  1.00  0.00     0.031 C 
ENDBRANCH  17  18
BRANCH  17  21
ATOM     21  C   UNL     1      -1.779  -1.972  -1.239  1.00  0.00     0.135 C 
BRANCH  21  22
ATOM     22  C   UNL     1      -2.621  -3.140  -0.694  1.00  0.00     0.141 C 
BRANCH  22  23
ATOM     23  C   UNL     1      -3.609  -2.638   0.347  1.00  0.00     0.064 C 
ATOM     24  N   UNL     1      -4.428  -2.222   1.210  1.00  0.00    -0.198 NA
ENDBRANCH  22  23
ENDBRANCH  21  22
ENDBRANCH  17  21
ENDBRANCH  15  17
ENDBRANCH  10  15
ENDBRANCH   8   9
ENDBRANCH   5   7
ENDBRANCH   4   5
ENDBRANCH   3   4
ENDBRANCH   2   3
ENDBRANCH   1   2
BRANCH   1  25
ATOM     25  C   UNL     1      -3.585   5.591   2.001  1.00  0.00     0.188 C 
BRANCH  25  26
ATOM     26  C   UNL     1      -2.955   4.711   0.908  1.00  0.00     0.188 C 
BRANCH  26  27
ATOM     27  O   UNL     1      -1.561   4.789   0.733  1.00  0.00    -0.376 OA
BRANCH  27  28
ATOM     28  C   UNL     1      -0.994   5.867   0.010  1.00  0.00     0.202 C 
BRANCH  28  29
ATOM     29  C   UNL     1      -1.760   6.967  -0.758  1.00  0.00     0.261 C 
BRANCH  29  30
ATOM     30  O   UNL     1      -3.161   7.125  -0.527  1.00  0.00    -0.460 OA
BRANCH  30  31
ATOM     31  C   UNL     1      -3.973   6.659  -1.509  1.00  0.00     0.338 C 
ATOM     32  O   UNL     1      -3.635   6.085  -2.530  1.00  0.00    -0.246 OA
BRANCH  31  33
ATOM     33  C   UNL     1      -5.376   6.800  -1.072  1.00  0.00     0.060 A 
ATOM     34  C   UNL     1      -6.122   5.644  -0.812  1.00  0.00     0.016 A 
ATOM     35  C   UNL     1      -5.959   8.062  -0.957  1.00  0.00     0.016 A 
ATOM     36  C   UNL     1      -7.467   5.747  -0.451  1.00  0.00     0.010 A 
ATOM     37  C   UNL     1      -7.312   8.163  -0.613  1.00  0.00     0.010 A 
ATOM     38  C   UNL     1      -8.079   7.006  -0.382  1.00  0.00    -0.014 A 
BRANCH  38  39
ATOM     39  C   UNL     1      -9.554   7.109  -0.227  1.00  0.00     0.031 A 
ATOM     40  C   UNL     1     -10.392   7.361  -1.452  1.00  0.00     0.074 A 
ATOM     41  C   UNL     1     -10.141   6.971   0.976  1.00  0.00     0.049 A 
ATOM     42  N   UNL     1     -11.679   7.566  -1.553  1.00  0.00    -0.248 NA
ATOM     43  C   UNL     1      -9.673   7.391  -2.736  1.00  0.00     0.031 C 
ATOM     44  C   UNL     1      -9.444   6.674   2.226  1.00  0.00     0.029 A 
ATOM     45  N   UNL     1     -11.461   7.072   1.343  1.00  0.00    -0.354 N 
ATOM     46  C   UNL     1     -11.928   7.752  -2.909  1.00  0.00     0.074 A 
ATOM     47  C   UNL     1     -10.649   7.676  -3.584  1.00  0.00     0.031 C 
ATOM     48  C   UNL     1     -10.343   6.630   3.226  1.00  0.00     0.029 A 
ATOM     49  C   UNL     1     -11.670   6.940   2.697  1.00  0.00     0.049 A 
ATOM     50  H   UNL     1     -12.189   7.225   0.698  1.00  0.00     0.167 HD
ATOM     51  C   UNL     1     -13.114   7.960  -3.533  1.00  0.00     0.034 A 
ATOM     52  C   UNL     1     -12.797   7.085   3.426  1.00  0.00     0.034 A 
ATOM     53  C   UNL     1     -14.378   8.050  -2.844  1.00  0.00     0.049 A 
ATOM     54  C   UNL     1     -14.092   7.420   2.720  1.00  0.00     0.074 A 
ATOM     55  C   UNL     1     -15.638   8.252  -3.381  1.00  0.00     0.029 A 
ATOM     56  N   UNL     1     -14.546   7.957  -1.468  1.00  0.00    -0.354 N 
ATOM     57  N   UNL     1     -14.316   7.591   1.436  1.00  0.00    -0.248 NA
ATOM     58  C   UNL     1     -15.287   7.573   3.560  1.00  0.00     0.031 C 
ATOM     59  C   UNL     1     -16.552   8.363  -2.328  1.00  0.00     0.029 A 
ATOM     60  C   UNL     1     -15.881   8.136  -1.137  1.00  0.00     0.049 A 
ATOM     61  H   UNL     1     -13.822   7.790  -0.822  1.00  0.00     0.167 HD
ATOM     62  C   UNL     1     -15.683   7.834   1.317  1.00  0.00     0.074 A 
ATOM     63  C   UNL     1     -16.233   7.773   2.654  1.00  0.00     0.031 C 
ATOM     64  C   UNL     1     -16.420   8.078   0.202  1.00  0.00     0.034 A 
BRANCH  51  65
ATOM     65  C   UNL     1     -13.086   8.158  -5.030  1.00  0.00     0.023 A 
ATOM     66  C   UNL     1     -12.669   7.140  -5.906  1.00  0.00     0.031 A 
ATOM     67  C   UNL     1     -13.468   9.391  -5.588  1.00  0.00     0.131 A 
ATOM     68  C   UNL     1     -12.582   7.394  -7.283  1.00  0.00     0.055 A 
ATOM     69  C   UNL     1     -13.457   9.611  -6.966  1.00  0.00     0.041 A 
ATOM     70  F   UNL     1     -13.850  10.409  -4.801  1.00  0.00    -0.206 F 
ATOM     71  C   UNL     1     -12.999   8.613  -7.822  1.00  0.00     0.022 A 
BRANCH  68  72
ATOM     72  S   UNL     1     -11.787   6.157  -8.346  1.00  0.00     0.124 S 
ATOM     73  O   UNL     1     -10.460   6.058  -7.743  1.00  0.00    -0.237 OA
ATOM     74  O   UNL     1     -12.652   4.995  -8.181  1.00  0.00    -0.237 OA
ATOM     75  O   UNL     1     -11.816   6.774  -9.671  1.00  0.00    -0.744 OA
ENDBRANCH  68  72
ENDBRANCH  51  65
BRANCH  52  76
ATOM     76  C   UNL     1     -12.760   6.971   4.915  1.00  0.00     0.023 A 
ATOM     77  C   UNL     1     -13.512   5.996   5.591  1.00  0.00     0.031 A 
ATOM     78  C   UNL     1     -12.031   7.891   5.691  1.00  0.00     0.131 A 
ATOM     79  C   UNL     1     -13.565   6.000   6.995  1.00  0.00     0.055 A 
ATOM     80  C   UNL     1     -12.035   7.850   7.086  1.00  0.00     0.041 A 
ATOM     81  F   UNL     1     -11.303   8.852   5.100  1.00  0.00    -0.206 F 
ATOM     82  C   UNL     1     -12.819   6.910   7.747  1.00  0.00     0.022 A 
BRANCH  79  83
ATOM     83  S   UNL     1     -14.719   4.871   7.824  1.00  0.00     0.124 S 
ATOM     84  O   UNL     1     -15.992   5.261   7.229  1.00  0.00    -0.237 OA
ATOM     85  O   UNL     1     -14.201   3.565   7.431  1.00  0.00    -0.237 OA
ATOM     86  O   UNL     1     -14.562   5.203   9.238  1.00  0.00    -0.744 OA
ENDBRANCH  79  83
ENDBRANCH  52  76
BRANCH  64  87
ATOM     87  C   UNL     1     -17.913   8.237   0.377  1.00  0.00     0.023 A 
ATOM     88  C   UNL     1     -18.472   9.315   1.087  1.00  0.00     0.031 A 
ATOM     89  C   UNL     1     -18.792   7.288  -0.177  1.00  0.00     0.131 A 
ATOM     90  C   UNL     1     -19.862   9.386   1.273  1.00  0.00     0.055 A 
ATOM     91  C   UNL     1     -20.177   7.400  -0.047  1.00  0.00     0.041 A 
ATOM     92  F   UNL     1     -18.318   6.236  -0.864  1.00  0.00    -0.206 F 
ATOM     93  C   UNL     1     -20.719   8.446   0.694  1.00  0.00     0.022 A 
BRANCH  90  94
ATOM     94  S   UNL     1     -20.533  10.670   2.364  1.00  0.00     0.124 S 
ATOM     95  O   UNL     1     -19.846  10.390   3.621  1.00  0.00    -0.237 OA
ATOM     96  O   UNL     1     -20.139  11.898   1.681  1.00  0.00    -0.237 OA
ATOM     97  O   UNL     1     -21.970  10.399   2.370  1.00  0.00    -0.744 OA
ENDBRANCH  90  94
ENDBRANCH  64  87
ENDBRANCH  38  39
ENDBRANCH  31  33
ENDBRANCH  30  31
ENDBRANCH  29  30
ENDBRANCH  28  29
ENDBRANCH  27  28
ENDBRANCH  26  27
ENDBRANCH  25  26
ENDBRANCH   1  25
TORSDOF 27
