REMARK SMILES Cc1cc(N2C[C@H](C(=O)OCCOCCOCCOC(=O)c3ccc(-c4c5nc(c(-c6cc(S(=O)(=O)[O-])ccc6F)c6ccc([nH]6)c(-c6cc(S(=O)(=O)[O-])ccc6F)c6nc(c(-c7cc(S(=O)(=O)[O-])ccc7F)c7ccc4[nH]7)C=C6)C=C5)cc3)CC2=O)cc(C)c1Br
REMARK SMILES IDX 15 1 14 2 13 3 12 4 11 5 10 6 8 7 9 8 7 9 5 10 6 11 86 12
REMARK SMILES IDX 85 13 87 14 4 15 1 16 2 17 3 18 91 19 89 20 92 21 88 22
REMARK SMILES IDX 90 23 16 24 17 25 18 26 19 27 20 28 21 29 22 30 23 31 84 32
REMARK SMILES IDX 24 33 83 34 25 35 26 36 27 37 77 38 28 39 82 40 76 41 78 42
REMARK SMILES IDX 29 43 81 44 75 45 74 46 30 48 62 49 42 50 61 51 43 52 46 53
REMARK SMILES IDX 60 54 79 55 44 56 45 57 59 59 80 60 47 61 31 62 32 63 40 64
REMARK SMILES IDX 33 65 39 66 41 67 38 68 34 69 35 70 36 71 37 72 63 73 64 74
REMARK SMILES IDX 72 75 65 76 71 77 73 78 70 79 66 80 67 81 68 82 69 83 48 84
REMARK SMILES IDX 49 85 57 86 50 87 56 88 58 89 55 90 51 91 52 92 53 93 54 94
REMARK H PARENT 78 47 46 58
REMARK Flexibility Score: inf
ROOT
ATOM      1  C   UNL     1       6.031   4.414   0.851  1.00  0.00     0.188 C 
ENDROOT
BRANCH   1   2
ATOM      2  C   UNL     1       7.470   3.995   0.551  1.00  0.00     0.188 C 
BRANCH   2   3
ATOM      3  O   UNL     1       8.074   4.608  -0.583  1.00  0.00    -0.376 OA
BRANCH   3   4
ATOM      4  C   UNL     1       7.369   4.516  -1.818  1.00  0.00     0.202 C 
BRANCH   4   5
ATOM      5  C   UNL     1       7.213   3.111  -2.422  1.00  0.00     0.261 C 
BRANCH   5   6
ATOM      6  O   UNL     1       6.614   2.136  -1.544  1.00  0.00    -0.463 OA
BRANCH   6   7
ATOM      7  C   UNL     1       7.423   1.125  -1.141  1.00  0.00     0.311 C 
ATOM      8  O   UNL     1       8.581   0.968  -1.515  1.00  0.00    -0.252 OA
BRANCH   7   9
ATOM      9  C   UNL     1       6.791   0.180  -0.141  1.00  0.00     0.128 C 
ATOM     10  N   UNL     1       4.500  -0.316  -0.369  1.00  0.00    -0.312 N 
ATOM     11  C   UNL     1       5.407   0.512   0.389  1.00  0.00     0.141 C 
ATOM     12  C   UNL     1       5.178  -1.293  -1.099  1.00  0.00     0.227 C 
ATOM     13  C   UNL     1       6.645  -1.190  -0.783  1.00  0.00     0.117 C 
ATOM     14  O   UNL     1       4.715  -2.127  -1.864  1.00  0.00    -0.274 OA
BRANCH  10  15
ATOM     15  C   UNL     1       3.091  -0.247  -0.225  1.00  0.00     0.044 A 
ATOM     16  C   UNL     1       0.172  -2.682  -0.141  1.00  0.00     0.045 C 
ATOM     17  C   UNL     1       0.918  -1.377  -0.138  1.00  0.00    -0.035 A 
ATOM     18  C   UNL     1       2.315  -1.407  -0.295  1.00  0.00     0.031 A 
ATOM     19  C   UNL     1       0.278  -0.135   0.012  1.00  0.00     0.023 A 
ATOM     20  C   UNL     1       1.034   1.050   0.081  1.00  0.00    -0.035 A 
ATOM     21  Br  UNL     1      -1.630  -0.059   0.101  1.00  0.00    -0.050 Br
ATOM     22  C   UNL     1       2.440   0.968   0.004  1.00  0.00     0.031 A 
ATOM     23  C   UNL     1       0.381   2.403   0.193  1.00  0.00     0.045 C 
ENDBRANCH  10  15
ENDBRANCH   7   9
ENDBRANCH   6   7
ENDBRANCH   5   6
ENDBRANCH   4   5
ENDBRANCH   3   4
ENDBRANCH   2   3
ENDBRANCH   1   2
BRANCH   1  24
ATOM     24  O   UNL     1       5.130   4.275  -0.235  1.00  0.00    -0.376 OA
BRANCH  24  25
ATOM     25  C   UNL     1       3.811   4.799  -0.086  1.00  0.00     0.202 C 
BRANCH  25  26
ATOM     26  C   UNL     1       3.557   6.066   0.752  1.00  0.00     0.261 C 
BRANCH  26  27
ATOM     27  O   UNL     1       4.097   6.090   2.088  1.00  0.00    -0.460 OA
BRANCH  27  28
ATOM     28  C   UNL     1       3.873   5.032   2.907  1.00  0.00     0.338 C 
ATOM     29  O   UNL     1       3.086   4.128   2.709  1.00  0.00    -0.246 OA
BRANCH  28  30
ATOM     30  C   UNL     1       4.969   5.008   3.928  1.00  0.00     0.060 A 
ATOM     31  C   UNL     1       5.481   3.764   4.333  1.00  0.00     0.016 A 
ATOM     32  C   UNL     1       5.567   6.181   4.400  1.00  0.00     0.016 A 
ATOM     33  C   UNL     1       6.559   3.692   5.225  1.00  0.00     0.010 A 
ATOM     34  C   UNL     1       6.634   6.108   5.305  1.00  0.00     0.010 A 
ATOM     35  C   UNL     1       7.120   4.864   5.748  1.00  0.00    -0.014 A 
BRANCH  35  36
ATOM     36  C   UNL     1       8.030   4.814   6.927  1.00  0.00     0.031 A 
ATOM     37  C   UNL     1       7.422   5.063   8.284  1.00  0.00     0.074 A 
ATOM     38  C   UNL     1       9.349   4.556   6.828  1.00  0.00     0.049 A 
ATOM     39  N   UNL     1       8.003   5.232   9.442  1.00  0.00    -0.248 NA
ATOM     40  C   UNL     1       5.952   5.133   8.332  1.00  0.00     0.031 C 
ATOM     41  C   UNL     1      10.059   4.213   5.598  1.00  0.00     0.029 A 
ATOM     42  N   UNL     1      10.334   4.558   7.791  1.00  0.00    -0.354 N 
ATOM     43  C   UNL     1       6.973   5.433  10.355  1.00  0.00     0.074 A 
ATOM     44  C   UNL     1       5.734   5.399   9.609  1.00  0.00     0.031 C 
ATOM     45  C   UNL     1      11.367   4.056   5.877  1.00  0.00     0.029 A 
ATOM     46  C   UNL     1      11.601   4.343   7.294  1.00  0.00     0.049 A 
ATOM     47  H   UNL     1      10.149   4.699   8.747  1.00  0.00     0.167 HD
ATOM     48  C   UNL     1       7.049   5.620  11.695  1.00  0.00     0.034 A 
ATOM     49  C   UNL     1      12.808   4.413   7.901  1.00  0.00     0.034 A 
ATOM     50  C   UNL     1       8.284   5.665  12.433  1.00  0.00     0.049 A 
ATOM     51  C   UNL     1      12.877   4.763   9.377  1.00  0.00     0.074 A 
ATOM     52  C   UNL     1       8.468   5.882  13.788  1.00  0.00     0.029 A 
ATOM     53  N   UNL     1       9.546   5.494  11.883  1.00  0.00    -0.354 N 
ATOM     54  N   UNL     1      11.897   4.992  10.221  1.00  0.00    -0.248 NA
ATOM     55  C   UNL     1      14.215   4.865   9.983  1.00  0.00     0.031 C 
ATOM     56  C   UNL     1       9.840   5.912  14.045  1.00  0.00     0.029 A 
ATOM     57  C   UNL     1      10.511   5.620  12.869  1.00  0.00     0.049 A 
ATOM     58  H   UNL     1       9.728   5.309  10.934  1.00  0.00     0.167 HD
ATOM     59  C   UNL     1      12.502   5.200  11.462  1.00  0.00     0.074 A 
ATOM     60  C   UNL     1      13.927   5.077  11.259  1.00  0.00     0.031 C 
ATOM     61  C   UNL     1      11.929   5.459  12.664  1.00  0.00     0.034 A 
BRANCH  48  62
ATOM     62  C   UNL     1       5.758   5.833  12.443  1.00  0.00     0.023 A 
ATOM     63  C   UNL     1       4.795   4.816  12.553  1.00  0.00     0.031 A 
ATOM     64  C   UNL     1       5.491   7.068  13.059  1.00  0.00     0.131 A 
ATOM     65  C   UNL     1       3.589   5.068  13.223  1.00  0.00     0.055 A 
ATOM     66  C   UNL     1       4.324   7.287  13.791  1.00  0.00     0.041 A 
ATOM     67  F   UNL     1       6.364   8.083  12.961  1.00  0.00    -0.206 F 
ATOM     68  C   UNL     1       3.359   6.286  13.867  1.00  0.00     0.022 A 
BRANCH  65  69
ATOM     69  S   UNL     1       2.276   3.822  13.137  1.00  0.00     0.124 S 
ATOM     70  O   UNL     1       2.038   3.744  11.697  1.00  0.00    -0.237 OA
ATOM     71  O   UNL     1       2.906   2.655  13.744  1.00  0.00    -0.237 OA
ATOM     72  O   UNL     1       1.188   4.418  13.910  1.00  0.00    -0.744 OA
ENDBRANCH  65  69
ENDBRANCH  48  62
BRANCH  49  73
ATOM     73  C   UNL     1      14.077   4.220   7.130  1.00  0.00     0.023 A 
ATOM     74  C   UNL     1      15.010   3.236   7.501  1.00  0.00     0.031 A 
ATOM     75  C   UNL     1      14.438   5.100   6.094  1.00  0.00     0.131 A 
ATOM     76  C   UNL     1      16.281   3.210   6.904  1.00  0.00     0.055 A 
ATOM     77  C   UNL     1      15.674   5.019   5.447  1.00  0.00     0.041 A 
ATOM     78  F   UNL     1      13.598   6.072   5.704  1.00  0.00    -0.206 F 
ATOM     79  C   UNL     1      16.613   4.083   5.867  1.00  0.00     0.022 A 
BRANCH  76  80
ATOM     80  S   UNL     1      17.551   2.124   7.614  1.00  0.00     0.124 S 
ATOM     81  O   UNL     1      17.570   2.566   9.004  1.00  0.00    -0.237 OA
ATOM     82  O   UNL     1      16.989   0.800   7.367  1.00  0.00    -0.237 OA
ATOM     83  O   UNL     1      18.747   2.448   6.839  1.00  0.00    -0.744 OA
ENDBRANCH  76  80
ENDBRANCH  49  73
BRANCH  61  84
ATOM     84  C   UNL     1      12.822   5.518  13.881  1.00  0.00     0.023 A 
ATOM     85  C   UNL     1      13.753   6.549  14.088  1.00  0.00     0.031 A 
ATOM     86  C   UNL     1      12.695   4.532  14.879  1.00  0.00     0.131 A 
ATOM     87  C   UNL     1      14.544   6.553  15.249  1.00  0.00     0.055 A 
ATOM     88  C   UNL     1      13.443   4.573  16.056  1.00  0.00     0.041 A 
ATOM     89  F   UNL     1      11.821   3.523  14.734  1.00  0.00    -0.206 F 
ATOM     90  C   UNL     1      14.380   5.583  16.242  1.00  0.00     0.022 A 
BRANCH  87  91
ATOM     91  S   UNL     1      15.838   7.813  15.426  1.00  0.00     0.124 S 
ATOM     92  O   UNL     1      16.680   7.550  14.264  1.00  0.00    -0.237 OA
ATOM     93  O   UNL     1      15.072   9.055  15.390  1.00  0.00    -0.237 OA
ATOM     94  O   UNL     1      16.447   7.502  16.718  1.00  0.00    -0.744 OA
ENDBRANCH  87  91
ENDBRANCH  61  84
ENDBRANCH  35  36
ENDBRANCH  28  30
ENDBRANCH  27  28
ENDBRANCH  26  27
ENDBRANCH  25  26
ENDBRANCH  24  25
ENDBRANCH   1  24
TORSDOF 21
