REMARK SMILES Cc1c(Cl)cc2c(c1C)O[C@@H](C(F)(F)F)C(C(=O)OCCOCCOCCOC(=O)c1ccc(-c3c4nc(c(-c5cc(S(=O)(=O)[O-])ccc5F)c5ccc([nH]5)c(-c5cc(S(=O)(=O)[O-])ccc5F)c5nc(c(-c6cc(S(=O)(=O)[O-])ccc6F)c6ccc3[nH]6)C=C5)C=C4)cc1)=C2
REMARK SMILES IDX 24 1 23 2 22 3 21 4 20 5 19 6 17 7 18 8 16 9 1 10 2 11 3 12
REMARK SMILES IDX 8 13 4 14 5 15 7 16 9 17 6 18 10 19 94 20 11 21 12 22 13 23
REMARK SMILES IDX 14 24 15 25 25 26 26 27 27 28 28 29 29 30 30 31 31 32 32 33
REMARK SMILES IDX 93 34 33 35 92 36 34 37 35 38 36 39 86 40 37 41 91 42 85 43
REMARK SMILES IDX 87 44 38 45 90 46 84 47 83 48 39 50 71 51 51 52 70 53 52 54
REMARK SMILES IDX 55 55 69 56 88 57 53 58 54 59 68 61 89 62 56 63 40 64 41 65
REMARK SMILES IDX 49 66 42 67 48 68 50 69 47 70 43 71 44 72 45 73 46 74 72 75
REMARK SMILES IDX 73 76 81 77 74 78 80 79 82 80 79 81 75 82 76 83 77 84 78 85
REMARK SMILES IDX 57 86 58 87 66 88 59 89 65 90 67 91 64 92 60 93 61 94 62 95
REMARK SMILES IDX 63 96
REMARK H PARENT 87 49 55 60
REMARK Flexibility Score: inf
ROOT
ATOM      1  C   UNL     1       1.460  -6.444   5.822  1.00  0.00     0.188 C 
ENDROOT
BRANCH   1   2
ATOM      2  C   UNL     1       0.132  -6.290   6.585  1.00  0.00     0.188 C 
BRANCH   2   3
ATOM      3  O   UNL     1      -0.532  -7.444   7.090  1.00  0.00    -0.376 OA
BRANCH   3   4
ATOM      4  C   UNL     1      -0.556  -8.640   6.323  1.00  0.00     0.202 C 
BRANCH   4   5
ATOM      5  C   UNL     1      -1.105  -8.585   4.889  1.00  0.00     0.261 C 
BRANCH   5   6
ATOM      6  O   UNL     1      -0.461  -7.622   4.032  1.00  0.00    -0.460 OA
BRANCH   6   7
ATOM      7  C   UNL     1      -1.268  -6.680   3.495  1.00  0.00     0.338 C 
ATOM      8  O   UNL     1      -2.485  -6.645   3.576  1.00  0.00    -0.246 OA
BRANCH   7   9
ATOM      9  C   UNL     1      -0.484  -5.600   2.865  1.00  0.00     0.087 C 
ATOM     10  C   UNL     1       1.089   0.063   0.035  1.00  0.00     0.046 C 
ATOM     11  C   UNL     1       0.671  -1.085   0.921  1.00  0.00    -0.026 A 
ATOM     12  C   UNL     1       0.036  -0.863   2.160  1.00  0.00     0.045 A 
ATOM     13  C   UNL     1       0.898  -2.423   0.504  1.00  0.00    -0.004 A 
ATOM     14  Cl  UNL     1      -0.273   0.724   2.774  1.00  0.00    -0.084 Cl
ATOM     15  C   UNL     1      -0.397  -1.933   2.950  1.00  0.00     0.032 A 
ATOM     16  C   UNL     1       0.437  -3.488   1.307  1.00  0.00     0.131 A 
ATOM     17  C   UNL     1       1.637  -2.759  -0.768  1.00  0.00     0.049 C 
ATOM     18  C   UNL     1      -0.213  -3.245   2.519  1.00  0.00     0.019 A 
ATOM     19  O   UNL     1       0.572  -4.758   0.797  1.00  0.00    -0.475 OA
ATOM     20  C   UNL     1      -0.791  -4.356   3.261  1.00  0.00     0.027 C 
ATOM     21  C   UNL     1       0.448  -5.879   1.718  1.00  0.00     0.316 C 
BRANCH  21  22
ATOM     22  C   UNL     1       1.863  -6.354   2.094  1.00  0.00     0.430 C 
ATOM     23  F   UNL     1       2.654  -6.429   0.991  1.00  0.00    -0.167 F 
ATOM     24  F   UNL     1       2.480  -5.524   2.964  1.00  0.00    -0.167 F 
ATOM     25  F   UNL     1       1.854  -7.594   2.631  1.00  0.00    -0.167 F 
ENDBRANCH  21  22
ENDBRANCH   7   9
ENDBRANCH   6   7
ENDBRANCH   5   6
ENDBRANCH   4   5
ENDBRANCH   3   4
ENDBRANCH   2   3
ENDBRANCH   1   2
BRANCH   1  26
ATOM     26  O   UNL     1       1.978  -7.759   5.826  1.00  0.00    -0.376 OA
BRANCH  26  27
ATOM     27  C   UNL     1       3.237  -7.948   6.447  1.00  0.00     0.202 C 
BRANCH  27  28
ATOM     28  C   UNL     1       3.308  -7.668   7.956  1.00  0.00     0.261 C 
BRANCH  28  29
ATOM     29  O   UNL     1       2.787  -6.401   8.390  1.00  0.00    -0.460 OA
BRANCH  29  30
ATOM     30  C   UNL     1       3.513  -5.295   8.102  1.00  0.00     0.338 C 
ATOM     31  O   UNL     1       4.574  -5.255   7.505  1.00  0.00    -0.246 OA
BRANCH  30  32
ATOM     32  C   UNL     1       2.680  -4.126   8.464  1.00  0.00     0.060 A 
ATOM     33  C   UNL     1       2.237  -3.256   7.459  1.00  0.00     0.016 A 
ATOM     34  C   UNL     1       2.296  -3.924   9.791  1.00  0.00     0.016 A 
ATOM     35  C   UNL     1       1.401  -2.183   7.783  1.00  0.00     0.010 A 
ATOM     36  C   UNL     1       1.478  -2.837  10.116  1.00  0.00     0.010 A 
ATOM     37  C   UNL     1       1.036  -1.953   9.117  1.00  0.00    -0.014 A 
BRANCH  37  38
ATOM     38  C   UNL     1       0.313  -0.711   9.491  1.00  0.00     0.031 A 
ATOM     39  C   UNL     1       1.106   0.451  10.023  1.00  0.00     0.074 A 
ATOM     40  C   UNL     1      -1.021  -0.605   9.342  1.00  0.00     0.049 A 
ATOM     41  N   UNL     1       0.688   1.615  10.446  1.00  0.00    -0.248 NA
ATOM     42  C   UNL     1       2.566   0.274  10.085  1.00  0.00     0.031 C 
ATOM     43  C   UNL     1      -1.894  -1.642   8.793  1.00  0.00     0.029 A 
ATOM     44  N   UNL     1      -1.875   0.430   9.636  1.00  0.00    -0.354 N 
ATOM     45  C   UNL     1       1.831   2.316  10.813  1.00  0.00     0.074 A 
ATOM     46  C   UNL     1       2.956   1.429  10.605  1.00  0.00     0.031 C 
ATOM     47  C   UNL     1      -3.159  -1.185   8.781  1.00  0.00     0.029 A 
ATOM     48  C   UNL     1      -3.195   0.160   9.355  1.00  0.00     0.049 A 
ATOM     49  H   UNL     1      -1.571   1.287  10.014  1.00  0.00     0.167 HD
ATOM     50  C   UNL     1       1.936   3.588  11.265  1.00  0.00     0.034 A 
ATOM     51  C   UNL     1      -4.303   0.905   9.551  1.00  0.00     0.034 A 
ATOM     52  C   UNL     1       0.812   4.462  11.481  1.00  0.00     0.049 A 
ATOM     53  C   UNL     1      -4.173   2.280  10.163  1.00  0.00     0.074 A 
ATOM     54  C   UNL     1       0.817   5.766  11.943  1.00  0.00     0.029 A 
ATOM     55  N   UNL     1      -0.514   4.122  11.256  1.00  0.00    -0.354 N 
ATOM     56  N   UNL     1      -3.087   2.919  10.530  1.00  0.00    -0.248 NA
ATOM     57  C   UNL     1      -5.416   3.033  10.390  1.00  0.00     0.031 C 
ATOM     58  C   UNL     1      -0.508   6.192  12.062  1.00  0.00     0.029 A 
ATOM     59  C   UNL     1      -1.337   5.182  11.599  1.00  0.00     0.049 A 
ATOM     60  H   UNL     1      -0.825   3.257  10.905  1.00  0.00     0.167 HD
ATOM     61  C   UNL     1      -3.514   4.159  10.998  1.00  0.00     0.074 A 
ATOM     62  C   UNL     1      -4.956   4.179  10.874  1.00  0.00     0.031 C 
ATOM     63  C   UNL     1      -2.775   5.191  11.476  1.00  0.00     0.034 A 
BRANCH  50  64
ATOM     64  C   UNL     1       3.314   4.105  11.583  1.00  0.00     0.023 A 
ATOM     65  C   UNL     1       4.258   4.339  10.570  1.00  0.00     0.031 A 
ATOM     66  C   UNL     1       3.675   4.396  12.909  1.00  0.00     0.131 A 
ATOM     67  C   UNL     1       5.533   4.818  10.904  1.00  0.00     0.055 A 
ATOM     68  C   UNL     1       4.923   4.932  13.228  1.00  0.00     0.041 A 
ATOM     69  F   UNL     1       2.816   4.171  13.916  1.00  0.00    -0.206 F 
ATOM     70  C   UNL     1       5.863   5.141  12.223  1.00  0.00     0.022 A 
BRANCH  67  71
ATOM     71  S   UNL     1       6.784   4.944   9.597  1.00  0.00     0.124 S 
ATOM     72  O   UNL     1       6.938   3.547   9.201  1.00  0.00    -0.237 OA
ATOM     73  O   UNL     1       6.139   5.817   8.623  1.00  0.00    -0.237 OA
ATOM     74  O   UNL     1       7.938   5.522  10.283  1.00  0.00    -0.744 OA
ENDBRANCH  67  71
ENDBRANCH  50  64
BRANCH  51  75
ATOM     75  C   UNL     1      -5.643   0.366   9.179  1.00  0.00     0.023 A 
ATOM     76  C   UNL     1      -6.389   0.939   8.137  1.00  0.00     0.031 A 
ATOM     77  C   UNL     1      -6.203  -0.721   9.873  1.00  0.00     0.131 A 
ATOM     78  C   UNL     1      -7.663   0.434   7.830  1.00  0.00     0.055 A 
ATOM     79  C   UNL     1      -7.452  -1.246   9.537  1.00  0.00     0.041 A 
ATOM     80  F   UNL     1      -5.531  -1.302  10.880  1.00  0.00    -0.206 F 
ATOM     81  C   UNL     1      -8.193  -0.663   8.514  1.00  0.00     0.022 A 
BRANCH  78  82
ATOM     82  S   UNL     1      -8.641   1.258   6.544  1.00  0.00     0.124 S 
ATOM     83  O   UNL     1      -8.843   2.580   7.127  1.00  0.00    -0.237 OA
ATOM     84  O   UNL     1      -7.747   1.193   5.393  1.00  0.00    -0.237 OA
ATOM     85  O   UNL     1      -9.840   0.429   6.445  1.00  0.00    -0.744 OA
ENDBRANCH  78  82
ENDBRANCH  51  75
BRANCH  63  86
ATOM     86  C   UNL     1      -3.493   6.458  11.867  1.00  0.00     0.023 A 
ATOM     87  C   UNL     1      -4.279   6.532  13.029  1.00  0.00     0.031 A 
ATOM     88  C   UNL     1      -3.313   7.629  11.108  1.00  0.00     0.131 A 
ATOM     89  C   UNL     1      -4.870   7.753  13.392  1.00  0.00     0.055 A 
ATOM     90  C   UNL     1      -3.866   8.849  11.498  1.00  0.00     0.041 A 
ATOM     91  F   UNL     1      -2.565   7.611   9.994  1.00  0.00    -0.206 F 
ATOM     92  C   UNL     1      -4.652   8.915  12.645  1.00  0.00     0.022 A 
BRANCH  89  93
ATOM     93  S   UNL     1      -5.946   7.804  14.851  1.00  0.00     0.124 S 
ATOM     94  O   UNL     1      -7.048   6.939  14.445  1.00  0.00    -0.237 OA
ATOM     95  O   UNL     1      -5.079   7.281  15.902  1.00  0.00    -0.237 OA
ATOM     96  O   UNL     1      -6.284   9.221  14.979  1.00  0.00    -0.744 OA
ENDBRANCH  89  93
ENDBRANCH  63  86
ENDBRANCH  37  38
ENDBRANCH  30  32
ENDBRANCH  29  30
ENDBRANCH  28  29
ENDBRANCH  27  28
ENDBRANCH  26  27
ENDBRANCH   1  26
TORSDOF 21
