REMARK SMILES CCOc1ccc2[nH]c(C)c/c(=N\c3cccc(C(=O)OCCOCCOCCOC(=O)c4ccc(-c5c6nc(c(-c7cc(S(=O)(=O)[O-])ccc7F)c7ccc([nH]7)c(-c7cc(S(=O)(=O)[O-])ccc7F)c7nc(c(-c8cc(S(=O)(=O)[O-])ccc8F)c8ccc5[nH]8)C=C7)C=C6)cc4)c3)c2c1
REMARK SMILES IDX 25 1 24 2 23 3 22 4 21 5 19 6 20 7 18 8 14 9 15 10 96 11
REMARK SMILES IDX 16 12 17 13 13 14 4 15 5 16 98 17 6 18 97 19 7 20 12 21 8 22
REMARK SMILES IDX 11 23 9 24 10 26 3 27 2 28 1 29 26 30 27 31 28 32 29 33
REMARK SMILES IDX 30 34 31 35 32 36 33 37 34 38 95 39 35 40 94 41 36 42 37 43
REMARK SMILES IDX 38 44 88 45 39 46 93 47 87 48 89 49 40 50 92 51 86 52 85 53
REMARK SMILES IDX 41 55 73 56 53 57 72 58 54 59 57 60 71 61 90 62 55 63 56 64
REMARK SMILES IDX 70 66 91 67 58 68 42 69 43 70 51 71 44 72 50 73 52 74 49 75
REMARK SMILES IDX 45 76 46 77 47 78 48 79 74 80 75 81 83 82 76 83 82 84 84 85
REMARK SMILES IDX 81 86 77 87 78 88 79 89 80 90 59 91 60 92 68 93 61 94 67 95
REMARK SMILES IDX 69 96 66 97 62 98 63 99 64 100 65 101
REMARK H PARENT 8 25 89 54 57 65
REMARK Flexibility Score: inf
ROOT
ATOM      1  C   UNL     1       7.517   9.841   3.197  1.00  0.00     0.188 C 
ENDROOT
BRANCH   1   2
ATOM      2  O   UNL     1       7.296  10.058   4.572  1.00  0.00    -0.376 OA
BRANCH   2   3
ATOM      3  C   UNL     1       6.065  10.606   5.006  1.00  0.00     0.202 C 
BRANCH   3   4
ATOM      4  C   UNL     1       4.701  10.233   4.393  1.00  0.00     0.261 C 
BRANCH   4   5
ATOM      5  O   UNL     1       4.710   9.581   3.119  1.00  0.00    -0.460 OA
BRANCH   5   6
ATOM      6  C   UNL     1       4.384  10.342   2.046  1.00  0.00     0.338 C 
ATOM      7  O   UNL     1       4.096  11.526   2.058  1.00  0.00    -0.246 OA
BRANCH   6   8
ATOM      8  C   UNL     1       4.604   9.559   0.808  1.00  0.00     0.062 A 
ATOM      9  C   UNL     1       4.483   7.497  -0.472  1.00  0.00     0.065 A 
ATOM     10  C   UNL     1       5.099   8.159  -1.544  1.00  0.00     0.028 A 
ATOM     11  C   UNL     1       4.219   8.214   0.700  1.00  0.00     0.044 A 
ATOM     12  C   UNL     1       5.513   9.489  -1.429  1.00  0.00     0.003 A 
ATOM     13  C   UNL     1       5.260  10.192  -0.254  1.00  0.00     0.016 A 
BRANCH   9  14
ATOM     14  N   UNL     1       4.046   6.165  -0.574  1.00  0.00    -0.248 NA
ATOM     15  C   UNL     1       2.416   2.263  -0.963  1.00  0.00     0.120 A 
ATOM     16  C   UNL     1       3.252   1.228  -1.375  1.00  0.00     0.048 A 
ATOM     17  C   UNL     1       2.917   3.552  -0.783  1.00  0.00     0.059 A 
ATOM     18  C   UNL     1       4.612   1.465  -1.562  1.00  0.00     0.030 A 
ATOM     19  C   UNL     1       4.285   3.796  -0.980  1.00  0.00     0.027 A 
ATOM     20  C   UNL     1       5.139   2.746  -1.369  1.00  0.00     0.048 A 
ATOM     21  C   UNL     1       4.859   5.178  -0.820  1.00  0.00     0.075 A 
ATOM     22  N   UNL     1       6.501   2.980  -1.579  1.00  0.00    -0.359 N 
ATOM     23  C   UNL     1       6.350   5.279  -0.982  1.00  0.00     0.050 A 
ATOM     24  C   UNL     1       7.069   4.213  -1.370  1.00  0.00     0.014 A 
ATOM     25  H   UNL     1       7.070   2.238  -1.887  1.00  0.00     0.166 HD
ATOM     26  C   UNL     1       8.551   4.320  -1.608  1.00  0.00     0.064 C 
BRANCH  15  27
ATOM     27  O   UNL     1       1.069   2.043  -0.857  1.00  0.00    -0.494 OA
BRANCH  27  28
ATOM     28  C   UNL     1       0.708   1.422   0.384  1.00  0.00     0.226 C 
ATOM     29  C   UNL     1       0.701  -0.096   0.270  1.00  0.00     0.049 C 
ENDBRANCH  27  28
ENDBRANCH  15  27
ENDBRANCH   9  14
ENDBRANCH   6   8
ENDBRANCH   5   6
ENDBRANCH   4   5
ENDBRANCH   3   4
ENDBRANCH   2   3
ENDBRANCH   1   2
BRANCH   1  30
ATOM     30  C   UNL     1       7.415   8.353   2.794  1.00  0.00     0.188 C 
BRANCH  30  31
ATOM     31  O   UNL     1       7.059   7.378   3.770  1.00  0.00    -0.376 OA
BRANCH  31  32
ATOM     32  C   UNL     1       7.763   7.349   5.007  1.00  0.00     0.202 C 
BRANCH  32  33
ATOM     33  C   UNL     1       9.291   7.218   4.996  1.00  0.00     0.261 C 
BRANCH  33  34
ATOM     34  O   UNL     1       9.974   8.234   4.245  1.00  0.00    -0.460 OA
BRANCH  34  35
ATOM     35  C   UNL     1      10.652   7.803   3.150  1.00  0.00     0.338 C 
ATOM     36  O   UNL     1      10.751   6.656   2.745  1.00  0.00    -0.246 OA
BRANCH  35  37
ATOM     37  C   UNL     1      11.114   8.978   2.388  1.00  0.00     0.060 A 
ATOM     38  C   UNL     1      11.992   9.899   2.960  1.00  0.00     0.016 A 
ATOM     39  C   UNL     1      10.651   9.154   1.077  1.00  0.00     0.016 A 
ATOM     40  C   UNL     1      12.406  11.006   2.214  1.00  0.00     0.010 A 
ATOM     41  C   UNL     1      11.051  10.270   0.341  1.00  0.00     0.010 A 
ATOM     42  C   UNL     1      11.936  11.201   0.903  1.00  0.00    -0.014 A 
BRANCH  42  43
ATOM     43  C   UNL     1      12.454  12.323   0.085  1.00  0.00     0.031 A 
ATOM     44  C   UNL     1      11.663  13.582  -0.098  1.00  0.00     0.074 A 
ATOM     45  C   UNL     1      13.656  12.183  -0.506  1.00  0.00     0.049 A 
ATOM     46  N   UNL     1      12.007  14.680  -0.719  1.00  0.00    -0.248 NA
ATOM     47  C   UNL     1      10.314  13.616   0.486  1.00  0.00     0.031 C 
ATOM     48  C   UNL     1      14.491  10.987  -0.411  1.00  0.00     0.029 A 
ATOM     49  N   UNL     1      14.381  13.040  -1.295  1.00  0.00    -0.354 N 
ATOM     50  C   UNL     1      10.931  15.549  -0.581  1.00  0.00     0.074 A 
ATOM     51  C   UNL     1       9.901  14.829   0.137  1.00  0.00     0.031 C 
ATOM     52  C   UNL     1      15.622  11.190  -1.102  1.00  0.00     0.029 A 
ATOM     53  C   UNL     1      15.583  12.518  -1.713  1.00  0.00     0.049 A 
ATOM     54  H   UNL     1      14.070  13.941  -1.540  1.00  0.00     0.167 HD
ATOM     55  C   UNL     1      10.831  16.834  -0.999  1.00  0.00     0.034 A 
ATOM     56  C   UNL     1      16.547  13.046  -2.496  1.00  0.00     0.034 A 
ATOM     57  C   UNL     1      11.868  17.524  -1.726  1.00  0.00     0.049 A 
ATOM     58  C   UNL     1      16.393  14.463  -2.987  1.00  0.00     0.074 A 
ATOM     59  C   UNL     1      11.878  18.841  -2.151  1.00  0.00     0.029 A 
ATOM     60  N   UNL     1      13.066  16.962  -2.147  1.00  0.00    -0.354 N 
ATOM     61  N   UNL     1      15.419  15.312  -2.754  1.00  0.00    -0.248 NA
ATOM     62  C   UNL     1      17.466  15.006  -3.832  1.00  0.00     0.031 C 
ATOM     63  C   UNL     1      13.040  19.053  -2.892  1.00  0.00     0.029 A 
ATOM     64  C   UNL     1      13.802  17.896  -2.858  1.00  0.00     0.049 A 
ATOM     65  H   UNL     1      13.350  16.037  -1.966  1.00  0.00     0.167 HD
ATOM     66  C   UNL     1      15.778  16.496  -3.392  1.00  0.00     0.074 A 
ATOM     67  C   UNL     1      17.064  16.259  -4.012  1.00  0.00     0.031 C 
ATOM     68  C   UNL     1      15.099  17.669  -3.452  1.00  0.00     0.034 A 
BRANCH  55  69
ATOM     69  C   UNL     1       9.583  17.615  -0.668  1.00  0.00     0.023 A 
ATOM     70  C   UNL     1       8.780  18.137  -1.700  1.00  0.00     0.031 A 
ATOM     71  C   UNL     1       9.287  17.984   0.656  1.00  0.00     0.131 A 
ATOM     72  C   UNL     1       7.747  19.033  -1.394  1.00  0.00     0.055 A 
ATOM     73  C   UNL     1       8.230  18.844   0.959  1.00  0.00     0.041 A 
ATOM     74  F   UNL     1      10.028  17.521   1.675  1.00  0.00    -0.206 F 
ATOM     75  C   UNL     1       7.464  19.384  -0.070  1.00  0.00     0.022 A 
BRANCH  72  76
ATOM     76  S   UNL     1       6.786  19.841  -2.704  1.00  0.00     0.124 S 
ATOM     77  O   UNL     1       5.428  19.402  -2.392  1.00  0.00    -0.237 OA
ATOM     78  O   UNL     1       7.057  21.254  -2.454  1.00  0.00    -0.237 OA
ATOM     79  O   UNL     1       7.346  19.298  -3.936  1.00  0.00    -0.744 OA
ENDBRANCH  72  76
ENDBRANCH  55  69
BRANCH  56  80
ATOM     80  C   UNL     1      17.767  12.236  -2.783  1.00  0.00     0.023 A 
ATOM     81  C   UNL     1      17.673  11.010  -3.467  1.00  0.00     0.031 A 
ATOM     82  C   UNL     1      19.019  12.613  -2.271  1.00  0.00     0.131 A 
ATOM     83  C   UNL     1      18.794  10.174  -3.556  1.00  0.00     0.055 A 
ATOM     84  C   UNL     1      20.150  11.810  -2.425  1.00  0.00     0.041 A 
ATOM     85  F   UNL     1      19.154  13.766  -1.597  1.00  0.00    -0.206 F 
ATOM     86  C   UNL     1      20.036  10.574  -3.054  1.00  0.00     0.022 A 
BRANCH  83  87
ATOM     87  S   UNL     1      18.643   8.484  -4.199  1.00  0.00     0.124 S 
ATOM     88  O   UNL     1      19.572   8.502  -5.325  1.00  0.00    -0.237 OA
ATOM     89  O   UNL     1      19.062   7.688  -3.048  1.00  0.00    -0.237 OA
ATOM     90  O   UNL     1      17.231   8.372  -4.548  1.00  0.00    -0.744 OA
ENDBRANCH  83  87
ENDBRANCH  56  80
BRANCH  68  91
ATOM     91  C   UNL     1      15.708  18.835  -4.196  1.00  0.00     0.023 A 
ATOM     92  C   UNL     1      15.999  20.027  -3.504  1.00  0.00     0.031 A 
ATOM     93  C   UNL     1      15.801  18.841  -5.598  1.00  0.00     0.131 A 
ATOM     94  C   UNL     1      16.302  21.193  -4.218  1.00  0.00     0.055 A 
ATOM     95  C   UNL     1      16.156  19.992  -6.303  1.00  0.00     0.041 A 
ATOM     96  F   UNL     1      15.524  17.733  -6.304  1.00  0.00    -0.206 F 
ATOM     97  C   UNL     1      16.389  21.180  -5.614  1.00  0.00     0.022 A 
BRANCH  94  98
ATOM     98  S   UNL     1      16.489  22.788  -3.372  1.00  0.00     0.124 S 
ATOM     99  O   UNL     1      17.825  23.201  -3.795  1.00  0.00    -0.237 OA
ATOM    100  O   UNL     1      15.388  23.564  -3.937  1.00  0.00    -0.237 OA
ATOM    101  O   UNL     1      16.363  22.453  -1.958  1.00  0.00    -0.744 OA
ENDBRANCH  94  98
ENDBRANCH  68  91
ENDBRANCH  42  43
ENDBRANCH  35  37
ENDBRANCH  34  35
ENDBRANCH  33  34
ENDBRANCH  32  33
ENDBRANCH  31  32
ENDBRANCH  30  31
ENDBRANCH   1  30
TORSDOF 23
