REMARK SMILES O=C(N[C@H]1C=C[C@@H](C(=O)OCCOCCOCCOC(=O)c2ccc(-c3c4nc(c(-c5cc(S(=O)(=O)[O-])ccc5F)c5ccc([nH]5)c(-c5cc(S(=O)(=O)[O-])ccc5F)c5nc(c(-c6cc(S(=O)(=O)[O-])ccc6F)c6ccc3[nH]6)C=C5)C=C4)cc2)C1)c1ccc(CO)cc1
REMARK SMILES IDX 14 1 13 2 12 3 11 4 10 5 8 6 9 7 7 8 4 9 5 10 85 11 6 12
REMARK SMILES IDX 3 13 1 14 2 15 86 17 87 18 93 19 88 20 92 21 89 22 90 23
REMARK SMILES IDX 91 24 15 26 16 27 17 28 18 29 19 30 20 31 21 32 22 33 23 34
REMARK SMILES IDX 84 35 24 36 83 37 25 38 26 39 27 40 77 41 28 42 82 43 76 44
REMARK SMILES IDX 78 45 29 46 81 47 75 48 74 49 30 51 62 52 42 53 61 54 43 55
REMARK SMILES IDX 46 56 60 57 79 58 44 59 45 60 59 62 80 63 47 64 31 65 32 66
REMARK SMILES IDX 40 67 33 68 39 69 41 70 38 71 34 72 35 73 36 74 37 75 63 76
REMARK SMILES IDX 64 77 72 78 65 79 71 80 73 81 70 82 66 83 67 84 68 85 69 86
REMARK SMILES IDX 48 87 49 88 57 89 50 90 56 91 58 92 55 93 51 94 52 95 53 96
REMARK SMILES IDX 54 97
REMARK H PARENT 3 16 91 25 78 50 46 61
REMARK Flexibility Score: inf
ROOT
ATOM      1  C   UNL     1       6.659  -0.166   6.424  1.00  0.00     0.188 C 
ENDROOT
BRANCH   1   2
ATOM      2  O   UNL     1       6.594   0.910   7.357  1.00  0.00    -0.376 OA
BRANCH   2   3
ATOM      3  C   UNL     1       5.628   1.937   7.164  1.00  0.00     0.202 C 
BRANCH   3   4
ATOM      4  C   UNL     1       5.701   2.707   5.845  1.00  0.00     0.261 C 
BRANCH   4   5
ATOM      5  O   UNL     1       5.521   1.852   4.703  1.00  0.00    -0.463 OA
BRANCH   5   6
ATOM      6  C   UNL     1       6.242   2.192   3.605  1.00  0.00     0.312 C 
ATOM      7  O   UNL     1       6.939   3.200   3.533  1.00  0.00    -0.252 OA
BRANCH   6   8
ATOM      8  C   UNL     1       6.169   1.152   2.485  1.00  0.00     0.124 C 
ATOM      9  C   UNL     1       4.504   0.113   0.976  1.00  0.00     0.106 C 
ATOM     10  C   UNL     1       5.062   1.377   0.417  1.00  0.00    -0.006 C 
ATOM     11  C   UNL     1       4.969   0.190   2.440  1.00  0.00     0.048 C 
ATOM     12  C   UNL     1       6.007   1.902   1.199  1.00  0.00    -0.014 C 
BRANCH   9  13
ATOM     13  N   UNL     1       3.058   0.015   0.877  1.00  0.00    -0.346 N 
ATOM     14  O   UNL     1       1.048  -0.243  -0.136  1.00  0.00    -0.269 OA
ATOM     15  C   UNL     1       2.247  -0.006  -0.232  1.00  0.00     0.251 C 
ATOM     16  H   UNL     1       2.585  -0.046   1.738  1.00  0.00     0.164 HD
BRANCH  15  17
ATOM     17  C   UNL     1       2.812   0.380  -1.536  1.00  0.00     0.039 A 
ATOM     18  C   UNL     1       3.790  -0.391  -2.165  1.00  0.00     0.014 A 
ATOM     19  C   UNL     1       2.440   1.627  -2.047  1.00  0.00     0.014 A 
ATOM     20  C   UNL     1       4.467   0.136  -3.266  1.00  0.00     0.007 A 
ATOM     21  C   UNL     1       3.120   2.150  -3.145  1.00  0.00     0.007 A 
ATOM     22  C   UNL     1       4.154   1.419  -3.748  1.00  0.00    -0.023 A 
BRANCH  22  23
ATOM     23  C   UNL     1       4.975   2.033  -4.851  1.00  0.00     0.191 C 
BRANCH  23  24
ATOM     24  O   UNL     1       6.240   2.457  -4.361  1.00  0.00    -0.392 OA
ATOM     25  H   UNL     1       6.111   3.124  -3.668  1.00  0.00     0.211 HD
ENDBRANCH  23  24
ENDBRANCH  22  23
ENDBRANCH  15  17
ENDBRANCH   9  13
ENDBRANCH   6   8
ENDBRANCH   5   6
ENDBRANCH   4   5
ENDBRANCH   3   4
ENDBRANCH   2   3
ENDBRANCH   1   2
BRANCH   1  26
ATOM     26  C   UNL     1       5.352  -0.790   5.907  1.00  0.00     0.188 C 
BRANCH  26  27
ATOM     27  O   UNL     1       4.204  -0.480   6.679  1.00  0.00    -0.376 OA
BRANCH  27  28
ATOM     28  C   UNL     1       3.501  -1.596   7.204  1.00  0.00     0.202 C 
BRANCH  28  29
ATOM     29  C   UNL     1       4.205  -2.197   8.425  1.00  0.00     0.261 C 
BRANCH  29  30
ATOM     30  O   UNL     1       5.492  -2.772   8.138  1.00  0.00    -0.460 OA
BRANCH  30  31
ATOM     31  C   UNL     1       5.507  -3.826   7.290  1.00  0.00     0.338 C 
ATOM     32  O   UNL     1       4.540  -4.370   6.783  1.00  0.00    -0.246 OA
BRANCH  31  33
ATOM     33  C   UNL     1       6.909  -4.070   6.896  1.00  0.00     0.060 A 
ATOM     34  C   UNL     1       7.228  -4.138   5.533  1.00  0.00     0.016 A 
ATOM     35  C   UNL     1       7.904  -4.218   7.865  1.00  0.00     0.016 A 
ATOM     36  C   UNL     1       8.544  -4.382   5.137  1.00  0.00     0.010 A 
ATOM     37  C   UNL     1       9.215  -4.481   7.468  1.00  0.00     0.010 A 
ATOM     38  C   UNL     1       9.537  -4.590   6.104  1.00  0.00    -0.014 A 
BRANCH  38  39
ATOM     39  C   UNL     1      10.866  -5.119   5.709  1.00  0.00     0.031 A 
ATOM     40  C   UNL     1      11.079  -6.606   5.756  1.00  0.00     0.074 A 
ATOM     41  C   UNL     1      11.866  -4.300   5.337  1.00  0.00     0.049 A 
ATOM     42  N   UNL     1      12.167  -7.299   5.545  1.00  0.00    -0.248 NA
ATOM     43  C   UNL     1       9.900  -7.419   6.095  1.00  0.00     0.031 C 
ATOM     44  C   UNL     1      11.771  -2.847   5.219  1.00  0.00     0.029 A 
ATOM     45  N   UNL     1      13.168  -4.582   5.005  1.00  0.00    -0.354 N 
ATOM     46  C   UNL     1      11.807  -8.630   5.726  1.00  0.00     0.074 A 
ATOM     47  C   UNL     1      10.408  -8.641   6.098  1.00  0.00     0.031 C 
ATOM     48  C   UNL     1      12.973  -2.361   4.861  1.00  0.00     0.029 A 
ATOM     49  C   UNL     1      13.930  -3.463   4.761  1.00  0.00     0.049 A 
ATOM     50  H   UNL     1      13.523  -5.498   4.948  1.00  0.00     0.167 HD
ATOM     51  C   UNL     1      12.570  -9.741   5.591  1.00  0.00     0.034 A 
ATOM     52  C   UNL     1      15.252  -3.344   4.518  1.00  0.00     0.034 A 
ATOM     53  C   UNL     1      13.970  -9.716   5.248  1.00  0.00     0.049 A 
ATOM     54  C   UNL     1      16.106  -4.590   4.465  1.00  0.00     0.074 A 
ATOM     55  C   UNL     1      14.836 -10.783   5.078  1.00  0.00     0.029 A 
ATOM     56  N   UNL     1      14.716  -8.563   5.043  1.00  0.00    -0.354 N 
ATOM     57  N   UNL     1      15.752  -5.845   4.625  1.00  0.00    -0.248 NA
ATOM     58  C   UNL     1      17.539  -4.401   4.196  1.00  0.00     0.031 C 
ATOM     59  C   UNL     1      16.117 -10.273   4.837  1.00  0.00     0.029 A 
ATOM     60  C   UNL     1      16.038  -8.891   4.781  1.00  0.00     0.049 A 
ATOM     61  H   UNL     1      14.359  -7.647   5.077  1.00  0.00     0.167 HD
ATOM     62  C   UNL     1      16.914  -6.594   4.444  1.00  0.00     0.074 A 
ATOM     63  C   UNL     1      17.975  -5.651   4.155  1.00  0.00     0.031 C 
ATOM     64  C   UNL     1      17.088  -7.939   4.505  1.00  0.00     0.034 A 
BRANCH  51  65
ATOM     65  C   UNL     1      11.908 -11.066   5.874  1.00  0.00     0.023 A 
ATOM     66  C   UNL     1      10.857 -11.550   5.075  1.00  0.00     0.031 A 
ATOM     67  C   UNL     1      12.298 -11.831   6.986  1.00  0.00     0.131 A 
ATOM     68  C   UNL     1      10.184 -12.725   5.442  1.00  0.00     0.055 A 
ATOM     69  C   UNL     1      11.676 -13.040   7.301  1.00  0.00     0.041 A 
ATOM     70  F   UNL     1      13.278 -11.405   7.799  1.00  0.00    -0.206 F 
ATOM     71  C   UNL     1      10.602 -13.486   6.536  1.00  0.00     0.022 A 
BRANCH  68  72
ATOM     72  S   UNL     1       8.664 -13.166   4.556  1.00  0.00     0.124 S 
ATOM     73  O   UNL     1       7.835 -11.985   4.787  1.00  0.00    -0.237 OA
ATOM     74  O   UNL     1       9.139 -13.356   3.190  1.00  0.00    -0.237 OA
ATOM     75  O   UNL     1       8.211 -14.378   5.234  1.00  0.00    -0.744 OA
ENDBRANCH  68  72
ENDBRANCH  51  65
BRANCH  52  76
ATOM     76  C   UNL     1      15.874  -1.998   4.359  1.00  0.00     0.023 A 
ATOM     77  C   UNL     1      16.470  -1.611   3.148  1.00  0.00     0.031 A 
ATOM     78  C   UNL     1      15.941  -1.105   5.443  1.00  0.00     0.131 A 
ATOM     79  C   UNL     1      17.147  -0.384   3.063  1.00  0.00     0.055 A 
ATOM     80  C   UNL     1      16.572   0.136   5.338  1.00  0.00     0.041 A 
ATOM     81  F   UNL     1      15.390  -1.427   6.624  1.00  0.00    -0.206 F 
ATOM     82  C   UNL     1      17.191   0.497   4.146  1.00  0.00     0.022 A 
BRANCH  79  83
ATOM     83  S   UNL     1      18.044   0.011   1.536  1.00  0.00     0.124 S 
ATOM     84  O   UNL     1      18.988  -1.098   1.452  1.00  0.00    -0.237 OA
ATOM     85  O   UNL     1      16.971   0.015   0.548  1.00  0.00    -0.237 OA
ATOM     86  O   UNL     1      18.636   1.317   1.817  1.00  0.00    -0.744 OA
ENDBRANCH  79  83
ENDBRANCH  52  76
BRANCH  64  87
ATOM     87  C   UNL     1      18.468  -8.471   4.202  1.00  0.00     0.023 A 
ATOM     88  C   UNL     1      19.558  -8.242   5.061  1.00  0.00     0.031 A 
ATOM     89  C   UNL     1      18.694  -9.218   3.032  1.00  0.00     0.131 A 
ATOM     90  C   UNL     1      20.833  -8.715   4.713  1.00  0.00     0.055 A 
ATOM     91  C   UNL     1      19.953  -9.733   2.719  1.00  0.00     0.041 A 
ATOM     92  F   UNL     1      17.689  -9.466   2.176  1.00  0.00    -0.206 F 
ATOM     93  C   UNL     1      21.034  -9.472   3.555  1.00  0.00     0.022 A 
BRANCH  90  94
ATOM     94  S   UNL     1      22.248  -8.260   5.753  1.00  0.00     0.124 S 
ATOM     95  O   UNL     1      22.208  -6.802   5.699  1.00  0.00    -0.237 OA
ATOM     96  O   UNL     1      21.898  -8.860   7.036  1.00  0.00    -0.237 OA
ATOM     97  O   UNL     1      23.386  -8.875   5.073  1.00  0.00    -0.744 OA
ENDBRANCH  90  94
ENDBRANCH  64  87
ENDBRANCH  38  39
ENDBRANCH  31  33
ENDBRANCH  30  31
ENDBRANCH  29  30
ENDBRANCH  28  29
ENDBRANCH  27  28
ENDBRANCH  26  27
ENDBRANCH   1  26
TORSDOF 24
