REMARK SMILES C[C@]1(C(=O)OCCOCCOCCOC(=O)c2ccc(-c3c4nc(c(-c5cc(S(=O)(=O)[O-])ccc5F)c5ccc([nH]5)c(-c5cc(S(=O)(=O)[O-])ccc5F)c5nc(c(-c6cc(S(=O)(=O)[O-])ccc6F)c6ccc3[nH]6)C=C5)C=C4)cc2)COC[C@@H]1NC(=O)[C@H]1C=C[C@@H]([NH3+])C1
REMARK SMILES IDX 9 1 8 2 7 3 6 4 5 5 3 6 4 7 2 8 1 9 80 10 83 11 81 12 82 13
REMARK SMILES IDX 84 14 85 15 86 17 87 18 88 19 92 20 89 21 90 22 91 23 10 27
REMARK SMILES IDX 11 28 12 29 13 30 14 31 15 32 16 33 17 34 18 35 79 36 19 37
REMARK SMILES IDX 78 38 20 39 21 40 22 41 72 42 23 43 77 44 71 45 73 46 24 47
REMARK SMILES IDX 76 48 70 49 69 50 25 52 57 53 37 54 56 55 38 56 41 57 55 58
REMARK SMILES IDX 74 59 39 60 40 61 54 63 75 64 42 65 26 66 27 67 35 68 28 69
REMARK SMILES IDX 34 70 36 71 33 72 29 73 30 74 31 75 32 76 58 77 59 78 67 79
REMARK SMILES IDX 60 80 66 81 68 82 65 83 61 84 62 85 63 86 64 87 43 88 44 89
REMARK SMILES IDX 52 90 45 91 51 92 53 93 50 94 46 95 47 96 48 97 49 98
REMARK H PARENT 84 16 91 24 91 25 91 26 73 51 41 62
REMARK Flexibility Score: inf
ROOT
ATOM      1  C   UNL     1       1.752  -1.238   1.923  1.00  0.00     0.188 C 
ENDROOT
BRANCH   1   2
ATOM      2  O   UNL     1       2.703  -2.247   1.597  1.00  0.00    -0.376 OA
BRANCH   2   3
ATOM      3  C   UNL     1       3.653  -1.937   0.577  1.00  0.00     0.202 C 
BRANCH   3   4
ATOM      4  C   UNL     1       3.090  -1.584  -0.809  1.00  0.00     0.261 C 
BRANCH   4   5
ATOM      5  O   UNL     1       2.436  -0.293  -0.890  1.00  0.00    -0.463 OA
BRANCH   5   6
ATOM      6  C   UNL     1       1.107  -0.312  -1.170  1.00  0.00     0.316 C 
ATOM      7  O   UNL     1       0.469  -1.352  -1.321  1.00  0.00    -0.251 OA
BRANCH   6   8
ATOM      8  C   UNL     1       0.435   1.060  -1.294  1.00  0.00     0.111 C 
ATOM      9  C   UNL     1      -0.225   1.004  -2.686  1.00  0.00     0.028 C 
ATOM     10  C   UNL     1      -0.602   1.144  -0.168  1.00  0.00     0.181 C 
ATOM     11  C   UNL     1       1.321   2.293  -1.062  1.00  0.00     0.127 C 
ATOM     12  O   UNL     1      -0.287   2.230   0.710  1.00  0.00    -0.378 OA
ATOM     13  C   UNL     1       0.876   2.910   0.252  1.00  0.00     0.186 C 
BRANCH  11  14
ATOM     14  N   UNL     1       1.462   3.219  -2.202  1.00  0.00    -0.349 N 
ATOM     15  C   UNL     1       0.731   4.153  -2.852  1.00  0.00     0.227 C 
ATOM     16  H   UNL     1       2.353   3.131  -2.610  1.00  0.00     0.163 HD
ATOM     17  O   UNL     1       1.239   4.541  -3.917  1.00  0.00    -0.274 OA
BRANCH  15  18
ATOM     18  C   UNL     1      -0.555   4.843  -2.376  1.00  0.00     0.107 C 
ATOM     19  C   UNL     1      -1.569   4.153  -1.532  1.00  0.00    -0.012 C 
ATOM     20  C   UNL     1      -0.210   6.098  -1.556  1.00  0.00     0.087 C 
ATOM     21  C   UNL     1      -1.968   4.906  -0.501  1.00  0.00     0.033 C 
ATOM     22  C   UNL     1      -1.307   6.238  -0.490  1.00  0.00     0.205 C 
BRANCH  22  23
ATOM     23  N   UNL     1      -0.757   6.576   0.808  1.00  0.00    -0.352 N 
ATOM     24  H   UNL     1      -0.084   5.862   1.088  1.00  0.00     0.345 HD
ATOM     25  H   UNL     1      -1.510   6.622   1.494  1.00  0.00     0.345 HD
ATOM     26  H   UNL     1      -0.290   7.481   0.754  1.00  0.00     0.345 HD
ENDBRANCH  22  23
ENDBRANCH  15  18
ENDBRANCH  11  14
ENDBRANCH   6   8
ENDBRANCH   5   6
ENDBRANCH   4   5
ENDBRANCH   3   4
ENDBRANCH   2   3
ENDBRANCH   1   2
BRANCH   1  27
ATOM     27  C   UNL     1       2.345   0.067   2.451  1.00  0.00     0.188 C 
BRANCH  27  28
ATOM     28  O   UNL     1       3.373   0.600   1.628  1.00  0.00    -0.376 OA
BRANCH  28  29
ATOM     29  C   UNL     1       4.213   1.622   2.165  1.00  0.00     0.202 C 
BRANCH  29  30
ATOM     30  C   UNL     1       4.671   1.507   3.634  1.00  0.00     0.261 C 
BRANCH  30  31
ATOM     31  O   UNL     1       3.623   1.460   4.624  1.00  0.00    -0.460 OA
BRANCH  31  32
ATOM     32  C   UNL     1       2.634   2.385   4.539  1.00  0.00     0.338 C 
ATOM     33  O   UNL     1       2.663   3.402   3.880  1.00  0.00    -0.246 OA
BRANCH  32  34
ATOM     34  C   UNL     1       1.404   1.816   5.166  1.00  0.00     0.060 A 
ATOM     35  C   UNL     1       0.172   2.113   4.568  1.00  0.00     0.016 A 
ATOM     36  C   UNL     1       1.448   0.946   6.262  1.00  0.00     0.016 A 
ATOM     37  C   UNL     1      -1.013   1.588   5.091  1.00  0.00     0.010 A 
ATOM     38  C   UNL     1       0.257   0.421   6.786  1.00  0.00     0.010 A 
ATOM     39  C   UNL     1      -0.986   0.768   6.226  1.00  0.00    -0.014 A 
BRANCH  39  40
ATOM     40  C   UNL     1      -2.262   0.428   6.916  1.00  0.00     0.031 A 
ATOM     41  C   UNL     1      -2.644   1.206   8.150  1.00  0.00     0.074 A 
ATOM     42  C   UNL     1      -3.104  -0.504   6.431  1.00  0.00     0.049 A 
ATOM     43  N   UNL     1      -3.711   1.109   8.901  1.00  0.00    -0.248 NA
ATOM     44  C   UNL     1      -1.687   2.231   8.594  1.00  0.00     0.031 C 
ATOM     45  C   UNL     1      -2.880  -1.301   5.226  1.00  0.00     0.029 A 
ATOM     46  N   UNL     1      -4.327  -0.932   6.892  1.00  0.00    -0.354 N 
ATOM     47  C   UNL     1      -3.559   2.063   9.903  1.00  0.00     0.074 A 
ATOM     48  C   UNL     1      -2.272   2.690   9.690  1.00  0.00     0.031 C 
ATOM     49  C   UNL     1      -3.933  -2.117   5.041  1.00  0.00     0.029 A 
ATOM     50  C   UNL     1      -4.892  -1.929   6.130  1.00  0.00     0.049 A 
ATOM     51  H   UNL     1      -4.759  -0.559   7.694  1.00  0.00     0.167 HD
ATOM     52  C   UNL     1      -4.416   2.398  10.900  1.00  0.00     0.034 A 
ATOM     53  C   UNL     1      -6.040  -2.620   6.297  1.00  0.00     0.034 A 
ATOM     54  C   UNL     1      -5.692   1.758  11.119  1.00  0.00     0.049 A 
ATOM     55  C   UNL     1      -6.937  -2.291   7.470  1.00  0.00     0.074 A 
ATOM     56  C   UNL     1      -6.635   2.030  12.096  1.00  0.00     0.029 A 
ATOM     57  N   UNL     1      -6.200   0.709  10.364  1.00  0.00    -0.354 N 
ATOM     58  N   UNL     1      -6.786  -1.376   8.401  1.00  0.00    -0.248 NA
ATOM     59  C   UNL     1      -8.167  -3.083   7.603  1.00  0.00     0.031 C 
ATOM     60  C   UNL     1      -7.669   1.095  11.984  1.00  0.00     0.029 A 
ATOM     61  C   UNL     1      -7.423   0.299  10.877  1.00  0.00     0.049 A 
ATOM     62  H   UNL     1      -5.758   0.314   9.578  1.00  0.00     0.167 HD
ATOM     63  C   UNL     1      -7.921  -1.464   9.208  1.00  0.00     0.074 A 
ATOM     64  C   UNL     1      -8.755  -2.500   8.636  1.00  0.00     0.031 C 
ATOM     65  C   UNL     1      -8.245  -0.750  10.319  1.00  0.00     0.034 A 
BRANCH  52  66
ATOM     66  C   UNL     1      -3.970   3.475  11.862  1.00  0.00     0.023 A 
ATOM     67  C   UNL     1      -3.731   4.796  11.442  1.00  0.00     0.031 A 
ATOM     68  C   UNL     1      -3.752   3.168  13.217  1.00  0.00     0.131 A 
ATOM     69  C   UNL     1      -3.221   5.738  12.349  1.00  0.00     0.055 A 
ATOM     70  C   UNL     1      -3.328   4.132  14.133  1.00  0.00     0.041 A 
ATOM     71  F   UNL     1      -3.937   1.919  13.673  1.00  0.00    -0.206 F 
ATOM     72  C   UNL     1      -3.045   5.423  13.698  1.00  0.00     0.022 A 
BRANCH  69  73
ATOM     73  S   UNL     1      -2.645   7.335  11.709  1.00  0.00     0.124 S 
ATOM     74  O   UNL     1      -1.643   6.917  10.731  1.00  0.00    -0.237 OA
ATOM     75  O   UNL     1      -3.866   7.915  11.164  1.00  0.00    -0.237 OA
ATOM     76  O   UNL     1      -2.108   8.004  12.891  1.00  0.00    -0.744 OA
ENDBRANCH  69  73
ENDBRANCH  52  66
BRANCH  53  77
ATOM     77  C   UNL     1      -6.407  -3.727   5.362  1.00  0.00     0.023 A 
ATOM     78  C   UNL     1      -7.586  -3.681   4.598  1.00  0.00     0.031 A 
ATOM     79  C   UNL     1      -5.620  -4.890   5.282  1.00  0.00     0.131 A 
ATOM     80  C   UNL     1      -7.969  -4.795   3.832  1.00  0.00     0.055 A 
ATOM     81  C   UNL     1      -5.973  -5.969   4.471  1.00  0.00     0.041 A 
ATOM     82  F   UNL     1      -4.489  -4.994   5.999  1.00  0.00    -0.206 F 
ATOM     83  C   UNL     1      -7.162  -5.932   3.751  1.00  0.00     0.022 A 
BRANCH  80  84
ATOM     84  S   UNL     1      -9.592  -4.779   3.020  1.00  0.00     0.124 S 
ATOM     85  O   UNL     1     -10.490  -4.597   4.154  1.00  0.00    -0.237 OA
ATOM     86  O   UNL     1      -9.466  -3.643   2.113  1.00  0.00    -0.237 OA
ATOM     87  O   UNL     1      -9.661  -6.086   2.371  1.00  0.00    -0.744 OA
ENDBRANCH  80  84
ENDBRANCH  53  77
BRANCH  65  88
ATOM     88  C   UNL     1      -9.586  -1.044  10.960  1.00  0.00     0.023 A 
ATOM     89  C   UNL     1      -9.893  -2.308  11.496  1.00  0.00     0.031 A 
ATOM     90  C   UNL     1     -10.590  -0.058  10.993  1.00  0.00     0.131 A 
ATOM     91  C   UNL     1     -11.191  -2.579  11.956  1.00  0.00     0.055 A 
ATOM     92  C   UNL     1     -11.855  -0.310  11.527  1.00  0.00     0.041 A 
ATOM     93  F   UNL     1     -10.362   1.168  10.496  1.00  0.00    -0.206 F 
ATOM     94  C   UNL     1     -12.169  -1.583  11.992  1.00  0.00     0.022 A 
BRANCH  91  95
ATOM     95  S   UNL     1     -11.628  -4.293  12.365  1.00  0.00     0.124 S 
ATOM     96  O   UNL     1     -11.280  -4.996  11.134  1.00  0.00    -0.237 OA
ATOM     97  O   UNL     1     -10.775  -4.564  13.517  1.00  0.00    -0.237 OA
ATOM     98  O   UNL     1     -13.059  -4.222  12.655  1.00  0.00    -0.744 OA
ENDBRANCH  91  95
ENDBRANCH  65  88
ENDBRANCH  39  40
ENDBRANCH  32  34
ENDBRANCH  31  32
ENDBRANCH  30  31
ENDBRANCH  29  30
ENDBRANCH  28  29
ENDBRANCH  27  28
ENDBRANCH   1  27
TORSDOF 23
