REMARK SMILES CC1=C(CC(=O)OCCOCCOCCOC(=O)c2ccc(-c3c4nc(c(-c5cc(S(=O)(=O)[O-])ccc5F)c5ccc([nH]5)c(-c5cc(S(=O)(=O)[O-])ccc5F)c5nc(c(-c6cc(S(=O)(=O)[O-])ccc6F)c6ccc3[nH]6)C=C5)C=C4)cc2)c2cc(F)ccc2/C1=C\c1ccc([S@@+](C)[O-])cc1
REMARK SMILES IDX 11 1 10 2 9 3 8 4 7 5 5 6 6 7 4 8 3 9 1 10 2 11 89 12 82 13
REMARK SMILES IDX 88 14 90 15 83 16 87 17 84 18 86 19 85 20 91 21 92 22 99 23
REMARK SMILES IDX 93 24 98 25 94 26 95 27 96 28 97 29 12 30 13 31 14 32 15 33
REMARK SMILES IDX 16 34 17 35 18 36 19 37 20 38 81 39 21 40 80 41 22 42 23 43
REMARK SMILES IDX 24 44 74 45 25 46 79 47 73 48 75 49 26 50 78 51 72 52 71 53
REMARK SMILES IDX 27 55 59 56 39 57 58 58 40 59 43 60 57 61 76 62 41 63 42 64
REMARK SMILES IDX 56 66 77 67 44 68 28 69 29 70 37 71 30 72 36 73 38 74 35 75
REMARK SMILES IDX 31 76 32 77 33 78 34 79 60 80 61 81 69 82 62 83 68 84 70 85
REMARK SMILES IDX 67 86 63 87 64 88 65 89 66 90 45 91 46 92 54 93 47 94 53 95
REMARK SMILES IDX 55 96 52 97 48 98 49 99 50 100 51 101
REMARK H PARENT 75 54 43 65
REMARK Flexibility Score: inf
ROOT
ATOM      1  C   UNL     1      -3.129  -1.947  -4.259  1.00  0.00     0.188 C 
ENDROOT
BRANCH   1   2
ATOM      2  O   UNL     1      -4.101  -2.718  -3.553  1.00  0.00    -0.376 OA
BRANCH   2   3
ATOM      3  C   UNL     1      -4.282  -2.434  -2.170  1.00  0.00     0.202 C 
BRANCH   3   4
ATOM      4  C   UNL     1      -3.074  -2.771  -1.294  1.00  0.00     0.261 C 
BRANCH   4   5
ATOM      5  O   UNL     1      -1.947  -1.929  -1.617  1.00  0.00    -0.463 OA
BRANCH   5   6
ATOM      6  C   UNL     1      -0.731  -2.443  -1.303  1.00  0.00     0.310 C 
ATOM      7  O   UNL     1      -0.574  -3.465  -0.642  1.00  0.00    -0.252 OA
BRANCH   6   8
ATOM      8  C   UNL     1       0.431  -1.711  -1.975  1.00  0.00     0.159 C 
BRANCH   8   9
ATOM      9  C   UNL     1       0.419  -0.211  -2.047  1.00  0.00    -0.025 C 
ATOM     10  C   UNL     1       0.586   0.410   0.413  1.00  0.00     0.045 C 
ATOM     11  C   UNL     1       0.483   0.700  -1.046  1.00  0.00    -0.039 C 
ATOM     12  C   UNL     1       0.530   2.068  -1.602  1.00  0.00    -0.014 C 
ATOM     13  C   UNL     1       0.539   0.539  -3.315  1.00  0.00    -0.011 A 
ATOM     14  C   UNL     1       0.528   1.924  -3.071  1.00  0.00    -0.010 A 
ATOM     15  C   UNL     1       0.629   3.203  -0.879  1.00  0.00     0.017 C 
ATOM     16  C   UNL     1       0.729   0.071  -4.607  1.00  0.00     0.048 A 
ATOM     17  C   UNL     1       0.588   2.834  -4.122  1.00  0.00     0.012 A 
ATOM     18  C   UNL     1       0.831   0.997  -5.647  1.00  0.00     0.123 A 
ATOM     19  C   UNL     1       0.724   2.363  -5.425  1.00  0.00     0.040 A 
ATOM     20  F   UNL     1       1.027   0.560  -6.896  1.00  0.00    -0.207 F 
BRANCH  15  21
ATOM     21  C   UNL     1       0.711   4.554  -1.451  1.00  0.00    -0.025 A 
ATOM     22  C   UNL     1      -0.457   5.206  -1.866  1.00  0.00     0.013 A 
ATOM     23  C   UNL     1       1.954   5.127  -1.741  1.00  0.00     0.013 A 
ATOM     24  C   UNL     1      -0.380   6.360  -2.655  1.00  0.00     0.061 A 
ATOM     25  C   UNL     1       2.026   6.293  -2.513  1.00  0.00     0.061 A 
ATOM     26  C   UNL     1       0.863   6.901  -3.005  1.00  0.00     0.152 A 
BRANCH  26  27
ATOM     27  S   UNL     1       1.022   8.234  -4.224  1.00  0.00    -0.018 S 
ATOM     28  C   UNL     1      -0.321   9.320  -3.708  1.00  0.00     0.346 C 
ATOM     29  O   UNL     1       2.373   8.973  -3.916  1.00  0.00    -0.612 OA
ENDBRANCH  26  27
ENDBRANCH  15  21
ENDBRANCH   8   9
ENDBRANCH   6   8
ENDBRANCH   5   6
ENDBRANCH   4   5
ENDBRANCH   3   4
ENDBRANCH   2   3
ENDBRANCH   1   2
BRANCH   1  30
ATOM     30  C   UNL     1      -3.067  -0.441  -3.959  1.00  0.00     0.188 C 
BRANCH  30  31
ATOM     31  O   UNL     1      -4.370   0.118  -3.808  1.00  0.00    -0.376 OA
BRANCH  31  32
ATOM     32  C   UNL     1      -4.580   1.282  -4.596  1.00  0.00     0.202 C 
BRANCH  32  33
ATOM     33  C   UNL     1      -5.103   0.905  -5.982  1.00  0.00     0.261 C 
BRANCH  33  34
ATOM     34  O   UNL     1      -4.241  -0.003  -6.692  1.00  0.00    -0.460 OA
BRANCH  34  35
ATOM     35  C   UNL     1      -3.205   0.554  -7.358  1.00  0.00     0.338 C 
ATOM     36  O   UNL     1      -2.907   1.732  -7.394  1.00  0.00    -0.246 OA
BRANCH  35  37
ATOM     37  C   UNL     1      -2.439  -0.539  -7.988  1.00  0.00     0.060 A 
ATOM     38  C   UNL     1      -2.738  -0.963  -9.280  1.00  0.00     0.016 A 
ATOM     39  C   UNL     1      -1.373  -1.111  -7.295  1.00  0.00     0.016 A 
ATOM     40  C   UNL     1      -1.944  -1.952  -9.875  1.00  0.00     0.010 A 
ATOM     41  C   UNL     1      -0.550  -2.057  -7.905  1.00  0.00     0.010 A 
ATOM     42  C   UNL     1      -0.825  -2.488  -9.205  1.00  0.00    -0.014 A 
BRANCH  42  43
ATOM     43  C   UNL     1       0.126  -3.384  -9.915  1.00  0.00     0.031 A 
ATOM     44  C   UNL     1       0.319  -4.820  -9.521  1.00  0.00     0.074 A 
ATOM     45  C   UNL     1       0.887  -2.857 -10.894  1.00  0.00     0.049 A 
ATOM     46  N   UNL     1       0.998  -5.752 -10.138  1.00  0.00    -0.248 NA
ATOM     47  C   UNL     1      -0.301  -5.264  -8.264  1.00  0.00     0.031 C 
ATOM     48  C   UNL     1       0.896  -1.442 -11.265  1.00  0.00     0.029 A 
ATOM     49  N   UNL     1       1.791  -3.434 -11.751  1.00  0.00    -0.354 N 
ATOM     50  C   UNL     1       0.883  -6.894  -9.354  1.00  0.00     0.074 A 
ATOM     51  C   UNL     1       0.123  -6.520  -8.182  1.00  0.00     0.031 C 
ATOM     52  C   UNL     1       1.723  -1.268 -12.305  1.00  0.00     0.029 A 
ATOM     53  C   UNL     1       2.319  -2.553 -12.666  1.00  0.00     0.049 A 
ATOM     54  H   UNL     1       2.038  -4.386 -11.715  1.00  0.00     0.167 HD
ATOM     55  C   UNL     1       1.345  -8.142  -9.612  1.00  0.00     0.034 A 
ATOM     56  C   UNL     1       3.164  -2.753 -13.699  1.00  0.00     0.034 A 
ATOM     57  C   UNL     1       2.088  -8.487 -10.799  1.00  0.00     0.049 A 
ATOM     58  C   UNL     1       3.620  -4.155 -14.006  1.00  0.00     0.074 A 
ATOM     59  C   UNL     1       2.463  -9.745 -11.236  1.00  0.00     0.029 A 
ATOM     60  N   UNL     1       2.588  -7.579 -11.722  1.00  0.00    -0.354 N 
ATOM     61  N   UNL     1       3.324  -5.269 -13.378  1.00  0.00    -0.248 NA
ATOM     62  C   UNL     1       4.505  -4.338 -15.164  1.00  0.00     0.031 C 
ATOM     63  C   UNL     1       3.252  -9.592 -12.377  1.00  0.00     0.029 A 
ATOM     64  C   UNL     1       3.313  -8.245 -12.697  1.00  0.00     0.049 A 
ATOM     65  H   UNL     1       2.449  -6.605 -11.688  1.00  0.00     0.167 HD
ATOM     66  C   UNL     1       3.977  -6.286 -14.068  1.00  0.00     0.074 A 
ATOM     67  C   UNL     1       4.663  -5.657 -15.179  1.00  0.00     0.031 C 
ATOM     68  C   UNL     1       4.005  -7.616 -13.800  1.00  0.00     0.034 A 
BRANCH  55  69
ATOM     69  C   UNL     1       1.034  -9.255  -8.637  1.00  0.00     0.023 A 
ATOM     70  C   UNL     1       2.077  -9.973  -8.021  1.00  0.00     0.031 A 
ATOM     71  C   UNL     1      -0.286  -9.697  -8.431  1.00  0.00     0.131 A 
ATOM     72  C   UNL     1       1.783 -11.105  -7.248  1.00  0.00     0.055 A 
ATOM     73  C   UNL     1      -0.576 -10.801  -7.628  1.00  0.00     0.041 A 
ATOM     74  F   UNL     1      -1.317  -9.060  -9.010  1.00  0.00    -0.206 F 
ATOM     75  C   UNL     1       0.462 -11.517  -7.042  1.00  0.00     0.022 A 
BRANCH  72  76
ATOM     76  S   UNL     1       3.100 -12.129  -6.535  1.00  0.00     0.124 S 
ATOM     77  O   UNL     1       2.822 -12.019  -5.104  1.00  0.00    -0.237 OA
ATOM     78  O   UNL     1       2.822 -13.437  -7.123  1.00  0.00    -0.237 OA
ATOM     79  O   UNL     1       4.329 -11.484  -6.981  1.00  0.00    -0.744 OA
ENDBRANCH  72  76
ENDBRANCH  55  69
BRANCH  56  80
ATOM     80  C   UNL     1       3.510  -1.589 -14.565  1.00  0.00     0.023 A 
ATOM     81  C   UNL     1       4.217  -0.488 -14.048  1.00  0.00     0.031 A 
ATOM     82  C   UNL     1       2.977  -1.487 -15.861  1.00  0.00     0.131 A 
ATOM     83  C   UNL     1       4.294   0.698 -14.790  1.00  0.00     0.055 A 
ATOM     84  C   UNL     1       3.118  -0.327 -16.625  1.00  0.00     0.041 A 
ATOM     85  F   UNL     1       2.280  -2.506 -16.387  1.00  0.00    -0.206 F 
ATOM     86  C   UNL     1       3.761   0.781 -16.081  1.00  0.00     0.022 A 
BRANCH  83  87
ATOM     87  S   UNL     1       4.952   2.219 -14.049  1.00  0.00     0.124 S 
ATOM     88  O   UNL     1       5.997   2.593 -14.996  1.00  0.00    -0.237 OA
ATOM     89  O   UNL     1       3.770   3.078 -14.043  1.00  0.00    -0.237 OA
ATOM     90  O   UNL     1       5.416   1.789 -12.735  1.00  0.00    -0.744 OA
ENDBRANCH  83  87
ENDBRANCH  56  80
BRANCH  68  91
ATOM     91  C   UNL     1       4.828  -8.519 -14.686  1.00  0.00     0.023 A 
ATOM     92  C   UNL     1       4.205  -9.543 -15.427  1.00  0.00     0.031 A 
ATOM     93  C   UNL     1       6.232  -8.483 -14.653  1.00  0.00     0.131 A 
ATOM     94  C   UNL     1       4.985 -10.523 -16.053  1.00  0.00     0.055 A 
ATOM     95  C   UNL     1       7.006  -9.434 -15.320  1.00  0.00     0.041 A 
ATOM     96  F   UNL     1       6.873  -7.531 -13.956  1.00  0.00    -0.206 F 
ATOM     97  C   UNL     1       6.382 -10.470 -16.009  1.00  0.00     0.022 A 
BRANCH  94  98
ATOM     98  S   UNL     1       4.217 -11.954 -16.864  1.00  0.00     0.124 S 
ATOM     99  O   UNL     1       4.738 -11.846 -18.225  1.00  0.00    -0.237 OA
ATOM    100  O   UNL     1       4.743 -13.069 -16.081  1.00  0.00    -0.237 OA
ATOM    101  O   UNL     1       2.785 -11.710 -16.727  1.00  0.00    -0.744 OA
ENDBRANCH  94  98
ENDBRANCH  68  91
ENDBRANCH  42  43
ENDBRANCH  35  37
ENDBRANCH  34  35
ENDBRANCH  33  34
ENDBRANCH  32  33
ENDBRANCH  31  32
ENDBRANCH  30  31
ENDBRANCH   1  30
TORSDOF 23
