REMARK SMILES O=C(OCCOCCOCCOC(=O)c1ccc(-c2c3nc(c(-c4cc(S(=O)(=O)[O-])ccc4F)c4ccc([nH]4)c(-c4cc(S(=O)(=O)[O-])ccc4F)c4nc(c(-c5cc(S(=O)(=O)[O-])ccc5F)c5ccc2[nH]5)C=C4)C=C3)cc1)c1ccc(/[NH+]=C2\S[C@@H](Cc3ccc(F)cc3)C(=O)N2Cc2ccccc2)cc1
REMARK SMILES IDX 7 1 6 2 5 3 4 4 3 5 2 6 1 7 78 8 79 9 105 10 80 11 104 12
REMARK SMILES IDX 81 13 82 14 83 15 84 17 96 18 85 19 94 20 95 21 97 22 98 23
REMARK SMILES IDX 99 24 103 25 100 26 102 27 101 28 86 29 87 30 88 31 93 32
REMARK SMILES IDX 89 33 92 34 90 35 91 36 8 37 9 38 10 39 11 40 12 41 13 42
REMARK SMILES IDX 14 43 15 44 16 45 77 46 17 47 76 48 18 49 19 50 20 51 70 52
REMARK SMILES IDX 21 53 75 54 69 55 71 56 22 57 74 58 68 59 67 60 23 62 55 63
REMARK SMILES IDX 35 64 54 65 36 66 39 67 53 68 72 69 37 70 38 71 52 73 73 74
REMARK SMILES IDX 40 75 24 76 25 77 33 78 26 79 32 80 34 81 31 82 27 83 28 84
REMARK SMILES IDX 29 85 30 86 56 87 57 88 65 89 58 90 64 91 66 92 63 93 59 94
REMARK SMILES IDX 60 95 61 96 62 97 41 98 42 99 50 100 43 101 49 102 51 103
REMARK SMILES IDX 48 104 44 105 45 106 46 107 47 108
REMARK H PARENT 82 16 71 61 39 72
REMARK Flexibility Score: inf
ROOT
ATOM      1  C   UNL     1       2.534   2.036   0.552  1.00  0.00     0.188 C 
ENDROOT
BRANCH   1   2
ATOM      2  O   UNL     1       3.835   1.479   0.772  1.00  0.00    -0.376 OA
BRANCH   2   3
ATOM      3  C   UNL     1       4.654   1.444  -0.398  1.00  0.00     0.202 C 
BRANCH   3   4
ATOM      4  C   UNL     1       4.367   0.282  -1.361  1.00  0.00     0.261 C 
BRANCH   4   5
ATOM      5  O   UNL     1       2.964  -0.018  -1.462  1.00  0.00    -0.460 OA
BRANCH   5   6
ATOM      6  C   UNL     1       2.312  -1.101  -0.962  1.00  0.00     0.338 C 
ATOM      7  O   UNL     1       1.167  -1.330  -1.344  1.00  0.00    -0.246 OA
BRANCH   6   8
ATOM      8  C   UNL     1       2.939  -2.046   0.013  1.00  0.00     0.060 A 
ATOM      9  C   UNL     1       3.925  -1.679   0.926  1.00  0.00     0.020 A 
ATOM     10  C   UNL     1       2.466  -3.369   0.055  1.00  0.00     0.020 A 
ATOM     11  C   UNL     1       4.531  -2.625   1.742  1.00  0.00     0.052 A 
ATOM     12  C   UNL     1       3.046  -4.317   0.913  1.00  0.00     0.052 A 
ATOM     13  C   UNL     1       4.130  -3.956   1.709  1.00  0.00     0.125 A 
BRANCH  13  14
ATOM     14  N   UNL     1       4.891  -4.856   2.458  1.00  0.00    -0.235 N 
ATOM     15  C   UNL     1       5.824  -5.524   1.864  1.00  0.00     0.320 C 
ATOM     16  H   UNL     1       4.721  -4.980   3.420  1.00  0.00     0.313 HD
ATOM     17  S   UNL     1       6.074  -5.666   0.137  1.00  0.00    -0.022 SA
ATOM     18  N   UNL     1       6.816  -6.178   2.542  1.00  0.00    -0.186 N 
ATOM     19  C   UNL     1       7.201  -7.067   0.360  1.00  0.00     0.178 C 
ATOM     20  C   UNL     1       7.727  -6.880   1.775  1.00  0.00     0.324 C 
ATOM     21  O   UNL     1       8.793  -7.329   2.182  1.00  0.00    -0.245 OA
BRANCH  18  22
ATOM     22  C   UNL     1       7.018  -5.998   3.974  1.00  0.00     0.283 C 
BRANCH  22  23
ATOM     23  C   UNL     1       7.762  -4.715   4.302  1.00  0.00    -0.006 A 
ATOM     24  C   UNL     1       9.160  -4.698   4.409  1.00  0.00     0.008 A 
ATOM     25  C   UNL     1       7.062  -3.514   4.492  1.00  0.00     0.008 A 
ATOM     26  C   UNL     1       9.835  -3.508   4.702  1.00  0.00     0.000 A 
ATOM     27  C   UNL     1       7.737  -2.322   4.759  1.00  0.00     0.000 A 
ATOM     28  C   UNL     1       9.125  -2.320   4.868  1.00  0.00     0.000 A 
ENDBRANCH  22  23
ENDBRANCH  18  22
BRANCH  19  29
ATOM     29  C   UNL     1       8.256  -7.071  -0.742  1.00  0.00     0.063 C 
BRANCH  29  30
ATOM     30  C   UNL     1       9.046  -8.359  -0.807  1.00  0.00    -0.046 A 
ATOM     31  C   UNL     1      10.429  -8.344  -0.574  1.00  0.00     0.007 A 
ATOM     32  C   UNL     1       8.412  -9.579  -1.093  1.00  0.00     0.007 A 
ATOM     33  C   UNL     1      11.161  -9.530  -0.603  1.00  0.00     0.039 A 
ATOM     34  C   UNL     1       9.146 -10.765  -1.113  1.00  0.00     0.039 A 
ATOM     35  C   UNL     1      10.512 -10.730  -0.865  1.00  0.00     0.123 A 
ATOM     36  F   UNL     1      11.216 -11.869  -0.882  1.00  0.00    -0.207 F 
ENDBRANCH  29  30
ENDBRANCH  19  29
ENDBRANCH  13  14
ENDBRANCH   6   8
ENDBRANCH   5   6
ENDBRANCH   4   5
ENDBRANCH   3   4
ENDBRANCH   2   3
ENDBRANCH   1   2
BRANCH   1  37
ATOM     37  C   UNL     1       2.048   2.815   1.775  1.00  0.00     0.188 C 
BRANCH  37  38
ATOM     38  O   UNL     1       2.751   4.032   2.031  1.00  0.00    -0.376 OA
BRANCH  38  39
ATOM     39  C   UNL     1       4.119   3.920   2.415  1.00  0.00     0.202 C 
BRANCH  39  40
ATOM     40  C   UNL     1       4.402   3.422   3.839  1.00  0.00     0.261 C 
BRANCH  40  41
ATOM     41  O   UNL     1       3.994   2.065   4.099  1.00  0.00    -0.460 OA
BRANCH  41  42
ATOM     42  C   UNL     1       2.966   1.954   4.974  1.00  0.00     0.338 C 
ATOM     43  O   UNL     1       2.345   2.877   5.492  1.00  0.00    -0.246 OA
BRANCH  42  44
ATOM     44  C   UNL     1       2.596   0.552   5.230  1.00  0.00     0.060 A 
ATOM     45  C   UNL     1       1.308   0.136   4.874  1.00  0.00     0.016 A 
ATOM     46  C   UNL     1       3.397  -0.247   6.051  1.00  0.00     0.016 A 
ATOM     47  C   UNL     1       0.781  -1.039   5.414  1.00  0.00     0.010 A 
ATOM     48  C   UNL     1       2.866  -1.428   6.589  1.00  0.00     0.010 A 
ATOM     49  C   UNL     1       1.532  -1.794   6.326  1.00  0.00    -0.014 A 
BRANCH  49  50
ATOM     50  C   UNL     1       0.845  -2.816   7.163  1.00  0.00     0.031 A 
ATOM     51  C   UNL     1       0.421  -2.446   8.566  1.00  0.00     0.074 A 
ATOM     52  C   UNL     1       0.553  -4.037   6.680  1.00  0.00     0.049 A 
ATOM     53  N   UNL     1      -0.203  -3.164   9.466  1.00  0.00    -0.248 NA
ATOM     54  C   UNL     1       0.754  -1.085   9.010  1.00  0.00     0.031 C 
ATOM     55  C   UNL     1       0.876  -4.515   5.338  1.00  0.00     0.029 A 
ATOM     56  N   UNL     1      -0.089  -5.098   7.271  1.00  0.00    -0.354 N 
ATOM     57  C   UNL     1      -0.331  -2.345  10.585  1.00  0.00     0.074 A 
ATOM     58  C   UNL     1       0.318  -1.092  10.261  1.00  0.00     0.031 C 
ATOM     59  C   UNL     1       0.429  -5.776   5.207  1.00  0.00     0.029 A 
ATOM     60  C   UNL     1      -0.190  -6.204   6.461  1.00  0.00     0.049 A 
ATOM     61  H   UNL     1      -0.443  -5.069   8.189  1.00  0.00     0.167 HD
ATOM     62  C   UNL     1      -0.942  -2.604  11.770  1.00  0.00     0.034 A 
ATOM     63  C   UNL     1      -0.714  -7.423   6.706  1.00  0.00     0.034 A 
ATOM     64  C   UNL     1      -1.590  -3.853  12.091  1.00  0.00     0.049 A 
ATOM     65  C   UNL     1      -1.347  -7.707   8.048  1.00  0.00     0.074 A 
ATOM     66  C   UNL     1      -2.255  -4.207  13.253  1.00  0.00     0.029 A 
ATOM     67  N   UNL     1      -1.649  -4.957  11.252  1.00  0.00    -0.354 N 
ATOM     68  N   UNL     1      -1.477  -6.917   9.088  1.00  0.00    -0.248 NA
ATOM     69  C   UNL     1      -1.919  -9.047   8.238  1.00  0.00     0.031 C 
ATOM     70  C   UNL     1      -2.661  -5.542  13.140  1.00  0.00     0.029 A 
ATOM     71  C   UNL     1      -2.314  -6.000  11.880  1.00  0.00     0.049 A 
ATOM     72  H   UNL     1      -1.272  -4.995  10.343  1.00  0.00     0.167 HD
ATOM     73  C   UNL     1      -2.182  -7.653  10.039  1.00  0.00     0.074 A 
ATOM     74  C   UNL     1      -2.453  -8.946   9.446  1.00  0.00     0.031 C 
ATOM     75  C   UNL     1      -2.579  -7.289  11.285  1.00  0.00     0.034 A 
BRANCH  62  76
ATOM     76  C   UNL     1      -0.888  -1.523  12.825  1.00  0.00     0.023 A 
ATOM     77  C   UNL     1      -1.525  -0.282  12.649  1.00  0.00     0.031 A 
ATOM     78  C   UNL     1      -0.160  -1.728  14.010  1.00  0.00     0.131 A 
ATOM     79  C   UNL     1      -1.361   0.731  13.607  1.00  0.00     0.055 A 
ATOM     80  C   UNL     1      -0.065  -0.743  14.995  1.00  0.00     0.041 A 
ATOM     81  F   UNL     1       0.484  -2.885  14.225  1.00  0.00    -0.206 F 
ATOM     82  C   UNL     1      -0.654   0.501  14.790  1.00  0.00     0.022 A 
BRANCH  79  83
ATOM     83  S   UNL     1      -1.964   2.398  13.222  1.00  0.00     0.124 S 
ATOM     84  O   UNL     1      -1.236   2.699  11.992  1.00  0.00    -0.237 OA
ATOM     85  O   UNL     1      -3.400   2.189  13.082  1.00  0.00    -0.237 OA
ATOM     86  O   UNL     1      -1.558   3.186  14.385  1.00  0.00    -0.744 OA
ENDBRANCH  79  83
ENDBRANCH  62  76
BRANCH  63  87
ATOM     87  C   UNL     1      -0.652  -8.490   5.668  1.00  0.00     0.023 A 
ATOM     88  C   UNL     1      -1.821  -8.998   5.079  1.00  0.00     0.031 A 
ATOM     89  C   UNL     1       0.577  -9.064   5.300  1.00  0.00     0.131 A 
ATOM     90  C   UNL     1      -1.741 -10.081   4.190  1.00  0.00     0.055 A 
ATOM     91  C   UNL     1       0.656 -10.110   4.380  1.00  0.00     0.041 A 
ATOM     92  F   UNL     1       1.724  -8.613   5.834  1.00  0.00    -0.206 F 
ATOM     93  C   UNL     1      -0.510 -10.633   3.829  1.00  0.00     0.022 A 
BRANCH  90  94
ATOM     94  S   UNL     1      -3.280 -10.815   3.571  1.00  0.00     0.124 S 
ATOM     95  O   UNL     1      -3.928 -11.233   4.808  1.00  0.00    -0.237 OA
ATOM     96  O   UNL     1      -3.892  -9.689   2.873  1.00  0.00    -0.237 OA
ATOM     97  O   UNL     1      -2.816 -11.900   2.709  1.00  0.00    -0.744 OA
ENDBRANCH  90  94
ENDBRANCH  63  87
BRANCH  75  98
ATOM     98  C   UNL     1      -3.406  -8.285  12.065  1.00  0.00     0.023 A 
ATOM     99  C   UNL     1      -2.874  -9.505  12.518  1.00  0.00     0.031 A 
ATOM    100  C   UNL     1      -4.759  -8.013  12.337  1.00  0.00     0.131 A 
ATOM    101  C   UNL     1      -3.704 -10.433  13.167  1.00  0.00     0.055 A 
ATOM    102  C   UNL     1      -5.566  -8.916  13.031  1.00  0.00     0.041 A 
ATOM    103  F   UNL     1      -5.321  -6.864  11.928  1.00  0.00    -0.206 F 
ATOM    104  C   UNL     1      -5.044 -10.140  13.437  1.00  0.00     0.022 A 
BRANCH 101 105
ATOM    105  S   UNL     1      -3.039 -12.074  13.564  1.00  0.00     0.124 S 
ATOM    106  O   UNL     1      -2.560 -12.533  12.264  1.00  0.00    -0.237 OA
ATOM    107  O   UNL     1      -2.008 -11.761  14.548  1.00  0.00    -0.237 OA
ATOM    108  O   UNL     1      -4.196 -12.797  14.088  1.00  0.00    -0.744 OA
ENDBRANCH 101 105
ENDBRANCH  75  98
ENDBRANCH  49  50
ENDBRANCH  42  44
ENDBRANCH  41  42
ENDBRANCH  40  41
ENDBRANCH  39  40
ENDBRANCH  38  39
ENDBRANCH  37  38
ENDBRANCH   1  37
TORSDOF 25
