REMARK SMILES [NH3+][C@@H]1C=C[C@H](C(=O)NC[C@H](O)C(=O)OCCOCCOCCOC(=O)c2ccc(-c3c4nc(c(-c5cc(S(=O)(=O)[O-])ccc5F)c5ccc([nH]5)c(-c5cc(S(=O)(=O)[O-])ccc5F)c5nc(c(-c6cc(S(=O)(=O)[O-])ccc6F)c6ccc3[nH]6)C=C5)C=C4)cc2)C1
REMARK SMILES IDX 18 1 17 2 16 3 15 4 14 5 12 6 13 7 10 8 9 9 8 10 6 11 7 12
REMARK SMILES IDX 5 14 2 15 3 16 89 17 4 18 1 19 11 23 19 25 20 26 21 27 22 28
REMARK SMILES IDX 23 29 24 30 25 31 26 32 27 33 88 34 28 35 87 36 29 37 30 38
REMARK SMILES IDX 31 39 81 40 32 41 86 42 80 43 82 44 33 45 85 46 79 47 78 48
REMARK SMILES IDX 34 50 66 51 46 52 65 53 47 54 50 55 64 56 83 57 48 58 49 59
REMARK SMILES IDX 63 61 84 62 51 63 35 64 36 65 44 66 37 67 43 68 45 69 42 70
REMARK SMILES IDX 38 71 39 72 40 73 41 74 67 75 68 76 76 77 69 78 75 79 77 80
REMARK SMILES IDX 74 81 70 82 71 83 72 84 73 85 52 86 53 87 61 88 54 89 60 90
REMARK SMILES IDX 62 91 59 92 55 93 56 94 57 95 58 96
REMARK H PARENT 8 13 1 20 1 21 1 22 11 24 82 49 50 60
REMARK Flexibility Score: inf
ROOT
ATOM      1  C   UNL     1      -0.320   6.395   0.836  1.00  0.00     0.188 C 
ENDROOT
BRANCH   1   2
ATOM      2  O   UNL     1      -0.984   7.145   1.845  1.00  0.00    -0.376 OA
BRANCH   2   3
ATOM      3  C   UNL     1      -2.404   7.138   1.918  1.00  0.00     0.202 C 
BRANCH   3   4
ATOM      4  C   UNL     1      -3.250   7.374   0.657  1.00  0.00     0.261 C 
BRANCH   4   5
ATOM      5  O   UNL     1      -2.826   6.633  -0.495  1.00  0.00    -0.461 OA
BRANCH   5   6
ATOM      6  C   UNL     1      -2.401   7.360  -1.564  1.00  0.00     0.336 C 
ATOM      7  O   UNL     1      -2.459   8.581  -1.648  1.00  0.00    -0.249 OA
BRANCH   6   8
ATOM      8  C   UNL     1      -1.755   6.480  -2.649  1.00  0.00     0.243 C 
BRANCH   8   9
ATOM      9  C   UNL     1      -2.354   6.903  -3.988  1.00  0.00     0.159 C 
BRANCH   9  10
ATOM     10  N   UNL     1      -1.955   6.037  -5.093  1.00  0.00    -0.352 N 
ATOM     11  C   UNL     1      -2.466   4.868  -5.559  1.00  0.00     0.227 C 
ATOM     12  O   UNL     1      -1.819   4.323  -6.464  1.00  0.00    -0.274 OA
ATOM     13  H   UNL     1      -1.170   6.359  -5.592  1.00  0.00     0.163 HD
BRANCH  11  14
ATOM     14  C   UNL     1      -3.805   4.241  -5.123  1.00  0.00     0.107 C 
ATOM     15  C   UNL     1      -5.771   5.650  -5.537  1.00  0.00     0.205 C 
ATOM     16  C   UNL     1      -5.557   5.412  -4.080  1.00  0.00     0.033 C 
ATOM     17  C   UNL     1      -4.889   4.566  -6.167  1.00  0.00     0.087 C 
ATOM     18  C   UNL     1      -4.492   4.633  -3.854  1.00  0.00    -0.012 C 
BRANCH  15  19
ATOM     19  N   UNL     1      -5.367   6.999  -5.901  1.00  0.00    -0.352 N 
ATOM     20  H   UNL     1      -5.988   7.673  -5.454  1.00  0.00     0.345 HD
ATOM     21  H   UNL     1      -5.420   7.108  -6.914  1.00  0.00     0.345 HD
ATOM     22  H   UNL     1      -4.409   7.162  -5.591  1.00  0.00     0.345 HD
ENDBRANCH  15  19
ENDBRANCH  11  14
ENDBRANCH   9  10
ENDBRANCH   8   9
BRANCH   8  23
ATOM     23  O   UNL     1      -1.869   5.069  -2.500  1.00  0.00    -0.380 OA
ATOM     24  H   UNL     1      -2.802   4.812  -2.558  1.00  0.00     0.211 HD
ENDBRANCH   8  23
ENDBRANCH   6   8
ENDBRANCH   5   6
ENDBRANCH   4   5
ENDBRANCH   3   4
ENDBRANCH   2   3
ENDBRANCH   1   2
BRANCH   1  25
ATOM     25  C   UNL     1      -0.731   4.934   0.562  1.00  0.00     0.188 C 
BRANCH  25  26
ATOM     26  O   UNL     1      -1.864   4.503   1.272  1.00  0.00    -0.376 OA
BRANCH  26  27
ATOM     27  C   UNL     1      -1.691   3.693   2.418  1.00  0.00     0.202 C 
BRANCH  27  28
ATOM     28  C   UNL     1      -0.455   3.746   3.342  1.00  0.00     0.261 C 
BRANCH  28  29
ATOM     29  O   UNL     1       0.731   4.401   2.877  1.00  0.00    -0.460 OA
BRANCH  29  30
ATOM     30  C   UNL     1       1.657   3.627   2.262  1.00  0.00     0.338 C 
ATOM     31  O   UNL     1       1.563   2.434   2.010  1.00  0.00    -0.246 OA
BRANCH  30  32
ATOM     32  C   UNL     1       2.733   4.507   1.762  1.00  0.00     0.060 A 
ATOM     33  C   UNL     1       2.903   4.680   0.379  1.00  0.00     0.016 A 
ATOM     34  C   UNL     1       3.572   5.162   2.663  1.00  0.00     0.016 A 
ATOM     35  C   UNL     1       3.922   5.505  -0.106  1.00  0.00     0.010 A 
ATOM     36  C   UNL     1       4.607   5.964   2.175  1.00  0.00     0.010 A 
ATOM     37  C   UNL     1       4.803   6.124   0.790  1.00  0.00    -0.014 A 
BRANCH  37  38
ATOM     38  C   UNL     1       6.046   6.784   0.315  1.00  0.00     0.031 A 
ATOM     39  C   UNL     1       7.331   6.006   0.397  1.00  0.00     0.074 A 
ATOM     40  C   UNL     1       6.051   8.053  -0.130  1.00  0.00     0.049 A 
ATOM     41  N   UNL     1       8.562   6.413   0.240  1.00  0.00    -0.248 NA
ATOM     42  C   UNL     1       7.200   4.576   0.714  1.00  0.00     0.031 C 
ATOM     43  C   UNL     1       4.867   8.887  -0.321  1.00  0.00     0.029 A 
ATOM     44  N   UNL     1       7.100   8.872  -0.476  1.00  0.00    -0.354 N 
ATOM     45  C   UNL     1       9.358   5.294   0.460  1.00  0.00     0.074 A 
ATOM     46  C   UNL     1       8.467   4.200   0.786  1.00  0.00     0.031 C 
ATOM     47  C   UNL     1       5.258  10.110  -0.724  1.00  0.00     0.029 A 
ATOM     48  C   UNL     1       6.720  10.163  -0.762  1.00  0.00     0.049 A 
ATOM     49  H   UNL     1       8.034   8.564  -0.515  1.00  0.00     0.167 HD
ATOM     50  C   UNL     1      10.709   5.191   0.397  1.00  0.00     0.034 A 
ATOM     51  C   UNL     1       7.466  11.268  -0.979  1.00  0.00     0.034 A 
ATOM     52  C   UNL     1      11.581   6.297   0.089  1.00  0.00     0.049 A 
ATOM     53  C   UNL     1       8.975  11.159  -0.932  1.00  0.00     0.074 A 
ATOM     54  C   UNL     1      12.961   6.304  -0.004  1.00  0.00     0.029 A 
ATOM     55  N   UNL     1      11.159   7.596  -0.162  1.00  0.00    -0.354 N 
ATOM     56  N   UNL     1       9.722  10.102  -0.703  1.00  0.00    -0.248 NA
ATOM     57  C   UNL     1       9.743  12.390  -1.170  1.00  0.00     0.031 C 
ATOM     58  C   UNL     1      13.378   7.619  -0.226  1.00  0.00     0.029 A 
ATOM     59  C   UNL     1      12.255   8.417  -0.376  1.00  0.00     0.049 A 
ATOM     60  H   UNL     1      10.220   7.891  -0.185  1.00  0.00     0.167 HD
ATOM     61  C   UNL     1      11.042  10.535  -0.822  1.00  0.00     0.074 A 
ATOM     62  C   UNL     1      10.991  11.947  -1.133  1.00  0.00     0.031 C 
ATOM     63  C   UNL     1      12.192   9.824  -0.699  1.00  0.00     0.034 A 
BRANCH  50  64
ATOM     64  C   UNL     1      11.320   3.852   0.731  1.00  0.00     0.023 A 
ATOM     65  C   UNL     1      11.066   2.707  -0.042  1.00  0.00     0.031 A 
ATOM     66  C   UNL     1      12.152   3.714   1.857  1.00  0.00     0.131 A 
ATOM     67  C   UNL     1      11.575   1.463   0.361  1.00  0.00     0.055 A 
ATOM     68  C   UNL     1      12.728   2.491   2.203  1.00  0.00     0.041 A 
ATOM     69  F   UNL     1      12.409   4.767   2.650  1.00  0.00    -0.206 F 
ATOM     70  C   UNL     1      12.428   1.353   1.462  1.00  0.00     0.022 A 
BRANCH  67  71
ATOM     71  S   UNL     1      10.983  -0.028  -0.483  1.00  0.00     0.124 S 
ATOM     72  O   UNL     1       9.541   0.065  -0.268  1.00  0.00    -0.237 OA
ATOM     73  O   UNL     1      11.440   0.181  -1.852  1.00  0.00    -0.237 OA
ATOM     74  O   UNL     1      11.644  -1.115   0.237  1.00  0.00    -0.744 OA
ENDBRANCH  67  71
ENDBRANCH  50  64
BRANCH  51  75
ATOM     75  C   UNL     1       6.814  12.591  -1.210  1.00  0.00     0.023 A 
ATOM     76  C   UNL     1       7.004  13.292  -2.412  1.00  0.00     0.031 A 
ATOM     77  C   UNL     1       6.044  13.207  -0.206  1.00  0.00     0.131 A 
ATOM     78  C   UNL     1       6.476  14.585  -2.560  1.00  0.00     0.055 A 
ATOM     79  C   UNL     1       5.468  14.466  -0.383  1.00  0.00     0.041 A 
ATOM     80  F   UNL     1       5.837  12.588   0.967  1.00  0.00    -0.206 F 
ATOM     81  C   UNL     1       5.695  15.170  -1.562  1.00  0.00     0.022 A 
BRANCH  78  82
ATOM     82  S   UNL     1       6.917  15.537  -4.041  1.00  0.00     0.124 S 
ATOM     83  O   UNL     1       8.372  15.565  -3.951  1.00  0.00    -0.237 OA
ATOM     84  O   UNL     1       6.354  14.715  -5.107  1.00  0.00    -0.237 OA
ATOM     85  O   UNL     1       6.253  16.821  -3.830  1.00  0.00    -0.744 OA
ENDBRANCH  78  82
ENDBRANCH  51  75
BRANCH  63  86
ATOM     86  C   UNL     1      13.495  10.531  -0.992  1.00  0.00     0.023 A 
ATOM     87  C   UNL     1      14.008  11.543  -0.163  1.00  0.00     0.031 A 
ATOM     88  C   UNL     1      14.258  10.142  -2.110  1.00  0.00     0.131 A 
ATOM     89  C   UNL     1      15.233  12.152  -0.483  1.00  0.00     0.055 A 
ATOM     90  C   UNL     1      15.501  10.709  -2.389  1.00  0.00     0.041 A 
ATOM     91  F   UNL     1      13.814   9.182  -2.938  1.00  0.00    -0.206 F 
ATOM     92  C   UNL     1      15.991  11.727  -1.577  1.00  0.00     0.022 A 
BRANCH  89  93
ATOM     93  S   UNL     1      15.800  13.559   0.513  1.00  0.00     0.124 S 
ATOM     94  O   UNL     1      14.713  14.516   0.334  1.00  0.00    -0.237 OA
ATOM     95  O   UNL     1      15.919  12.972   1.844  1.00  0.00    -0.237 OA
ATOM     96  O   UNL     1      17.067  13.935  -0.112  1.00  0.00    -0.744 OA
ENDBRANCH  89  93
ENDBRANCH  63  86
ENDBRANCH  37  38
ENDBRANCH  30  32
ENDBRANCH  29  30
ENDBRANCH  28  29
ENDBRANCH  27  28
ENDBRANCH  26  27
ENDBRANCH  25  26
ENDBRANCH   1  25
TORSDOF 25
