REMARK SMILES O=C(OCCOCCOCCOC(=O)[C@H](F)Sc1cc2ccccc2[nH]1)c1ccc(-c2c3nc(c(-c4cc(S(=O)(=O)[O-])ccc4F)c4ccc([nH]4)c(-c4cc(S(=O)(=O)[O-])ccc4F)c4nc(c(-c5cc(S(=O)(=O)[O-])ccc5F)c5ccc2[nH]5)C=C4)C=C3)cc1
REMARK SMILES IDX 7 1 6 2 5 3 4 4 3 5 2 6 1 7 27 8 28 9 89 10 29 11 88 12
REMARK SMILES IDX 30 13 31 14 32 15 82 16 33 17 87 18 81 19 83 20 34 21 86 22
REMARK SMILES IDX 80 23 79 24 35 26 67 27 47 28 66 29 48 30 51 31 65 32 84 33
REMARK SMILES IDX 49 34 50 35 64 37 85 38 52 39 36 40 37 41 45 42 38 43 44 44
REMARK SMILES IDX 46 45 43 46 39 47 40 48 41 49 42 50 68 51 69 52 77 53 70 54
REMARK SMILES IDX 76 55 78 56 75 57 71 58 72 59 73 60 74 61 53 62 54 63 62 64
REMARK SMILES IDX 55 65 61 66 63 67 60 68 56 69 57 70 58 71 59 72 8 73 9 74
REMARK SMILES IDX 10 75 11 76 12 77 13 78 14 79 15 80 16 81 17 82 18 83 19 84
REMARK SMILES IDX 26 85 20 86 25 87 21 89 24 90 22 91 23 92
REMARK H PARENT 83 25 51 36 26 88
REMARK Flexibility Score: inf
ROOT
ATOM      1  C   UNL     1       4.263  -0.546  -2.086  1.00  0.00     0.188 C 
ENDROOT
BRANCH   1   2
ATOM      2  O   UNL     1       2.940  -0.586  -2.634  1.00  0.00    -0.376 OA
BRANCH   2   3
ATOM      3  C   UNL     1       2.471   0.681  -3.112  1.00  0.00     0.202 C 
BRANCH   3   4
ATOM      4  C   UNL     1       2.045   1.702  -2.040  1.00  0.00     0.261 C 
BRANCH   4   5
ATOM      5  O   UNL     1       2.824   1.621  -0.837  1.00  0.00    -0.460 OA
BRANCH   5   6
ATOM      6  C   UNL     1       2.440   1.107   0.360  1.00  0.00     0.338 C 
ATOM      7  O   UNL     1       3.122   1.370   1.351  1.00  0.00    -0.246 OA
BRANCH   6   8
ATOM      8  C   UNL     1       1.255   0.205   0.535  1.00  0.00     0.060 A 
ATOM      9  C   UNL     1       0.630  -0.505  -0.491  1.00  0.00     0.016 A 
ATOM     10  C   UNL     1       0.785   0.005   1.846  1.00  0.00     0.016 A 
ATOM     11  C   UNL     1      -0.477  -1.313  -0.253  1.00  0.00     0.010 A 
ATOM     12  C   UNL     1      -0.295  -0.848   2.104  1.00  0.00     0.010 A 
ATOM     13  C   UNL     1      -0.947  -1.491   1.046  1.00  0.00    -0.014 A 
BRANCH  13  14
ATOM     14  C   UNL     1      -2.172  -2.289   1.251  1.00  0.00     0.031 A 
ATOM     15  C   UNL     1      -3.455  -1.570   1.536  1.00  0.00     0.074 A 
ATOM     16  C   UNL     1      -2.133  -3.625   1.091  1.00  0.00     0.049 A 
ATOM     17  N   UNL     1      -4.635  -2.058   1.801  1.00  0.00    -0.248 NA
ATOM     18  C   UNL     1      -3.400  -0.099   1.511  1.00  0.00     0.031 C 
ATOM     19  C   UNL     1      -0.939  -4.390   0.725  1.00  0.00     0.029 A 
ATOM     20  N   UNL     1      -3.114  -4.575   1.202  1.00  0.00    -0.354 N 
ATOM     21  C   UNL     1      -5.459  -0.957   2.007  1.00  0.00     0.074 A 
ATOM     22  C   UNL     1      -4.642   0.224   1.833  1.00  0.00     0.031 C 
ATOM     23  C   UNL     1      -1.261  -5.691   0.631  1.00  0.00     0.029 A 
ATOM     24  C   UNL     1      -2.661  -5.861   1.007  1.00  0.00     0.049 A 
ATOM     25  H   UNL     1      -4.053  -4.359   1.403  1.00  0.00     0.167 HD
ATOM     26  C   UNL     1      -6.774  -0.946   2.327  1.00  0.00     0.034 A 
ATOM     27  C   UNL     1      -3.299  -7.038   1.171  1.00  0.00     0.034 A 
ATOM     28  C   UNL     1      -7.550  -2.146   2.505  1.00  0.00     0.049 A 
ATOM     29  C   UNL     1      -4.739  -6.997   1.626  1.00  0.00     0.074 A 
ATOM     30  C   UNL     1      -8.881  -2.273   2.853  1.00  0.00     0.029 A 
ATOM     31  N   UNL     1      -7.048  -3.435   2.363  1.00  0.00    -0.354 N 
ATOM     32  N   UNL     1      -5.507  -5.950   1.838  1.00  0.00    -0.248 NA
ATOM     33  C   UNL     1      -5.394  -8.285   1.884  1.00  0.00     0.031 C 
ATOM     34  C   UNL     1      -9.165  -3.637   2.988  1.00  0.00     0.029 A 
ATOM     35  C   UNL     1      -8.030  -4.364   2.660  1.00  0.00     0.049 A 
ATOM     36  H   UNL     1      -6.127  -3.655   2.091  1.00  0.00     0.167 HD
ATOM     37  C   UNL     1      -6.735  -6.456   2.252  1.00  0.00     0.074 A 
ATOM     38  C   UNL     1      -6.615  -7.901   2.227  1.00  0.00     0.031 C 
ATOM     39  C   UNL     1      -7.860  -5.797   2.630  1.00  0.00     0.034 A 
BRANCH  26  40
ATOM     40  C   UNL     1      -7.401   0.397   2.603  1.00  0.00     0.023 A 
ATOM     41  C   UNL     1      -7.576   1.362   1.595  1.00  0.00     0.031 A 
ATOM     42  C   UNL     1      -7.764   0.740   3.917  1.00  0.00     0.131 A 
ATOM     43  C   UNL     1      -8.034   2.645   1.932  1.00  0.00     0.055 A 
ATOM     44  C   UNL     1      -8.285   1.995   4.233  1.00  0.00     0.041 A 
ATOM     45  F   UNL     1      -7.590  -0.133   4.922  1.00  0.00    -0.206 F 
ATOM     46  C   UNL     1      -8.410   2.962   3.240  1.00  0.00     0.022 A 
BRANCH  43  47
ATOM     47  S   UNL     1      -8.007   3.940   0.661  1.00  0.00     0.124 S 
ATOM     48  O   UNL     1      -6.583   4.013   0.343  1.00  0.00    -0.237 OA
ATOM     49  O   UNL     1      -8.864   3.382  -0.379  1.00  0.00    -0.237 OA
ATOM     50  O   UNL     1      -8.545   5.111   1.351  1.00  0.00    -0.744 OA
ENDBRANCH  43  47
ENDBRANCH  26  40
BRANCH  27  51
ATOM     51  C   UNL     1      -2.576  -8.337   1.009  1.00  0.00     0.023 A 
ATOM     52  C   UNL     1      -3.006  -9.308   0.091  1.00  0.00     0.031 A 
ATOM     53  C   UNL     1      -1.473  -8.655   1.826  1.00  0.00     0.131 A 
ATOM     54  C   UNL     1      -2.371 -10.562   0.045  1.00  0.00     0.055 A 
ATOM     55  C   UNL     1      -0.806  -9.878   1.732  1.00  0.00     0.041 A 
ATOM     56  F   UNL     1      -1.022  -7.774   2.734  1.00  0.00    -0.206 F 
ATOM     57  C   UNL     1      -1.265 -10.847   0.848  1.00  0.00     0.022 A 
BRANCH  54  58
ATOM     58  S   UNL     1      -3.085 -11.862  -1.002  1.00  0.00     0.124 S 
ATOM     59  O   UNL     1      -4.468 -11.893  -0.537  1.00  0.00    -0.237 OA
ATOM     60  O   UNL     1      -2.871 -11.322  -2.340  1.00  0.00    -0.237 OA
ATOM     61  O   UNL     1      -2.290 -13.042  -0.670  1.00  0.00    -0.744 OA
ENDBRANCH  54  58
ENDBRANCH  27  51
BRANCH  39  62
ATOM     62  C   UNL     1      -9.038  -6.646   3.027  1.00  0.00     0.023 A 
ATOM     63  C   UNL     1      -9.037  -7.377   4.227  1.00  0.00     0.031 A 
ATOM     64  C   UNL     1     -10.176  -6.707   2.206  1.00  0.00     0.131 A 
ATOM     65  C   UNL     1     -10.143  -8.173   4.555  1.00  0.00     0.055 A 
ATOM     66  C   UNL     1     -11.294  -7.460   2.563  1.00  0.00     0.041 A 
ATOM     67  F   UNL     1     -10.222  -6.024   1.051  1.00  0.00    -0.206 F 
ATOM     68  C   UNL     1     -11.278  -8.205   3.739  1.00  0.00     0.022 A 
BRANCH  65  69
ATOM     69  S   UNL     1     -10.058  -9.209   6.040  1.00  0.00     0.124 S 
ATOM     70  O   UNL     1      -8.962 -10.116   5.714  1.00  0.00    -0.237 OA
ATOM     71  O   UNL     1      -9.788  -8.233   7.090  1.00  0.00    -0.237 OA
ATOM     72  O   UNL     1     -11.381  -9.830   6.099  1.00  0.00    -0.744 OA
ENDBRANCH  65  69
ENDBRANCH  39  62
ENDBRANCH  13  14
ENDBRANCH   6   8
ENDBRANCH   5   6
ENDBRANCH   4   5
ENDBRANCH   3   4
ENDBRANCH   2   3
ENDBRANCH   1   2
BRANCH   1  73
ATOM     73  C   UNL     1       4.985  -1.892  -2.200  1.00  0.00     0.188 C 
BRANCH  73  74
ATOM     74  O   UNL     1       5.381  -2.307  -3.508  1.00  0.00    -0.376 OA
BRANCH  74  75
ATOM     75  C   UNL     1       4.372  -2.323  -4.513  1.00  0.00     0.202 C 
BRANCH  75  76
ATOM     76  C   UNL     1       3.297  -3.418  -4.424  1.00  0.00     0.261 C 
BRANCH  76  77
ATOM     77  O   UNL     1       2.860  -3.697  -3.087  1.00  0.00    -0.460 OA
BRANCH  77  78
ATOM     78  C   UNL     1       3.086  -4.969  -2.621  1.00  0.00     0.351 C 
ATOM     79  O   UNL     1       3.535  -5.879  -3.307  1.00  0.00    -0.248 OA
BRANCH  78  80
ATOM     80  C   UNL     1       2.655  -5.054  -1.156  1.00  0.00     0.339 C 
ATOM     81  F   UNL     1       3.091  -3.981  -0.424  1.00  0.00    -0.222 F 
BRANCH  80  82
ATOM     82  S   UNL     1       3.202  -6.566  -0.314  1.00  0.00    -0.059 SA
BRANCH  82  83
ATOM     83  C   UNL     1       4.931  -6.524  -0.414  1.00  0.00     0.077 A 
ATOM     84  C   UNL     1       5.823  -7.562  -0.539  1.00  0.00     0.043 A 
ATOM     85  N   UNL     1       5.640  -5.358  -0.341  1.00  0.00    -0.350 N 
ATOM     86  C   UNL     1       7.125  -6.999  -0.626  1.00  0.00     0.001 A 
ATOM     87  C   UNL     1       6.984  -5.613  -0.520  1.00  0.00     0.046 A 
ATOM     88  H   UNL     1       5.250  -4.468  -0.185  1.00  0.00     0.167 HD
ATOM     89  C   UNL     1       8.413  -7.542  -0.798  1.00  0.00     0.010 A 
ATOM     90  C   UNL     1       8.076  -4.739  -0.594  1.00  0.00     0.027 A 
ATOM     91  C   UNL     1       9.514  -6.682  -0.878  1.00  0.00     0.001 A 
ATOM     92  C   UNL     1       9.344  -5.302  -0.782  1.00  0.00     0.002 A 
ENDBRANCH  82  83
ENDBRANCH  80  82
ENDBRANCH  78  80
ENDBRANCH  77  78
ENDBRANCH  76  77
ENDBRANCH  75  76
ENDBRANCH  74  75
ENDBRANCH  73  74
ENDBRANCH   1  73
TORSDOF 22
