REMARK SMILES [NH3+][C@H](C(=O)OCCOCCOCCOC(=O)c1ccc(-c2c3nc(c(-c4cc(S(=O)(=O)[O-])ccc4F)c4ccc([nH]4)c(-c4cc(S(=O)(=O)[O-])ccc4F)c4nc(c(-c5cc(S(=O)(=O)[O-])ccc5F)c5ccc2[nH]5)C=C4)C=C3)cc1)c1cc2c(cc1Br)OCO2
REMARK SMILES IDX 10 1 9 2 8 3 7 4 6 5 5 6 3 7 4 8 2 9 1 10 80 14 81 15 85 16
REMARK SMILES IDX 82 17 84 18 86 19 83 20 89 21 87 22 88 23 11 24 12 25 13 26
REMARK SMILES IDX 14 27 15 28 16 29 17 30 18 31 79 32 19 33 78 34 20 35 21 36
REMARK SMILES IDX 22 37 72 38 23 39 77 40 71 41 73 42 24 43 76 44 70 45 69 46
REMARK SMILES IDX 25 48 57 49 37 50 56 51 38 52 41 53 55 54 74 55 39 56 40 57
REMARK SMILES IDX 54 59 75 60 42 61 26 62 27 63 35 64 28 65 34 66 36 67 33 68
REMARK SMILES IDX 29 69 30 70 31 71 32 72 58 73 59 74 67 75 60 76 66 77 68 78
REMARK SMILES IDX 65 79 61 80 62 81 63 82 64 83 43 84 44 85 52 86 45 87 51 88
REMARK SMILES IDX 53 89 50 90 46 91 47 92 48 93 49 94
REMARK H PARENT 1 11 1 12 1 13 73 47 41 58
REMARK Flexibility Score: inf
ROOT
ATOM      1  C   UNL     1       2.965  -1.025   1.766  1.00  0.00     0.188 C 
ENDROOT
BRANCH   1   2
ATOM      2  C   UNL     1       3.403  -0.802   0.303  1.00  0.00     0.188 C 
BRANCH   2   3
ATOM      3  O   UNL     1       3.990   0.433  -0.090  1.00  0.00    -0.376 OA
BRANCH   3   4
ATOM      4  C   UNL     1       3.441   1.642   0.413  1.00  0.00     0.202 C 
BRANCH   4   5
ATOM      5  C   UNL     1       1.972   1.950   0.085  1.00  0.00     0.261 C 
BRANCH   5   6
ATOM      6  O   UNL     1       1.106   0.880   0.486  1.00  0.00    -0.459 OA
BRANCH   6   7
ATOM      7  C   UNL     1       0.092   0.524  -0.359  1.00  0.00     0.369 C 
ATOM      8  O   UNL     1      -0.305   1.229  -1.279  1.00  0.00    -0.245 OA
BRANCH   7   9
ATOM      9  C   UNL     1      -0.375  -0.935  -0.085  1.00  0.00     0.324 C 
BRANCH   9  10
ATOM     10  N   UNL     1      -0.186  -1.337   1.332  1.00  0.00    -0.342 N 
ATOM     11  H   UNL     1      -0.506  -2.297   1.458  1.00  0.00     0.345 HD
ATOM     12  H   UNL     1      -0.725  -0.717   1.936  1.00  0.00     0.345 HD
ATOM     13  H   UNL     1       0.802  -1.273   1.574  1.00  0.00     0.345 HD
ENDBRANCH   9  10
BRANCH   9  14
ATOM     14  C   UNL     1      -1.822  -1.265  -0.399  1.00  0.00     0.039 A 
ATOM     15  C   UNL     1      -2.816  -0.349  -0.002  1.00  0.00     0.062 A 
ATOM     16  C   UNL     1      -2.201  -2.595  -0.743  1.00  0.00     0.031 A 
ATOM     17  C   UNL     1      -4.097  -0.819   0.158  1.00  0.00     0.166 A 
ATOM     18  C   UNL     1      -3.525  -3.024  -0.617  1.00  0.00     0.066 A 
ATOM     19  Br  UNL     1      -0.931  -3.931  -1.223  1.00  0.00    -0.050 Br
ATOM     20  C   UNL     1      -4.437  -2.121  -0.124  1.00  0.00     0.166 A 
ATOM     21  O   UNL     1      -5.127  -0.120   0.706  1.00  0.00    -0.454 OA
ATOM     22  O   UNL     1      -5.724  -2.401   0.217  1.00  0.00    -0.454 OA
ATOM     23  C   UNL     1      -6.083  -1.182   0.898  1.00  0.00     0.468 C 
ENDBRANCH   9  14
ENDBRANCH   7   9
ENDBRANCH   6   7
ENDBRANCH   5   6
ENDBRANCH   4   5
ENDBRANCH   3   4
ENDBRANCH   2   3
ENDBRANCH   1   2
BRANCH   1  24
ATOM     24  O   UNL     1       3.456  -0.198   2.790  1.00  0.00    -0.376 OA
BRANCH  24  25
ATOM     25  C   UNL     1       4.755  -0.362   3.304  1.00  0.00     0.202 C 
BRANCH  25  26
ATOM     26  C   UNL     1       5.592  -1.642   3.155  1.00  0.00     0.261 C 
BRANCH  26  27
ATOM     27  O   UNL     1       5.425  -2.406   1.953  1.00  0.00    -0.460 OA
BRANCH  27  28
ATOM     28  C   UNL     1       4.863  -3.630   2.122  1.00  0.00     0.338 C 
ATOM     29  O   UNL     1       4.478  -4.119   3.181  1.00  0.00    -0.246 OA
BRANCH  28  30
ATOM     30  C   UNL     1       4.612  -4.270   0.817  1.00  0.00     0.060 A 
ATOM     31  C   UNL     1       3.289  -4.494   0.408  1.00  0.00     0.016 A 
ATOM     32  C   UNL     1       5.675  -4.734   0.042  1.00  0.00     0.016 A 
ATOM     33  C   UNL     1       3.026  -5.205  -0.767  1.00  0.00     0.010 A 
ATOM     34  C   UNL     1       5.407  -5.458  -1.127  1.00  0.00     0.010 A 
ATOM     35  C   UNL     1       4.082  -5.723  -1.528  1.00  0.00    -0.014 A 
BRANCH  35  36
ATOM     36  C   UNL     1       3.826  -6.684  -2.638  1.00  0.00     0.031 A 
ATOM     37  C   UNL     1       4.048  -8.153  -2.385  1.00  0.00     0.074 A 
ATOM     38  C   UNL     1       3.414  -6.277  -3.853  1.00  0.00     0.049 A 
ATOM     39  N   UNL     1       4.049  -9.155  -3.226  1.00  0.00    -0.248 NA
ATOM     40  C   UNL     1       4.312  -8.535  -0.990  1.00  0.00     0.031 C 
ATOM     41  C   UNL     1       3.082  -4.902  -4.218  1.00  0.00     0.029 A 
ATOM     42  N   UNL     1       3.224  -6.988  -5.016  1.00  0.00    -0.354 N 
ATOM     43  C   UNL     1       4.337 -10.286  -2.468  1.00  0.00     0.074 A 
ATOM     44  C   UNL     1       4.527  -9.836  -1.104  1.00  0.00     0.031 C 
ATOM     45  C   UNL     1       2.746  -4.866  -5.521  1.00  0.00     0.029 A 
ATOM     46  C   UNL     1       2.894  -6.202  -6.098  1.00  0.00     0.049 A 
ATOM     47  H   UNL     1       3.315  -7.966  -5.069  1.00  0.00     0.167 HD
ATOM     48  C   UNL     1       4.434 -11.578  -2.870  1.00  0.00     0.034 A 
ATOM     49  C   UNL     1       2.769  -6.515  -7.406  1.00  0.00     0.034 A 
ATOM     50  C   UNL     1       4.248 -12.015  -4.234  1.00  0.00     0.049 A 
ATOM     51  C   UNL     1       2.999  -7.943  -7.853  1.00  0.00     0.074 A 
ATOM     52  C   UNL     1       4.315 -13.302  -4.741  1.00  0.00     0.029 A 
ATOM     53  N   UNL     1       3.971 -11.181  -5.310  1.00  0.00    -0.354 N 
ATOM     54  N   UNL     1       3.291  -9.002  -7.133  1.00  0.00    -0.248 NA
ATOM     55  C   UNL     1       2.881  -8.216  -9.294  1.00  0.00     0.031 C 
ATOM     56  C   UNL     1       4.167 -13.236  -6.130  1.00  0.00     0.029 A 
ATOM     57  C   UNL     1       3.908 -11.921  -6.482  1.00  0.00     0.049 A 
ATOM     58  H   UNL     1       3.840 -10.208  -5.250  1.00  0.00     0.167 HD
ATOM     59  C   UNL     1       3.351 -10.069  -8.030  1.00  0.00     0.074 A 
ATOM     60  C   UNL     1       3.056  -9.528  -9.339  1.00  0.00     0.031 C 
ATOM     61  C   UNL     1       3.618 -11.379  -7.790  1.00  0.00     0.034 A 
BRANCH  48  62
ATOM     62  C   UNL     1       4.825 -12.602  -1.831  1.00  0.00     0.023 A 
ATOM     63  C   UNL     1       4.014 -12.883  -0.719  1.00  0.00     0.031 A 
ATOM     64  C   UNL     1       6.048 -13.289  -1.944  1.00  0.00     0.131 A 
ATOM     65  C   UNL     1       4.467 -13.769   0.271  1.00  0.00     0.055 A 
ATOM     66  C   UNL     1       6.453 -14.234  -1.000  1.00  0.00     0.041 A 
ATOM     67  F   UNL     1       6.877 -13.045  -2.971  1.00  0.00    -0.206 F 
ATOM     68  C   UNL     1       5.668 -14.467   0.125  1.00  0.00     0.022 A 
BRANCH  65  69
ATOM     69  S   UNL     1       3.539 -13.880   1.826  1.00  0.00     0.124 S 
ATOM     70  O   UNL     1       3.557 -12.491   2.280  1.00  0.00    -0.237 OA
ATOM     71  O   UNL     1       2.246 -14.392   1.387  1.00  0.00    -0.237 OA
ATOM     72  O   UNL     1       4.334 -14.801   2.635  1.00  0.00    -0.744 OA
ENDBRANCH  65  69
ENDBRANCH  48  62
BRANCH  49  73
ATOM     73  C   UNL     1       2.470  -5.456  -8.418  1.00  0.00     0.023 A 
ATOM     74  C   UNL     1       1.311  -5.514  -9.209  1.00  0.00     0.031 A 
ATOM     75  C   UNL     1       3.382  -4.414  -8.666  1.00  0.00     0.131 A 
ATOM     76  C   UNL     1       1.119  -4.582 -10.242  1.00  0.00     0.055 A 
ATOM     77  C   UNL     1       3.156  -3.452  -9.652  1.00  0.00     0.041 A 
ATOM     78  F   UNL     1       4.515  -4.317  -7.952  1.00  0.00    -0.206 F 
ATOM     79  C   UNL     1       2.025  -3.541 -10.457  1.00  0.00     0.022 A 
BRANCH  76  80
ATOM     80  S   UNL     1      -0.281  -4.811 -11.374  1.00  0.00     0.124 S 
ATOM     81  O   UNL     1      -0.006  -6.136 -11.919  1.00  0.00    -0.237 OA
ATOM     82  O   UNL     1      -1.422  -4.713 -10.470  1.00  0.00    -0.237 OA
ATOM     83  O   UNL     1      -0.140  -3.705 -12.319  1.00  0.00    -0.744 OA
ENDBRANCH  76  80
ENDBRANCH  49  73
BRANCH  61  84
ATOM     84  C   UNL     1       3.539 -12.336  -8.960  1.00  0.00     0.023 A 
ATOM     85  C   UNL     1       4.429 -12.266 -10.047  1.00  0.00     0.031 A 
ATOM     86  C   UNL     1       2.550 -13.337  -8.985  1.00  0.00     0.131 A 
ATOM     87  C   UNL     1       4.277 -13.141 -11.135  1.00  0.00     0.055 A 
ATOM     88  C   UNL     1       2.446 -14.248 -10.038  1.00  0.00     0.041 A 
ATOM     89  F   UNL     1       1.668 -13.452  -7.979  1.00  0.00    -0.206 F 
ATOM     90  C   UNL     1       3.304 -14.144 -11.128  1.00  0.00     0.022 A 
BRANCH  87  91
ATOM     91  S   UNL     1       5.305 -12.892 -12.610  1.00  0.00     0.124 S 
ATOM     92  O   UNL     1       4.975 -11.520 -12.981  1.00  0.00    -0.237 OA
ATOM     93  O   UNL     1       6.652 -13.106 -12.091  1.00  0.00    -0.237 OA
ATOM     94  O   UNL     1       4.830 -13.916 -13.538  1.00  0.00    -0.744 OA
ENDBRANCH  87  91
ENDBRANCH  61  84
ENDBRANCH  35  36
ENDBRANCH  28  30
ENDBRANCH  27  28
ENDBRANCH  26  27
ENDBRANCH  25  26
ENDBRANCH  24  25
ENDBRANCH   1  24
TORSDOF 22
