REMARK SMILES C[NH+]1CCC([NH+]2CCC(Oc3ccc4ccccc4c3)(C(=O)OCCOCCOCCOC(=O)c3ccc(-c4c5nc(c(-c6cc(S(=O)(=O)[O-])ccc6F)c6ccc([nH]6)c(-c6cc(S(=O)(=O)[O-])ccc6F)c6nc(c(-c7cc(S(=O)(=O)[O-])ccc7F)c7ccc4[nH]7)C=C6)C=C5)cc3)CC2)CC1
REMARK SMILES IDX 28 1 27 2 26 3 25 4 24 5 23 6 21 7 22 8 9 9 6 10 7 11 99 12
REMARK SMILES IDX 8 14 98 15 5 16 1 17 2 18 3 19 101 20 4 22 100 23 10 24
REMARK SMILES IDX 11 25 12 26 20 27 13 28 19 29 14 30 18 31 15 32 17 33 16 34
REMARK SMILES IDX 29 35 30 36 31 37 32 38 33 39 34 40 35 41 36 42 97 43 37 44
REMARK SMILES IDX 96 45 38 46 39 47 40 48 90 49 41 50 95 51 89 52 91 53 42 54
REMARK SMILES IDX 94 55 88 56 87 57 43 59 75 60 55 61 74 62 56 63 59 64 73 65
REMARK SMILES IDX 92 66 57 67 58 68 72 70 93 71 60 72 44 73 45 74 53 75 46 76
REMARK SMILES IDX 52 77 54 78 51 79 47 80 48 81 49 82 50 83 76 84 77 85 85 86
REMARK SMILES IDX 78 87 84 88 86 89 83 90 79 91 80 92 81 93 82 94 61 95 62 96
REMARK SMILES IDX 70 97 63 98 69 99 71 100 68 101 64 102 65 103 66 104 67 105
REMARK H PARENT 6 13 2 21 91 58 59 69
REMARK Flexibility Score: inf
ROOT
ATOM      1  C   UNL     1       2.648  -2.810   2.833  1.00  0.00     0.188 C 
ENDROOT
BRANCH   1   2
ATOM      2  C   UNL     1       3.135  -4.224   2.496  1.00  0.00     0.188 C 
BRANCH   2   3
ATOM      3  O   UNL     1       3.712  -4.986   3.545  1.00  0.00    -0.376 OA
BRANCH   3   4
ATOM      4  C   UNL     1       4.601  -4.332   4.444  1.00  0.00     0.202 C 
BRANCH   4   5
ATOM      5  C   UNL     1       5.864  -3.725   3.826  1.00  0.00     0.261 C 
BRANCH   5   6
ATOM      6  O   UNL     1       5.687  -2.342   3.439  1.00  0.00    -0.460 OA
BRANCH   6   7
ATOM      7  C   UNL     1       5.804  -2.047   2.108  1.00  0.00     0.351 C 
ATOM      8  O   UNL     1       5.914  -2.910   1.242  1.00  0.00    -0.247 OA
BRANCH   7   9
ATOM      9  C   UNL     1       5.869  -0.525   1.825  1.00  0.00     0.216 C 
ATOM     10  N   UNL     1       3.438   0.719   0.602  1.00  0.00    -0.332 N 
ATOM     11  C   UNL     1       3.502   0.584   2.059  1.00  0.00     0.267 C 
ATOM     12  C   UNL     1       4.182  -0.359  -0.068  1.00  0.00     0.267 C 
ATOM     13  H   UNL     1       3.894   1.606   0.388  1.00  0.00     0.348 HD
ATOM     14  C   UNL     1       4.904   0.356   2.642  1.00  0.00     0.122 C 
ATOM     15  C   UNL     1       5.664  -0.299   0.313  1.00  0.00     0.122 C 
BRANCH  10  16
ATOM     16  C   UNL     1       2.046   0.850   0.060  1.00  0.00     0.195 C 
ATOM     17  C   UNL     1      -2.221   1.420  -0.306  1.00  0.00     0.332 C 
ATOM     18  N   UNL     1      -0.860   1.319   0.233  1.00  0.00    -0.337 N 
ATOM     19  C   UNL     1       0.023   2.333  -0.370  1.00  0.00     0.268 C 
ATOM     20  C   UNL     1      -0.331  -0.022  -0.008  1.00  0.00     0.268 C 
ATOM     21  H   UNL     1      -0.895   1.492   1.238  1.00  0.00     0.347 HD
ATOM     22  C   UNL     1       1.453   2.264   0.208  1.00  0.00     0.126 C 
ATOM     23  C   UNL     1       1.040  -0.152   0.639  1.00  0.00     0.126 C 
ENDBRANCH  10  16
BRANCH   9  24
ATOM     24  O   UNL     1       7.233  -0.348   2.326  1.00  0.00    -0.475 OA
BRANCH  24  25
ATOM     25  C   UNL     1       7.981   0.640   1.767  1.00  0.00     0.121 A 
ATOM     26  C   UNL     1       7.852   1.958   2.188  1.00  0.00     0.047 A 
ATOM     27  C   UNL     1       8.974   0.282   0.857  1.00  0.00     0.055 A 
ATOM     28  C   UNL     1       8.651   2.948   1.625  1.00  0.00     0.012 A 
ATOM     29  C   UNL     1       9.812   1.264   0.308  1.00  0.00    -0.015 A 
ATOM     30  C   UNL     1       9.632   2.616   0.683  1.00  0.00    -0.018 A 
ATOM     31  C   UNL     1      10.829   0.935  -0.601  1.00  0.00     0.009 A 
ATOM     32  C   UNL     1      10.451   3.605   0.121  1.00  0.00     0.009 A 
ATOM     33  C   UNL     1      11.648   1.930  -1.139  1.00  0.00     0.001 A 
ATOM     34  C   UNL     1      11.454   3.262  -0.784  1.00  0.00     0.001 A 
ENDBRANCH  24  25
ENDBRANCH   9  24
ENDBRANCH   7   9
ENDBRANCH   6   7
ENDBRANCH   5   6
ENDBRANCH   4   5
ENDBRANCH   3   4
ENDBRANCH   2   3
ENDBRANCH   1   2
BRANCH   1  35
ATOM     35  O   UNL     1       2.082  -2.555   4.108  1.00  0.00    -0.376 OA
BRANCH  35  36
ATOM     36  C   UNL     1       1.013  -3.408   4.494  1.00  0.00     0.202 C 
BRANCH  36  37
ATOM     37  C   UNL     1      -0.235  -3.318   3.611  1.00  0.00     0.261 C 
BRANCH  37  38
ATOM     38  O   UNL     1       0.044  -3.741   2.264  1.00  0.00    -0.460 OA
BRANCH  38  39
ATOM     39  C   UNL     1      -1.033  -3.793   1.449  1.00  0.00     0.338 C 
ATOM     40  O   UNL     1      -2.202  -3.771   1.826  1.00  0.00    -0.246 OA
BRANCH  39  41
ATOM     41  C   UNL     1      -0.635  -3.743   0.013  1.00  0.00     0.060 A 
ATOM     42  C   UNL     1       0.660  -3.411  -0.394  1.00  0.00     0.016 A 
ATOM     43  C   UNL     1      -1.622  -3.871  -0.965  1.00  0.00     0.016 A 
ATOM     44  C   UNL     1       0.926  -3.044  -1.716  1.00  0.00     0.010 A 
ATOM     45  C   UNL     1      -1.320  -3.630  -2.313  1.00  0.00     0.010 A 
ATOM     46  C   UNL     1      -0.051  -3.168  -2.706  1.00  0.00    -0.014 A 
BRANCH  46  47
ATOM     47  C   UNL     1       0.211  -2.809  -4.133  1.00  0.00     0.031 A 
ATOM     48  C   UNL     1      -0.738  -1.887  -4.859  1.00  0.00     0.074 A 
ATOM     49  C   UNL     1       1.266  -3.313  -4.808  1.00  0.00     0.049 A 
ATOM     50  N   UNL     1      -0.944  -1.744  -6.142  1.00  0.00    -0.248 NA
ATOM     51  C   UNL     1      -1.569  -1.012  -4.018  1.00  0.00     0.031 C 
ATOM     52  C   UNL     1       2.353  -4.108  -4.235  1.00  0.00     0.029 A 
ATOM     53  N   UNL     1       1.580  -3.249  -6.147  1.00  0.00    -0.354 N 
ATOM     54  C   UNL     1      -1.971  -0.812  -6.264  1.00  0.00     0.074 A 
ATOM     55  C   UNL     1      -2.333  -0.411  -4.920  1.00  0.00     0.031 C 
ATOM     56  C   UNL     1       3.211  -4.452  -5.205  1.00  0.00     0.029 A 
ATOM     57  C   UNL     1       2.660  -4.035  -6.487  1.00  0.00     0.049 A 
ATOM     58  H   UNL     1       1.084  -2.699  -6.795  1.00  0.00     0.167 HD
ATOM     59  C   UNL     1      -2.568  -0.358  -7.395  1.00  0.00     0.034 A 
ATOM     60  C   UNL     1       3.100  -4.471  -7.684  1.00  0.00     0.034 A 
ATOM     61  C   UNL     1      -2.174  -0.763  -8.725  1.00  0.00     0.049 A 
ATOM     62  C   UNL     1       2.340  -4.083  -8.923  1.00  0.00     0.074 A 
ATOM     63  C   UNL     1      -2.724  -0.396  -9.941  1.00  0.00     0.029 A 
ATOM     64  N   UNL     1      -1.125  -1.627  -9.012  1.00  0.00    -0.354 N 
ATOM     65  N   UNL     1       1.278  -3.318  -9.034  1.00  0.00    -0.248 NA
ATOM     66  C   UNL     1       2.820  -4.639 -10.193  1.00  0.00     0.031 C 
ATOM     67  C   UNL     1      -2.052  -1.088 -10.956  1.00  0.00     0.029 A 
ATOM     68  C   UNL     1      -1.032  -1.829 -10.381  1.00  0.00     0.049 A 
ATOM     69  H   UNL     1      -0.532  -2.036  -8.341  1.00  0.00     0.167 HD
ATOM     70  C   UNL     1       0.971  -3.294 -10.391  1.00  0.00     0.074 A 
ATOM     71  C   UNL     1       1.970  -4.105 -11.058  1.00  0.00     0.031 C 
ATOM     72  C   UNL     1      -0.044  -2.657 -11.029  1.00  0.00     0.034 A 
BRANCH  59  73
ATOM     73  C   UNL     1      -3.768   0.546  -7.239  1.00  0.00     0.023 A 
ATOM     74  C   UNL     1      -3.672   1.843  -6.707  1.00  0.00     0.031 A 
ATOM     75  C   UNL     1      -5.042   0.083  -7.617  1.00  0.00     0.131 A 
ATOM     76  C   UNL     1      -4.835   2.608  -6.516  1.00  0.00     0.055 A 
ATOM     77  C   UNL     1      -6.185   0.875  -7.492  1.00  0.00     0.041 A 
ATOM     78  F   UNL     1      -5.200  -1.158  -8.107  1.00  0.00    -0.206 F 
ATOM     79  C   UNL     1      -6.087   2.142  -6.928  1.00  0.00     0.022 A 
BRANCH  76  80
ATOM     80  S   UNL     1      -4.711   4.169  -5.600  1.00  0.00     0.124 S 
ATOM     81  O   UNL     1      -4.125   3.724  -4.337  1.00  0.00    -0.237 OA
ATOM     82  O   UNL     1      -3.847   4.970  -6.459  1.00  0.00    -0.237 OA
ATOM     83  O   UNL     1      -6.097   4.624  -5.508  1.00  0.00    -0.744 OA
ENDBRANCH  76  80
ENDBRANCH  59  73
BRANCH  60  84
ATOM     84  C   UNL     1       4.233  -5.441  -7.755  1.00  0.00     0.023 A 
ATOM     85  C   UNL     1       5.432  -5.114  -8.404  1.00  0.00     0.031 A 
ATOM     86  C   UNL     1       4.118  -6.726  -7.188  1.00  0.00     0.131 A 
ATOM     87  C   UNL     1       6.461  -6.067  -8.489  1.00  0.00     0.055 A 
ATOM     88  C   UNL     1       5.165  -7.646  -7.222  1.00  0.00     0.041 A 
ATOM     89  F   UNL     1       2.987  -7.096  -6.566  1.00  0.00    -0.206 F 
ATOM     90  C   UNL     1       6.343  -7.322  -7.885  1.00  0.00     0.022 A 
BRANCH  87  91
ATOM     91  S   UNL     1       7.935  -5.671  -9.467  1.00  0.00     0.124 S 
ATOM     92  O   UNL     1       7.358  -5.416 -10.782  1.00  0.00    -0.237 OA
ATOM     93  O   UNL     1       8.463  -4.508  -8.761  1.00  0.00    -0.237 OA
ATOM     94  O   UNL     1       8.747  -6.882  -9.366  1.00  0.00    -0.744 OA
ENDBRANCH  87  91
ENDBRANCH  60  84
BRANCH  72  95
ATOM     95  C   UNL     1      -0.085  -2.784 -12.531  1.00  0.00     0.023 A 
ATOM     96  C   UNL     1      -0.388  -4.003 -13.161  1.00  0.00     0.031 A 
ATOM     97  C   UNL     1       0.215  -1.674 -13.340  1.00  0.00     0.131 A 
ATOM     98  C   UNL     1      -0.329  -4.098 -14.559  1.00  0.00     0.055 A 
ATOM     99  C   UNL     1       0.217  -1.761 -14.732  1.00  0.00     0.041 A 
ATOM    100  F   UNL     1       0.516  -0.488 -12.788  1.00  0.00    -0.206 F 
ATOM    101  C   UNL     1      -0.043  -2.982 -15.349  1.00  0.00     0.022 A 
BRANCH  98 102
ATOM    102  S   UNL     1      -0.542  -5.726 -15.331  1.00  0.00     0.124 S 
ATOM    103  O   UNL     1       0.545  -6.491 -14.730  1.00  0.00    -0.237 OA
ATOM    104  O   UNL     1      -1.891  -6.096 -14.914  1.00  0.00    -0.237 OA
ATOM    105  O   UNL     1      -0.391  -5.450 -16.759  1.00  0.00    -0.744 OA
ENDBRANCH  98 102
ENDBRANCH  72  95
ENDBRANCH  46  47
ENDBRANCH  39  41
ENDBRANCH  38  39
ENDBRANCH  37  38
ENDBRANCH  36  37
ENDBRANCH  35  36
ENDBRANCH   1  35
TORSDOF 23
