REMARK SMILES O=C(OCCOCCOCCOC(=O)[C@@H](Cc1ccccc1)N1C(=O)/C(=C/c2ccncc2)SC1=S)c1ccc(-c2c3nc(c(-c4cc(S(=O)(=O)[O-])ccc4F)c4ccc([nH]4)c(-c4cc(S(=O)(=O)[O-])ccc4F)c4nc(c(-c5cc(S(=O)(=O)[O-])ccc5F)c5ccc2[nH]5)C=C4)C=C3)cc1
REMARK SMILES IDX 7 1 6 2 5 3 4 4 3 5 2 6 1 7 37 8 38 9 99 10 39 11 98 12
REMARK SMILES IDX 40 13 41 14 42 15 92 16 43 17 97 18 91 19 93 20 44 21 96 22
REMARK SMILES IDX 90 23 89 24 45 26 77 27 57 28 76 29 58 30 61 31 75 32 94 33
REMARK SMILES IDX 59 34 60 35 74 37 95 38 62 39 46 40 47 41 55 42 48 43 54 44
REMARK SMILES IDX 56 45 53 46 49 47 50 48 51 49 52 50 78 51 79 52 87 53 80 54
REMARK SMILES IDX 86 55 88 56 85 57 81 58 82 59 83 60 84 61 63 62 64 63 72 64
REMARK SMILES IDX 65 65 71 66 73 67 70 68 66 69 67 70 68 71 69 72 8 73 9 74
REMARK SMILES IDX 10 75 11 76 12 77 13 78 14 79 15 80 16 81 17 82 18 83 22 84
REMARK SMILES IDX 19 85 21 86 20 87 23 88 24 89 35 90 25 91 26 92 34 93 36 94
REMARK SMILES IDX 27 95 28 96 29 97 33 98 30 99 32 100 31 101
REMARK H PARENT 93 25 61 36
REMARK Flexibility Score: inf
ROOT
ATOM      1  C   UNL     1       2.451  -1.512  -0.500  1.00  0.00     0.188 C 
ENDROOT
BRANCH   1   2
ATOM      2  O   UNL     1       3.703  -0.967  -0.923  1.00  0.00    -0.376 OA
BRANCH   2   3
ATOM      3  C   UNL     1       4.783  -1.140  -0.005  1.00  0.00     0.202 C 
BRANCH   3   4
ATOM      4  C   UNL     1       4.630  -0.575   1.420  1.00  0.00     0.261 C 
BRANCH   4   5
ATOM      5  O   UNL     1       3.319  -0.124   1.801  1.00  0.00    -0.460 OA
BRANCH   5   6
ATOM      6  C   UNL     1       2.593   0.960   1.445  1.00  0.00     0.338 C 
ATOM      7  O   UNL     1       1.441   1.036   1.873  1.00  0.00    -0.246 OA
BRANCH   6   8
ATOM      8  C   UNL     1       3.067   2.043   0.526  1.00  0.00     0.060 A 
ATOM      9  C   UNL     1       4.325   2.108  -0.059  1.00  0.00     0.016 A 
ATOM     10  C   UNL     1       2.166   3.099   0.258  1.00  0.00     0.016 A 
ATOM     11  C   UNL     1       4.688   3.184  -0.860  1.00  0.00     0.010 A 
ATOM     12  C   UNL     1       2.532   4.201  -0.529  1.00  0.00     0.010 A 
ATOM     13  C   UNL     1       3.813   4.254  -1.072  1.00  0.00    -0.014 A 
BRANCH  13  14
ATOM     14  C   UNL     1       4.415   5.489  -1.620  1.00  0.00     0.031 A 
ATOM     15  C   UNL     1       5.282   6.279  -0.681  1.00  0.00     0.074 A 
ATOM     16  C   UNL     1       4.362   5.768  -2.934  1.00  0.00     0.049 A 
ATOM     17  N   UNL     1       6.067   7.291  -0.925  1.00  0.00    -0.248 NA
ATOM     18  C   UNL     1       5.260   5.855   0.730  1.00  0.00     0.031 C 
ATOM     19  C   UNL     1       3.582   5.023  -3.919  1.00  0.00     0.029 A 
ATOM     20  N   UNL     1       5.057   6.681  -3.685  1.00  0.00    -0.354 N 
ATOM     21  C   UNL     1       6.589   7.661   0.310  1.00  0.00     0.074 A 
ATOM     22  C   UNL     1       6.089   6.719   1.286  1.00  0.00     0.031 C 
ATOM     23  C   UNL     1       3.959   5.405  -5.152  1.00  0.00     0.029 A 
ATOM     24  C   UNL     1       4.916   6.502  -5.046  1.00  0.00     0.049 A 
ATOM     25  H   UNL     1       5.604   7.398  -3.290  1.00  0.00     0.167 HD
ATOM     26  C   UNL     1       7.354   8.738   0.605  1.00  0.00     0.034 A 
ATOM     27  C   UNL     1       5.495   7.165  -6.070  1.00  0.00     0.034 A 
ATOM     28  C   UNL     1       7.759   9.697  -0.389  1.00  0.00     0.049 A 
ATOM     29  C   UNL     1       6.350   8.364  -5.716  1.00  0.00     0.074 A 
ATOM     30  C   UNL     1       8.401  10.909  -0.218  1.00  0.00     0.029 A 
ATOM     31  N   UNL     1       7.531   9.553  -1.754  1.00  0.00    -0.354 N 
ATOM     32  N   UNL     1       6.752   8.774  -4.533  1.00  0.00    -0.248 NA
ATOM     33  C   UNL     1       6.773   9.227  -6.827  1.00  0.00     0.031 C 
ATOM     34  C   UNL     1       8.491  11.530  -1.469  1.00  0.00     0.029 A 
ATOM     35  C   UNL     1       7.996  10.664  -2.433  1.00  0.00     0.049 A 
ATOM     36  H   UNL     1       7.100   8.774  -2.175  1.00  0.00     0.167 HD
ATOM     37  C   UNL     1       7.441   9.962  -4.758  1.00  0.00     0.074 A 
ATOM     38  C   UNL     1       7.463  10.162  -6.193  1.00  0.00     0.031 C 
ATOM     39  C   UNL     1       7.978  10.834  -3.866  1.00  0.00     0.034 A 
BRANCH  26  40
ATOM     40  C   UNL     1       7.599   9.002   2.070  1.00  0.00     0.023 A 
ATOM     41  C   UNL     1       8.328   8.114   2.880  1.00  0.00     0.031 A 
ATOM     42  C   UNL     1       6.952  10.085   2.694  1.00  0.00     0.131 A 
ATOM     43  C   UNL     1       8.299   8.264   4.276  1.00  0.00     0.055 A 
ATOM     44  C   UNL     1       7.011  10.284   4.073  1.00  0.00     0.041 A 
ATOM     45  F   UNL     1       6.204  10.939   1.978  1.00  0.00    -0.206 F 
ATOM     46  C   UNL     1       7.668   9.357   4.876  1.00  0.00     0.022 A 
BRANCH  43  47
ATOM     47  S   UNL     1       8.907   6.897   5.304  1.00  0.00     0.124 S 
ATOM     48  O   UNL     1       8.041   5.800   4.875  1.00  0.00    -0.237 OA
ATOM     49  O   UNL     1      10.305   6.798   4.904  1.00  0.00    -0.237 OA
ATOM     50  O   UNL     1       8.677   7.365   6.669  1.00  0.00    -0.744 OA
ENDBRANCH  43  47
ENDBRANCH  26  40
BRANCH  27  51
ATOM     51  C   UNL     1       5.220   6.836  -7.506  1.00  0.00     0.023 A 
ATOM     52  C   UNL     1       6.269   6.609  -8.418  1.00  0.00     0.031 A 
ATOM     53  C   UNL     1       3.912   6.869  -8.024  1.00  0.00     0.131 A 
ATOM     54  C   UNL     1       5.998   6.495  -9.793  1.00  0.00     0.055 A 
ATOM     55  C   UNL     1       3.641   6.673  -9.380  1.00  0.00     0.041 A 
ATOM     56  F   UNL     1       2.866   7.106  -7.218  1.00  0.00    -0.206 F 
ATOM     57  C   UNL     1       4.689   6.505 -10.277  1.00  0.00     0.022 A 
BRANCH  54  58
ATOM     58  S   UNL     1       7.391   6.405 -10.957  1.00  0.00     0.124 S 
ATOM     59  O   UNL     1       8.043   7.690 -10.741  1.00  0.00    -0.237 OA
ATOM     60  O   UNL     1       8.110   5.229 -10.476  1.00  0.00    -0.237 OA
ATOM     61  O   UNL     1       6.742   6.239 -12.254  1.00  0.00    -0.744 OA
ENDBRANCH  54  58
ENDBRANCH  27  51
BRANCH  39  62
ATOM     62  C   UNL     1       8.635  12.067  -4.431  1.00  0.00     0.023 A 
ATOM     63  C   UNL     1       7.892  13.066  -5.083  1.00  0.00     0.031 A 
ATOM     64  C   UNL     1      10.022  12.245  -4.300  1.00  0.00     0.131 A 
ATOM     65  C   UNL     1       8.551  14.178  -5.626  1.00  0.00     0.055 A 
ATOM     66  C   UNL     1      10.663  13.383  -4.785  1.00  0.00     0.041 A 
ATOM     67  F   UNL     1      10.775  11.317  -3.687  1.00  0.00    -0.206 F 
ATOM     68  C   UNL     1       9.928  14.352  -5.463  1.00  0.00     0.022 A 
BRANCH  65  69
ATOM     69  S   UNL     1       7.598  15.352  -6.627  1.00  0.00     0.124 S 
ATOM     70  O   UNL     1       7.087  14.496  -7.693  1.00  0.00    -0.237 OA
ATOM     71  O   UNL     1       6.609  15.845  -5.675  1.00  0.00    -0.237 OA
ATOM     72  O   UNL     1       8.597  16.334  -7.046  1.00  0.00    -0.744 OA
ENDBRANCH  65  69
ENDBRANCH  39  62
ENDBRANCH  13  14
ENDBRANCH   6   8
ENDBRANCH   5   6
ENDBRANCH   4   5
ENDBRANCH   3   4
ENDBRANCH   2   3
ENDBRANCH   1   2
BRANCH   1  73
ATOM     73  C   UNL     1       1.740  -2.350  -1.561  1.00  0.00     0.188 C 
BRANCH  73  74
ATOM     74  O   UNL     1       2.266  -3.658  -1.773  1.00  0.00    -0.376 OA
BRANCH  74  75
ATOM     75  C   UNL     1       3.612  -3.751  -2.222  1.00  0.00     0.202 C 
BRANCH  75  76
ATOM     76  C   UNL     1       3.883  -3.241  -3.631  1.00  0.00     0.261 C 
BRANCH  76  77
ATOM     77  O   UNL     1       3.736  -1.819  -3.749  1.00  0.00    -0.462 OA
BRANCH  77  78
ATOM     78  C   UNL     1       2.794  -1.362  -4.614  1.00  0.00     0.329 C 
ATOM     79  O   UNL     1       1.896  -2.044  -5.099  1.00  0.00    -0.250 OA
BRANCH  78  80
ATOM     80  C   UNL     1       3.055   0.085  -5.023  1.00  0.00     0.206 C 
BRANCH  80  81
ATOM     81  C   UNL     1       3.829   0.962  -4.018  1.00  0.00     0.073 C 
BRANCH  81  82
ATOM     82  C   UNL     1       5.335   1.090  -4.077  1.00  0.00    -0.045 A 
ATOM     83  C   UNL     1       6.210   0.009  -4.142  1.00  0.00     0.004 A 
ATOM     84  C   UNL     1       5.901   2.360  -3.896  1.00  0.00     0.004 A 
ATOM     85  C   UNL     1       7.588   0.190  -3.975  1.00  0.00     0.000 A 
ATOM     86  C   UNL     1       7.268   2.552  -3.713  1.00  0.00     0.000 A 
ATOM     87  C   UNL     1       8.115   1.457  -3.736  1.00  0.00     0.000 A 
ENDBRANCH  81  82
ENDBRANCH  80  81
BRANCH  80  88
ATOM     88  N   UNL     1       3.409   0.291  -6.438  1.00  0.00    -0.278 N 
ATOM     89  C   UNL     1       3.120   1.544  -6.972  1.00  0.00     0.267 C 
ATOM     90  C   UNL     1       4.107  -0.573  -7.264  1.00  0.00     0.149 C 
ATOM     91  O   UNL     1       2.477   2.427  -6.426  1.00  0.00    -0.268 OA
ATOM     92  C   UNL     1       3.688   1.665  -8.333  1.00  0.00     0.081 C 
ATOM     93  S   UNL     1       4.336   0.158  -8.835  1.00  0.00    -0.054 SA
ATOM     94  S   UNL     1       4.673  -2.123  -7.022  1.00  0.00    -0.052 S 
ATOM     95  C   UNL     1       3.693   2.800  -9.043  1.00  0.00     0.029 C 
BRANCH  95  96
ATOM     96  C   UNL     1       4.210   2.817 -10.412  1.00  0.00    -0.021 A 
ATOM     97  C   UNL     1       3.403   2.344 -11.445  1.00  0.00     0.028 A 
ATOM     98  C   UNL     1       5.537   3.138 -10.678  1.00  0.00     0.028 A 
ATOM     99  C   UNL     1       3.970   2.179 -12.695  1.00  0.00     0.111 A 
ATOM    100  C   UNL     1       6.001   2.978 -11.974  1.00  0.00     0.111 A 
ATOM    101  N   UNL     1       5.253   2.473 -12.984  1.00  0.00    -0.265 NA
ENDBRANCH  95  96
ENDBRANCH  80  88
ENDBRANCH  78  80
ENDBRANCH  77  78
ENDBRANCH  76  77
ENDBRANCH  75  76
ENDBRANCH  74  75
ENDBRANCH  73  74
ENDBRANCH   1  73
TORSDOF 24
