REMARK SMILES COc1ccccc1C[C@@H](C(=O)OCCOCCOCCOC(=O)c1ccc(-c2c3nc(c(-c4cc(S(=O)(=O)[O-])ccc4F)c4ccc([nH]4)c(-c4cc(S(=O)(=O)[O-])ccc4F)c4nc(c(-c5cc(S(=O)(=O)[O-])ccc5F)c5ccc2[nH]5)C=C4)C=C3)cc1)[C@@H]1C[C@H](C)C[C@H](C)C1
REMARK SMILES IDX 17 1 16 2 15 3 14 4 13 5 11 6 12 7 10 8 9 9 8 10 3 11 4 12
REMARK SMILES IDX 5 13 7 14 6 15 2 16 1 17 88 18 95 19 89 20 93 21 90 22 94 23
REMARK SMILES IDX 92 24 91 25 18 26 19 27 20 28 21 29 22 30 23 31 24 32 25 33
REMARK SMILES IDX 26 34 87 35 27 36 86 37 28 38 29 39 30 40 80 41 31 42 85 43
REMARK SMILES IDX 79 44 81 45 32 46 84 47 78 48 77 49 33 51 65 52 45 53 64 54
REMARK SMILES IDX 46 55 49 56 63 57 82 58 47 59 48 60 62 62 83 63 50 64 34 65
REMARK SMILES IDX 35 66 43 67 36 68 42 69 44 70 41 71 37 72 38 73 39 74 40 75
REMARK SMILES IDX 66 76 67 77 75 78 68 79 74 80 76 81 73 82 69 83 70 84 71 85
REMARK SMILES IDX 72 86 51 87 52 88 60 89 53 90 59 91 61 92 58 93 54 94 55 95
REMARK SMILES IDX 56 96 57 97
REMARK H PARENT 81 50 49 61
REMARK Flexibility Score: inf
ROOT
ATOM      1  C   UNL     1       5.484   2.948  -3.142  1.00  0.00     0.188 C 
ENDROOT
BRANCH   1   2
ATOM      2  O   UNL     1       5.020   3.011  -4.488  1.00  0.00    -0.376 OA
BRANCH   2   3
ATOM      3  C   UNL     1       5.671   2.156  -5.407  1.00  0.00     0.202 C 
BRANCH   3   4
ATOM      4  C   UNL     1       4.808   0.918  -5.755  1.00  0.00     0.261 C 
BRANCH   4   5
ATOM      5  O   UNL     1       4.074   0.253  -4.694  1.00  0.00    -0.463 OA
BRANCH   5   6
ATOM      6  C   UNL     1       4.825  -0.130  -3.644  1.00  0.00     0.309 C 
ATOM      7  O   UNL     1       6.014   0.071  -3.680  1.00  0.00    -0.252 OA
BRANCH   6   8
ATOM      8  C   UNL     1       4.126  -0.886  -2.518  1.00  0.00     0.107 C 
BRANCH   8   9
ATOM      9  C   UNL     1       2.929  -0.184  -1.771  1.00  0.00     0.055 C 
BRANCH   9  10
ATOM     10  C   UNL     1       1.697   0.321  -2.520  1.00  0.00    -0.005 A 
ATOM     11  C   UNL     1       0.389  -0.045  -2.163  1.00  0.00     0.122 A 
ATOM     12  C   UNL     1      -0.721   0.342  -2.936  1.00  0.00     0.047 A 
ATOM     13  C   UNL     1      -0.559   1.178  -4.037  1.00  0.00     0.004 A 
ATOM     14  C   UNL     1       1.792   1.265  -3.551  1.00  0.00     0.007 A 
ATOM     15  C   UNL     1       0.701   1.670  -4.323  1.00  0.00     0.001 A 
BRANCH  11  16
ATOM     16  O   UNL     1       0.120  -0.798  -1.047  1.00  0.00    -0.496 OA
ATOM     17  C   UNL     1       0.121   0.039   0.117  1.00  0.00     0.278 C 
ENDBRANCH  11  16
ENDBRANCH   9  10
ENDBRANCH   8   9
BRANCH   8  18
ATOM     18  C   UNL     1       5.188  -1.414  -1.421  1.00  0.00     0.004 C 
ATOM     19  C   UNL     1       5.132  -2.941  -1.230  1.00  0.00     0.007 C 
ATOM     20  C   UNL     1       6.693  -0.990  -1.434  1.00  0.00     0.007 C 
ATOM     21  C   UNL     1       5.962  -3.740  -2.241  1.00  0.00    -0.014 C 
ATOM     22  C   UNL     1       7.722  -1.817  -2.261  1.00  0.00    -0.014 C 
ATOM     23  C   UNL     1       5.346  -3.737  -3.638  1.00  0.00     0.007 C 
ATOM     24  C   UNL     1       7.438  -3.322  -2.230  1.00  0.00     0.006 C 
ATOM     25  C   UNL     1       8.074  -1.378  -3.692  1.00  0.00     0.007 C 
ENDBRANCH   8  18
ENDBRANCH   6   8
ENDBRANCH   5   6
ENDBRANCH   4   5
ENDBRANCH   3   4
ENDBRANCH   2   3
ENDBRANCH   1   2
BRANCH   1  26
ATOM     26  C   UNL     1       4.308   3.212  -2.208  1.00  0.00     0.188 C 
BRANCH  26  27
ATOM     27  O   UNL     1       3.370   4.221  -2.545  1.00  0.00    -0.376 OA
BRANCH  27  28
ATOM     28  C   UNL     1       3.870   5.367  -3.207  1.00  0.00     0.202 C 
BRANCH  28  29
ATOM     29  C   UNL     1       4.883   6.239  -2.447  1.00  0.00     0.261 C 
BRANCH  29  30
ATOM     30  O   UNL     1       5.839   5.548  -1.620  1.00  0.00    -0.460 OA
BRANCH  30  31
ATOM     31  C   UNL     1       5.475   5.388  -0.318  1.00  0.00     0.338 C 
ATOM     32  O   UNL     1       4.436   5.767   0.194  1.00  0.00    -0.246 OA
BRANCH  31  33
ATOM     33  C   UNL     1       6.458   4.524   0.384  1.00  0.00     0.060 A 
ATOM     34  C   UNL     1       6.024   3.333   0.992  1.00  0.00     0.016 A 
ATOM     35  C   UNL     1       7.782   4.935   0.529  1.00  0.00     0.016 A 
ATOM     36  C   UNL     1       6.901   2.567   1.765  1.00  0.00     0.010 A 
ATOM     37  C   UNL     1       8.651   4.187   1.334  1.00  0.00     0.010 A 
ATOM     38  C   UNL     1       8.206   3.020   1.987  1.00  0.00    -0.014 A 
BRANCH  38  39
ATOM     39  C   UNL     1       9.027   2.427   3.077  1.00  0.00     0.031 A 
ATOM     40  C   UNL     1       9.050   3.127   4.411  1.00  0.00     0.074 A 
ATOM     41  C   UNL     1       9.733   1.296   2.904  1.00  0.00     0.049 A 
ATOM     42  N   UNL     1       9.759   2.871   5.481  1.00  0.00    -0.248 NA
ATOM     43  C   UNL     1       8.153   4.283   4.542  1.00  0.00     0.031 C 
ATOM     44  C   UNL     1       9.739   0.477   1.696  1.00  0.00     0.029 A 
ATOM     45  N   UNL     1      10.592   0.648   3.757  1.00  0.00    -0.354 N 
ATOM     46  C   UNL     1       9.401   3.842   6.412  1.00  0.00     0.074 A 
ATOM     47  C   UNL     1       8.451   4.716   5.756  1.00  0.00     0.031 C 
ATOM     48  C   UNL     1      10.568  -0.566   1.883  1.00  0.00     0.029 A 
ATOM     49  C   UNL     1      11.186  -0.462   3.205  1.00  0.00     0.049 A 
ATOM     50  H   UNL     1      10.767   0.950   4.678  1.00  0.00     0.167 HD
ATOM     51  C   UNL     1       9.817   3.988   7.696  1.00  0.00     0.034 A 
ATOM     52  C   UNL     1      12.136  -1.282   3.701  1.00  0.00     0.034 A 
ATOM     53  C   UNL     1      10.788   3.127   8.328  1.00  0.00     0.049 A 
ATOM     54  C   UNL     1      12.694  -1.021   5.082  1.00  0.00     0.074 A 
ATOM     55  C   UNL     1      11.284   3.183   9.619  1.00  0.00     0.029 A 
ATOM     56  N   UNL     1      11.430   2.061   7.707  1.00  0.00    -0.354 N 
ATOM     57  N   UNL     1      12.360  -0.095   5.953  1.00  0.00    -0.248 NA
ATOM     58  C   UNL     1      13.757  -1.923   5.545  1.00  0.00     0.031 C 
ATOM     59  C   UNL     1      12.287   2.215   9.748  1.00  0.00     0.029 A 
ATOM     60  C   UNL     1      12.349   1.484   8.573  1.00  0.00     0.049 A 
ATOM     61  H   UNL     1      11.258   1.760   6.785  1.00  0.00     0.167 HD
ATOM     62  C   UNL     1      13.144  -0.333   7.082  1.00  0.00     0.074 A 
ATOM     63  C   UNL     1      13.960  -1.492   6.781  1.00  0.00     0.031 C 
ATOM     64  C   UNL     1      13.177   0.339   8.263  1.00  0.00     0.034 A 
BRANCH  51  65
ATOM     65  C   UNL     1       9.266   5.171   8.463  1.00  0.00     0.023 A 
ATOM     66  C   UNL     1       7.886   5.332   8.683  1.00  0.00     0.031 A 
ATOM     67  C   UNL     1      10.121   6.196   8.905  1.00  0.00     0.131 A 
ATOM     68  C   UNL     1       7.396   6.534   9.214  1.00  0.00     0.055 A 
ATOM     69  C   UNL     1       9.634   7.345   9.532  1.00  0.00     0.041 A 
ATOM     70  F   UNL     1      11.446   6.116   8.707  1.00  0.00    -0.206 F 
ATOM     71  C   UNL     1       8.262   7.531   9.667  1.00  0.00     0.022 A 
BRANCH  68  72
ATOM     72  S   UNL     1       5.614   6.863   9.101  1.00  0.00     0.124 S 
ATOM     73  O   UNL     1       5.376   6.701   7.668  1.00  0.00    -0.237 OA
ATOM     74  O   UNL     1       5.048   5.833   9.964  1.00  0.00    -0.237 OA
ATOM     75  O   UNL     1       5.487   8.233   9.594  1.00  0.00    -0.744 OA
ENDBRANCH  68  72
ENDBRANCH  51  65
BRANCH  52  76
ATOM     76  C   UNL     1      12.646  -2.424   2.889  1.00  0.00     0.023 A 
ATOM     77  C   UNL     1      12.456  -3.748   3.315  1.00  0.00     0.031 A 
ATOM     78  C   UNL     1      13.368  -2.211   1.701  1.00  0.00     0.131 A 
ATOM     79  C   UNL     1      13.009  -4.808   2.579  1.00  0.00     0.055 A 
ATOM     80  C   UNL     1      13.871  -3.271   0.944  1.00  0.00     0.041 A 
ATOM     81  F   UNL     1      13.588  -0.965   1.254  1.00  0.00    -0.206 F 
ATOM     82  C   UNL     1      13.700  -4.579   1.388  1.00  0.00     0.022 A 
BRANCH  79  83
ATOM     83  S   UNL     1      12.871  -6.490   3.241  1.00  0.00     0.124 S 
ATOM     84  O   UNL     1      13.585  -6.371   4.506  1.00  0.00    -0.237 OA
ATOM     85  O   UNL     1      11.425  -6.663   3.334  1.00  0.00    -0.237 OA
ATOM     86  O   UNL     1      13.529  -7.310   2.226  1.00  0.00    -0.744 OA
ENDBRANCH  79  83
ENDBRANCH  52  76
BRANCH  64  87
ATOM     87  C   UNL     1      14.093  -0.199   9.342  1.00  0.00     0.023 A 
ATOM     88  C   UNL     1      15.491  -0.235   9.187  1.00  0.00     0.031 A 
ATOM     89  C   UNL     1      13.554  -0.706  10.540  1.00  0.00     0.131 A 
ATOM     90  C   UNL     1      16.292  -0.828  10.176  1.00  0.00     0.055 A 
ATOM     91  C   UNL     1      14.362  -1.224  11.553  1.00  0.00     0.041 A 
ATOM     92  F   UNL     1      12.227  -0.706  10.747  1.00  0.00    -0.206 F 
ATOM     93  C   UNL     1      15.739  -1.303  11.367  1.00  0.00     0.022 A 
BRANCH  90  94
ATOM     94  S   UNL     1      18.056  -1.082   9.834  1.00  0.00     0.124 S 
ATOM     95  O   UNL     1      18.015  -1.872   8.607  1.00  0.00    -0.237 OA
ATOM     96  O   UNL     1      18.547   0.285   9.695  1.00  0.00    -0.237 OA
ATOM     97  O   UNL     1      18.536  -1.797  11.015  1.00  0.00    -0.744 OA
ENDBRANCH  90  94
ENDBRANCH  64  87
ENDBRANCH  38  39
ENDBRANCH  31  33
ENDBRANCH  30  31
ENDBRANCH  29  30
ENDBRANCH  28  29
ENDBRANCH  27  28
ENDBRANCH  26  27
ENDBRANCH   1  26
TORSDOF 24
