REMARK SMILES C[C@H](C(=O)OCCOCCOCCOC(=O)c1ccc(-c2c3nc(c(-c4cc(S(=O)(=O)[O-])ccc4F)c4ccc([nH]4)c(-c4cc(S(=O)(=O)[O-])ccc4F)c4nc(c(-c5cc(S(=O)(=O)[O-])ccc5F)c5ccc2[nH]5)C=C4)C=C3)cc1)[C@@H](C)[NH2+]Cc1ccc(F)c(F)c1
REMARK SMILES IDX 9 1 8 2 7 3 6 4 5 5 3 6 4 7 2 8 1 9 80 10 81 11 82 12 83 15
REMARK SMILES IDX 84 16 85 17 91 18 86 19 89 20 87 21 90 22 88 23 10 24 11 25
REMARK SMILES IDX 12 26 13 27 14 28 15 29 16 30 17 31 18 32 79 33 19 34 78 35
REMARK SMILES IDX 20 36 21 37 22 38 72 39 23 40 77 41 71 42 73 43 24 44 76 45
REMARK SMILES IDX 70 46 69 47 25 49 57 50 37 51 56 52 38 53 41 54 55 55 74 56
REMARK SMILES IDX 39 57 40 58 54 60 75 61 42 62 26 63 27 64 35 65 28 66 34 67
REMARK SMILES IDX 36 68 33 69 29 70 30 71 31 72 32 73 58 74 59 75 67 76 60 77
REMARK SMILES IDX 66 78 68 79 65 80 61 81 62 82 63 83 64 84 43 85 44 86 52 87
REMARK SMILES IDX 45 88 51 89 53 90 50 91 46 92 47 93 48 94 49 95
REMARK H PARENT 82 13 82 14 73 48 41 59
REMARK Flexibility Score: inf
ROOT
ATOM      1  C   UNL     1       3.604   0.441  -1.097  1.00  0.00     0.188 C 
ENDROOT
BRANCH   1   2
ATOM      2  O   UNL     1       3.829  -0.767  -0.373  1.00  0.00    -0.376 OA
BRANCH   2   3
ATOM      3  C   UNL     1       3.106  -1.928  -0.744  1.00  0.00     0.202 C 
BRANCH   3   4
ATOM      4  C   UNL     1       1.653  -2.016  -0.259  1.00  0.00     0.261 C 
BRANCH   4   5
ATOM      5  O   UNL     1       0.871  -0.838  -0.521  1.00  0.00    -0.463 OA
BRANCH   5   6
ATOM      6  C   UNL     1       0.836   0.060   0.500  1.00  0.00     0.314 C 
ATOM      7  O   UNL     1       1.367  -0.123   1.590  1.00  0.00    -0.252 OA
BRANCH   6   8
ATOM      8  C   UNL     1       0.042   1.321   0.179  1.00  0.00     0.154 C 
ATOM      9  C   UNL     1       0.061   1.720  -1.299  1.00  0.00     0.026 C 
BRANCH   8  10
ATOM     10  C   UNL     1      -1.402   1.213   0.714  1.00  0.00     0.193 C 
ATOM     11  C   UNL     1      -1.384   0.748   2.179  1.00  0.00     0.076 C 
BRANCH  10  12
ATOM     12  N   UNL     1      -2.019   2.546   0.559  1.00  0.00    -0.340 N 
ATOM     13  H   UNL     1      -1.535   3.028  -0.199  1.00  0.00     0.346 HD
ATOM     14  H   UNL     1      -1.926   3.000   1.468  1.00  0.00     0.346 HD
BRANCH  12  15
ATOM     15  C   UNL     1      -3.451   2.559   0.256  1.00  0.00     0.297 C 
BRANCH  15  16
ATOM     16  C   UNL     1      -4.267   2.043   1.412  1.00  0.00     0.009 A 
ATOM     17  C   UNL     1      -4.344   2.795   2.599  1.00  0.00     0.013 A 
ATOM     18  C   UNL     1      -4.750   0.726   1.393  1.00  0.00     0.052 A 
ATOM     19  C   UNL     1      -4.799   2.202   3.776  1.00  0.00     0.043 A 
ATOM     20  C   UNL     1      -5.202   0.145   2.572  1.00  0.00     0.159 A 
ATOM     21  C   UNL     1      -5.204   0.870   3.759  1.00  0.00     0.158 A 
ATOM     22  F   UNL     1      -5.562  -1.146   2.567  1.00  0.00    -0.204 F 
ATOM     23  F   UNL     1      -5.558   0.276   4.906  1.00  0.00    -0.204 F 
ENDBRANCH  15  16
ENDBRANCH  12  15
ENDBRANCH  10  12
ENDBRANCH   8  10
ENDBRANCH   6   8
ENDBRANCH   5   6
ENDBRANCH   4   5
ENDBRANCH   3   4
ENDBRANCH   2   3
ENDBRANCH   1   2
BRANCH   1  24
ATOM     24  C   UNL     1       2.970   0.372  -2.502  1.00  0.00     0.188 C 
BRANCH  24  25
ATOM     25  O   UNL     1       3.672  -0.366  -3.493  1.00  0.00    -0.376 OA
BRANCH  25  26
ATOM     26  C   UNL     1       5.041  -0.028  -3.692  1.00  0.00     0.202 C 
BRANCH  26  27
ATOM     27  C   UNL     1       5.323   1.427  -4.097  1.00  0.00     0.261 C 
BRANCH  27  28
ATOM     28  O   UNL     1       5.311   2.324  -2.962  1.00  0.00    -0.460 OA
BRANCH  28  29
ATOM     29  C   UNL     1       4.415   3.343  -3.013  1.00  0.00     0.338 C 
ATOM     30  O   UNL     1       3.626   3.566  -3.914  1.00  0.00    -0.246 OA
BRANCH  29  31
ATOM     31  C   UNL     1       4.397   4.099  -1.738  1.00  0.00     0.060 A 
ATOM     32  C   UNL     1       3.152   4.413  -1.173  1.00  0.00     0.016 A 
ATOM     33  C   UNL     1       5.567   4.596  -1.160  1.00  0.00     0.016 A 
ATOM     34  C   UNL     1       3.070   5.260  -0.063  1.00  0.00     0.010 A 
ATOM     35  C   UNL     1       5.482   5.456  -0.054  1.00  0.00     0.010 A 
ATOM     36  C   UNL     1       4.232   5.824   0.480  1.00  0.00    -0.014 A 
BRANCH  36  37
ATOM     37  C   UNL     1       4.139   6.920   1.486  1.00  0.00     0.031 A 
ATOM     38  C   UNL     1       4.333   8.344   1.028  1.00  0.00     0.074 A 
ATOM     39  C   UNL     1       3.869   6.672   2.781  1.00  0.00     0.049 A 
ATOM     40  N   UNL     1       4.414   9.445   1.732  1.00  0.00    -0.248 NA
ATOM     41  C   UNL     1       4.453   8.548  -0.423  1.00  0.00     0.031 C 
ATOM     42  C   UNL     1       3.582   5.356   3.346  1.00  0.00     0.029 A 
ATOM     43  N   UNL     1       3.800   7.523   3.859  1.00  0.00    -0.354 N 
ATOM     44  C   UNL     1       4.613  10.471   0.814  1.00  0.00     0.074 A 
ATOM     45  C   UNL     1       4.662   9.854  -0.496  1.00  0.00     0.031 C 
ATOM     46  C   UNL     1       3.380   5.485   4.670  1.00  0.00     0.029 A 
ATOM     47  C   UNL     1       3.575   6.882   5.056  1.00  0.00     0.049 A 
ATOM     48  H   UNL     1       3.902   8.499   3.782  1.00  0.00     0.167 HD
ATOM     49  C   UNL     1       4.743  11.803   1.039  1.00  0.00     0.034 A 
ATOM     50  C   UNL     1       3.566   7.359   6.319  1.00  0.00     0.034 A 
ATOM     51  C   UNL     1       4.698  12.410   2.348  1.00  0.00     0.049 A 
ATOM     52  C   UNL     1       3.823   8.831   6.558  1.00  0.00     0.074 A 
ATOM     53  C   UNL     1       4.820  13.748   2.683  1.00  0.00     0.029 A 
ATOM     54  N   UNL     1       4.528  11.720   3.541  1.00  0.00    -0.354 N 
ATOM     55  N   UNL     1       4.037   9.788   5.684  1.00  0.00    -0.248 NA
ATOM     56  C   UNL     1       3.840   9.284   7.956  1.00  0.00     0.031 C 
ATOM     57  C   UNL     1       4.797  13.858   4.078  1.00  0.00     0.029 A 
ATOM     58  C   UNL     1       4.578  12.599   4.613  1.00  0.00     0.049 A 
ATOM     59  H   UNL     1       4.392  10.747   3.615  1.00  0.00     0.167 HD
ATOM     60  C   UNL     1       4.181  10.958   6.428  1.00  0.00     0.074 A 
ATOM     61  C   UNL     1       4.017  10.590   7.818  1.00  0.00     0.031 C 
ATOM     62  C   UNL     1       4.421  12.224   5.999  1.00  0.00     0.034 A 
BRANCH  49  63
ATOM     63  C   UNL     1       5.016  12.684  -0.158  1.00  0.00     0.023 A 
ATOM     64  C   UNL     1       4.078  12.847  -1.192  1.00  0.00     0.031 A 
ATOM     65  C   UNL     1       6.252  13.345  -0.279  1.00  0.00     0.131 A 
ATOM     66  C   UNL     1       4.418  13.590  -2.334  1.00  0.00     0.055 A 
ATOM     67  C   UNL     1       6.553  14.148  -1.380  1.00  0.00     0.041 A 
ATOM     68  F   UNL     1       7.195  13.209   0.666  1.00  0.00    -0.206 F 
ATOM     69  C   UNL     1       5.640  14.262  -2.424  1.00  0.00     0.022 A 
BRANCH  66  70
ATOM     70  S   UNL     1       3.302  13.545  -3.763  1.00  0.00     0.124 S 
ATOM     71  O   UNL     1       3.244  12.113  -4.048  1.00  0.00    -0.237 OA
ATOM     72  O   UNL     1       2.083  14.141  -3.230  1.00  0.00    -0.237 OA
ATOM     73  O   UNL     1       4.000  14.344  -4.769  1.00  0.00    -0.744 OA
ENDBRANCH  66  70
ENDBRANCH  49  63
BRANCH  50  74
ATOM     74  C   UNL     1       3.369   6.438   7.479  1.00  0.00     0.023 A 
ATOM     75  C   UNL     1       2.277   6.586   8.349  1.00  0.00     0.031 A 
ATOM     76  C   UNL     1       4.317   5.443   7.777  1.00  0.00     0.131 A 
ATOM     77  C   UNL     1       2.184   5.786   9.499  1.00  0.00     0.055 A 
ATOM     78  C   UNL     1       4.190   4.610   8.891  1.00  0.00     0.041 A 
ATOM     79  F   UNL     1       5.388   5.265   6.987  1.00  0.00    -0.206 F 
ATOM     80  C   UNL     1       3.125   4.789   9.768  1.00  0.00     0.022 A 
BRANCH  77  81
ATOM     81  S   UNL     1       0.863   6.130  10.694  1.00  0.00     0.124 S 
ATOM     82  O   UNL     1       1.140   7.517  11.051  1.00  0.00    -0.237 OA
ATOM     83  O   UNL     1      -0.336   5.900   9.895  1.00  0.00    -0.237 OA
ATOM     84  O   UNL     1       1.099   5.153  11.754  1.00  0.00    -0.744 OA
ENDBRANCH  77  81
ENDBRANCH  50  74
BRANCH  62  85
ATOM     85  C   UNL     1       4.464  13.314   7.046  1.00  0.00     0.023 A 
ATOM     86  C   UNL     1       5.483  13.380   8.013  1.00  0.00     0.031 A 
ATOM     87  C   UNL     1       3.462  14.302   7.077  1.00  0.00     0.131 A 
ATOM     88  C   UNL     1       5.449  14.378   9.000  1.00  0.00     0.055 A 
ATOM     89  C   UNL     1       3.465  15.326   8.024  1.00  0.00     0.041 A 
ATOM     90  F   UNL     1       2.463  14.289   6.180  1.00  0.00    -0.206 F 
ATOM     91  C   UNL     1       4.456  15.361   9.001  1.00  0.00     0.022 A 
BRANCH  88  92
ATOM     92  S   UNL     1       6.673  14.328  10.339  1.00  0.00     0.124 S 
ATOM     93  O   UNL     1       6.429  13.013  10.923  1.00  0.00    -0.237 OA
ATOM     94  O   UNL     1       7.932  14.481   9.617  1.00  0.00    -0.237 OA
ATOM     95  O   UNL     1       6.303  15.461  11.185  1.00  0.00    -0.744 OA
ENDBRANCH  88  92
ENDBRANCH  62  85
ENDBRANCH  36  37
ENDBRANCH  29  31
ENDBRANCH  28  29
ENDBRANCH  27  28
ENDBRANCH  26  27
ENDBRANCH  25  26
ENDBRANCH  24  25
ENDBRANCH   1  24
TORSDOF 24
