REMARK SMILES CCCCCCNC(=O)Oc1cccc(-c2ccc([C@@H](C)C(=O)OCCOCCOCCOC(=O)c3ccc(-c4c5nc(c(-c6cc(S(=O)(=O)[O-])ccc6F)c6ccc([nH]6)c(-c6cc(S(=O)(=O)[O-])ccc6F)c6nc(c(-c7cc(S(=O)(=O)[O-])ccc7F)c7ccc4[nH]7)C=C6)C=C5)cc3)cc2O)c1
REMARK SMILES IDX 25 1 24 2 22 3 23 4 20 5 21 6 19 7 16 8 17 9 100 10 18 11
REMARK SMILES IDX 99 12 15 13 11 14 12 15 102 16 13 17 14 18 10 19 8 20 7 21
REMARK SMILES IDX 9 23 6 24 5 25 4 26 3 27 2 28 1 29 101 30 26 32 27 33 28 34
REMARK SMILES IDX 29 35 30 36 31 37 32 38 33 39 34 40 35 41 36 42 37 43 98 44
REMARK SMILES IDX 38 45 97 46 39 47 40 48 41 49 91 50 42 51 96 52 90 53 92 54
REMARK SMILES IDX 43 55 95 56 89 57 88 58 44 60 76 61 56 62 75 63 57 64 60 65
REMARK SMILES IDX 74 66 93 67 58 68 59 69 73 71 94 72 61 73 45 74 46 75 54 76
REMARK SMILES IDX 47 77 53 78 55 79 52 80 48 81 49 82 50 83 51 84 77 85 78 86
REMARK SMILES IDX 86 87 79 88 85 89 87 90 84 91 80 92 81 93 82 94 83 95 62 96
REMARK SMILES IDX 63 97 71 98 64 99 70 100 72 101 69 102 65 103 66 104 67 105
REMARK SMILES IDX 68 106
REMARK H PARENT 7 22 101 31 92 59 60 70
REMARK Flexibility Score: inf
ROOT
ATOM      1  C   UNL     1      -2.288  12.667  -9.707  1.00  0.00     0.261 C 
ENDROOT
BRANCH   1   2
ATOM      2  O   UNL     1      -3.329  11.795  -9.213  1.00  0.00    -0.463 OA
BRANCH   2   3
ATOM      3  C   UNL     1      -4.177  11.285 -10.143  1.00  0.00     0.313 C 
ATOM      4  O   UNL     1      -4.137  11.604 -11.330  1.00  0.00    -0.252 OA
BRANCH   3   5
ATOM      5  C   UNL     1      -5.210  10.271  -9.642  1.00  0.00     0.126 C 
ATOM      6  C   UNL     1      -6.603  10.781 -10.010  1.00  0.00     0.025 C 
BRANCH   5   7
ATOM      7  C   UNL     1      -5.197   9.760  -8.201  1.00  0.00    -0.030 A 
ATOM      8  C   UNL     1      -5.171   8.657  -5.543  1.00  0.00     0.024 A 
ATOM      9  C   UNL     1      -5.202  10.047  -5.775  1.00  0.00     0.013 A 
ATOM     10  C   UNL     1      -5.172   7.834  -6.679  1.00  0.00     0.123 A 
ATOM     11  C   UNL     1      -5.227  10.592  -7.076  1.00  0.00     0.005 A 
ATOM     12  C   UNL     1      -5.188   8.370  -7.975  1.00  0.00     0.051 A 
BRANCH   8  13
ATOM     13  C   UNL     1      -5.196   8.128  -4.160  1.00  0.00    -0.011 A 
ATOM     14  C   UNL     1      -4.276   6.773  -2.359  1.00  0.00     0.133 A 
ATOM     15  C   UNL     1      -5.377   7.046  -1.550  1.00  0.00     0.047 A 
ATOM     16  C   UNL     1      -4.173   7.303  -3.651  1.00  0.00     0.056 A 
ATOM     17  C   UNL     1      -6.384   7.877  -2.030  1.00  0.00     0.004 A 
ATOM     18  C   UNL     1      -6.295   8.407  -3.322  1.00  0.00     0.009 A 
BRANCH  14  19
ATOM     19  O   UNL     1      -3.365   5.819  -1.871  1.00  0.00    -0.410 OA
BRANCH  19  20
ATOM     20  C   UNL     1      -2.033   6.177  -1.743  1.00  0.00     0.412 C 
ATOM     21  N   UNL     1      -1.244   5.172  -1.252  1.00  0.00    -0.321 N 
ATOM     22  H   UNL     1      -0.275   5.344  -1.234  1.00  0.00     0.167 HD
ATOM     23  O   UNL     1      -1.563   7.287  -1.989  1.00  0.00    -0.224 OA
BRANCH  21  24
ATOM     24  C   UNL     1      -1.680   3.878  -0.754  1.00  0.00     0.119 C 
BRANCH  24  25
ATOM     25  C   UNL     1      -1.040   2.703  -1.493  1.00  0.00     0.021 C 
BRANCH  25  26
ATOM     26  C   UNL     1       0.487   2.610  -1.379  1.00  0.00     0.002 C 
BRANCH  26  27
ATOM     27  C   UNL     1       1.046   2.470   0.042  1.00  0.00    -0.000 C 
BRANCH  27  28
ATOM     28  C   UNL     1       0.573   1.242   0.824  1.00  0.00    -0.003 C 
ATOM     29  C   UNL     1       0.984  -0.078   0.190  1.00  0.00     0.004 C 
ENDBRANCH  27  28
ENDBRANCH  26  27
ENDBRANCH  25  26
ENDBRANCH  24  25
ENDBRANCH  21  24
ENDBRANCH  19  20
ENDBRANCH  14  19
ENDBRANCH   8  13
BRANCH  10  30
ATOM     30  O   UNL     1      -5.179   6.466  -6.615  1.00  0.00    -0.507 OA
ATOM     31  H   UNL     1      -5.169   6.035  -5.783  1.00  0.00     0.293 HD
ENDBRANCH  10  30
ENDBRANCH   5   7
ENDBRANCH   3   5
ENDBRANCH   2   3
ENDBRANCH   1   2
BRANCH   1  32
ATOM     32  C   UNL     1      -0.860  12.246  -9.338  1.00  0.00     0.202 C 
BRANCH  32  33
ATOM     33  O   UNL     1      -0.426  10.956  -9.745  1.00  0.00    -0.376 OA
BRANCH  33  34
ATOM     34  C   UNL     1      -1.131   9.805  -9.289  1.00  0.00     0.188 C 
BRANCH  34  35
ATOM     35  C   UNL     1      -1.744   9.806  -7.881  1.00  0.00     0.188 C 
BRANCH  35  36
ATOM     36  O   UNL     1      -1.208  10.790  -7.016  1.00  0.00    -0.376 OA
BRANCH  36  37
ATOM     37  C   UNL     1      -0.745  10.317  -5.765  1.00  0.00     0.202 C 
BRANCH  37  38
ATOM     38  C   UNL     1       0.595   9.581  -5.875  1.00  0.00     0.261 C 
BRANCH  38  39
ATOM     39  O   UNL     1       0.610   8.466  -6.786  1.00  0.00    -0.460 OA
BRANCH  39  40
ATOM     40  C   UNL     1      -0.116   7.378  -6.444  1.00  0.00     0.338 C 
ATOM     41  O   UNL     1      -0.766   7.225  -5.416  1.00  0.00    -0.246 OA
BRANCH  40  42
ATOM     42  C   UNL     1      -0.177   6.481  -7.616  1.00  0.00     0.060 A 
ATOM     43  C   UNL     1      -1.425   6.123  -8.144  1.00  0.00     0.016 A 
ATOM     44  C   UNL     1       0.999   6.009  -8.204  1.00  0.00     0.016 A 
ATOM     45  C   UNL     1      -1.501   5.278  -9.255  1.00  0.00     0.010 A 
ATOM     46  C   UNL     1       0.920   5.147  -9.301  1.00  0.00     0.010 A 
ATOM     47  C   UNL     1      -0.329   4.758  -9.819  1.00  0.00    -0.014 A 
BRANCH  47  48
ATOM     48  C   UNL     1      -0.389   3.675 -10.835  1.00  0.00     0.031 A 
ATOM     49  C   UNL     1      -0.204   2.255 -10.376  1.00  0.00     0.074 A 
ATOM     50  C   UNL     1      -0.577   3.942 -12.140  1.00  0.00     0.049 A 
ATOM     51  N   UNL     1      -0.100   1.156 -11.077  1.00  0.00    -0.248 NA
ATOM     52  C   UNL     1      -0.114   2.055  -8.922  1.00  0.00     0.031 C 
ATOM     53  C   UNL     1      -0.826   5.266 -12.705  1.00  0.00     0.029 A 
ATOM     54  N   UNL     1      -0.574   3.105 -13.229  1.00  0.00    -0.354 N 
ATOM     55  C   UNL     1       0.086   0.134 -10.153  1.00  0.00     0.074 A 
ATOM     56  C   UNL     1       0.111   0.753  -8.844  1.00  0.00     0.031 C 
ATOM     57  C   UNL     1      -0.945   5.153 -14.040  1.00  0.00     0.029 A 
ATOM     58  C   UNL     1      -0.730   3.760 -14.429  1.00  0.00     0.049 A 
ATOM     59  H   UNL     1      -0.470   2.129 -13.158  1.00  0.00     0.167 HD
ATOM     60  C   UNL     1       0.223  -1.197 -10.376  1.00  0.00     0.034 A 
ATOM     61  C   UNL     1      -0.671   3.292 -15.693  1.00  0.00     0.034 A 
ATOM     62  C   UNL     1       0.212  -1.795 -11.690  1.00  0.00     0.049 A 
ATOM     63  C   UNL     1      -0.394   1.824 -15.925  1.00  0.00     0.074 A 
ATOM     64  C   UNL     1       0.304  -3.134 -12.027  1.00  0.00     0.029 A 
ATOM     65  N   UNL     1       0.130  -1.091 -12.885  1.00  0.00    -0.354 N 
ATOM     66  N   UNL     1      -0.236   0.860 -15.046  1.00  0.00    -0.248 NA
ATOM     67  C   UNL     1      -0.280   1.383 -17.322  1.00  0.00     0.031 C 
ATOM     68  C   UNL     1       0.370  -3.231 -13.422  1.00  0.00     0.029 A 
ATOM     69  C   UNL     1       0.226  -1.962 -13.960  1.00  0.00     0.049 A 
ATOM     70  H   UNL     1       0.018  -0.116 -12.958  1.00  0.00     0.167 HD
ATOM     71  C   UNL     1      -0.033  -0.303 -15.787  1.00  0.00     0.074 A 
ATOM     72  C   UNL     1      -0.101   0.078 -17.182  1.00  0.00     0.031 C 
ATOM     73  C   UNL     1       0.182  -1.572 -15.352  1.00  0.00     0.034 A 
BRANCH  60  74
ATOM     74  C   UNL     1       0.473  -2.077  -9.173  1.00  0.00     0.023 A 
ATOM     75  C   UNL     1      -0.462  -2.197  -8.129  1.00  0.00     0.031 A 
ATOM     76  C   UNL     1       1.693  -2.765  -9.044  1.00  0.00     0.131 A 
ATOM     77  C   UNL     1      -0.127  -2.910  -6.967  1.00  0.00     0.055 A 
ATOM     78  C   UNL     1       1.983  -3.549  -7.926  1.00  0.00     0.041 A 
ATOM     79  F   UNL     1       2.636  -2.669  -9.994  1.00  0.00    -0.206 F 
ATOM     80  C   UNL     1       1.079  -3.610  -6.870  1.00  0.00     0.022 A 
BRANCH  77  81
ATOM     81  S   UNL     1      -1.210  -2.768  -5.519  1.00  0.00     0.124 S 
ATOM     82  O   UNL     1      -1.243  -1.321  -5.312  1.00  0.00    -0.237 OA
ATOM     83  O   UNL     1      -2.450  -3.374  -5.990  1.00  0.00    -0.237 OA
ATOM     84  O   UNL     1      -0.501  -3.518  -4.484  1.00  0.00    -0.744 OA
ENDBRANCH  77  81
ENDBRANCH  60  74
BRANCH  61  85
ATOM     85  C   UNL     1      -0.833   4.218 -16.852  1.00  0.00     0.023 A 
ATOM     86  C   UNL     1      -1.905   4.071 -17.748  1.00  0.00     0.031 A 
ATOM     87  C   UNL     1       0.111   5.227 -17.114  1.00  0.00     0.131 A 
ATOM     88  C   UNL     1      -1.988   4.895 -18.881  1.00  0.00     0.055 A 
ATOM     89  C   UNL     1      -0.006   6.079 -18.214  1.00  0.00     0.041 A 
ATOM     90  F   UNL     1       1.162   5.403 -16.298  1.00  0.00    -0.206 F 
ATOM     91  C   UNL     1      -1.055   5.909 -19.112  1.00  0.00     0.022 A 
BRANCH  88  92
ATOM     92  S   UNL     1      -3.296   4.572 -20.096  1.00  0.00     0.124 S 
ATOM     93  O   UNL     1      -2.982   3.211 -20.515  1.00  0.00    -0.237 OA
ATOM     94  O   UNL     1      -4.504   4.734 -19.294  1.00  0.00    -0.237 OA
ATOM     95  O   UNL     1      -3.081   5.603 -21.110  1.00  0.00    -0.744 OA
ENDBRANCH  88  92
ENDBRANCH  61  85
BRANCH  73  96
ATOM     96  C   UNL     1       0.327  -2.649 -16.403  1.00  0.00     0.023 A 
ATOM     97  C   UNL     1       1.420  -2.682 -17.287  1.00  0.00     0.031 A 
ATOM     98  C   UNL     1      -0.645  -3.660 -16.520  1.00  0.00     0.131 A 
ATOM     99  C   UNL     1       1.489  -3.673 -18.279  1.00  0.00     0.055 A 
ATOM    100  C   UNL     1      -0.538  -4.680 -17.467  1.00  0.00     0.041 A 
ATOM    101  F   UNL     1      -1.713  -3.679 -15.707  1.00  0.00    -0.206 F 
ATOM    102  C   UNL     1       0.528  -4.684 -18.361  1.00  0.00     0.022 A 
BRANCH  99 103
ATOM    103  S   UNL     1       2.809  -3.577 -19.521  1.00  0.00     0.124 S 
ATOM    104  O   UNL     1       2.557  -2.275 -20.130  1.00  0.00    -0.237 OA
ATOM    105  O   UNL     1       4.014  -3.677 -18.705  1.00  0.00    -0.237 OA
ATOM    106  O   UNL     1       2.550  -4.727 -20.387  1.00  0.00    -0.744 OA
ENDBRANCH  99 103
ENDBRANCH  73  96
ENDBRANCH  47  48
ENDBRANCH  40  42
ENDBRANCH  39  40
ENDBRANCH  38  39
ENDBRANCH  37  38
ENDBRANCH  36  37
ENDBRANCH  35  36
ENDBRANCH  34  35
ENDBRANCH  33  34
ENDBRANCH  32  33
ENDBRANCH   1  32
TORSDOF 30
