REMARK SMILES C[C@@H]1Cc2ccccc2N1S(=O)(=O)c1cccc(C(=O)OCCOCCOCCOC(=O)c2ccc(-c3c4nc(c(-c5cc(S(=O)(=O)[O-])ccc5F)c5ccc([nH]5)c(-c5cc(S(=O)(=O)[O-])ccc5F)c5nc(c(-c6cc(S(=O)(=O)[O-])ccc6F)c6ccc3[nH]6)C=C5)C=C4)cc2)c1
REMARK SMILES IDX 26 1 25 2 24 3 23 4 22 5 21 6 19 7 20 8 18 9 14 10 15 11
REMARK SMILES IDX 96 12 16 13 17 14 11 15 12 16 13 17 10 18 1 19 2 20 3 21
REMARK SMILES IDX 4 22 9 23 5 24 8 25 6 26 7 27 27 28 28 29 29 30 30 31 31 32
REMARK SMILES IDX 32 33 33 34 34 35 95 36 35 37 94 38 36 39 37 40 38 41 88 42
REMARK SMILES IDX 39 43 93 44 87 45 89 46 40 47 92 48 86 49 85 50 41 52 73 53
REMARK SMILES IDX 53 54 72 55 54 56 57 57 71 58 90 59 55 60 56 61 70 63 91 64
REMARK SMILES IDX 58 65 42 66 43 67 51 68 44 69 50 70 52 71 49 72 45 73 46 74
REMARK SMILES IDX 47 75 48 76 74 77 75 78 83 79 76 80 82 81 84 82 81 83 77 84
REMARK SMILES IDX 78 85 79 86 80 87 59 88 60 89 68 90 61 91 67 92 69 93 66 94
REMARK SMILES IDX 62 95 63 96 64 97 65 98
REMARK H PARENT 89 51 57 62
REMARK Flexibility Score: inf
ROOT
ATOM      1  C   UNL     1       2.300  -3.791   7.399  1.00  0.00     0.188 C 
ENDROOT
BRANCH   1   2
ATOM      2  C   UNL     1       3.380  -3.943   8.490  1.00  0.00     0.188 C 
BRANCH   2   3
ATOM      3  O   UNL     1       3.018  -3.748   9.838  1.00  0.00    -0.376 OA
BRANCH   3   4
ATOM      4  C   UNL     1       2.793  -2.445  10.351  1.00  0.00     0.202 C 
BRANCH   4   5
ATOM      5  C   UNL     1       3.254  -1.140   9.681  1.00  0.00     0.261 C 
BRANCH   5   6
ATOM      6  O   UNL     1       3.298  -1.130   8.250  1.00  0.00    -0.460 OA
BRANCH   6   7
ATOM      7  C   UNL     1       4.526  -0.886   7.725  1.00  0.00     0.338 C 
ATOM      8  O   UNL     1       5.545  -0.632   8.348  1.00  0.00    -0.246 OA
BRANCH   7   9
ATOM      9  C   UNL     1       4.539  -1.163   6.271  1.00  0.00     0.061 A 
ATOM     10  C   UNL     1       3.642  -1.034   4.038  1.00  0.00     0.088 A 
ATOM     11  C   UNL     1       4.769  -1.715   3.548  1.00  0.00     0.022 A 
ATOM     12  C   UNL     1       3.525  -0.736   5.402  1.00  0.00     0.038 A 
ATOM     13  C   UNL     1       5.747  -2.174   4.424  1.00  0.00     0.002 A 
ATOM     14  C   UNL     1       5.635  -1.894   5.782  1.00  0.00     0.016 A 
BRANCH  10  15
ATOM     15  S   UNL     1       2.481  -0.400   2.851  1.00  0.00     0.264 S 
ATOM     16  O   UNL     1       3.230  -0.159   1.631  1.00  0.00    -0.201 OA
ATOM     17  O   UNL     1       1.789   0.708   3.484  1.00  0.00    -0.201 OA
BRANCH  15  18
ATOM     18  N   UNL     1       1.299  -1.600   2.521  1.00  0.00    -0.263 N 
ATOM     19  C   UNL     1      -0.787  -0.423   1.768  1.00  0.00     0.032 C 
ATOM     20  C   UNL     1       0.439  -1.201   1.319  1.00  0.00     0.101 C 
ATOM     21  C   UNL     1       0.077  -2.501   0.575  1.00  0.00     0.063 C 
ATOM     22  C   UNL     1       1.009  -3.494   1.178  1.00  0.00    -0.021 A 
ATOM     23  C   UNL     1       1.670  -2.972   2.288  1.00  0.00     0.055 A 
ATOM     24  C   UNL     1       1.152  -4.822   0.794  1.00  0.00     0.006 A 
ATOM     25  C   UNL     1       2.386  -3.823   3.111  1.00  0.00     0.027 A 
ATOM     26  C   UNL     1       1.956  -5.653   1.569  1.00  0.00     0.000 A 
ATOM     27  C   UNL     1       2.559  -5.159   2.730  1.00  0.00     0.002 A 
ENDBRANCH  15  18
ENDBRANCH  10  15
ENDBRANCH   7   9
ENDBRANCH   6   7
ENDBRANCH   5   6
ENDBRANCH   4   5
ENDBRANCH   3   4
ENDBRANCH   2   3
ENDBRANCH   1   2
BRANCH   1  28
ATOM     28  O   UNL     1       1.019  -3.277   7.708  1.00  0.00    -0.376 OA
BRANCH  28  29
ATOM     29  C   UNL     1       0.212  -3.933   8.673  1.00  0.00     0.202 C 
BRANCH  29  30
ATOM     30  C   UNL     1       0.072  -5.461   8.737  1.00  0.00     0.261 C 
BRANCH  30  31
ATOM     31  O   UNL     1       1.292  -6.202   8.639  1.00  0.00    -0.460 OA
BRANCH  31  32
ATOM     32  C   UNL     1       1.431  -6.941   7.509  1.00  0.00     0.338 C 
ATOM     33  O   UNL     1       0.645  -7.026   6.580  1.00  0.00    -0.246 OA
BRANCH  32  34
ATOM     34  C   UNL     1       2.799  -7.487   7.473  1.00  0.00     0.060 A 
ATOM     35  C   UNL     1       3.237  -8.371   8.457  1.00  0.00     0.016 A 
ATOM     36  C   UNL     1       3.651  -7.099   6.429  1.00  0.00     0.016 A 
ATOM     37  C   UNL     1       4.536  -8.878   8.387  1.00  0.00     0.010 A 
ATOM     38  C   UNL     1       4.952  -7.597   6.368  1.00  0.00     0.010 A 
ATOM     39  C   UNL     1       5.399  -8.503   7.340  1.00  0.00    -0.014 A 
BRANCH  39  40
ATOM     40  C   UNL     1       6.697  -9.198   7.173  1.00  0.00     0.031 A 
ATOM     41  C   UNL     1       7.998  -8.560   7.547  1.00  0.00     0.074 A 
ATOM     42  C   UNL     1       6.681 -10.436   6.644  1.00  0.00     0.049 A 
ATOM     43  N   UNL     1       9.192  -9.094   7.561  1.00  0.00    -0.248 NA
ATOM     44  C   UNL     1       7.963  -7.146   7.944  1.00  0.00     0.031 C 
ATOM     45  C   UNL     1       5.473 -11.122   6.185  1.00  0.00     0.029 A 
ATOM     46  N   UNL     1       7.691 -11.332   6.404  1.00  0.00    -0.354 N 
ATOM     47  C   UNL     1      10.055  -8.090   7.982  1.00  0.00     0.074 A 
ATOM     48  C   UNL     1       9.250  -6.900   8.167  1.00  0.00     0.031 C 
ATOM     49  C   UNL     1       5.808 -12.340   5.740  1.00  0.00     0.029 A 
ATOM     50  C   UNL     1       7.255 -12.514   5.855  1.00  0.00     0.049 A 
ATOM     51  H   UNL     1       8.636 -11.146   6.605  1.00  0.00     0.167 HD
ATOM     52  C   UNL     1      11.389  -8.172   8.207  1.00  0.00     0.034 A 
ATOM     53  C   UNL     1       7.934 -13.621   5.489  1.00  0.00     0.034 A 
ATOM     54  C   UNL     1      12.167  -9.373   8.009  1.00  0.00     0.049 A 
ATOM     55  C   UNL     1       9.414 -13.691   5.757  1.00  0.00     0.074 A 
ATOM     56  C   UNL     1      13.505  -9.576   8.300  1.00  0.00     0.029 A 
ATOM     57  N   UNL     1      11.698 -10.557   7.456  1.00  0.00    -0.354 N 
ATOM     58  N   UNL     1      10.194 -12.787   6.301  1.00  0.00    -0.248 NA
ATOM     59  C   UNL     1      10.106 -14.933   5.388  1.00  0.00     0.031 C 
ATOM     60  C   UNL     1      13.866 -10.842   7.840  1.00  0.00     0.029 A 
ATOM     61  C   UNL     1      12.734 -11.474   7.351  1.00  0.00     0.049 A 
ATOM     62  H   UNL     1      10.768 -10.721   7.179  1.00  0.00     0.167 HD
ATOM     63  C   UNL     1      11.463 -13.356   6.357  1.00  0.00     0.074 A 
ATOM     64  C   UNL     1      11.339 -14.694   5.817  1.00  0.00     0.031 C 
ATOM     65  C   UNL     1      12.619 -12.812   6.814  1.00  0.00     0.034 A 
BRANCH  52  66
ATOM     66  C   UNL     1      12.123  -6.953   8.716  1.00  0.00     0.023 A 
ATOM     67  C   UNL     1      13.190  -6.413   7.971  1.00  0.00     0.031 A 
ATOM     68  C   UNL     1      11.887  -6.439  10.004  1.00  0.00     0.131 A 
ATOM     69  C   UNL     1      14.007  -5.426   8.536  1.00  0.00     0.055 A 
ATOM     70  C   UNL     1      12.675  -5.421  10.544  1.00  0.00     0.041 A 
ATOM     71  F   UNL     1      10.891  -6.927  10.761  1.00  0.00    -0.206 F 
ATOM     72  C   UNL     1      13.751  -4.921   9.815  1.00  0.00     0.022 A 
BRANCH  69  73
ATOM     73  S   UNL     1      15.483  -4.822   7.672  1.00  0.00     0.124 S 
ATOM     74  O   UNL     1      15.190  -3.397   7.540  1.00  0.00    -0.237 OA
ATOM     75  O   UNL     1      16.547  -5.155   8.616  1.00  0.00    -0.237 OA
ATOM     76  O   UNL     1      15.491  -5.573   6.422  1.00  0.00    -0.744 OA
ENDBRANCH  69  73
ENDBRANCH  52  66
BRANCH  53  77
ATOM     77  C   UNL     1       7.171 -14.760   4.905  1.00  0.00     0.023 A 
ATOM     78  C   UNL     1       6.459 -14.598   3.701  1.00  0.00     0.031 A 
ATOM     79  C   UNL     1       7.011 -15.962   5.612  1.00  0.00     0.131 A 
ATOM     80  C   UNL     1       5.553 -15.582   3.292  1.00  0.00     0.055 A 
ATOM     81  C   UNL     1       6.167 -16.976   5.157  1.00  0.00     0.041 A 
ATOM     82  F   UNL     1       7.655 -16.154   6.774  1.00  0.00    -0.206 F 
ATOM     83  C   UNL     1       5.415 -16.779   4.002  1.00  0.00     0.022 A 
BRANCH  80  84
ATOM     84  S   UNL     1       4.407 -15.271   1.919  1.00  0.00     0.124 S 
ATOM     85  O   UNL     1       4.718 -16.367   1.007  1.00  0.00    -0.237 OA
ATOM     86  O   UNL     1       3.112 -15.354   2.590  1.00  0.00    -0.237 OA
ATOM     87  O   UNL     1       4.779 -13.939   1.454  1.00  0.00    -0.744 OA
ENDBRANCH  80  84
ENDBRANCH  53  77
BRANCH  65  88
ATOM     88  C   UNL     1      13.886 -13.638   6.760  1.00  0.00     0.023 A 
ATOM     89  C   UNL     1      14.587 -13.932   7.947  1.00  0.00     0.031 A 
ATOM     90  C   UNL     1      14.485 -13.986   5.537  1.00  0.00     0.131 A 
ATOM     91  C   UNL     1      15.865 -14.502   7.883  1.00  0.00     0.055 A 
ATOM     92  C   UNL     1      15.735 -14.606   5.480  1.00  0.00     0.041 A 
ATOM     93  F   UNL     1      13.866 -13.719   4.375  1.00  0.00    -0.206 F 
ATOM     94  C   UNL     1      16.438 -14.850   6.656  1.00  0.00     0.022 A 
BRANCH  91  95
ATOM     95  S   UNL     1      16.871 -14.718   9.378  1.00  0.00     0.124 S 
ATOM     96  O   UNL     1      17.091 -16.163   9.387  1.00  0.00    -0.237 OA
ATOM     97  O   UNL     1      18.050 -13.910   9.074  1.00  0.00    -0.237 OA
ATOM     98  O   UNL     1      16.022 -14.212  10.451  1.00  0.00    -0.744 OA
ENDBRANCH  91  95
ENDBRANCH  65  88
ENDBRANCH  39  40
ENDBRANCH  32  34
ENDBRANCH  31  32
ENDBRANCH  30  31
ENDBRANCH  29  30
ENDBRANCH  28  29
ENDBRANCH   1  28
TORSDOF 22
