REMARK SMILES CS(=O)(=O)c1ccc(/C=C(/C(=O)OCCOCCOCCOC(=O)c2ccc(-c3c4nc(c(-c5cc(S(=O)(=O)[O-])ccc5F)c5ccc([nH]5)c(-c5cc(S(=O)(=O)[O-])ccc5F)c5nc(c(-c6cc(S(=O)(=O)[O-])ccc6F)c6ccc3[nH]6)C=C5)C=C4)cc2)c2cccc(-c3ccc(S(C)(=O)=O)cc3)c2)cc1
REMARK SMILES IDX 17 1 16 2 15 3 14 4 13 5 11 6 12 7 10 8 9 9 8 10 5 11 6 12
REMARK SMILES IDX 105 13 7 14 104 15 2 16 1 17 3 18 4 19 88 20 89 21 103 22
REMARK SMILES IDX 90 23 92 24 91 25 93 26 94 27 102 28 95 29 101 30 96 31
REMARK SMILES IDX 97 32 98 33 99 34 100 35 18 36 19 37 20 38 21 39 22 40 23 41
REMARK SMILES IDX 24 42 25 43 26 44 87 45 27 46 86 47 28 48 29 49 30 50 80 51
REMARK SMILES IDX 31 52 85 53 79 54 81 55 32 56 84 57 78 58 77 59 33 61 65 62
REMARK SMILES IDX 45 63 64 64 46 65 49 66 63 67 82 68 47 69 48 70 62 72 83 73
REMARK SMILES IDX 50 74 34 75 35 76 43 77 36 78 42 79 44 80 41 81 37 82 38 83
REMARK SMILES IDX 39 84 40 85 66 86 67 87 75 88 68 89 74 90 76 91 73 92 69 93
REMARK SMILES IDX 70 94 71 95 72 96 51 97 52 98 60 99 53 100 59 101 61 102
REMARK SMILES IDX 58 103 54 104 55 105 56 106 57 107
REMARK H PARENT 81 60 49 71
REMARK Flexibility Score: inf
ROOT
ATOM      1  C   UNL     1       5.116   4.583  -8.678  1.00  0.00     0.188 C 
ENDROOT
BRANCH   1   2
ATOM      2  O   UNL     1       4.946   5.744  -9.459  1.00  0.00    -0.376 OA
BRANCH   2   3
ATOM      3  C   UNL     1       3.689   5.961 -10.075  1.00  0.00     0.202 C 
BRANCH   3   4
ATOM      4  C   UNL     1       2.341   5.627  -9.399  1.00  0.00     0.261 C 
BRANCH   4   5
ATOM      5  O   UNL     1       2.358   4.754  -8.263  1.00  0.00    -0.460 OA
BRANCH   5   6
ATOM      6  C   UNL     1       2.037   3.452  -8.482  1.00  0.00     0.338 C 
ATOM      7  O   UNL     1       1.714   2.982  -9.562  1.00  0.00    -0.246 OA
BRANCH   6   8
ATOM      8  C   UNL     1       2.246   2.624  -7.245  1.00  0.00     0.067 C 
ATOM      9  C   UNL     1       1.842   3.109  -6.043  1.00  0.00     0.024 C 
BRANCH   9  10
ATOM     10  C   UNL     1       1.724   2.394  -4.743  1.00  0.00    -0.025 A 
ATOM     11  C   UNL     1       0.999   0.776  -2.563  1.00  0.00     0.067 A 
ATOM     12  C   UNL     1       2.146   0.477  -3.293  1.00  0.00     0.021 A 
ATOM     13  C   UNL     1       0.278   1.940  -2.830  1.00  0.00     0.021 A 
ATOM     14  C   UNL     1       2.531   1.318  -4.344  1.00  0.00     0.009 A 
ATOM     15  C   UNL     1       0.646   2.745  -3.913  1.00  0.00     0.009 A 
BRANCH  11  16
ATOM     16  S   UNL     1       0.353  -0.405  -1.402  1.00  0.00     0.175 S 
ATOM     17  C   UNL     1       1.053   0.090   0.144  1.00  0.00     0.163 C 
ATOM     18  O   UNL     1       0.901  -1.707  -1.742  1.00  0.00    -0.224 OA
ATOM     19  O   UNL     1      -1.079  -0.199  -1.326  1.00  0.00    -0.224 OA
ENDBRANCH  11  16
ENDBRANCH   9  10
BRANCH   8  20
ATOM     20  C   UNL     1       2.829   1.280  -7.421  1.00  0.00    -0.010 A 
ATOM     21  C   UNL     1       4.204   1.119  -7.648  1.00  0.00     0.009 A 
ATOM     22  C   UNL     1       2.042   0.144  -7.229  1.00  0.00     0.017 A 
ATOM     23  C   UNL     1       4.777  -0.151  -7.659  1.00  0.00     0.001 A 
ATOM     24  C   UNL     1       2.614  -1.138  -7.191  1.00  0.00    -0.018 A 
ATOM     25  C   UNL     1       3.989  -1.272  -7.421  1.00  0.00     0.009 A 
BRANCH  24  26
ATOM     26  C   UNL     1       1.778  -2.292  -6.857  1.00  0.00    -0.018 A 
ATOM     27  C   UNL     1       2.126  -3.159  -5.807  1.00  0.00     0.010 A 
ATOM     28  C   UNL     1       0.579  -2.517  -7.553  1.00  0.00     0.010 A 
ATOM     29  C   UNL     1       1.299  -4.227  -5.463  1.00  0.00     0.021 A 
ATOM     30  C   UNL     1      -0.252  -3.581  -7.219  1.00  0.00     0.021 A 
ATOM     31  C   UNL     1       0.121  -4.437  -6.184  1.00  0.00     0.067 A 
BRANCH  31  32
ATOM     32  S   UNL     1      -0.899  -5.829  -5.788  1.00  0.00     0.175 S 
ATOM     33  C   UNL     1       0.081  -7.207  -6.325  1.00  0.00     0.163 C 
ATOM     34  O   UNL     1      -1.024  -5.884  -4.344  1.00  0.00    -0.224 OA
ATOM     35  O   UNL     1      -2.084  -5.769  -6.626  1.00  0.00    -0.224 OA
ENDBRANCH  31  32
ENDBRANCH  24  26
ENDBRANCH   8  20
ENDBRANCH   6   8
ENDBRANCH   5   6
ENDBRANCH   4   5
ENDBRANCH   3   4
ENDBRANCH   2   3
ENDBRANCH   1   2
BRANCH   1  36
ATOM     36  C   UNL     1       5.008   4.856  -7.161  1.00  0.00     0.188 C 
BRANCH  36  37
ATOM     37  O   UNL     1       4.754   6.171  -6.691  1.00  0.00    -0.376 OA
BRANCH  37  38
ATOM     38  C   UNL     1       5.501   7.250  -7.231  1.00  0.00     0.202 C 
BRANCH  38  39
ATOM     39  C   UNL     1       7.032   7.168  -7.399  1.00  0.00     0.261 C 
BRANCH  39  40
ATOM     40  O   UNL     1       7.593   5.895  -7.760  1.00  0.00    -0.460 OA
BRANCH  40  41
ATOM     41  C   UNL     1       8.189   5.209  -6.748  1.00  0.00     0.338 C 
ATOM     42  O   UNL     1       8.295   5.565  -5.590  1.00  0.00    -0.246 OA
BRANCH  41  43
ATOM     43  C   UNL     1       8.529   3.843  -7.215  1.00  0.00     0.060 A 
ATOM     44  C   UNL     1       7.936   2.748  -6.571  1.00  0.00     0.016 A 
ATOM     45  C   UNL     1       9.447   3.636  -8.245  1.00  0.00     0.016 A 
ATOM     46  C   UNL     1       8.262   1.445  -6.953  1.00  0.00     0.010 A 
ATOM     47  C   UNL     1       9.793   2.327  -8.609  1.00  0.00     0.010 A 
ATOM     48  C   UNL     1       9.213   1.224  -7.957  1.00  0.00    -0.014 A 
BRANCH  48  49
ATOM     49  C   UNL     1       9.717  -0.152  -8.206  1.00  0.00     0.031 A 
ATOM     50  C   UNL     1      10.950  -0.612  -7.476  1.00  0.00     0.074 A 
ATOM     51  C   UNL     1       9.085  -0.991  -9.047  1.00  0.00     0.049 A 
ATOM     52  N   UNL     1      11.599  -1.743  -7.571  1.00  0.00    -0.248 NA
ATOM     53  C   UNL     1      11.527   0.341  -6.517  1.00  0.00     0.031 C 
ATOM     54  C   UNL     1       7.862  -0.681  -9.783  1.00  0.00     0.029 A 
ATOM     55  N   UNL     1       9.386  -2.278  -9.425  1.00  0.00    -0.354 N 
ATOM     56  C   UNL     1      12.671  -1.638  -6.691  1.00  0.00     0.074 A 
ATOM     57  C   UNL     1      12.593  -0.321  -6.093  1.00  0.00     0.031 C 
ATOM     58  C   UNL     1       7.508  -1.754 -10.512  1.00  0.00     0.029 A 
ATOM     59  C   UNL     1       8.515  -2.803 -10.352  1.00  0.00     0.049 A 
ATOM     60  H   UNL     1      10.155  -2.778  -9.065  1.00  0.00     0.167 HD
ATOM     61  C   UNL     1      13.632  -2.553  -6.410  1.00  0.00     0.034 A 
ATOM     62  C   UNL     1       8.547  -3.974 -11.022  1.00  0.00     0.034 A 
ATOM     63  C   UNL     1      13.718  -3.849  -7.037  1.00  0.00     0.049 A 
ATOM     64  C   UNL     1       9.690  -4.935 -10.771  1.00  0.00     0.074 A 
ATOM     65  C   UNL     1      14.650  -4.849  -6.821  1.00  0.00     0.029 A 
ATOM     66  N   UNL     1      12.856  -4.320  -8.020  1.00  0.00    -0.354 N 
ATOM     67  N   UNL     1      10.695  -4.827  -9.932  1.00  0.00    -0.248 NA
ATOM     68  C   UNL     1       9.703  -6.173 -11.564  1.00  0.00     0.031 C 
ATOM     69  C   UNL     1      14.406  -5.883  -7.731  1.00  0.00     0.029 A 
ATOM     70  C   UNL     1      13.261  -5.576  -8.449  1.00  0.00     0.049 A 
ATOM     71  H   UNL     1      12.072  -3.834  -8.362  1.00  0.00     0.167 HD
ATOM     72  C   UNL     1      11.441  -5.996 -10.079  1.00  0.00     0.074 A 
ATOM     73  C   UNL     1      10.760  -6.801 -11.070  1.00  0.00     0.031 C 
ATOM     74  C   UNL     1      12.584  -6.371  -9.448  1.00  0.00     0.034 A 
BRANCH  61  75
ATOM     75  C   UNL     1      14.707  -2.146  -5.430  1.00  0.00     0.023 A 
ATOM     76  C   UNL     1      14.412  -1.846  -4.089  1.00  0.00     0.031 A 
ATOM     77  C   UNL     1      16.042  -2.019  -5.854  1.00  0.00     0.131 A 
ATOM     78  C   UNL     1      15.420  -1.361  -3.243  1.00  0.00     0.055 A 
ATOM     79  C   UNL     1      17.057  -1.621  -4.983  1.00  0.00     0.041 A 
ATOM     80  F   UNL     1      16.380  -2.266  -7.130  1.00  0.00    -0.206 F 
ATOM     81  C   UNL     1      16.746  -1.273  -3.673  1.00  0.00     0.022 A 
BRANCH  78  82
ATOM     82  S   UNL     1      14.943  -0.694  -1.625  1.00  0.00     0.124 S 
ATOM     83  O   UNL     1      13.988   0.344  -2.005  1.00  0.00    -0.237 OA
ATOM     84  O   UNL     1      14.384  -1.861  -0.955  1.00  0.00    -0.237 OA
ATOM     85  O   UNL     1      16.203  -0.199  -1.074  1.00  0.00    -0.744 OA
ENDBRANCH  78  82
ENDBRANCH  61  75
BRANCH  62  86
ATOM     86  C   UNL     1       7.508  -4.295 -12.047  1.00  0.00     0.023 A 
ATOM     87  C   UNL     1       6.679  -5.422 -11.916  1.00  0.00     0.031 A 
ATOM     88  C   UNL     1       7.380  -3.518 -13.213  1.00  0.00     0.131 A 
ATOM     89  C   UNL     1       5.795  -5.766 -12.952  1.00  0.00     0.055 A 
ATOM     90  C   UNL     1       6.455  -3.829 -14.211  1.00  0.00     0.041 A 
ATOM     91  F   UNL     1       8.155  -2.438 -13.398  1.00  0.00    -0.206 F 
ATOM     92  C   UNL     1       5.665  -4.967 -14.090  1.00  0.00     0.022 A 
BRANCH  89  93
ATOM     93  S   UNL     1       4.888  -7.333 -12.837  1.00  0.00     0.124 S 
ATOM     94  O   UNL     1       5.978  -8.299 -12.754  1.00  0.00    -0.237 OA
ATOM     95  O   UNL     1       4.106  -7.143 -11.619  1.00  0.00    -0.237 OA
ATOM     96  O   UNL     1       4.113  -7.370 -14.075  1.00  0.00    -0.744 OA
ENDBRANCH  89  93
ENDBRANCH  62  86
BRANCH  74  97
ATOM     97  C   UNL     1      13.145  -7.738  -9.774  1.00  0.00     0.023 A 
ATOM     98  C   UNL     1      13.633  -8.059 -11.054  1.00  0.00     0.031 A 
ATOM     99  C   UNL     1      13.191  -8.737  -8.784  1.00  0.00     0.131 A 
ATOM    100  C   UNL     1      14.090  -9.360 -11.324  1.00  0.00     0.055 A 
ATOM    101  C   UNL     1      13.711 -10.007  -9.040  1.00  0.00     0.041 A 
ATOM    102  F   UNL     1      12.734  -8.493  -7.545  1.00  0.00    -0.206 F 
ATOM    103  C   UNL     1      14.152 -10.329 -10.319  1.00  0.00     0.022 A 
BRANCH 100 104
ATOM    104  S   UNL     1      14.507  -9.801 -13.034  1.00  0.00     0.124 S 
ATOM    105  O   UNL     1      13.258  -9.518 -13.732  1.00  0.00    -0.237 OA
ATOM    106  O   UNL     1      15.619  -8.903 -13.326  1.00  0.00    -0.237 OA
ATOM    107  O   UNL     1      14.861 -11.217 -12.946  1.00  0.00    -0.744 OA
ENDBRANCH 100 104
ENDBRANCH  74  97
ENDBRANCH  48  49
ENDBRANCH  41  43
ENDBRANCH  40  41
ENDBRANCH  39  40
ENDBRANCH  38  39
ENDBRANCH  37  38
ENDBRANCH  36  37
ENDBRANCH   1  36
TORSDOF 25
