REMARK SMILES Cc1ccc(NC(=O)[C@H]2CC=CC[C@H]2C(=O)OCCOCCOCCOC(=O)c2ccc(-c3c4nc(c(-c5cc(S(=O)(=O)[O-])ccc5F)c5ccc([nH]5)c(-c5cc(S(=O)(=O)[O-])ccc5F)c5nc(c(-c6cc(S(=O)(=O)[O-])ccc6F)c6ccc3[nH]6)C=C5)C=C4)cc2)cc1F
REMARK SMILES IDX 22 1 21 2 20 3 19 4 18 5 17 6 15 7 16 8 14 9 9 10 10 11
REMARK SMILES IDX 11 12 13 13 12 14 7 15 6 16 8 18 5 19 1 20 2 21 3 22 93 23
REMARK SMILES IDX 4 24 92 25 94 26 23 27 24 28 25 29 26 30 27 31 28 32 29 33
REMARK SMILES IDX 30 34 91 35 31 36 90 37 32 38 33 39 34 40 84 41 35 42 89 43
REMARK SMILES IDX 83 44 85 45 36 46 88 47 82 48 81 49 37 51 69 52 49 53 68 54
REMARK SMILES IDX 50 55 53 56 67 57 86 58 51 59 52 60 66 62 87 63 54 64 38 65
REMARK SMILES IDX 39 66 47 67 40 68 46 69 48 70 45 71 41 72 42 73 43 74 44 75
REMARK SMILES IDX 70 76 71 77 79 78 72 79 78 80 80 81 77 82 73 83 74 84 75 85
REMARK SMILES IDX 76 86 55 87 56 88 64 89 57 90 63 91 65 92 62 93 58 94 59 95
REMARK SMILES IDX 60 96 61 97
REMARK H PARENT 6 17 85 50 53 61
REMARK Flexibility Score: inf
ROOT
ATOM      1  C   UNL     1      -0.977   0.235   0.191  1.00  0.00     0.188 C 
ENDROOT
BRANCH   1   2
ATOM      2  C   UNL     1      -0.931   0.055  -1.983  1.00  0.00     0.188 C 
BRANCH   2   3
ATOM      3  O   UNL     1      -1.896   0.627  -3.089  1.00  0.00    -0.376 OA
BRANCH   3   4
ATOM      4  C   UNL     1      -3.076  -0.082  -3.513  1.00  0.00     0.202 C 
BRANCH   4   5
ATOM      5  C   UNL     1      -3.004  -1.501  -4.102  1.00  0.00     0.261 C 
BRANCH   5   6
ATOM      6  O   UNL     1      -2.776  -2.563  -3.146  1.00  0.00    -0.463 OA
BRANCH   6   7
ATOM      7  C   UNL     1      -1.571  -3.185  -3.184  1.00  0.00     0.310 C 
ATOM      8  O   UNL     1      -0.730  -2.951  -4.048  1.00  0.00    -0.252 OA
BRANCH   7   9
ATOM      9  C   UNL     1      -1.353  -4.291  -2.141  1.00  0.00     0.116 C 
ATOM     10  C   UNL     1      -1.811  -4.191  -0.660  1.00  0.00     0.097 C 
ATOM     11  C   UNL     1      -1.588  -5.495   0.139  1.00  0.00     0.041 C 
ATOM     12  C   UNL     1      -1.512  -6.757  -0.660  1.00  0.00    -0.030 C 
ATOM     13  C   UNL     1      -1.853  -5.572  -2.815  1.00  0.00     0.043 C 
ATOM     14  C   UNL     1      -1.643  -6.797  -1.989  1.00  0.00    -0.030 C 
BRANCH  10  15
ATOM     15  C   UNL     1      -3.124  -3.470  -0.462  1.00  0.00     0.228 C 
ATOM     16  N   UNL     1      -3.155  -2.099  -0.592  1.00  0.00    -0.326 N 
ATOM     17  H   UNL     1      -4.056  -1.706  -0.526  1.00  0.00     0.169 HD
ATOM     18  O   UNL     1      -4.174  -4.071  -0.225  1.00  0.00    -0.274 OA
BRANCH  16  19
ATOM     19  C   UNL     1      -2.118  -1.152  -0.805  1.00  0.00     0.044 A 
ATOM     20  C   UNL     1       1.582   2.367  -0.864  1.00  0.00     0.047 C 
ATOM     21  C   UNL     1       0.430   1.412  -0.935  1.00  0.00    -0.015 A 
ATOM     22  C   UNL     1      -1.296   1.899  -1.043  1.00  0.00     0.008 A 
ATOM     23  C   UNL     1       0.881  -0.295  -0.844  1.00  0.00     0.128 A 
ATOM     24  C   UNL     1      -2.592   0.625  -0.925  1.00  0.00     0.026 A 
ATOM     25  C   UNL     1      -0.350  -1.562  -0.739  1.00  0.00     0.065 A 
ATOM     26  F   UNL     1       2.173  -0.642  -0.789  1.00  0.00    -0.207 F 
ENDBRANCH  16  19
ENDBRANCH  10  15
ENDBRANCH   7   9
ENDBRANCH   6   7
ENDBRANCH   5   6
ENDBRANCH   4   5
ENDBRANCH   3   4
ENDBRANCH   2   3
ENDBRANCH   1   2
BRANCH   1  27
ATOM     27  O   UNL     1      -2.017  -0.375   1.264  1.00  0.00    -0.376 OA
BRANCH  27  28
ATOM     28  C   UNL     1      -3.239   0.242   1.722  1.00  0.00     0.202 C 
BRANCH  28  29
ATOM     29  C   UNL     1      -3.230   1.678   2.265  1.00  0.00     0.261 C 
BRANCH  29  30
ATOM     30  O   UNL     1      -1.944   2.138   2.594  1.00  0.00    -0.460 OA
BRANCH  30  31
ATOM     31  C   UNL     1      -1.272   1.238   3.341  1.00  0.00     0.338 C 
ATOM     32  O   UNL     1      -1.734   0.419   4.110  1.00  0.00    -0.246 OA
BRANCH  31  33
ATOM     33  C   UNL     1       0.112   1.334   2.911  1.00  0.00     0.060 A 
ATOM     34  C   UNL     1       0.885   0.160   2.837  1.00  0.00     0.016 A 
ATOM     35  C   UNL     1       0.633   2.616   2.722  1.00  0.00     0.016 A 
ATOM     36  C   UNL     1       2.241   0.284   2.847  1.00  0.00     0.010 A 
ATOM     37  C   UNL     1       1.979   2.738   2.836  1.00  0.00     0.010 A 
ATOM     38  C   UNL     1       2.663   1.556   3.153  1.00  0.00    -0.014 A 
BRANCH  38  39
ATOM     39  C   UNL     1       3.438   1.708   4.369  1.00  0.00     0.031 A 
ATOM     40  C   UNL     1       4.845   1.997   4.093  1.00  0.00     0.074 A 
ATOM     41  C   UNL     1       2.670   1.855   5.489  1.00  0.00     0.049 A 
ATOM     42  N   UNL     1       5.798   1.912   4.943  1.00  0.00    -0.248 NA
ATOM     43  C   UNL     1       5.337   2.275   2.727  1.00  0.00     0.031 C 
ATOM     44  C   UNL     1       2.810   2.796   6.594  1.00  0.00     0.029 A 
ATOM     45  N   UNL     1       1.465   1.237   5.833  1.00  0.00    -0.354 N 
ATOM     46  C   UNL     1       6.811   2.659   4.381  1.00  0.00     0.074 A 
ATOM     47  C   UNL     1       6.616   2.576   2.961  1.00  0.00     0.031 C 
ATOM     48  C   UNL     1       1.915   2.498   7.564  1.00  0.00     0.029 A 
ATOM     49  C   UNL     1       1.261   1.250   7.206  1.00  0.00     0.049 A 
ATOM     50  H   UNL     1       0.840   0.842   5.183  1.00  0.00     0.167 HD
ATOM     51  C   UNL     1       7.436   3.566   5.180  1.00  0.00     0.034 A 
ATOM     52  C   UNL     1       1.304   0.105   7.962  1.00  0.00     0.034 A 
ATOM     53  C   UNL     1       6.896   3.455   6.545  1.00  0.00     0.049 A 
ATOM     54  C   UNL     1       2.611   0.041   8.732  1.00  0.00     0.074 A 
ATOM     55  C   UNL     1       5.965   4.210   7.238  1.00  0.00     0.029 A 
ATOM     56  N   UNL     1       6.984   2.237   7.214  1.00  0.00    -0.354 N 
ATOM     57  N   UNL     1       3.655   0.761   8.435  1.00  0.00    -0.248 NA
ATOM     58  C   UNL     1       2.849  -0.843   9.868  1.00  0.00     0.031 C 
ATOM     59  C   UNL     1       5.451   3.404   8.296  1.00  0.00     0.029 A 
ATOM     60  C   UNL     1       6.058   2.159   8.243  1.00  0.00     0.049 A 
ATOM     61  H   UNL     1       7.622   1.523   6.986  1.00  0.00     0.167 HD
ATOM     62  C   UNL     1       4.700   0.424   9.237  1.00  0.00     0.074 A 
ATOM     63  C   UNL     1       4.128  -0.545  10.156  1.00  0.00     0.031 C 
ATOM     64  C   UNL     1       5.950   0.939   9.050  1.00  0.00     0.034 A 
BRANCH  51  65
ATOM     65  C   UNL     1       8.268   4.738   4.699  1.00  0.00     0.023 A 
ATOM     66  C   UNL     1       8.598   5.027   3.353  1.00  0.00     0.031 A 
ATOM     67  C   UNL     1       8.757   5.657   5.650  1.00  0.00     0.131 A 
ATOM     68  C   UNL     1       9.371   6.156   3.007  1.00  0.00     0.055 A 
ATOM     69  C   UNL     1       9.521   6.776   5.307  1.00  0.00     0.041 A 
ATOM     70  F   UNL     1       8.499   5.516   6.958  1.00  0.00    -0.206 F 
ATOM     71  C   UNL     1       9.836   7.031   3.983  1.00  0.00     0.022 A 
BRANCH  68  72
ATOM     72  S   UNL     1       9.792   6.540   1.279  1.00  0.00     0.124 S 
ATOM     73  O   UNL     1       9.247   7.888   1.119  1.00  0.00    -0.237 OA
ATOM     74  O   UNL     1      11.250   6.458   1.286  1.00  0.00    -0.237 OA
ATOM     75  O   UNL     1       9.110   5.505   0.508  1.00  0.00    -0.744 OA
ENDBRANCH  68  72
ENDBRANCH  51  65
BRANCH  52  76
ATOM     76  C   UNL     1       0.716  -1.098   7.296  1.00  0.00     0.023 A 
ATOM     77  C   UNL     1       1.555  -1.965   6.586  1.00  0.00     0.031 A 
ATOM     78  C   UNL     1      -0.663  -1.119   7.011  1.00  0.00     0.131 A 
ATOM     79  C   UNL     1       1.051  -2.644   5.468  1.00  0.00     0.055 A 
ATOM     80  C   UNL     1      -1.169  -1.836   5.925  1.00  0.00     0.041 A 
ATOM     81  F   UNL     1      -1.512  -0.336   7.700  1.00  0.00    -0.206 F 
ATOM     82  C   UNL     1      -0.297  -2.550   5.108  1.00  0.00     0.022 A 
BRANCH  79  83
ATOM     83  S   UNL     1       2.237  -3.428   4.338  1.00  0.00     0.124 S 
ATOM     84  O   UNL     1       1.475  -3.564   3.096  1.00  0.00    -0.237 OA
ATOM     85  O   UNL     1       3.318  -2.454   4.284  1.00  0.00    -0.237 OA
ATOM     86  O   UNL     1       2.534  -4.674   5.034  1.00  0.00    -0.744 OA
ENDBRANCH  79  83
ENDBRANCH  52  76
BRANCH  64  87
ATOM     87  C   UNL     1       7.194   0.375   9.685  1.00  0.00     0.023 A 
ATOM     88  C   UNL     1       8.368   1.162   9.684  1.00  0.00     0.031 A 
ATOM     89  C   UNL     1       7.329  -0.933  10.178  1.00  0.00     0.131 A 
ATOM     90  C   UNL     1       9.577   0.663  10.169  1.00  0.00     0.055 A 
ATOM     91  C   UNL     1       8.505  -1.385  10.779  1.00  0.00     0.041 A 
ATOM     92  F   UNL     1       6.360  -1.849  10.048  1.00  0.00    -0.206 F 
ATOM     93  C   UNL     1       9.639  -0.588  10.771  1.00  0.00     0.022 A 
BRANCH  90  94
ATOM     94  S   UNL     1      11.122   1.566   9.893  1.00  0.00     0.124 S 
ATOM     95  O   UNL     1      11.426   2.048  11.238  1.00  0.00    -0.237 OA
ATOM     96  O   UNL     1      12.004   0.514   9.391  1.00  0.00    -0.237 OA
ATOM     97  O   UNL     1      10.764   2.589   8.919  1.00  0.00    -0.744 OA
ENDBRANCH  90  94
ENDBRANCH  64  87
ENDBRANCH  38  39
ENDBRANCH  31  33
ENDBRANCH  30  31
ENDBRANCH  29  30
ENDBRANCH  28  29
ENDBRANCH  27  28
ENDBRANCH   1  27
TORSDOF 22
