REMARK SMILES O=C(OCCOCCOCCOC(=O)c1ccc(S(=O)(=O)Cc2ncccn2)c(F)c1)c1ccc(-c2c3nc(c(-c4cc(S(=O)(=O)[O-])ccc4F)c4ccc([nH]4)c(-c4cc(S(=O)(=O)[O-])ccc4F)c4nc(c(-c5cc(S(=O)(=O)[O-])ccc5F)c5ccc2[nH]5)C=C4)C=C3)cc1
REMARK SMILES IDX 7 1 6 2 5 3 4 4 3 5 2 6 1 7 32 8 33 9 94 10 34 11 93 12
REMARK SMILES IDX 35 13 36 14 37 15 87 16 38 17 92 18 86 19 88 20 39 21 91 22
REMARK SMILES IDX 85 23 84 24 40 26 72 27 52 28 71 29 53 30 56 31 70 32 89 33
REMARK SMILES IDX 54 34 55 35 69 37 90 38 57 39 41 40 42 41 50 42 43 43 49 44
REMARK SMILES IDX 51 45 48 46 44 47 45 48 46 49 47 50 73 51 74 52 82 53 75 54
REMARK SMILES IDX 81 55 83 56 80 57 76 58 77 59 78 60 79 61 58 62 59 63 67 64
REMARK SMILES IDX 60 65 66 66 68 67 65 68 61 69 62 70 63 71 64 72 8 73 9 74
REMARK SMILES IDX 10 75 11 76 12 77 13 78 14 79 15 80 16 81 31 82 17 83 29 84
REMARK SMILES IDX 18 85 30 86 19 87 20 88 21 89 22 90 23 91 24 92 28 93 25 94
REMARK SMILES IDX 27 95 26 96
REMARK H PARENT 88 25 56 36
REMARK Flexibility Score: inf
ROOT
ATOM      1  C   UNL     1       2.523  -0.930  -2.006  1.00  0.00     0.188 C 
ENDROOT
BRANCH   1   2
ATOM      2  O   UNL     1       3.807  -0.394  -1.663  1.00  0.00    -0.376 OA
BRANCH   2   3
ATOM      3  C   UNL     1       4.652  -1.316  -0.964  1.00  0.00     0.202 C 
BRANCH   3   4
ATOM      4  C   UNL     1       4.460  -1.325   0.558  1.00  0.00     0.261 C 
BRANCH   4   5
ATOM      5  O   UNL     1       3.083  -1.140   0.923  1.00  0.00    -0.460 OA
BRANCH   5   6
ATOM      6  C   UNL     1       2.451   0.022   1.231  1.00  0.00     0.338 C 
ATOM      7  O   UNL     1       1.251  -0.025   1.506  1.00  0.00    -0.246 OA
BRANCH   6   8
ATOM      8  C   UNL     1       3.133   1.354   1.293  1.00  0.00     0.060 A 
ATOM      9  C   UNL     1       4.277   1.709   0.577  1.00  0.00     0.016 A 
ATOM     10  C   UNL     1       2.545   2.334   2.113  1.00  0.00     0.016 A 
ATOM     11  C   UNL     1       4.908   2.930   0.782  1.00  0.00     0.010 A 
ATOM     12  C   UNL     1       3.138   3.591   2.276  1.00  0.00     0.010 A 
ATOM     13  C   UNL     1       4.357   3.871   1.650  1.00  0.00    -0.014 A 
BRANCH  13  14
ATOM     14  C   UNL     1       5.161   5.064   1.992  1.00  0.00     0.031 A 
ATOM     15  C   UNL     1       5.835   5.105   3.334  1.00  0.00     0.074 A 
ATOM     16  C   UNL     1       5.405   6.005   1.061  1.00  0.00     0.049 A 
ATOM     17  N   UNL     1       6.581   6.040   3.855  1.00  0.00    -0.248 NA
ATOM     18  C   UNL     1       5.667   3.921   4.196  1.00  0.00     0.031 C 
ATOM     19  C   UNL     1       4.902   5.974  -0.312  1.00  0.00     0.029 A 
ATOM     20  N   UNL     1       6.158   7.148   1.110  1.00  0.00    -0.354 N 
ATOM     21  C   UNL     1       6.966   5.563   5.102  1.00  0.00     0.074 A 
ATOM     22  C   UNL     1       6.358   4.263   5.272  1.00  0.00     0.031 C 
ATOM     23  C   UNL     1       5.363   7.045  -0.978  1.00  0.00     0.029 A 
ATOM     24  C   UNL     1       6.153   7.864  -0.066  1.00  0.00     0.049 A 
ATOM     25  H   UNL     1       6.655   7.432   1.911  1.00  0.00     0.167 HD
ATOM     26  C   UNL     1       7.761   6.161   6.018  1.00  0.00     0.034 A 
ATOM     27  C   UNL     1       6.702   9.059  -0.359  1.00  0.00     0.034 A 
ATOM     28  C   UNL     1       8.350   7.457   5.822  1.00  0.00     0.049 A 
ATOM     29  C   UNL     1       7.470   9.765   0.728  1.00  0.00     0.074 A 
ATOM     30  C   UNL     1       9.118   8.199   6.701  1.00  0.00     0.029 A 
ATOM     31  N   UNL     1       8.233   8.206   4.658  1.00  0.00    -0.354 N 
ATOM     32  N   UNL     1       7.755   9.342   1.939  1.00  0.00    -0.248 NA
ATOM     33  C   UNL     1       7.976  11.108   0.422  1.00  0.00     0.031 C 
ATOM     34  C   UNL     1       9.425   9.416   6.084  1.00  0.00     0.029 A 
ATOM     35  C   UNL     1       8.894   9.411   4.802  1.00  0.00     0.049 A 
ATOM     36  H   UNL     1       7.751   7.919   3.849  1.00  0.00     0.167 HD
ATOM     37  C   UNL     1       8.475  10.367   2.539  1.00  0.00     0.074 A 
ATOM     38  C   UNL     1       8.599  11.421   1.550  1.00  0.00     0.031 C 
ATOM     39  C   UNL     1       8.985  10.438   3.793  1.00  0.00     0.034 A 
BRANCH  26  40
ATOM     40  C   UNL     1       7.971   5.446   7.322  1.00  0.00     0.023 A 
ATOM     41  C   UNL     1       8.783   4.303   7.416  1.00  0.00     0.031 A 
ATOM     42  C   UNL     1       7.327   5.904   8.485  1.00  0.00     0.131 A 
ATOM     43  C   UNL     1       8.900   3.633   8.644  1.00  0.00     0.055 A 
ATOM     44  C   UNL     1       7.490   5.264   9.714  1.00  0.00     0.041 A 
ATOM     45  F   UNL     1       6.518   6.974   8.439  1.00  0.00    -0.206 F 
ATOM     46  C   UNL     1       8.277   4.119   9.797  1.00  0.00     0.022 A 
BRANCH  43  47
ATOM     47  S   UNL     1       9.828   2.076   8.710  1.00  0.00     0.124 S 
ATOM     48  O   UNL     1       8.947   1.177   7.968  1.00  0.00    -0.237 OA
ATOM     49  O   UNL     1      11.084   2.421   8.052  1.00  0.00    -0.237 OA
ATOM     50  O   UNL     1       9.932   1.800  10.141  1.00  0.00    -0.744 OA
ENDBRANCH  43  47
ENDBRANCH  26  40
BRANCH  27  51
ATOM     51  C   UNL     1       6.482   9.691  -1.692  1.00  0.00     0.023 A 
ATOM     52  C   UNL     1       7.543   9.933  -2.578  1.00  0.00     0.031 A 
ATOM     53  C   UNL     1       5.191  10.086  -2.089  1.00  0.00     0.131 A 
ATOM     54  C   UNL     1       7.296  10.571  -3.807  1.00  0.00     0.055 A 
ATOM     55  C   UNL     1       4.944  10.680  -3.328  1.00  0.00     0.041 A 
ATOM     56  F   UNL     1       4.143   9.890  -1.276  1.00  0.00    -0.206 F 
ATOM     57  C   UNL     1       6.003  10.934  -4.192  1.00  0.00     0.022 A 
BRANCH  54  58
ATOM     58  S   UNL     1       8.702  10.969  -4.883  1.00  0.00     0.124 S 
ATOM     59  O   UNL     1       9.487  11.858  -4.034  1.00  0.00    -0.237 OA
ATOM     60  O   UNL     1       9.275   9.651  -5.135  1.00  0.00    -0.237 OA
ATOM     61  O   UNL     1       8.077  11.604  -6.042  1.00  0.00    -0.744 OA
ENDBRANCH  54  58
ENDBRANCH  27  51
BRANCH  39  62
ATOM     62  C   UNL     1       9.730  11.689   4.157  1.00  0.00     0.023 A 
ATOM     63  C   UNL     1       9.045  12.883   4.430  1.00  0.00     0.031 A 
ATOM     64  C   UNL     1      11.128  11.666   4.292  1.00  0.00     0.131 A 
ATOM     65  C   UNL     1       9.767  14.022   4.808  1.00  0.00     0.055 A 
ATOM     66  C   UNL     1      11.837  12.791   4.708  1.00  0.00     0.041 A 
ATOM     67  F   UNL     1      11.819  10.541   4.047  1.00  0.00    -0.206 F 
ATOM     68  C   UNL     1      11.156  13.979   4.966  1.00  0.00     0.022 A 
BRANCH  65  69
ATOM     69  S   UNL     1       8.869  15.571   5.085  1.00  0.00     0.124 S 
ATOM     70  O   UNL     1       8.413  15.900   3.738  1.00  0.00    -0.237 OA
ATOM     71  O   UNL     1       7.831  15.173   6.030  1.00  0.00    -0.237 OA
ATOM     72  O   UNL     1       9.889  16.465   5.631  1.00  0.00    -0.744 OA
ENDBRANCH  65  69
ENDBRANCH  39  62
ENDBRANCH  13  14
ENDBRANCH   6   8
ENDBRANCH   5   6
ENDBRANCH   4   5
ENDBRANCH   3   4
ENDBRANCH   2   3
ENDBRANCH   1   2
BRANCH   1  73
ATOM     73  C   UNL     1       2.024  -0.372  -3.343  1.00  0.00     0.188 C 
BRANCH  73  74
ATOM     74  O   UNL     1       2.721  -0.845  -4.497  1.00  0.00    -0.376 OA
BRANCH  74  75
ATOM     75  C   UNL     1       4.114  -0.546  -4.568  1.00  0.00     0.202 C 
BRANCH  75  76
ATOM     76  C   UNL     1       4.490   0.908  -4.873  1.00  0.00     0.261 C 
BRANCH  76  77
ATOM     77  O   UNL     1       3.927   1.879  -3.970  1.00  0.00    -0.460 OA
BRANCH  77  78
ATOM     78  C   UNL     1       3.181   2.831  -4.574  1.00  0.00     0.338 C 
ATOM     79  O   UNL     1       2.890   2.883  -5.770  1.00  0.00    -0.246 OA
BRANCH  78  80
ATOM     80  C   UNL     1       2.757   3.905  -3.656  1.00  0.00     0.063 A 
ATOM     81  C   UNL     1       2.849   5.216  -4.141  1.00  0.00     0.017 A 
ATOM     82  C   UNL     1       2.152   3.661  -2.419  1.00  0.00     0.056 A 
ATOM     83  C   UNL     1       2.278   6.269  -3.430  1.00  0.00     0.024 A 
ATOM     84  C   UNL     1       1.583   4.727  -1.710  1.00  0.00     0.142 A 
ATOM     85  C   UNL     1       1.604   6.015  -2.229  1.00  0.00     0.103 A 
ATOM     86  F   UNL     1       1.029   4.470  -0.519  1.00  0.00    -0.206 F 
BRANCH  85  87
ATOM     87  S   UNL     1       0.796   7.380  -1.450  1.00  0.00     0.188 S 
ATOM     88  O   UNL     1       1.784   7.936  -0.545  1.00  0.00    -0.223 OA
ATOM     89  O   UNL     1       0.280   8.205  -2.534  1.00  0.00    -0.223 OA
BRANCH  87  90
ATOM     90  C   UNL     1      -0.557   6.865  -0.459  1.00  0.00     0.219 C 
BRANCH  90  91
ATOM     91  C   UNL     1      -1.598   6.207  -1.299  1.00  0.00     0.143 A 
ATOM     92  N   UNL     1      -1.607   4.861  -1.342  1.00  0.00    -0.240 NA
ATOM     93  N   UNL     1      -2.567   6.975  -1.835  1.00  0.00    -0.240 NA
ATOM     94  C   UNL     1      -2.639   4.274  -1.976  1.00  0.00     0.115 A 
ATOM     95  C   UNL     1      -3.566   6.341  -2.478  1.00  0.00     0.115 A 
ATOM     96  C   UNL     1      -3.658   4.974  -2.572  1.00  0.00     0.040 A 
ENDBRANCH  90  91
ENDBRANCH  87  90
ENDBRANCH  85  87
ENDBRANCH  78  80
ENDBRANCH  77  78
ENDBRANCH  76  77
ENDBRANCH  75  76
ENDBRANCH  74  75
ENDBRANCH  73  74
ENDBRANCH   1  73
TORSDOF 23
