REMARK SMILES CC(C)(C)OC(=O)N1CCC2(CC1)C[C@@H](C(=O)OCCOCCOCCOC(=O)c1ccc(-c3c4nc(c(-c5cc(S(=O)(=O)[O-])ccc5F)c5ccc([nH]5)c(-c5cc(S(=O)(=O)[O-])ccc5F)c5nc(c(-c6cc(S(=O)(=O)[O-])ccc6F)c6ccc3[nH]6)C=C5)C=C4)cc1)CO2
REMARK SMILES IDX 23 1 22 2 21 3 20 4 19 5 18 6 16 7 17 8 15 9 6 10 7 11 8 12
REMARK SMILES IDX 9 13 13 14 10 15 12 16 11 17 14 18 94 19 93 20 5 21 2 22
REMARK SMILES IDX 1 23 3 24 4 25 24 26 25 27 26 28 27 29 28 30 29 31 30 32
REMARK SMILES IDX 31 33 92 34 32 35 91 36 33 37 34 38 35 39 85 40 36 41 90 42
REMARK SMILES IDX 84 43 86 44 37 45 89 46 83 47 82 48 38 50 70 51 50 52 69 53
REMARK SMILES IDX 51 54 54 55 68 56 87 57 52 58 53 59 67 61 88 62 55 63 39 64
REMARK SMILES IDX 40 65 48 66 41 67 47 68 49 69 46 70 42 71 43 72 44 73 45 74
REMARK SMILES IDX 71 75 72 76 80 77 73 78 79 79 81 80 78 81 74 82 75 83 76 84
REMARK SMILES IDX 77 85 56 86 57 87 65 88 58 89 64 90 66 91 63 92 59 93 60 94
REMARK SMILES IDX 61 95 62 96
REMARK H PARENT 86 49 54 60
REMARK Flexibility Score: inf
ROOT
ATOM      1  C   UNL     1       4.987  -9.998   4.524  1.00  0.00     0.188 C 
ENDROOT
BRANCH   1   2
ATOM      2  C   UNL     1       5.411 -10.684   3.221  1.00  0.00     0.188 C 
BRANCH   2   3
ATOM      3  O   UNL     1       6.669 -10.339   2.655  1.00  0.00    -0.376 OA
BRANCH   3   4
ATOM      4  C   UNL     1       6.964  -8.957   2.447  1.00  0.00     0.202 C 
BRANCH   4   5
ATOM      5  C   UNL     1       5.903  -8.095   1.749  1.00  0.00     0.261 C 
BRANCH   5   6
ATOM      6  O   UNL     1       4.685  -7.977   2.511  1.00  0.00    -0.463 OA
BRANCH   6   7
ATOM      7  C   UNL     1       3.527  -8.009   1.806  1.00  0.00     0.311 C 
ATOM      8  O   UNL     1       3.471  -8.031   0.581  1.00  0.00    -0.252 OA
BRANCH   7   9
ATOM      9  C   UNL     1       2.288  -8.126   2.679  1.00  0.00     0.128 C 
ATOM     10  C   UNL     1       0.409  -1.966   3.204  1.00  0.00     0.410 C 
ATOM     11  O   UNL     1      -0.560  -1.484   3.778  1.00  0.00    -0.224 OA
ATOM     12  N   UNL     1       0.967  -3.175   3.540  1.00  0.00    -0.308 N 
ATOM     13  C   UNL     1       0.180  -4.141   4.286  1.00  0.00     0.126 C 
ATOM     14  C   UNL     1       2.281  -3.624   3.093  1.00  0.00     0.126 C 
ATOM     15  C   UNL     1      -0.031  -5.380   3.415  1.00  0.00     0.057 C 
ATOM     16  C   UNL     1       2.159  -4.885   2.243  1.00  0.00     0.057 C 
ATOM     17  C   UNL     1       1.323  -5.949   2.974  1.00  0.00     0.073 C 
ATOM     18  C   UNL     1       1.173  -7.236   2.160  1.00  0.00     0.053 C 
ATOM     19  O   UNL     1       2.034  -6.295   4.170  1.00  0.00    -0.374 OA
ATOM     20  C   UNL     1       2.406  -7.665   4.118  1.00  0.00     0.176 C 
BRANCH  10  21
ATOM     21  O   UNL     1       1.015  -1.421   2.122  1.00  0.00    -0.444 OA
BRANCH  21  22
ATOM     22  C   UNL     1       0.525  -0.190   1.543  1.00  0.00     0.106 C 
ATOM     23  C   UNL     1       1.229  -0.097   0.182  1.00  0.00     0.056 C 
ATOM     24  C   UNL     1       0.959   0.979   2.427  1.00  0.00     0.056 C 
ATOM     25  C   UNL     1      -0.990  -0.199   1.291  1.00  0.00     0.056 C 
ENDBRANCH  21  22
ENDBRANCH  10  21
ENDBRANCH   7   9
ENDBRANCH   6   7
ENDBRANCH   5   6
ENDBRANCH   4   5
ENDBRANCH   3   4
ENDBRANCH   2   3
ENDBRANCH   1   2
BRANCH   1  26
ATOM     26  O   UNL     1       5.849  -8.967   4.965  1.00  0.00    -0.376 OA
BRANCH  26  27
ATOM     27  C   UNL     1       6.336  -9.055   6.300  1.00  0.00     0.202 C 
BRANCH  27  28
ATOM     28  C   UNL     1       7.211 -10.285   6.605  1.00  0.00     0.261 C 
BRANCH  28  29
ATOM     29  O   UNL     1       6.550 -11.559   6.478  1.00  0.00    -0.460 OA
BRANCH  29  30
ATOM     30  C   UNL     1       5.472 -11.774   7.275  1.00  0.00     0.338 C 
ATOM     31  O   UNL     1       5.081 -11.053   8.175  1.00  0.00    -0.246 OA
BRANCH  30  32
ATOM     32  C   UNL     1       4.683 -12.874   6.665  1.00  0.00     0.060 A 
ATOM     33  C   UNL     1       3.325 -12.654   6.381  1.00  0.00     0.016 A 
ATOM     34  C   UNL     1       5.290 -14.078   6.306  1.00  0.00     0.016 A 
ATOM     35  C   UNL     1       2.566 -13.652   5.765  1.00  0.00     0.010 A 
ATOM     36  C   UNL     1       4.523 -15.085   5.715  1.00  0.00     0.010 A 
ATOM     37  C   UNL     1       3.151 -14.889   5.468  1.00  0.00    -0.014 A 
BRANCH  37  38
ATOM     38  C   UNL     1       2.297 -16.058   5.137  1.00  0.00     0.031 A 
ATOM     39  C   UNL     1       1.892 -16.965   6.268  1.00  0.00     0.074 A 
ATOM     40  C   UNL     1       1.893 -16.320   3.881  1.00  0.00     0.049 A 
ATOM     41  N   UNL     1       1.246 -18.100   6.237  1.00  0.00    -0.248 NA
ATOM     42  C   UNL     1       2.283 -16.528   7.617  1.00  0.00     0.031 C 
ATOM     43  C   UNL     1       2.168 -15.490   2.710  1.00  0.00     0.029 A 
ATOM     44  N   UNL     1       1.169 -17.376   3.382  1.00  0.00    -0.354 N 
ATOM     45  C   UNL     1       1.159 -18.518   7.561  1.00  0.00     0.074 A 
ATOM     46  C   UNL     1       1.849 -17.531   8.362  1.00  0.00     0.031 C 
ATOM     47  C   UNL     1       1.633 -16.078   1.625  1.00  0.00     0.029 A 
ATOM     48  C   UNL     1       1.016 -17.346   2.015  1.00  0.00     0.049 A 
ATOM     49  H   UNL     1       0.795 -18.088   3.950  1.00  0.00     0.167 HD
ATOM     50  C   UNL     1       0.555 -19.622   8.065  1.00  0.00     0.034 A 
ATOM     51  C   UNL     1       0.471 -18.255   1.177  1.00  0.00     0.034 A 
ATOM     52  C   UNL     1      -0.111 -20.610   7.254  1.00  0.00     0.049 A 
ATOM     53  C   UNL     1      -0.103 -19.533   1.749  1.00  0.00     0.074 A 
ATOM     54  C   UNL     1      -0.755 -21.766   7.660  1.00  0.00     0.029 A 
ATOM     55  N   UNL     1      -0.204 -20.569   5.869  1.00  0.00    -0.354 N 
ATOM     56  N   UNL     1      -0.178 -19.921   3.002  1.00  0.00    -0.248 NA
ATOM     57  C   UNL     1      -0.669 -20.494   0.792  1.00  0.00     0.031 C 
ATOM     58  C   UNL     1      -1.172 -22.458   6.519  1.00  0.00     0.029 A 
ATOM     59  C   UNL     1      -0.865 -21.695   5.403  1.00  0.00     0.049 A 
ATOM     60  H   UNL     1       0.147 -19.846   5.301  1.00  0.00     0.167 HD
ATOM     61  C   UNL     1      -0.832 -21.152   2.982  1.00  0.00     0.074 A 
ATOM     62  C   UNL     1      -1.137 -21.437   1.596  1.00  0.00     0.031 C 
ATOM     63  C   UNL     1      -1.160 -21.970   4.016  1.00  0.00     0.034 A 
BRANCH  50  64
ATOM     64  C   UNL     1       0.650 -19.838   9.555  1.00  0.00     0.023 A 
ATOM     65  C   UNL     1       0.064 -18.946  10.471  1.00  0.00     0.031 A 
ATOM     66  C   UNL     1       1.379 -20.925  10.067  1.00  0.00     0.131 A 
ATOM     67  C   UNL     1       0.280 -19.116  11.847  1.00  0.00     0.055 A 
ATOM     68  C   UNL     1       1.519 -21.135  11.440  1.00  0.00     0.041 A 
ATOM     69  F   UNL     1       1.984 -21.793   9.241  1.00  0.00    -0.206 F 
ATOM     70  C   UNL     1       0.981 -20.219  12.339  1.00  0.00     0.022 A 
BRANCH  67  71
ATOM     71  S   UNL     1      -0.238 -17.792  12.973  1.00  0.00     0.124 S 
ATOM     72  O   UNL     1       0.512 -16.652  12.454  1.00  0.00    -0.237 OA
ATOM     73  O   UNL     1      -1.682 -17.753  12.771  1.00  0.00    -0.237 OA
ATOM     74  O   UNL     1       0.196 -18.269  14.285  1.00  0.00    -0.744 OA
ENDBRANCH  67  71
ENDBRANCH  50  64
BRANCH  51  75
ATOM     75  C   UNL     1       0.480 -18.032  -0.299  1.00  0.00     0.023 A 
ATOM     76  C   UNL     1      -0.718 -17.926  -1.026  1.00  0.00     0.031 A 
ATOM     77  C   UNL     1       1.689 -17.997  -1.017  1.00  0.00     0.131 A 
ATOM     78  C   UNL     1      -0.682 -17.841  -2.427  1.00  0.00     0.055 A 
ATOM     79  C   UNL     1       1.720 -17.856  -2.406  1.00  0.00     0.041 A 
ATOM     80  F   UNL     1       2.863 -18.102  -0.375  1.00  0.00    -0.206 F 
ATOM     81  C   UNL     1       0.529 -17.791  -3.121  1.00  0.00     0.022 A 
BRANCH  78  82
ATOM     82  S   UNL     1      -2.249 -17.888  -3.342  1.00  0.00     0.124 S 
ATOM     83  O   UNL     1      -2.799 -19.172  -2.921  1.00  0.00    -0.237 OA
ATOM     84  O   UNL     1      -2.930 -16.701  -2.836  1.00  0.00    -0.237 OA
ATOM     85  O   UNL     1      -1.829 -17.815  -4.740  1.00  0.00    -0.744 OA
ENDBRANCH  78  82
ENDBRANCH  51  75
BRANCH  63  86
ATOM     86  C   UNL     1      -1.940 -23.222   3.691  1.00  0.00     0.023 A 
ATOM     87  C   UNL     1      -1.383 -24.278   2.949  1.00  0.00     0.031 A 
ATOM     88  C   UNL     1      -3.267 -23.359   4.139  1.00  0.00     0.131 A 
ATOM     89  C   UNL     1      -2.166 -25.400   2.634  1.00  0.00     0.055 A 
ATOM     90  C   UNL     1      -4.020 -24.503   3.875  1.00  0.00     0.041 A 
ATOM     91  F   UNL     1      -3.852 -22.382   4.851  1.00  0.00    -0.206 F 
ATOM     92  C   UNL     1      -3.474 -25.527   3.107  1.00  0.00     0.022 A 
BRANCH  89  93
ATOM     93  S   UNL     1      -1.480 -26.658   1.521  1.00  0.00     0.124 S 
ATOM     94  O   UNL     1      -1.182 -25.876   0.326  1.00  0.00    -0.237 OA
ATOM     95  O   UNL     1      -0.326 -27.143   2.271  1.00  0.00    -0.237 OA
ATOM     96  O   UNL     1      -2.572 -27.620   1.376  1.00  0.00    -0.744 OA
ENDBRANCH  89  93
ENDBRANCH  63  86
ENDBRANCH  37  38
ENDBRANCH  30  32
ENDBRANCH  29  30
ENDBRANCH  28  29
ENDBRANCH  27  28
ENDBRANCH  26  27
ENDBRANCH   1  26
TORSDOF 22
