REMARK SMILES O=C(OCCOCCOCCOC(=O)[C@@H]1CCC(=O)N(CCCOC2CCCCC2)[C@H]1c1ccco1)c1ccc(-c2c3nc(c(-c4cc(S(=O)(=O)[O-])ccc4F)c4ccc([nH]4)c(-c4cc(S(=O)(=O)[O-])ccc4F)c4nc(c(-c5cc(S(=O)(=O)[O-])ccc5F)c5ccc2[nH]5)C=C4)C=C3)cc1
REMARK SMILES IDX 8 1 7 2 6 3 5 4 4 5 3 6 2 7 1 8 37 9 38 10 99 11 39 12 98 13
REMARK SMILES IDX 40 14 41 15 42 16 92 17 43 18 97 19 91 20 93 21 44 22 96 23
REMARK SMILES IDX 90 24 89 25 45 27 77 28 57 29 76 30 58 31 61 32 75 33 94 34
REMARK SMILES IDX 59 35 60 36 74 38 95 39 62 40 46 41 47 42 55 43 48 44 54 45
REMARK SMILES IDX 56 46 53 47 49 48 50 49 51 50 52 51 78 52 79 53 87 54 80 55
REMARK SMILES IDX 86 56 88 57 85 58 81 59 82 60 83 61 84 62 63 63 64 64 72 65
REMARK SMILES IDX 65 66 71 67 73 68 70 69 66 70 67 71 68 72 69 73 9 74 10 75
REMARK SMILES IDX 11 76 12 77 13 78 14 79 15 80 16 81 31 82 17 83 20 84 18 85
REMARK SMILES IDX 19 86 32 87 33 88 36 89 34 90 35 91 21 92 22 93 23 94 24 95
REMARK SMILES IDX 25 96 26 97 30 98 27 99 29 100 28 101
REMARK H PARENT 93 26 61 37
REMARK Flexibility Score: inf
ROOT
ATOM      1  C   UNL     1       3.632   0.921  -3.288  1.00  0.00     0.188 C 
ENDROOT
BRANCH   1   2
ATOM      2  C   UNL     1       3.867   0.751  -1.785  1.00  0.00     0.188 C 
BRANCH   2   3
ATOM      3  O   UNL     1       5.173   0.322  -1.420  1.00  0.00    -0.376 OA
BRANCH   3   4
ATOM      4  C   UNL     1       5.492  -1.036  -1.694  1.00  0.00     0.202 C 
BRANCH   4   5
ATOM      5  C   UNL     1       5.029  -2.036  -0.620  1.00  0.00     0.261 C 
BRANCH   5   6
ATOM      6  O   UNL     1       3.656  -1.859  -0.238  1.00  0.00    -0.460 OA
BRANCH   6   7
ATOM      7  C   UNL     1       3.178  -1.290   0.899  1.00  0.00     0.338 C 
ATOM      8  O   UNL     1       2.026  -1.569   1.233  1.00  0.00    -0.246 OA
BRANCH   7   9
ATOM      9  C   UNL     1       3.913  -0.236   1.687  1.00  0.00     0.060 A 
ATOM     10  C   UNL     1       5.216   0.215   1.458  1.00  0.00     0.016 A 
ATOM     11  C   UNL     1       3.205   0.383   2.728  1.00  0.00     0.016 A 
ATOM     12  C   UNL     1       5.806   1.233   2.207  1.00  0.00     0.010 A 
ATOM     13  C   UNL     1       3.790   1.406   3.487  1.00  0.00     0.010 A 
ATOM     14  C   UNL     1       5.104   1.832   3.237  1.00  0.00    -0.014 A 
BRANCH  14  15
ATOM     15  C   UNL     1       5.829   2.710   4.183  1.00  0.00     0.031 A 
ATOM     16  C   UNL     1       6.130   2.118   5.526  1.00  0.00     0.074 A 
ATOM     17  C   UNL     1       6.303   3.928   3.845  1.00  0.00     0.049 A 
ATOM     18  N   UNL     1       6.839   2.615   6.500  1.00  0.00    -0.248 NA
ATOM     19  C   UNL     1       5.638   0.750   5.773  1.00  0.00     0.031 C 
ATOM     20  C   UNL     1       6.279   4.521   2.508  1.00  0.00     0.029 A 
ATOM     21  N   UNL     1       6.868   4.917   4.608  1.00  0.00    -0.354 N 
ATOM     22  C   UNL     1       6.945   1.590   7.429  1.00  0.00     0.074 A 
ATOM     23  C   UNL     1       6.116   0.501   6.976  1.00  0.00     0.031 C 
ATOM     24  C   UNL     1       6.608   5.822   2.579  1.00  0.00     0.029 A 
ATOM     25  C   UNL     1       6.997   6.120   3.946  1.00  0.00     0.049 A 
ATOM     26  H   UNL     1       7.155   4.781   5.540  1.00  0.00     0.167 HD
ATOM     27  C   UNL     1       7.740   1.537   8.520  1.00  0.00     0.034 A 
ATOM     28  C   UNL     1       7.423   7.318   4.388  1.00  0.00     0.034 A 
ATOM     29  C   UNL     1       8.513   2.664   8.963  1.00  0.00     0.049 A 
ATOM     30  C   UNL     1       8.093   7.331   5.734  1.00  0.00     0.074 A 
ATOM     31  C   UNL     1       9.317   2.778  10.079  1.00  0.00     0.029 A 
ATOM     32  N   UNL     1       8.546   3.895   8.313  1.00  0.00    -0.354 N 
ATOM     33  N   UNL     1       8.235   6.339   6.585  1.00  0.00    -0.248 NA
ATOM     34  C   UNL     1       8.760   8.573   6.127  1.00  0.00     0.031 C 
ATOM     35  C   UNL     1       9.769   4.101  10.148  1.00  0.00     0.029 A 
ATOM     36  C   UNL     1       9.321   4.790   9.028  1.00  0.00     0.049 A 
ATOM     37  H   UNL     1       8.085   4.099   7.467  1.00  0.00     0.167 HD
ATOM     38  C   UNL     1       9.093   6.808   7.569  1.00  0.00     0.074 A 
ATOM     39  C   UNL     1       9.410   8.180   7.212  1.00  0.00     0.031 C 
ATOM     40  C   UNL     1       9.603   6.155   8.646  1.00  0.00     0.034 A 
BRANCH  27  41
ATOM     41  C   UNL     1       7.726   0.241   9.287  1.00  0.00     0.023 A 
ATOM     42  C   UNL     1       8.148  -0.967   8.694  1.00  0.00     0.031 A 
ATOM     43  C   UNL     1       7.142   0.182  10.561  1.00  0.00     0.131 A 
ATOM     44  C   UNL     1       7.878  -2.189   9.329  1.00  0.00     0.055 A 
ATOM     45  C   UNL     1       6.960  -1.030  11.227  1.00  0.00     0.041 A 
ATOM     46  F   UNL     1       6.689   1.296  11.156  1.00  0.00    -0.206 F 
ATOM     47  C   UNL     1       7.308  -2.226  10.604  1.00  0.00     0.022 A 
BRANCH  44  48
ATOM     48  S   UNL     1       8.100  -3.728   8.390  1.00  0.00     0.124 S 
ATOM     49  O   UNL     1       7.165  -3.537   7.283  1.00  0.00    -0.237 OA
ATOM     50  O   UNL     1       9.516  -3.687   8.042  1.00  0.00    -0.237 OA
ATOM     51  O   UNL     1       7.723  -4.769   9.343  1.00  0.00    -0.744 OA
ENDBRANCH  44  48
ENDBRANCH  27  41
BRANCH  28  52
ATOM     52  C   UNL     1       7.341   8.539   3.535  1.00  0.00     0.023 A 
ATOM     53  C   UNL     1       8.491   9.153   3.013  1.00  0.00     0.031 A 
ATOM     54  C   UNL     1       6.098   9.143   3.265  1.00  0.00     0.131 A 
ATOM     55  C   UNL     1       8.383  10.358   2.297  1.00  0.00     0.055 A 
ATOM     56  C   UNL     1       5.993  10.326   2.526  1.00  0.00     0.041 A 
ATOM     57  F   UNL     1       4.963   8.595   3.726  1.00  0.00    -0.206 F 
ATOM     58  C   UNL     1       7.143  10.948   2.048  1.00  0.00     0.022 A 
BRANCH  55  59
ATOM     59  S   UNL     1       9.905  11.186   1.756  1.00  0.00     0.124 S 
ATOM     60  O   UNL     1      10.642  11.308   3.007  1.00  0.00    -0.237 OA
ATOM     61  O   UNL     1      10.434  10.233   0.786  1.00  0.00    -0.237 OA
ATOM     62  O   UNL     1       9.424  12.445   1.189  1.00  0.00    -0.744 OA
ENDBRANCH  55  59
ENDBRANCH  28  52
BRANCH  40  63
ATOM     63  C   UNL     1      10.597   6.918   9.479  1.00  0.00     0.023 A 
ATOM     64  C   UNL     1      10.228   8.073  10.183  1.00  0.00     0.031 A 
ATOM     65  C   UNL     1      11.933   6.488   9.550  1.00  0.00     0.131 A 
ATOM     66  C   UNL     1      11.203   8.808  10.865  1.00  0.00     0.055 A 
ATOM     67  C   UNL     1      12.882   7.177  10.304  1.00  0.00     0.041 A 
ATOM     68  F   UNL     1      12.338   5.391   8.890  1.00  0.00    -0.206 F 
ATOM     69  C   UNL     1      12.523   8.355  10.952  1.00  0.00     0.022 A 
BRANCH  66  70
ATOM     70  S   UNL     1      10.746  10.432  11.525  1.00  0.00     0.124 S 
ATOM     71  O   UNL     1      10.297  11.128  10.324  1.00  0.00    -0.237 OA
ATOM     72  O   UNL     1       9.707  10.094  12.492  1.00  0.00    -0.237 OA
ATOM     73  O   UNL     1      11.993  10.929  12.102  1.00  0.00    -0.744 OA
ENDBRANCH  66  70
ENDBRANCH  40  63
ENDBRANCH  14  15
ENDBRANCH   7   9
ENDBRANCH   6   7
ENDBRANCH   5   6
ENDBRANCH   4   5
ENDBRANCH   3   4
ENDBRANCH   2   3
ENDBRANCH   1   2
BRANCH   1  74
ATOM     74  O   UNL     1       4.751   1.264  -4.087  1.00  0.00    -0.376 OA
BRANCH  74  75
ATOM     75  C   UNL     1       5.579   2.327  -3.622  1.00  0.00     0.202 C 
BRANCH  75  76
ATOM     76  C   UNL     1       4.905   3.692  -3.401  1.00  0.00     0.261 C 
BRANCH  76  77
ATOM     77  O   UNL     1       4.280   3.893  -2.100  1.00  0.00    -0.463 OA
BRANCH  77  78
ATOM     78  C   UNL     1       2.990   4.337  -2.093  1.00  0.00     0.311 C 
ATOM     79  O   UNL     1       2.249   4.264  -3.070  1.00  0.00    -0.252 OA
BRANCH  78  80
ATOM     80  C   UNL     1       2.555   5.083  -0.821  1.00  0.00     0.130 C 
ATOM     81  C   UNL     1       3.551   5.198   0.319  1.00  0.00     0.028 C 
ATOM     82  C   UNL     1       1.163   4.626  -0.315  1.00  0.00     0.166 C 
ATOM     83  C   UNL     1       3.431   4.079   1.328  1.00  0.00     0.101 C 
ATOM     84  N   UNL     1       1.190   3.514   0.658  1.00  0.00    -0.332 N 
ATOM     85  C   UNL     1       2.050   3.654   1.732  1.00  0.00     0.223 C 
ATOM     86  O   UNL     1       1.769   3.309   2.869  1.00  0.00    -0.275 OA
BRANCH  82  87
ATOM     87  C   UNL     1       0.399   5.773   0.318  1.00  0.00     0.127 A 
ATOM     88  C   UNL     1      -0.248   6.888  -0.178  1.00  0.00     0.048 A 
ATOM     89  O   UNL     1       0.213   5.721   1.671  1.00  0.00    -0.467 OA
ATOM     90  C   UNL     1      -0.906   7.496   0.924  1.00  0.00     0.042 A 
ATOM     91  C   UNL     1      -0.596   6.740   2.027  1.00  0.00     0.195 A 
ENDBRANCH  82  87
BRANCH  84  92
ATOM     92  C   UNL     1       0.133   2.506   0.824  1.00  0.00     0.122 C 
BRANCH  92  93
ATOM     93  C   UNL     1      -1.275   2.903   1.262  1.00  0.00     0.050 C 
BRANCH  93  94
ATOM     94  C   UNL     1      -2.235   3.383   0.171  1.00  0.00     0.162 C 
BRANCH  94  95
ATOM     95  O   UNL     1      -2.867   2.384  -0.636  1.00  0.00    -0.378 OA
BRANCH  95  96
ATOM     96  C   UNL     1      -2.161   1.616  -1.623  1.00  0.00     0.118 C 
ATOM     97  C   UNL     1      -0.957   2.284  -2.282  1.00  0.00     0.032 C 
ATOM     98  C   UNL     1      -1.963   0.193  -1.101  1.00  0.00     0.032 C 
ATOM     99  C   UNL     1       0.297   1.451  -2.552  1.00  0.00     0.003 C 
ATOM    100  C   UNL     1      -0.977  -0.614  -1.928  1.00  0.00     0.003 C 
ATOM    101  C   UNL     1       0.371   0.068  -1.921  1.00  0.00     0.000 C 
ENDBRANCH  95  96
ENDBRANCH  94  95
ENDBRANCH  93  94
ENDBRANCH  92  93
ENDBRANCH  84  92
ENDBRANCH  78  80
ENDBRANCH  77  78
ENDBRANCH  76  77
ENDBRANCH  75  76
ENDBRANCH  74  75
ENDBRANCH   1  74
TORSDOF 26
