REMARK SMILES CCOc1cccc(OCC)c1-c1ccc([C@@H](C)C(=O)OCCOCCOCCOC(=O)c2ccc(-c3c4nc(c(-c5cc(S(=O)(=O)[O-])ccc5F)c5ccc([nH]5)c(-c5cc(S(=O)(=O)[O-])ccc5F)c5nc(c(-c6cc(S(=O)(=O)[O-])ccc6F)c6ccc3[nH]6)C=C5)C=C4)cc2)cc1F
REMARK SMILES IDX 25 1 24 2 23 3 22 4 21 5 19 6 20 7 17 8 18 9 16 10 13 11
REMARK SMILES IDX 14 12 97 13 15 14 96 15 98 16 12 17 4 18 5 19 6 20 8 21 7 22
REMARK SMILES IDX 3 23 2 24 1 25 9 26 10 27 11 28 26 29 27 30 28 31 29 32
REMARK SMILES IDX 30 33 31 34 32 35 33 36 34 37 95 38 35 39 94 40 36 41 37 42
REMARK SMILES IDX 38 43 88 44 39 45 93 46 87 47 89 48 40 49 92 50 86 51 85 52
REMARK SMILES IDX 41 54 73 55 53 56 72 57 54 58 57 59 71 60 90 61 55 62 56 63
REMARK SMILES IDX 70 65 91 66 58 67 42 68 43 69 51 70 44 71 50 72 52 73 49 74
REMARK SMILES IDX 45 75 46 76 47 77 48 78 74 79 75 80 83 81 76 82 82 83 84 84
REMARK SMILES IDX 81 85 77 86 78 87 79 88 80 89 59 90 60 91 68 92 61 93 67 94
REMARK SMILES IDX 69 95 66 96 62 97 63 98 64 99 65 100
REMARK H PARENT 89 53 57 64
REMARK Flexibility Score: inf
ROOT
ATOM      1  C   UNL     1      -1.130   1.683   3.821  1.00  0.00     0.188 C 
ENDROOT
BRANCH   1   2
ATOM      2  O   UNL     1      -1.030   2.670   4.841  1.00  0.00    -0.376 OA
BRANCH   2   3
ATOM      3  C   UNL     1       0.256   3.069   5.294  1.00  0.00     0.202 C 
BRANCH   3   4
ATOM      4  C   UNL     1       1.176   1.985   5.865  1.00  0.00     0.261 C 
BRANCH   4   5
ATOM      5  O   UNL     1       1.585   0.975   4.912  1.00  0.00    -0.463 OA
BRANCH   5   6
ATOM      6  C   UNL     1       1.291  -0.307   5.243  1.00  0.00     0.313 C 
ATOM      7  O   UNL     1       0.726  -0.612   6.293  1.00  0.00    -0.252 OA
BRANCH   6   8
ATOM      8  C   UNL     1       1.753  -1.397   4.277  1.00  0.00     0.126 C 
ATOM      9  C   UNL     1       2.880  -2.172   4.966  1.00  0.00     0.025 C 
BRANCH   8  10
ATOM     10  C   UNL     1       2.131  -1.144   2.816  1.00  0.00    -0.031 A 
ATOM     11  C   UNL     1       3.009  -0.975   0.072  1.00  0.00     0.025 A 
ATOM     12  C   UNL     1       3.244   0.057   1.003  1.00  0.00     0.012 A 
ATOM     13  C   UNL     1       2.254  -2.057   0.530  1.00  0.00     0.131 A 
ATOM     14  C   UNL     1       2.868  -0.048   2.357  1.00  0.00     0.005 A 
ATOM     15  C   UNL     1       1.815  -2.137   1.862  1.00  0.00     0.044 A 
ATOM     16  F   UNL     1       1.966  -3.079  -0.289  1.00  0.00    -0.206 F 
BRANCH  11  17
ATOM     17  C   UNL     1       3.554  -0.893  -1.309  1.00  0.00     0.069 A 
ATOM     18  C   UNL     1       2.666  -0.663  -2.397  1.00  0.00     0.130 A 
ATOM     19  C   UNL     1       3.102  -0.421  -3.707  1.00  0.00     0.047 A 
ATOM     20  C   UNL     1       4.453  -0.405  -3.986  1.00  0.00     0.008 A 
ATOM     21  C   UNL     1       4.928  -0.963  -1.640  1.00  0.00     0.130 A 
ATOM     22  C   UNL     1       5.348  -0.701  -2.965  1.00  0.00     0.047 A 
BRANCH  18  23
ATOM     23  O   UNL     1       1.312  -0.798  -2.214  1.00  0.00    -0.493 OA
BRANCH  23  24
ATOM     24  C   UNL     1       0.607   0.433  -2.359  1.00  0.00     0.226 C 
ATOM     25  C   UNL     1       0.311   0.916  -0.967  1.00  0.00     0.049 C 
ENDBRANCH  23  24
ENDBRANCH  18  23
BRANCH  21  26
ATOM     26  O   UNL     1       6.025  -1.294  -0.893  1.00  0.00    -0.493 OA
BRANCH  26  27
ATOM     27  C   UNL     1       6.001  -1.548   0.499  1.00  0.00     0.226 C 
ATOM     28  C   UNL     1       6.442  -0.291   1.227  1.00  0.00     0.049 C 
ENDBRANCH  26  27
ENDBRANCH  21  26
ENDBRANCH  11  17
ENDBRANCH   8  10
ENDBRANCH   6   8
ENDBRANCH   5   6
ENDBRANCH   4   5
ENDBRANCH   3   4
ENDBRANCH   2   3
ENDBRANCH   1   2
BRANCH   1  29
ATOM     29  C   UNL     1      -0.134   1.724   2.651  1.00  0.00     0.188 C 
BRANCH  29  30
ATOM     30  O   UNL     1       0.573   2.945   2.496  1.00  0.00    -0.376 OA
BRANCH  30  31
ATOM     31  C   UNL     1       0.284   3.679   1.314  1.00  0.00     0.202 C 
BRANCH  31  32
ATOM     32  C   UNL     1      -1.157   4.183   1.220  1.00  0.00     0.261 C 
BRANCH  32  33
ATOM     33  O   UNL     1      -2.105   3.099   1.270  1.00  0.00    -0.460 OA
BRANCH  33  34
ATOM     34  C   UNL     1      -2.657   2.673   0.120  1.00  0.00     0.338 C 
ATOM     35  O   UNL     1      -2.516   3.168  -0.994  1.00  0.00    -0.246 OA
BRANCH  34  36
ATOM     36  C   UNL     1      -3.478   1.483   0.413  1.00  0.00     0.060 A 
ATOM     37  C   UNL     1      -2.887   0.239   0.684  1.00  0.00     0.016 A 
ATOM     38  C   UNL     1      -4.864   1.599   0.373  1.00  0.00     0.016 A 
ATOM     39  C   UNL     1      -3.672  -0.893   0.900  1.00  0.00     0.010 A 
ATOM     40  C   UNL     1      -5.652   0.469   0.603  1.00  0.00     0.010 A 
ATOM     41  C   UNL     1      -5.062  -0.786   0.845  1.00  0.00    -0.014 A 
BRANCH  41  42
ATOM     42  C   UNL     1      -5.923  -1.990   0.894  1.00  0.00     0.031 A 
ATOM     43  C   UNL     1      -6.546  -2.467  -0.385  1.00  0.00     0.074 A 
ATOM     44  C   UNL     1      -6.183  -2.612   2.057  1.00  0.00     0.049 A 
ATOM     45  N   UNL     1      -7.533  -3.301  -0.569  1.00  0.00    -0.248 NA
ATOM     46  C   UNL     1      -5.982  -1.908  -1.623  1.00  0.00     0.031 C 
ATOM     47  C   UNL     1      -5.566  -2.298   3.345  1.00  0.00     0.029 A 
ATOM     48  N   UNL     1      -7.068  -3.621   2.345  1.00  0.00    -0.354 N 
ATOM     49  C   UNL     1      -7.738  -3.341  -1.944  1.00  0.00     0.074 A 
ATOM     50  C   UNL     1      -6.777  -2.437  -2.541  1.00  0.00     0.031 C 
ATOM     51  C   UNL     1      -6.120  -3.073   4.293  1.00  0.00     0.029 A 
ATOM     52  C   UNL     1      -7.174  -3.885   3.691  1.00  0.00     0.049 A 
ATOM     53  H   UNL     1      -7.577  -4.107   1.656  1.00  0.00     0.167 HD
ATOM     54  C   UNL     1      -8.654  -4.061  -2.636  1.00  0.00     0.034 A 
ATOM     55  C   UNL     1      -8.063  -4.647   4.360  1.00  0.00     0.034 A 
ATOM     56  C   UNL     1      -9.601  -4.952  -2.012  1.00  0.00     0.049 A 
ATOM     57  C   UNL     1      -9.142  -5.363   3.581  1.00  0.00     0.074 A 
ATOM     58  C   UNL     1     -10.578  -5.730  -2.609  1.00  0.00     0.029 A 
ATOM     59  N   UNL     1      -9.694  -5.179  -0.644  1.00  0.00    -0.354 N 
ATOM     60  N   UNL     1      -9.367  -5.363   2.286  1.00  0.00    -0.248 NA
ATOM     61  C   UNL     1     -10.088  -6.177   4.354  1.00  0.00     0.031 C 
ATOM     62  C   UNL     1     -11.301  -6.375  -1.599  1.00  0.00     0.029 A 
ATOM     63  C   UNL     1     -10.727  -6.062  -0.376  1.00  0.00     0.049 A 
ATOM     64  H   UNL     1      -9.110  -4.772   0.035  1.00  0.00     0.167 HD
ATOM     65  C   UNL     1     -10.461  -6.202   2.090  1.00  0.00     0.074 A 
ATOM     66  C   UNL     1     -10.842  -6.697   3.397  1.00  0.00     0.031 C 
ATOM     67  C   UNL     1     -11.093  -6.540   0.937  1.00  0.00     0.034 A 
BRANCH  54  68
ATOM     68  C   UNL     1      -8.714  -3.851  -4.129  1.00  0.00     0.023 A 
ATOM     69  C   UNL     1      -7.646  -4.199  -4.974  1.00  0.00     0.031 A 
ATOM     70  C   UNL     1      -9.846  -3.252  -4.710  1.00  0.00     0.131 A 
ATOM     71  C   UNL     1      -7.704  -3.883  -6.340  1.00  0.00     0.055 A 
ATOM     72  C   UNL     1      -9.930  -3.013  -6.083  1.00  0.00     0.041 A 
ATOM     73  F   UNL     1     -10.885  -2.873  -3.950  1.00  0.00    -0.206 F 
ATOM     74  C   UNL     1      -8.849  -3.316  -6.905  1.00  0.00     0.022 A 
BRANCH  71  75
ATOM     75  S   UNL     1      -6.209  -4.097  -7.345  1.00  0.00     0.124 S 
ATOM     76  O   UNL     1      -5.265  -3.217  -6.660  1.00  0.00    -0.237 OA
ATOM     77  O   UNL     1      -5.951  -5.527  -7.227  1.00  0.00    -0.237 OA
ATOM     78  O   UNL     1      -6.621  -3.644  -8.672  1.00  0.00    -0.744 OA
ENDBRANCH  71  75
ENDBRANCH  54  68
BRANCH  55  79
ATOM     79  C   UNL     1      -8.031  -4.721   5.849  1.00  0.00     0.023 A 
ATOM     80  C   UNL     1      -7.793  -5.937   6.508  1.00  0.00     0.031 A 
ATOM     81  C   UNL     1      -8.303  -3.588   6.638  1.00  0.00     0.131 A 
ATOM     82  C   UNL     1      -7.879  -6.005   7.907  1.00  0.00     0.055 A 
ATOM     83  C   UNL     1      -8.332  -3.648   8.032  1.00  0.00     0.041 A 
ATOM     84  F   UNL     1      -8.543  -2.400   6.061  1.00  0.00    -0.206 F 
ATOM     85  C   UNL     1      -8.133  -4.866   8.675  1.00  0.00     0.022 A 
BRANCH  82  86
ATOM     86  S   UNL     1      -7.747  -7.628   8.706  1.00  0.00     0.124 S 
ATOM     87  O   UNL     1      -8.837  -8.360   8.072  1.00  0.00    -0.237 OA
ATOM     88  O   UNL     1      -6.397  -8.038   8.336  1.00  0.00    -0.237 OA
ATOM     89  O   UNL     1      -7.938  -7.326  10.123  1.00  0.00    -0.744 OA
ENDBRANCH  82  86
ENDBRANCH  55  79
BRANCH  67  90
ATOM     90  C   UNL     1     -12.220  -7.539   1.039  1.00  0.00     0.023 A 
ATOM     91  C   UNL     1     -13.433  -7.230   1.679  1.00  0.00     0.031 A 
ATOM     92  C   UNL     1     -12.069  -8.826   0.491  1.00  0.00     0.131 A 
ATOM     93  C   UNL     1     -14.427  -8.213   1.803  1.00  0.00     0.055 A 
ATOM     94  C   UNL     1     -13.085  -9.780   0.566  1.00  0.00     0.041 A 
ATOM     95  F   UNL     1     -10.931  -9.175  -0.130  1.00  0.00    -0.206 F 
ATOM     96  C   UNL     1     -14.267  -9.480   1.236  1.00  0.00     0.022 A 
BRANCH  93  97
ATOM     97  S   UNL     1     -15.901  -7.844   2.794  1.00  0.00     0.124 S 
ATOM     98  O   UNL     1     -15.321  -7.529   4.096  1.00  0.00    -0.237 OA
ATOM     99  O   UNL     1     -16.490  -6.722   2.071  1.00  0.00    -0.237 OA
ATOM    100  O   UNL     1     -16.669  -9.086   2.742  1.00  0.00    -0.744 OA
ENDBRANCH  93  97
ENDBRANCH  67  90
ENDBRANCH  41  42
ENDBRANCH  34  36
ENDBRANCH  33  34
ENDBRANCH  32  33
ENDBRANCH  31  32
ENDBRANCH  30  31
ENDBRANCH  29  30
ENDBRANCH   1  29
TORSDOF 26
