REMARK SMILES COc1ccc(-c2nc3ccc(C)cc3[nH]2)c(C(=O)OCCOCCOCCOC(=O)c2ccc(-c3c4nc(c(-c5cc(S(=O)(=O)[O-])ccc5F)c5ccc([nH]5)c(-c5cc(S(=O)(=O)[O-])ccc5F)c5nc(c(-c6cc(S(=O)(=O)[O-])ccc6F)c6ccc3[nH]6)C=C5)C=C4)cc2)c1OC
REMARK SMILES IDX 25 1 24 2 23 3 22 4 21 5 20 6 18 7 19 8 17 9 3 10 4 11 95 12
REMARK SMILES IDX 5 13 6 14 2 15 1 16 96 17 97 18 7 19 8 20 16 21 9 22 15 23
REMARK SMILES IDX 10 25 14 26 11 27 12 28 13 29 26 30 27 31 28 32 29 33 30 34
REMARK SMILES IDX 31 35 32 36 33 37 94 38 34 39 93 40 35 41 36 42 37 43 87 44
REMARK SMILES IDX 38 45 92 46 86 47 88 48 39 49 91 50 85 51 84 52 40 54 72 55
REMARK SMILES IDX 52 56 71 57 53 58 56 59 70 60 89 61 54 62 55 63 69 65 90 66
REMARK SMILES IDX 57 67 41 68 42 69 50 70 43 71 49 72 51 73 48 74 44 75 45 76
REMARK SMILES IDX 46 77 47 78 73 79 74 80 82 81 75 82 81 83 83 84 80 85 76 86
REMARK SMILES IDX 77 87 78 88 79 89 58 90 59 91 67 92 60 93 66 94 68 95 65 96
REMARK SMILES IDX 61 97 62 98 63 99 64 100
REMARK H PARENT 16 24 88 53 56 64
REMARK Flexibility Score: inf
ROOT
ATOM      1  C   UNL     1       4.993   0.969  -4.305  1.00  0.00     0.188 C 
ENDROOT
BRANCH   1   2
ATOM      2  C   UNL     1       5.845   2.245  -4.293  1.00  0.00     0.188 C 
BRANCH   2   3
ATOM      3  O   UNL     1       6.981   2.182  -3.430  1.00  0.00    -0.376 OA
BRANCH   3   4
ATOM      4  C   UNL     1       7.044   3.287  -2.527  1.00  0.00     0.202 C 
BRANCH   4   5
ATOM      5  C   UNL     1       6.282   2.959  -1.244  1.00  0.00     0.261 C 
BRANCH   5   6
ATOM      6  O   UNL     1       4.919   2.582  -1.512  1.00  0.00    -0.460 OA
BRANCH   6   7
ATOM      7  C   UNL     1       3.969   3.539  -1.416  1.00  0.00     0.342 C 
ATOM      8  O   UNL     1       4.136   4.700  -1.075  1.00  0.00    -0.246 OA
BRANCH   7   9
ATOM      9  C   UNL     1       2.669   2.981  -1.866  1.00  0.00     0.116 A 
ATOM     10  C   UNL     1       0.927   1.304  -1.734  1.00  0.00     0.161 A 
ATOM     11  C   UNL     1       0.228   1.947  -2.758  1.00  0.00     0.051 A 
ATOM     12  C   UNL     1       2.158   1.805  -1.285  1.00  0.00     0.176 A 
ATOM     13  C   UNL     1       0.740   3.107  -3.342  1.00  0.00     0.017 A 
ATOM     14  C   UNL     1       1.968   3.625  -2.914  1.00  0.00     0.036 A 
BRANCH  10  15
ATOM     15  O   UNL     1       0.382   0.132  -1.281  1.00  0.00    -0.493 OA
ATOM     16  C   UNL     1      -0.068   0.227   0.068  1.00  0.00     0.278 C 
ENDBRANCH  10  15
BRANCH  12  17
ATOM     17  O   UNL     1       2.836   1.225  -0.242  1.00  0.00    -0.492 OA
ATOM     18  C   UNL     1       3.273  -0.109  -0.517  1.00  0.00     0.278 C 
ENDBRANCH  12  17
BRANCH  14  19
ATOM     19  C   UNL     1       2.622   4.655  -3.713  1.00  0.00     0.139 A 
ATOM     20  N   UNL     1       3.583   4.383  -4.568  1.00  0.00    -0.228 NA
ATOM     21  N   UNL     1       2.440   6.014  -3.611  1.00  0.00    -0.338 N 
ATOM     22  C   UNL     1       4.194   5.573  -4.832  1.00  0.00     0.089 A 
ATOM     23  C   UNL     1       3.485   6.625  -4.270  1.00  0.00     0.066 A 
ATOM     24  H   UNL     1       1.698   6.469  -3.150  1.00  0.00     0.168 HD
ATOM     25  C   UNL     1       5.371   5.818  -5.549  1.00  0.00     0.031 A 
ATOM     26  C   UNL     1       3.869   7.959  -4.425  1.00  0.00     0.031 A 
ATOM     27  C   UNL     1       5.784   7.140  -5.712  1.00  0.00     0.006 A 
ATOM     28  C   UNL     1       5.035   8.201  -5.180  1.00  0.00    -0.049 A 
ATOM     29  C   UNL     1       5.465   9.605  -5.494  1.00  0.00     0.044 C 
ENDBRANCH  14  19
ENDBRANCH   7   9
ENDBRANCH   6   7
ENDBRANCH   5   6
ENDBRANCH   4   5
ENDBRANCH   3   4
ENDBRANCH   2   3
ENDBRANCH   1   2
BRANCH   1  30
ATOM     30  O   UNL     1       5.628  -0.305  -4.368  1.00  0.00    -0.376 OA
BRANCH  30  31
ATOM     31  C   UNL     1       6.915  -0.378  -4.957  1.00  0.00     0.202 C 
BRANCH  31  32
ATOM     32  C   UNL     1       6.982  -0.251  -6.483  1.00  0.00     0.261 C 
BRANCH  32  33
ATOM     33  O   UNL     1       6.354   0.926  -7.028  1.00  0.00    -0.460 OA
BRANCH  33  34
ATOM     34  C   UNL     1       5.167   0.715  -7.652  1.00  0.00     0.338 C 
ATOM     35  O   UNL     1       4.596  -0.354  -7.788  1.00  0.00    -0.246 OA
BRANCH  34  36
ATOM     36  C   UNL     1       4.577   1.993  -8.113  1.00  0.00     0.060 A 
ATOM     37  C   UNL     1       3.307   2.353  -7.646  1.00  0.00     0.016 A 
ATOM     38  C   UNL     1       5.198   2.766  -9.097  1.00  0.00     0.016 A 
ATOM     39  C   UNL     1       2.646   3.468  -8.177  1.00  0.00     0.010 A 
ATOM     40  C   UNL     1       4.526   3.877  -9.636  1.00  0.00     0.010 A 
ATOM     41  C   UNL     1       3.233   4.226  -9.200  1.00  0.00    -0.014 A 
BRANCH  41  42
ATOM     42  C   UNL     1       2.475   5.326  -9.871  1.00  0.00     0.031 A 
ATOM     43  C   UNL     1       1.858   5.099 -11.222  1.00  0.00     0.074 A 
ATOM     44  C   UNL     1       2.328   6.536  -9.297  1.00  0.00     0.049 A 
ATOM     45  N   UNL     1       1.270   5.960 -12.013  1.00  0.00    -0.248 NA
ATOM     46  C   UNL     1       1.903   3.727 -11.747  1.00  0.00     0.031 C 
ATOM     47  C   UNL     1       2.814   6.888  -7.972  1.00  0.00     0.029 A 
ATOM     48  N   UNL     1       1.752   7.699  -9.755  1.00  0.00    -0.354 N 
ATOM     49  C   UNL     1       0.880   5.243 -13.135  1.00  0.00     0.074 A 
ATOM     50  C   UNL     1       1.314   3.875 -12.927  1.00  0.00     0.031 C 
ATOM     51  C   UNL     1       2.563   8.185  -7.738  1.00  0.00     0.029 A 
ATOM     52  C   UNL     1       1.930   8.770  -8.908  1.00  0.00     0.049 A 
ATOM     53  H   UNL     1       1.260   7.760 -10.606  1.00  0.00     0.167 HD
ATOM     54  C   UNL     1       0.221   5.686 -14.234  1.00  0.00     0.034 A 
ATOM     55  C   UNL     1       1.667  10.083  -9.057  1.00  0.00     0.034 A 
ATOM     56  C   UNL     1      -0.216   7.047 -14.438  1.00  0.00     0.049 A 
ATOM     57  C   UNL     1       1.042  10.566 -10.332  1.00  0.00     0.074 A 
ATOM     58  C   UNL     1      -0.959   7.560 -15.489  1.00  0.00     0.029 A 
ATOM     59  N   UNL     1       0.064   8.114 -13.598  1.00  0.00    -0.354 N 
ATOM     60  N   UNL     1       0.685   9.873 -11.385  1.00  0.00    -0.248 NA
ATOM     61  C   UNL     1       0.791  12.010 -10.439  1.00  0.00     0.031 C 
ATOM     62  C   UNL     1      -1.057   8.947 -15.327  1.00  0.00     0.029 A 
ATOM     63  C   UNL     1      -0.441   9.291 -14.137  1.00  0.00     0.049 A 
ATOM     64  H   UNL     1       0.551   8.048 -12.745  1.00  0.00     0.167 HD
ATOM     65  C   UNL     1       0.170  10.800 -12.281  1.00  0.00     0.074 A 
ATOM     66  C   UNL     1       0.234  12.094 -11.637  1.00  0.00     0.031 C 
ATOM     67  C   UNL     1      -0.318  10.591 -13.528  1.00  0.00     0.034 A 
BRANCH  54  68
ATOM     68  C   UNL     1      -0.025   4.698 -15.342  1.00  0.00     0.023 A 
ATOM     69  C   UNL     1      -0.937   3.639 -15.207  1.00  0.00     0.031 A 
ATOM     70  C   UNL     1       0.648   4.847 -16.568  1.00  0.00     0.131 A 
ATOM     71  C   UNL     1      -1.127   2.747 -16.273  1.00  0.00     0.055 A 
ATOM     72  C   UNL     1       0.410   3.992 -17.643  1.00  0.00     0.041 A 
ATOM     73  F   UNL     1       1.543   5.832 -16.739  1.00  0.00    -0.206 F 
ATOM     74  C   UNL     1      -0.477   2.930 -17.497  1.00  0.00     0.022 A 
BRANCH  71  75
ATOM     75  S   UNL     1      -2.179   1.292 -16.015  1.00  0.00     0.124 S 
ATOM     76  O   UNL     1      -1.459   0.591 -14.955  1.00  0.00    -0.237 OA
ATOM     77  O   UNL     1      -3.454   1.888 -15.634  1.00  0.00    -0.237 OA
ATOM     78  O   UNL     1      -2.166   0.626 -17.315  1.00  0.00    -0.744 OA
ENDBRANCH  71  75
ENDBRANCH  54  68
BRANCH  55  79
ATOM     79  C   UNL     1       2.105  11.082  -8.043  1.00  0.00     0.023 A 
ATOM     80  C   UNL     1       1.181  11.799  -7.269  1.00  0.00     0.031 A 
ATOM     81  C   UNL     1       3.463  11.431  -7.952  1.00  0.00     0.131 A 
ATOM     82  C   UNL     1       1.626  12.866  -6.471  1.00  0.00     0.055 A 
ATOM     83  C   UNL     1       3.905  12.462  -7.121  1.00  0.00     0.041 A 
ATOM     84  F   UNL     1       4.381  10.782  -8.686  1.00  0.00    -0.206 F 
ATOM     85  C   UNL     1       2.982  13.193  -6.381  1.00  0.00     0.022 A 
BRANCH  82  86
ATOM     86  S   UNL     1       0.393  13.892  -5.623  1.00  0.00     0.124 S 
ATOM     87  O   UNL     1      -0.327  14.478  -6.748  1.00  0.00    -0.237 OA
ATOM     88  O   UNL     1      -0.338  12.902  -4.839  1.00  0.00    -0.237 OA
ATOM     89  O   UNL     1       1.204  14.824  -4.843  1.00  0.00    -0.744 OA
ENDBRANCH  82  86
ENDBRANCH  55  79
BRANCH  67  90
ATOM     90  C   UNL     1      -0.814  11.807 -14.263  1.00  0.00     0.023 A 
ATOM     91  C   UNL     1       0.071  12.814 -14.687  1.00  0.00     0.031 A 
ATOM     92  C   UNL     1      -2.189  11.998 -14.477  1.00  0.00     0.131 A 
ATOM     93  C   UNL     1      -0.433  13.996 -15.246  1.00  0.00     0.055 A 
ATOM     94  C   UNL     1      -2.681  13.150 -15.090  1.00  0.00     0.041 A 
ATOM     95  F   UNL     1      -3.078  11.074 -14.078  1.00  0.00    -0.206 F 
ATOM     96  C   UNL     1      -1.803  14.164 -15.466  1.00  0.00     0.022 A 
BRANCH  93  97
ATOM     97  S   UNL     1       0.716  15.355 -15.595  1.00  0.00     0.124 S 
ATOM     98  O   UNL     1       1.211  15.680 -14.261  1.00  0.00    -0.237 OA
ATOM     99  O   UNL     1       1.678  14.730 -16.497  1.00  0.00    -0.237 OA
ATOM    100  O   UNL     1      -0.134  16.374 -16.207  1.00  0.00    -0.744 OA
ENDBRANCH  93  97
ENDBRANCH  67  90
ENDBRANCH  41  42
ENDBRANCH  34  36
ENDBRANCH  33  34
ENDBRANCH  32  33
ENDBRANCH  31  32
ENDBRANCH  30  31
ENDBRANCH   1  30
TORSDOF 23
