REMARK SMILES COc1cccc(-c2nn(-c3cc4c(cc3C(N)=O)OCO4)cc2C(=O)OCCOCCOCCOC(=O)c2ccc(-c3c4nc(c(-c5cc(S(=O)(=O)[O-])ccc5F)c5ccc([nH]5)c(-c5cc(S(=O)(=O)[O-])ccc5F)c5nc(c(-c6cc(S(=O)(=O)[O-])ccc6F)c6ccc3[nH]6)C=C5)C=C4)cc2)c1
REMARK SMILES IDX 32 1 31 2 30 3 29 4 28 5 27 6 25 7 26 8 24 9 8 10 9 11 10 12
REMARK SMILES IDX 23 13 7 14 3 15 4 16 102 17 5 18 6 19 2 20 1 21 11 22 12 23
REMARK SMILES IDX 16 24 13 25 15 26 14 27 22 28 20 29 21 30 17 31 18 32 19 33
REMARK SMILES IDX 33 36 34 37 35 38 36 39 37 40 38 41 39 42 40 43 101 44 41 45
REMARK SMILES IDX 100 46 42 47 43 48 44 49 94 50 45 51 99 52 93 53 95 54 46 55
REMARK SMILES IDX 98 56 92 57 91 58 47 60 79 61 59 62 78 63 60 64 63 65 77 66
REMARK SMILES IDX 96 67 61 68 62 69 76 71 97 72 64 73 48 74 49 75 57 76 50 77
REMARK SMILES IDX 56 78 58 79 55 80 51 81 52 82 53 83 54 84 80 85 81 86 89 87
REMARK SMILES IDX 82 88 88 89 90 90 87 91 83 92 84 93 85 94 86 95 65 96 66 97
REMARK SMILES IDX 74 98 67 99 73 100 75 101 72 102 68 103 69 104 70 105 71 106
REMARK H PARENT 18 34 18 35 95 59 63 70
REMARK Flexibility Score: inf
ROOT
ATOM      1  C   UNL     1       3.317  -6.361   4.498  1.00  0.00     0.188 C 
ENDROOT
BRANCH   1   2
ATOM      2  C   UNL     1       2.005  -6.512   3.702  1.00  0.00     0.188 C 
BRANCH   2   3
ATOM      3  O   UNL     1       1.719  -7.815   3.258  1.00  0.00    -0.376 OA
BRANCH   3   4
ATOM      4  C   UNL     1       2.167  -8.254   1.989  1.00  0.00     0.202 C 
BRANCH   4   5
ATOM      5  C   UNL     1       3.261  -7.584   1.129  1.00  0.00     0.261 C 
BRANCH   5   6
ATOM      6  O   UNL     1       4.036  -6.535   1.704  1.00  0.00    -0.460 OA
BRANCH   6   7
ATOM      7  C   UNL     1       3.699  -5.255   1.340  1.00  0.00     0.342 C 
ATOM      8  O   UNL     1       2.813  -4.970   0.562  1.00  0.00    -0.246 OA
BRANCH   7   9
ATOM      9  C   UNL     1       4.473  -4.273   2.076  1.00  0.00     0.106 A 
ATOM     10  C   UNL     1       4.064  -3.034   2.649  1.00  0.00     0.107 A 
ATOM     11  N   UNL     1       5.110  -2.382   3.194  1.00  0.00    -0.167 NA
ATOM     12  N   UNL     1       6.177  -3.133   2.827  1.00  0.00    -0.239 N 
ATOM     13  C   UNL     1       5.788  -4.396   2.464  1.00  0.00     0.131 A 
BRANCH  10  14
ATOM     14  C   UNL     1       2.701  -2.532   2.765  1.00  0.00     0.007 A 
ATOM     15  C   UNL     1       0.869  -1.205   1.898  1.00  0.00     0.119 A 
ATOM     16  C   UNL     1       0.042  -1.704   2.908  1.00  0.00     0.046 A 
ATOM     17  C   UNL     1       2.199  -1.629   1.820  1.00  0.00     0.056 A 
ATOM     18  C   UNL     1       0.537  -2.596   3.857  1.00  0.00     0.005 A 
ATOM     19  C   UNL     1       1.872  -2.989   3.799  1.00  0.00     0.011 A 
BRANCH  15  20
ATOM     20  O   UNL     1       0.266  -0.294   1.075  1.00  0.00    -0.497 OA
ATOM     21  C   UNL     1       0.941   0.026  -0.133  1.00  0.00     0.278 C 
ENDBRANCH  15  20
ENDBRANCH  10  14
BRANCH  12  22
ATOM     22  C   UNL     1       7.505  -2.638   2.860  1.00  0.00     0.081 A 
ATOM     23  C   UNL     1       7.851  -1.732   3.883  1.00  0.00     0.079 A 
ATOM     24  C   UNL     1       8.468  -3.042   1.884  1.00  0.00     0.069 A 
ATOM     25  C   UNL     1       9.163  -1.313   3.943  1.00  0.00     0.167 A 
ATOM     26  C   UNL     1       9.814  -2.691   2.076  1.00  0.00     0.066 A 
ATOM     27  C   UNL     1      10.117  -1.808   3.086  1.00  0.00     0.166 A 
ATOM     28  O   UNL     1       9.683  -0.386   4.792  1.00  0.00    -0.454 OA
ATOM     29  O   UNL     1      11.345  -1.261   3.294  1.00  0.00    -0.454 OA
ATOM     30  C   UNL     1      10.998  -0.214   4.223  1.00  0.00     0.468 C 
BRANCH  24  31
ATOM     31  C   UNL     1       8.061  -3.577   0.530  1.00  0.00     0.251 C 
ATOM     32  N   UNL     1       9.019  -3.780  -0.423  1.00  0.00    -0.366 N 
ATOM     33  O   UNL     1       6.902  -3.749   0.177  1.00  0.00    -0.269 OA
ATOM     34  H   UNL     1       9.970  -3.656  -0.199  1.00  0.00     0.159 HD
ATOM     35  H   UNL     1       8.758  -4.049  -1.333  1.00  0.00     0.159 HD
ENDBRANCH  24  31
ENDBRANCH  12  22
ENDBRANCH   7   9
ENDBRANCH   6   7
ENDBRANCH   5   6
ENDBRANCH   4   5
ENDBRANCH   3   4
ENDBRANCH   2   3
ENDBRANCH   1   2
BRANCH   1  36
ATOM     36  O   UNL     1       4.284  -7.396   4.549  1.00  0.00    -0.376 OA
BRANCH  36  37
ATOM     37  C   UNL     1       3.938  -8.730   4.881  1.00  0.00     0.202 C 
BRANCH  37  38
ATOM     38  C   UNL     1       2.930  -9.082   5.970  1.00  0.00     0.261 C 
BRANCH  38  39
ATOM     39  O   UNL     1       1.927  -8.117   6.196  1.00  0.00    -0.460 OA
BRANCH  39  40
ATOM     40  C   UNL     1       2.233  -7.226   7.160  1.00  0.00     0.338 C 
ATOM     41  O   UNL     1       3.332  -7.024   7.658  1.00  0.00    -0.246 OA
BRANCH  40  42
ATOM     42  C   UNL     1       0.991  -6.585   7.591  1.00  0.00     0.060 A 
ATOM     43  C   UNL     1       1.108  -5.597   8.569  1.00  0.00     0.016 A 
ATOM     44  C   UNL     1      -0.218  -7.239   7.319  1.00  0.00     0.016 A 
ATOM     45  C   UNL     1       0.087  -5.487   9.482  1.00  0.00     0.010 A 
ATOM     46  C   UNL     1      -1.213  -7.158   8.253  1.00  0.00     0.010 A 
ATOM     47  C   UNL     1      -0.997  -6.363   9.375  1.00  0.00    -0.014 A 
BRANCH  47  48
ATOM     48  C   UNL     1      -2.006  -6.349  10.407  1.00  0.00     0.031 A 
ATOM     49  C   UNL     1      -2.922  -5.209  10.225  1.00  0.00     0.074 A 
ATOM     50  C   UNL     1      -2.130  -7.325  11.326  1.00  0.00     0.049 A 
ATOM     51  N   UNL     1      -2.901  -4.093  10.871  1.00  0.00    -0.248 NA
ATOM     52  C   UNL     1      -3.757  -5.180   9.010  1.00  0.00     0.031 C 
ATOM     53  C   UNL     1      -1.405  -8.594  11.416  1.00  0.00     0.029 A 
ATOM     54  N   UNL     1      -3.016  -7.416  12.352  1.00  0.00    -0.354 N 
ATOM     55  C   UNL     1      -3.944  -3.355  10.332  1.00  0.00     0.074 A 
ATOM     56  C   UNL     1      -4.194  -3.921   9.038  1.00  0.00     0.031 C 
ATOM     57  C   UNL     1      -2.040  -9.411  12.292  1.00  0.00     0.029 A 
ATOM     58  C   UNL     1      -3.140  -8.687  12.911  1.00  0.00     0.049 A 
ATOM     59  H   UNL     1      -3.532  -6.643  12.675  1.00  0.00     0.167 HD
ATOM     60  C   UNL     1      -4.741  -2.608  11.141  1.00  0.00     0.034 A 
ATOM     61  C   UNL     1      -4.121  -9.108  13.762  1.00  0.00     0.034 A 
ATOM     62  C   UNL     1      -4.088  -2.368  12.415  1.00  0.00     0.049 A 
ATOM     63  C   UNL     1      -4.684  -7.880  14.390  1.00  0.00     0.074 A 
ATOM     64  C   UNL     1      -2.875  -1.817  12.787  1.00  0.00     0.029 A 
ATOM     65  N   UNL     1      -4.511  -3.096  13.508  1.00  0.00    -0.354 N 
ATOM     66  N   UNL     1      -3.992  -7.112  15.189  1.00  0.00    -0.248 NA
ATOM     67  C   UNL     1      -5.798  -7.224  13.719  1.00  0.00     0.031 C 
ATOM     68  C   UNL     1      -2.410  -2.635  13.860  1.00  0.00     0.029 A 
ATOM     69  C   UNL     1      -3.400  -3.573  14.160  1.00  0.00     0.049 A 
ATOM     70  H   UNL     1      -5.447  -3.249  13.773  1.00  0.00     0.167 HD
ATOM     71  C   UNL     1      -4.285  -5.816  14.787  1.00  0.00     0.074 A 
ATOM     72  C   UNL     1      -5.466  -5.946  13.932  1.00  0.00     0.031 C 
ATOM     73  C   UNL     1      -3.374  -4.806  14.930  1.00  0.00     0.034 A 
BRANCH  60  74
ATOM     74  C   UNL     1      -6.241  -2.490  10.961  1.00  0.00     0.023 A 
ATOM     75  C   UNL     1      -6.925  -1.729  11.923  1.00  0.00     0.031 A 
ATOM     76  C   UNL     1      -7.059  -3.283  10.118  1.00  0.00     0.131 A 
ATOM     77  C   UNL     1      -8.308  -1.875  12.110  1.00  0.00     0.055 A 
ATOM     78  C   UNL     1      -8.445  -3.374  10.266  1.00  0.00     0.041 A 
ATOM     79  F   UNL     1      -6.582  -4.082   9.159  1.00  0.00    -0.206 F 
ATOM     80  C   UNL     1      -9.075  -2.698  11.291  1.00  0.00     0.022 A 
BRANCH  77  81
ATOM     81  S   UNL     1      -9.050  -1.111  13.570  1.00  0.00     0.124 S 
ATOM     82  O   UNL     1      -8.237  -1.684  14.638  1.00  0.00    -0.237 OA
ATOM     83  O   UNL     1      -8.850   0.308  13.296  1.00  0.00    -0.237 OA
ATOM     84  O   UNL     1     -10.436  -1.568  13.521  1.00  0.00    -0.744 OA
ENDBRANCH  77  81
ENDBRANCH  60  74
BRANCH  61  85
ATOM     85  C   UNL     1      -4.836 -10.425  13.747  1.00  0.00     0.023 A 
ATOM     86  C   UNL     1      -5.657 -10.884  14.807  1.00  0.00     0.031 A 
ATOM     87  C   UNL     1      -4.913 -11.159  12.541  1.00  0.00     0.131 A 
ATOM     88  C   UNL     1      -6.495 -12.017  14.631  1.00  0.00     0.055 A 
ATOM     89  C   UNL     1      -5.742 -12.271  12.373  1.00  0.00     0.041 A 
ATOM     90  F   UNL     1      -4.247 -10.769  11.443  1.00  0.00    -0.206 F 
ATOM     91  C   UNL     1      -6.545 -12.700  13.415  1.00  0.00     0.022 A 
BRANCH  88  92
ATOM     92  S   UNL     1      -7.609 -12.591  15.963  1.00  0.00     0.124 S 
ATOM     93  O   UNL     1      -6.671 -13.096  16.958  1.00  0.00    -0.237 OA
ATOM     94  O   UNL     1      -8.338 -11.378  16.312  1.00  0.00    -0.237 OA
ATOM     95  O   UNL     1      -8.420 -13.622  15.311  1.00  0.00    -0.744 OA
ENDBRANCH  88  92
ENDBRANCH  61  85
BRANCH  73  96
ATOM     96  C   UNL     1      -2.159  -5.041  15.810  1.00  0.00     0.023 A 
ATOM     97  C   UNL     1      -1.198  -6.065  15.633  1.00  0.00     0.031 A 
ATOM     98  C   UNL     1      -1.916  -4.091  16.818  1.00  0.00     0.131 A 
ATOM     99  C   UNL     1      -0.055  -6.109  16.460  1.00  0.00     0.055 A 
ATOM    100  C   UNL     1      -0.774  -4.124  17.615  1.00  0.00     0.041 A 
ATOM    101  F   UNL     1      -2.779  -3.082  17.024  1.00  0.00    -0.206 F 
ATOM    102  C   UNL     1       0.159  -5.138  17.443  1.00  0.00     0.022 A 
BRANCH  99 103
ATOM    103  S   UNL     1       1.173  -7.449  16.297  1.00  0.00     0.124 S 
ATOM    104  O   UNL     1       0.357  -8.656  16.245  1.00  0.00    -0.237 OA
ATOM    105  O   UNL     1       1.868  -7.092  15.064  1.00  0.00    -0.237 OA
ATOM    106  O   UNL     1       1.984  -7.316  17.510  1.00  0.00    -0.744 OA
ENDBRANCH  99 103
ENDBRANCH  73  96
ENDBRANCH  47  48
ENDBRANCH  40  42
ENDBRANCH  39  40
ENDBRANCH  38  39
ENDBRANCH  37  38
ENDBRANCH  36  37
ENDBRANCH   1  36
TORSDOF 24
