REMARK SMILES CC[NH+]1CCN(c2ccc(NC(=O)C3CCCC3)c(C(=O)OCCOCCOCCOC(=O)c3ccc(-c4c5nc(c(-c6cc(S(=O)(=O)[O-])ccc6F)c6ccc([nH]6)c(-c6cc(S(=O)(=O)[O-])ccc6F)c6nc(c(-c7cc(S(=O)(=O)[O-])ccc7F)c7ccc4[nH]7)C=C6)C=C5)cc3)c2)CC1
REMARK SMILES IDX 27 1 26 2 25 3 24 4 23 5 22 6 20 7 21 8 19 9 7 10 8 11 97 12
REMARK SMILES IDX 9 13 10 14 6 15 3 16 4 17 99 18 5 20 98 21 2 22 1 23 11 24
REMARK SMILES IDX 12 25 13 27 14 28 15 29 18 30 16 31 17 32 28 33 29 34 30 35
REMARK SMILES IDX 31 36 32 37 33 38 34 39 35 40 96 41 36 42 95 43 37 44 38 45
REMARK SMILES IDX 39 46 89 47 40 48 94 49 88 50 90 51 41 52 93 53 87 54 86 55
REMARK SMILES IDX 42 57 74 58 54 59 73 60 55 61 58 62 72 63 91 64 56 65 57 66
REMARK SMILES IDX 71 68 92 69 59 70 43 71 44 72 52 73 45 74 51 75 53 76 50 77
REMARK SMILES IDX 46 78 47 79 48 80 49 81 75 82 76 83 84 84 77 85 83 86 85 87
REMARK SMILES IDX 82 88 78 89 79 90 80 91 81 92 60 93 61 94 69 95 62 96 68 97
REMARK SMILES IDX 70 98 67 99 63 100 64 101 65 102 66 103
REMARK H PARENT 3 19 11 26 90 56 58 67
REMARK Flexibility Score: inf
ROOT
ATOM      1  C   UNL     1       5.801  -5.967  -3.069  1.00  0.00     0.188 C 
ENDROOT
BRANCH   1   2
ATOM      2  C   UNL     1       6.277  -7.278  -2.424  1.00  0.00     0.188 C 
BRANCH   2   3
ATOM      3  O   UNL     1       6.033  -8.406  -3.239  1.00  0.00    -0.376 OA
BRANCH   3   4
ATOM      4  C   UNL     1       4.779  -9.062  -3.203  1.00  0.00     0.202 C 
BRANCH   4   5
ATOM      5  C   UNL     1       3.456  -8.503  -2.629  1.00  0.00     0.261 C 
BRANCH   5   6
ATOM      6  O   UNL     1       3.474  -7.266  -1.918  1.00  0.00    -0.460 OA
BRANCH   6   7
ATOM      7  C   UNL     1       3.527  -7.286  -0.564  1.00  0.00     0.340 C 
ATOM      8  O   UNL     1       3.599  -8.270   0.150  1.00  0.00    -0.246 OA
BRANCH   7   9
ATOM      9  C   UNL     1       3.712  -5.879  -0.120  1.00  0.00     0.085 A 
ATOM     10  C   UNL     1       3.164  -3.520  -0.555  1.00  0.00     0.038 A 
ATOM     11  C   UNL     1       4.301  -3.202   0.186  1.00  0.00     0.028 A 
ATOM     12  C   UNL     1       2.894  -4.885  -0.708  1.00  0.00     0.043 A 
ATOM     13  C   UNL     1       5.095  -4.181   0.787  1.00  0.00     0.029 A 
ATOM     14  C   UNL     1       4.786  -5.527   0.716  1.00  0.00     0.055 A 
BRANCH  10  15
ATOM     15  N   UNL     1       2.400  -2.543  -1.183  1.00  0.00    -0.360 N 
ATOM     16  N   UNL     1       0.734  -0.376  -2.324  1.00  0.00    -0.332 N 
ATOM     17  C   UNL     1       2.202  -0.348  -2.380  1.00  0.00     0.283 C 
ATOM     18  C   UNL     1       0.253  -1.758  -2.174  1.00  0.00     0.283 C 
ATOM     19  H   UNL     1       0.399  -0.041  -3.228  1.00  0.00     0.348 HD
ATOM     20  C   UNL     1       2.948  -1.180  -1.316  1.00  0.00     0.178 C 
ATOM     21  C   UNL     1       0.933  -2.628  -1.095  1.00  0.00     0.178 C 
BRANCH  16  22
ATOM     22  C   UNL     1       0.114   0.609  -1.440  1.00  0.00     0.258 C 
ATOM     23  C   UNL     1       0.587   0.713   0.004  1.00  0.00     0.071 C 
ENDBRANCH  16  22
ENDBRANCH  10  15
BRANCH  14  24
ATOM     24  N   UNL     1       5.561  -6.505   1.363  1.00  0.00    -0.325 N 
ATOM     25  C   UNL     1       6.483  -6.518   2.363  1.00  0.00     0.227 C 
ATOM     26  H   UNL     1       5.394  -7.406   1.001  1.00  0.00     0.169 HD
ATOM     27  O   UNL     1       7.078  -7.598   2.495  1.00  0.00    -0.274 OA
BRANCH  25  28
ATOM     28  C   UNL     1       6.826  -5.378   3.329  1.00  0.00     0.079 C 
ATOM     29  C   UNL     1       7.904  -4.405   2.855  1.00  0.00     0.013 C 
ATOM     30  C   UNL     1       5.682  -4.536   3.908  1.00  0.00     0.013 C 
ATOM     31  C   UNL     1       7.637  -3.123   3.635  1.00  0.00     0.001 C 
ATOM     32  C   UNL     1       6.129  -3.076   3.826  1.00  0.00     0.001 C 
ENDBRANCH  25  28
ENDBRANCH  14  24
ENDBRANCH   7   9
ENDBRANCH   6   7
ENDBRANCH   5   6
ENDBRANCH   4   5
ENDBRANCH   3   4
ENDBRANCH   2   3
ENDBRANCH   1   2
BRANCH   1  33
ATOM     33  O   UNL     1       5.285  -6.186  -4.380  1.00  0.00    -0.376 OA
BRANCH  33  34
ATOM     34  C   UNL     1       6.103  -5.675  -5.426  1.00  0.00     0.202 C 
BRANCH  34  35
ATOM     35  C   UNL     1       7.472  -6.347  -5.633  1.00  0.00     0.261 C 
BRANCH  35  36
ATOM     36  O   UNL     1       8.343  -6.421  -4.489  1.00  0.00    -0.460 OA
BRANCH  36  37
ATOM     37  C   UNL     1       8.908  -5.276  -4.042  1.00  0.00     0.338 C 
ATOM     38  O   UNL     1       8.736  -4.158  -4.492  1.00  0.00    -0.246 OA
BRANCH  37  39
ATOM     39  C   UNL     1       9.643  -5.590  -2.792  1.00  0.00     0.060 A 
ATOM     40  C   UNL     1       9.275  -4.946  -1.605  1.00  0.00     0.016 A 
ATOM     41  C   UNL     1      10.688  -6.521  -2.787  1.00  0.00     0.016 A 
ATOM     42  C   UNL     1       9.966  -5.219  -0.419  1.00  0.00     0.010 A 
ATOM     43  C   UNL     1      11.384  -6.783  -1.598  1.00  0.00     0.010 A 
ATOM     44  C   UNL     1      11.040  -6.120  -0.407  1.00  0.00    -0.014 A 
BRANCH  44  45
ATOM     45  C   UNL     1      11.901  -6.232   0.804  1.00  0.00     0.031 A 
ATOM     46  C   UNL     1      13.162  -5.413   0.867  1.00  0.00     0.074 A 
ATOM     47  C   UNL     1      11.564  -7.016   1.846  1.00  0.00     0.049 A 
ATOM     48  N   UNL     1      14.083  -5.370   1.795  1.00  0.00    -0.248 NA
ATOM     49  C   UNL     1      13.414  -4.519  -0.274  1.00  0.00     0.031 C 
ATOM     50  C   UNL     1      10.347  -7.817   1.937  1.00  0.00     0.029 A 
ATOM     51  N   UNL     1      12.219  -7.268   3.029  1.00  0.00    -0.354 N 
ATOM     52  C   UNL     1      15.030  -4.455   1.348  1.00  0.00     0.074 A 
ATOM     53  C   UNL     1      14.578  -3.981   0.056  1.00  0.00     0.031 C 
ATOM     54  C   UNL     1      10.345  -8.479   3.108  1.00  0.00     0.029 A 
ATOM     55  C   UNL     1      11.580  -8.186   3.834  1.00  0.00     0.049 A 
ATOM     56  H   UNL     1      13.066  -6.833   3.278  1.00  0.00     0.167 HD
ATOM     57  C   UNL     1      16.171  -4.047   1.956  1.00  0.00     0.034 A 
ATOM     58  C   UNL     1      11.960  -8.746   5.003  1.00  0.00     0.034 A 
ATOM     59  C   UNL     1      16.621  -4.531   3.237  1.00  0.00     0.049 A 
ATOM     60  C   UNL     1      13.278  -8.336   5.622  1.00  0.00     0.074 A 
ATOM     61  C   UNL     1      17.755  -4.167   3.944  1.00  0.00     0.029 A 
ATOM     62  N   UNL     1      15.973  -5.495   3.998  1.00  0.00    -0.354 N 
ATOM     63  N   UNL     1      14.157  -7.459   5.193  1.00  0.00    -0.248 NA
ATOM     64  C   UNL     1      13.653  -8.987   6.886  1.00  0.00     0.031 C 
ATOM     65  C   UNL     1      17.829  -4.960   5.094  1.00  0.00     0.029 A 
ATOM     66  C   UNL     1      16.702  -5.764   5.147  1.00  0.00     0.049 A 
ATOM     67  H   UNL     1      15.121  -5.924   3.757  1.00  0.00     0.167 HD
ATOM     68  C   UNL     1      15.172  -7.437   6.149  1.00  0.00     0.074 A 
ATOM     69  C   UNL     1      14.789  -8.373   7.184  1.00  0.00     0.031 C 
ATOM     70  C   UNL     1      16.316  -6.706   6.171  1.00  0.00     0.034 A 
BRANCH  57  71
ATOM     71  C   UNL     1      17.045  -3.077   1.202  1.00  0.00     0.023 A 
ATOM     72  C   UNL     1      16.635  -1.760   0.933  1.00  0.00     0.031 A 
ATOM     73  C   UNL     1      18.301  -3.490   0.723  1.00  0.00     0.131 A 
ATOM     74  C   UNL     1      17.448  -0.921   0.155  1.00  0.00     0.055 A 
ATOM     75  C   UNL     1      19.136  -2.628   0.011  1.00  0.00     0.041 A 
ATOM     76  F   UNL     1      18.732  -4.744   0.931  1.00  0.00    -0.206 F 
ATOM     77  C   UNL     1      18.706  -1.339  -0.288  1.00  0.00     0.022 A 
BRANCH  74  78
ATOM     78  S   UNL     1      16.786   0.682  -0.377  1.00  0.00     0.124 S 
ATOM     79  O   UNL     1      15.603   0.279  -1.133  1.00  0.00    -0.237 OA
ATOM     80  O   UNL     1      16.534   1.356   0.892  1.00  0.00    -0.237 OA
ATOM     81  O   UNL     1      17.867   1.250  -1.180  1.00  0.00    -0.744 OA
ENDBRANCH  74  78
ENDBRANCH  57  71
BRANCH  58  82
ATOM     82  C   UNL     1      11.130  -9.811   5.646  1.00  0.00     0.023 A 
ATOM     83  C   UNL     1      10.586  -9.644   6.932  1.00  0.00     0.031 A 
ATOM     84  C   UNL     1      10.948 -11.055   5.014  1.00  0.00     0.131 A 
ATOM     85  C   UNL     1       9.935 -10.718   7.563  1.00  0.00     0.055 A 
ATOM     86  C   UNL     1      10.248 -12.099   5.622  1.00  0.00     0.041 A 
ATOM     87  F   UNL     1      11.462 -11.278   3.794  1.00  0.00    -0.206 F 
ATOM     88  C   UNL     1       9.750 -11.939   6.911  1.00  0.00     0.022 A 
BRANCH  85  89
ATOM     89  S   UNL     1       9.430 -10.535   9.297  1.00  0.00     0.124 S 
ATOM     90  O   UNL     1      10.696 -10.206   9.943  1.00  0.00    -0.237 OA
ATOM     91  O   UNL     1       8.451  -9.456   9.219  1.00  0.00    -0.237 OA
ATOM     92  O   UNL     1       8.882 -11.848   9.634  1.00  0.00    -0.744 OA
ENDBRANCH  85  89
ENDBRANCH  58  82
BRANCH  70  93
ATOM     93  C   UNL     1      17.211  -6.856   7.378  1.00  0.00     0.023 A 
ATOM     94  C   UNL     1      17.901  -8.051   7.650  1.00  0.00     0.031 A 
ATOM     95  C   UNL     1      17.375  -5.781   8.271  1.00  0.00     0.131 A 
ATOM     96  C   UNL     1      18.683  -8.158   8.811  1.00  0.00     0.055 A 
ATOM     97  C   UNL     1      18.199  -5.875   9.393  1.00  0.00     0.041 A 
ATOM     98  F   UNL     1      16.741  -4.616   8.062  1.00  0.00    -0.206 F 
ATOM     99  C   UNL     1      18.849  -7.073   9.675  1.00  0.00     0.022 A 
BRANCH  96 100
ATOM    100  S   UNL     1      19.422  -9.764   9.223  1.00  0.00     0.124 S 
ATOM    101  O   UNL     1      18.247 -10.625   9.314  1.00  0.00    -0.237 OA
ATOM    102  O   UNL     1      20.302 -10.004   8.085  1.00  0.00    -0.237 OA
ATOM    103  O   UNL     1      20.105  -9.512  10.491  1.00  0.00    -0.744 OA
ENDBRANCH  96 100
ENDBRANCH  70  93
ENDBRANCH  44  45
ENDBRANCH  37  39
ENDBRANCH  36  37
ENDBRANCH  35  36
ENDBRANCH  34  35
ENDBRANCH  33  34
ENDBRANCH   1  33
TORSDOF 24
