REMARK SMILES COc1ccc(Cl)c2c1N[C@@H](c1ccc(C(=O)OCCOCCOCCOC(=O)c3ccc(-c4c5nc(c(-c6cc(S(=O)(=O)[O-])ccc6F)c6ccc([nH]6)c(-c6cc(S(=O)(=O)[O-])ccc6F)c6nc(c(-c7cc(S(=O)(=O)[O-])ccc7F)c7ccc4[nH]7)C=C6)C=C5)cc3)cc1)[C@@H]1CC=C[C@H]21
REMARK SMILES IDX 23 1 22 2 21 3 20 4 19 5 18 6 16 7 17 8 15 9 12 10 13 11
REMARK SMILES IDX 94 12 14 13 93 14 11 15 3 16 4 17 9 18 5 19 8 20 10 21 6 22
REMARK SMILES IDX 99 23 7 25 95 26 98 27 96 28 97 29 2 30 1 31 24 32 25 33
REMARK SMILES IDX 26 34 27 35 28 36 29 37 30 38 31 39 92 40 32 41 91 42 33 43
REMARK SMILES IDX 34 44 35 45 85 46 36 47 90 48 84 49 86 50 37 51 89 52 83 53
REMARK SMILES IDX 82 54 38 56 70 57 50 58 69 59 51 60 54 61 68 62 87 63 52 64
REMARK SMILES IDX 53 65 67 67 88 68 55 69 39 70 40 71 48 72 41 73 47 74 49 75
REMARK SMILES IDX 46 76 42 77 43 78 44 79 45 80 71 81 72 82 80 83 73 84 79 85
REMARK SMILES IDX 81 86 78 87 74 88 75 89 76 90 77 91 56 92 57 93 65 94 58 95
REMARK SMILES IDX 64 96 66 97 63 98 59 99 60 100 61 101 62 102
REMARK H PARENT 10 24 86 55 54 66
REMARK Flexibility Score: inf
ROOT
ATOM      1  C   UNL     1       7.481   2.861  -2.264  1.00  0.00     0.188 C 
ENDROOT
BRANCH   1   2
ATOM      2  C   UNL     1       7.883   3.976  -1.272  1.00  0.00     0.188 C 
BRANCH   2   3
ATOM      3  O   UNL     1       9.038   4.692  -1.638  1.00  0.00    -0.376 OA
BRANCH   3   4
ATOM      4  C   UNL     1      10.307   4.315  -1.137  1.00  0.00     0.202 C 
BRANCH   4   5
ATOM      5  C   UNL     1      10.655   2.952  -0.503  1.00  0.00     0.261 C 
BRANCH   5   6
ATOM      6  O   UNL     1       9.636   1.952  -0.479  1.00  0.00    -0.460 OA
BRANCH   6   7
ATOM      7  C   UNL     1       9.093   1.695   0.739  1.00  0.00     0.338 C 
ATOM      8  O   UNL     1       9.418   2.193   1.802  1.00  0.00    -0.246 OA
BRANCH   7   9
ATOM      9  C   UNL     1       7.907   0.823   0.582  1.00  0.00     0.060 A 
ATOM     10  C   UNL     1       5.646  -0.852   0.439  1.00  0.00    -0.025 A 
ATOM     11  C   UNL     1       5.656   0.272   1.283  1.00  0.00     0.007 A 
ATOM     12  C   UNL     1       6.746  -1.043  -0.418  1.00  0.00     0.007 A 
ATOM     13  C   UNL     1       6.771   1.111   1.344  1.00  0.00     0.016 A 
ATOM     14  C   UNL     1       7.886  -0.241  -0.322  1.00  0.00     0.016 A 
BRANCH  10  15
ATOM     15  C   UNL     1       4.554  -1.926   0.520  1.00  0.00     0.114 C 
ATOM     16  C   UNL     1       0.956  -1.588   1.545  1.00  0.00     0.142 A 
ATOM     17  C   UNL     1      -0.111  -2.335   2.045  1.00  0.00     0.050 A 
ATOM     18  C   UNL     1       2.249  -2.136   1.421  1.00  0.00     0.083 A 
ATOM     19  C   UNL     1       0.090  -3.662   2.406  1.00  0.00     0.025 A 
ATOM     20  C   UNL     1       2.450  -3.478   1.789  1.00  0.00     0.005 A 
ATOM     21  N   UNL     1       3.305  -1.349   0.986  1.00  0.00    -0.375 N 
ATOM     22  C   UNL     1       1.360  -4.229   2.282  1.00  0.00     0.047 A 
ATOM     23  C   UNL     1       3.834  -4.063   1.728  1.00  0.00     0.051 C 
ATOM     24  H   UNL     1       3.205  -0.370   0.993  1.00  0.00     0.161 HD
ATOM     25  Cl  UNL     1       1.535  -5.872   2.806  1.00  0.00    -0.084 Cl
ATOM     26  C   UNL     1       4.986  -3.062   1.483  1.00  0.00     0.031 C 
ATOM     27  C   UNL     1       4.056  -5.060   0.619  1.00  0.00    -0.023 C 
ATOM     28  C   UNL     1       6.095  -3.976   0.919  1.00  0.00     0.034 C 
ATOM     29  C   UNL     1       5.319  -5.017   0.180  1.00  0.00    -0.030 C 
BRANCH  16  30
ATOM     30  O   UNL     1       0.710  -0.264   1.273  1.00  0.00    -0.495 OA
ATOM     31  C   UNL     1       0.643  -0.013  -0.131  1.00  0.00     0.278 C 
ENDBRANCH  16  30
ENDBRANCH  10  15
ENDBRANCH   7   9
ENDBRANCH   6   7
ENDBRANCH   5   6
ENDBRANCH   4   5
ENDBRANCH   3   4
ENDBRANCH   2   3
ENDBRANCH   1   2
BRANCH   1  32
ATOM     32  O   UNL     1       8.346   2.511  -3.333  1.00  0.00    -0.376 OA
BRANCH  32  33
ATOM     33  C   UNL     1       8.789   3.540  -4.207  1.00  0.00     0.202 C 
BRANCH  33  34
ATOM     34  C   UNL     1       7.819   4.603  -4.761  1.00  0.00     0.261 C 
BRANCH  34  35
ATOM     35  O   UNL     1       6.907   5.191  -3.820  1.00  0.00    -0.460 OA
BRANCH  35  36
ATOM     36  C   UNL     1       5.598   4.881  -3.989  1.00  0.00     0.338 C 
ATOM     37  O   UNL     1       5.112   4.162  -4.851  1.00  0.00    -0.246 OA
BRANCH  36  38
ATOM     38  C   UNL     1       4.822   5.417  -2.856  1.00  0.00     0.060 A 
ATOM     39  C   UNL     1       4.344   4.539  -1.871  1.00  0.00     0.016 A 
ATOM     40  C   UNL     1       4.527   6.778  -2.796  1.00  0.00     0.016 A 
ATOM     41  C   UNL     1       3.579   5.024  -0.812  1.00  0.00     0.010 A 
ATOM     42  C   UNL     1       3.725   7.256  -1.756  1.00  0.00     0.010 A 
ATOM     43  C   UNL     1       3.233   6.379  -0.773  1.00  0.00    -0.014 A 
BRANCH  43  44
ATOM     44  C   UNL     1       2.208   6.844   0.189  1.00  0.00     0.031 A 
ATOM     45  C   UNL     1       0.774   6.868  -0.253  1.00  0.00     0.074 A 
ATOM     46  C   UNL     1       2.545   7.237   1.429  1.00  0.00     0.049 A 
ATOM     47  N   UNL     1      -0.284   7.267   0.400  1.00  0.00    -0.248 NA
ATOM     48  C   UNL     1       0.494   6.377  -1.614  1.00  0.00     0.031 C 
ATOM     49  C   UNL     1       3.899   7.225   1.977  1.00  0.00     0.029 A 
ATOM     50  N   UNL     1       1.770   7.737   2.446  1.00  0.00    -0.354 N 
ATOM     51  C   UNL     1      -1.353   7.079  -0.465  1.00  0.00     0.074 A 
ATOM     52  C   UNL     1      -0.816   6.556  -1.701  1.00  0.00     0.031 C 
ATOM     53  C   UNL     1       3.864   7.719   3.227  1.00  0.00     0.029 A 
ATOM     54  C   UNL     1       2.491   8.109   3.556  1.00  0.00     0.049 A 
ATOM     55  H   UNL     1       0.791   7.822   2.386  1.00  0.00     0.167 HD
ATOM     56  C   UNL     1      -2.666   7.315  -0.243  1.00  0.00     0.034 A 
ATOM     57  C   UNL     1       2.094   8.712   4.696  1.00  0.00     0.034 A 
ATOM     58  C   UNL     1      -3.191   7.843   0.987  1.00  0.00     0.049 A 
ATOM     59  C   UNL     1       0.630   9.020   4.899  1.00  0.00     0.074 A 
ATOM     60  C   UNL     1      -4.513   8.089   1.312  1.00  0.00     0.029 A 
ATOM     61  N   UNL     1      -2.432   8.215   2.086  1.00  0.00    -0.354 N 
ATOM     62  N   UNL     1      -0.382   8.777   4.100  1.00  0.00    -0.248 NA
ATOM     63  C   UNL     1       0.248   9.674   6.160  1.00  0.00     0.031 C 
ATOM     64  C   UNL     1      -4.549   8.668   2.580  1.00  0.00     0.029 A 
ATOM     65  C   UNL     1      -3.256   8.716   3.079  1.00  0.00     0.049 A 
ATOM     66  H   UNL     1      -1.453   8.134   2.151  1.00  0.00     0.167 HD
ATOM     67  C   UNL     1      -1.520   9.219   4.772  1.00  0.00     0.074 A 
ATOM     68  C   UNL     1      -1.074   9.731   6.050  1.00  0.00     0.031 C 
ATOM     69  C   UNL     1      -2.813   9.203   4.363  1.00  0.00     0.034 A 
BRANCH  56  70
ATOM     70  C   UNL     1      -3.647   7.009  -1.341  1.00  0.00     0.023 A 
ATOM     71  C   UNL     1      -4.382   8.053  -1.931  1.00  0.00     0.031 A 
ATOM     72  C   UNL     1      -3.958   5.685  -1.695  1.00  0.00     0.131 A 
ATOM     73  C   UNL     1      -5.429   7.753  -2.808  1.00  0.00     0.055 A 
ATOM     74  C   UNL     1      -4.978   5.393  -2.600  1.00  0.00     0.041 A 
ATOM     75  F   UNL     1      -3.275   4.658  -1.163  1.00  0.00    -0.206 F 
ATOM     76  C   UNL     1      -5.729   6.429  -3.150  1.00  0.00     0.022 A 
BRANCH  73  77
ATOM     77  S   UNL     1      -6.475   9.064  -3.494  1.00  0.00     0.124 S 
ATOM     78  O   UNL     1      -6.400   8.792  -4.928  1.00  0.00    -0.237 OA
ATOM     79  O   UNL     1      -7.764   8.780  -2.871  1.00  0.00    -0.237 OA
ATOM     80  O   UNL     1      -5.820  10.295  -3.064  1.00  0.00    -0.744 OA
ENDBRANCH  73  77
ENDBRANCH  56  70
BRANCH  57  81
ATOM     81  C   UNL     1       3.108   9.030   5.741  1.00  0.00     0.023 A 
ATOM     82  C   UNL     1       4.142   9.949   5.486  1.00  0.00     0.031 A 
ATOM     83  C   UNL     1       3.106   8.359   6.975  1.00  0.00     0.131 A 
ATOM     84  C   UNL     1       5.163  10.127   6.428  1.00  0.00     0.055 A 
ATOM     85  C   UNL     1       4.092   8.586   7.937  1.00  0.00     0.041 A 
ATOM     86  F   UNL     1       2.141   7.472   7.260  1.00  0.00    -0.206 F 
ATOM     87  C   UNL     1       5.136   9.464   7.659  1.00  0.00     0.022 A 
BRANCH  84  88
ATOM     88  S   UNL     1       6.605  11.160   6.051  1.00  0.00     0.124 S 
ATOM     89  O   UNL     1       6.637  12.074   7.189  1.00  0.00    -0.237 OA
ATOM     90  O   UNL     1       7.675  10.166   6.010  1.00  0.00    -0.237 OA
ATOM     91  O   UNL     1       6.268  11.767   4.767  1.00  0.00    -0.744 OA
ENDBRANCH  84  88
ENDBRANCH  57  81
BRANCH  69  92
ATOM     92  C   UNL     1      -3.882   9.729   5.291  1.00  0.00     0.023 A 
ATOM     93  C   UNL     1      -4.891   8.864   5.757  1.00  0.00     0.031 A 
ATOM     94  C   UNL     1      -3.999  11.100   5.571  1.00  0.00     0.131 A 
ATOM     95  C   UNL     1      -5.998   9.386   6.439  1.00  0.00     0.055 A 
ATOM     96  C   UNL     1      -5.081  11.610   6.292  1.00  0.00     0.041 A 
ATOM     97  F   UNL     1      -3.070  11.967   5.138  1.00  0.00    -0.206 F 
ATOM     98  C   UNL     1      -6.093  10.753   6.716  1.00  0.00     0.022 A 
BRANCH  95  99
ATOM     99  S   UNL     1      -7.387   8.323   6.922  1.00  0.00     0.124 S 
ATOM    100  O   UNL     1      -7.465   8.562   8.362  1.00  0.00    -0.237 OA
ATOM    101  O   UNL     1      -8.485   8.880   6.138  1.00  0.00    -0.237 OA
ATOM    102  O   UNL     1      -6.955   6.983   6.539  1.00  0.00    -0.744 OA
ENDBRANCH  95  99
ENDBRANCH  69  92
ENDBRANCH  43  44
ENDBRANCH  36  38
ENDBRANCH  35  36
ENDBRANCH  34  35
ENDBRANCH  33  34
ENDBRANCH  32  33
ENDBRANCH   1  32
TORSDOF 22
