REMARK SMILES CC(C)c1cc2c(cc1Cl)C=C(C(=O)OCCOCCOCCOC(=O)c1ccc(-c3c4nc(c(-c5cc(S(=O)(=O)[O-])ccc5F)c5ccc([nH]5)c(-c5cc(S(=O)(=O)[O-])ccc5F)c5nc(c(-c6cc(S(=O)(=O)[O-])ccc6F)c6ccc3[nH]6)C=C5)C=C4)cc1)[C@@H](C(F)(F)F)O2
REMARK SMILES IDX 20 1 19 2 18 3 17 4 16 5 15 6 13 7 14 8 12 9 4 10 5 11 9 12
REMARK SMILES IDX 6 13 8 14 10 15 7 16 95 17 11 18 90 19 2 20 1 21 3 22 91 23
REMARK SMILES IDX 92 24 93 25 94 26 21 27 22 28 23 29 24 30 25 31 26 32 27 33
REMARK SMILES IDX 28 34 89 35 29 36 88 37 30 38 31 39 32 40 82 41 33 42 87 43
REMARK SMILES IDX 81 44 83 45 34 46 86 47 80 48 79 49 35 51 67 52 47 53 66 54
REMARK SMILES IDX 48 55 51 56 65 57 84 58 49 59 50 60 64 62 85 63 52 64 36 65
REMARK SMILES IDX 37 66 45 67 38 68 44 69 46 70 43 71 39 72 40 73 41 74 42 75
REMARK SMILES IDX 68 76 69 77 77 78 70 79 76 80 78 81 75 82 71 83 72 84 73 85
REMARK SMILES IDX 74 86 53 87 54 88 62 89 55 90 61 91 63 92 60 93 56 94 57 95
REMARK SMILES IDX 58 96 59 97
REMARK H PARENT 83 50 51 61
REMARK Flexibility Score: inf
ROOT
ATOM      1  C   UNL     1      -7.715  -1.218   3.615  1.00  0.00     0.188 C 
ENDROOT
BRANCH   1   2
ATOM      2  C   UNL     1      -8.659  -0.245   2.876  1.00  0.00     0.188 C 
BRANCH   2   3
ATOM      3  O   UNL     1      -9.964  -0.756   2.719  1.00  0.00    -0.376 OA
BRANCH   3   4
ATOM      4  C   UNL     1     -10.380  -1.275   1.472  1.00  0.00     0.202 C 
BRANCH   4   5
ATOM      5  C   UNL     1      -9.478  -2.140   0.573  1.00  0.00     0.261 C 
BRANCH   5   6
ATOM      6  O   UNL     1      -8.067  -2.060   0.795  1.00  0.00    -0.460 OA
BRANCH   6   7
ATOM      7  C   UNL     1      -7.370  -1.250  -0.032  1.00  0.00     0.338 C 
ATOM      8  O   UNL     1      -7.824  -0.569  -0.936  1.00  0.00    -0.246 OA
BRANCH   7   9
ATOM      9  C   UNL     1      -5.960  -1.224   0.405  1.00  0.00     0.087 C 
ATOM     10  C   UNL     1      -1.196   0.106   1.365  1.00  0.00    -0.023 A 
ATOM     11  C   UNL     1      -1.913  -1.113   1.361  1.00  0.00     0.052 A 
ATOM     12  C   UNL     1      -1.933   1.291   1.202  1.00  0.00     0.045 A 
ATOM     13  C   UNL     1      -3.291  -1.154   1.132  1.00  0.00     0.128 A 
ATOM     14  C   UNL     1      -3.321   1.248   0.998  1.00  0.00     0.032 A 
ATOM     15  Cl  UNL     1      -1.220   2.860   1.157  1.00  0.00    -0.084 Cl
ATOM     16  C   UNL     1      -3.994   0.027   0.921  1.00  0.00     0.019 A 
ATOM     17  O   UNL     1      -3.859  -2.395   1.099  1.00  0.00    -0.475 OA
ATOM     18  C   UNL     1      -5.396  -0.019   0.545  1.00  0.00     0.027 C 
ATOM     19  C   UNL     1      -5.248  -2.523   0.687  1.00  0.00     0.316 C 
BRANCH  10  20
ATOM     20  C   UNL     1       0.325   0.002   1.414  1.00  0.00     0.014 C 
ATOM     21  C   UNL     1       0.893   0.069  -0.009  1.00  0.00     0.012 C 
ATOM     22  C   UNL     1       1.062   0.967   2.345  1.00  0.00     0.012 C 
ENDBRANCH  10  20
BRANCH  19  23
ATOM     23  C   UNL     1      -5.311  -3.495  -0.500  1.00  0.00     0.430 C 
ATOM     24  F   UNL     1      -4.650  -4.648  -0.228  1.00  0.00    -0.167 F 
ATOM     25  F   UNL     1      -6.585  -3.848  -0.795  1.00  0.00    -0.167 F 
ATOM     26  F   UNL     1      -4.766  -2.973  -1.621  1.00  0.00    -0.167 F 
ENDBRANCH  19  23
ENDBRANCH   7   9
ENDBRANCH   6   7
ENDBRANCH   5   6
ENDBRANCH   4   5
ENDBRANCH   3   4
ENDBRANCH   2   3
ENDBRANCH   1   2
BRANCH   1  27
ATOM     27  O   UNL     1      -8.220  -2.462   4.092  1.00  0.00    -0.376 OA
BRANCH  27  28
ATOM     28  C   UNL     1      -9.432  -2.475   4.840  1.00  0.00     0.202 C 
BRANCH  28  29
ATOM     29  C   UNL     1      -9.556  -1.596   6.093  1.00  0.00     0.261 C 
BRANCH  29  30
ATOM     30  O   UNL     1      -9.271  -0.204   5.880  1.00  0.00    -0.460 OA
BRANCH  30  31
ATOM     31  C   UNL     1      -8.165   0.269   6.513  1.00  0.00     0.338 C 
ATOM     32  O   UNL     1      -7.421  -0.351   7.253  1.00  0.00    -0.246 OA
BRANCH  31  33
ATOM     33  C   UNL     1      -7.862   1.623   6.002  1.00  0.00     0.060 A 
ATOM     34  C   UNL     1      -8.802   2.652   6.077  1.00  0.00     0.016 A 
ATOM     35  C   UNL     1      -6.600   1.854   5.437  1.00  0.00     0.016 A 
ATOM     36  C   UNL     1      -8.467   3.923   5.599  1.00  0.00     0.010 A 
ATOM     37  C   UNL     1      -6.275   3.119   4.943  1.00  0.00     0.010 A 
ATOM     38  C   UNL     1      -7.200   4.167   5.036  1.00  0.00    -0.014 A 
BRANCH  38  39
ATOM     39  C   UNL     1      -6.789   5.552   4.698  1.00  0.00     0.031 A 
ATOM     40  C   UNL     1      -6.812   6.063   3.290  1.00  0.00     0.074 A 
ATOM     41  C   UNL     1      -6.363   6.346   5.699  1.00  0.00     0.049 A 
ATOM     42  N   UNL     1      -6.561   7.271   2.856  1.00  0.00    -0.248 NA
ATOM     43  C   UNL     1      -7.154   5.101   2.232  1.00  0.00     0.031 C 
ATOM     44  C   UNL     1      -6.260   5.933   7.098  1.00  0.00     0.029 A 
ATOM     45  N   UNL     1      -5.937   7.651   5.701  1.00  0.00    -0.354 N 
ATOM     46  C   UNL     1      -6.738   7.228   1.478  1.00  0.00     0.074 A 
ATOM     47  C   UNL     1      -7.069   5.858   1.143  1.00  0.00     0.031 C 
ATOM     48  C   UNL     1      -5.813   6.966   7.826  1.00  0.00     0.029 A 
ATOM     49  C   UNL     1      -5.575   8.109   6.946  1.00  0.00     0.049 A 
ATOM     50  H   UNL     1      -5.896   8.206   4.889  1.00  0.00     0.167 HD
ATOM     51  C   UNL     1      -6.654   8.247   0.589  1.00  0.00     0.034 A 
ATOM     52  C   UNL     1      -5.109   9.312   7.341  1.00  0.00     0.034 A 
ATOM     53  C   UNL     1      -6.309   9.602   0.946  1.00  0.00     0.049 A 
ATOM     54  C   UNL     1      -4.996  10.420   6.325  1.00  0.00     0.074 A 
ATOM     55  C   UNL     1      -6.260  10.714   0.122  1.00  0.00     0.029 A 
ATOM     56  N   UNL     1      -5.943  10.033   2.214  1.00  0.00    -0.354 N 
ATOM     57  N   UNL     1      -5.297  10.399   5.048  1.00  0.00    -0.248 NA
ATOM     58  C   UNL     1      -4.502  11.720   6.800  1.00  0.00     0.031 C 
ATOM     59  C   UNL     1      -5.795  11.795   0.871  1.00  0.00     0.029 A 
ATOM     60  C   UNL     1      -5.631  11.384   2.183  1.00  0.00     0.049 A 
ATOM     61  H   UNL     1      -5.910   9.464   3.016  1.00  0.00     0.167 HD
ATOM     62  C   UNL     1      -5.059  11.687   4.575  1.00  0.00     0.074 A 
ATOM     63  C   UNL     1      -4.608  12.467   5.708  1.00  0.00     0.031 C 
ATOM     64  C   UNL     1      -5.201  12.171   3.316  1.00  0.00     0.034 A 
BRANCH  51  65
ATOM     65  C   UNL     1      -6.973   7.980  -0.862  1.00  0.00     0.023 A 
ATOM     66  C   UNL     1      -5.997   8.197  -1.855  1.00  0.00     0.031 A 
ATOM     67  C   UNL     1      -8.287   7.694  -1.273  1.00  0.00     0.131 A 
ATOM     68  C   UNL     1      -6.362   8.168  -3.207  1.00  0.00     0.055 A 
ATOM     69  C   UNL     1      -8.636   7.627  -2.623  1.00  0.00     0.041 A 
ATOM     70  F   UNL     1      -9.255   7.489  -0.365  1.00  0.00    -0.206 F 
ATOM     71  C   UNL     1      -7.674   7.880  -3.596  1.00  0.00     0.022 A 
BRANCH  68  72
ATOM     72  S   UNL     1      -5.171   8.585  -4.511  1.00  0.00     0.124 S 
ATOM     73  O   UNL     1      -5.178   7.369  -5.322  1.00  0.00    -0.237 OA
ATOM     74  O   UNL     1      -5.793   9.751  -5.132  1.00  0.00    -0.237 OA
ATOM     75  O   UNL     1      -3.932   8.841  -3.786  1.00  0.00    -0.744 OA
ENDBRANCH  68  72
ENDBRANCH  51  65
BRANCH  52  76
ATOM     76  C   UNL     1      -4.796   9.526   8.784  1.00  0.00     0.023 A 
ATOM     77  C   UNL     1      -3.800   8.769   9.427  1.00  0.00     0.031 A 
ATOM     78  C   UNL     1      -5.565  10.406   9.563  1.00  0.00     0.131 A 
ATOM     79  C   UNL     1      -3.646   8.858  10.816  1.00  0.00     0.055 A 
ATOM     80  C   UNL     1      -5.359  10.544  10.937  1.00  0.00     0.041 A 
ATOM     81  F   UNL     1      -6.538  11.136   8.998  1.00  0.00    -0.206 F 
ATOM     82  C   UNL     1      -4.407   9.754  11.573  1.00  0.00     0.022 A 
BRANCH  79  83
ATOM     83  S   UNL     1      -2.552   7.714  11.705  1.00  0.00     0.124 S 
ATOM     84  O   UNL     1      -1.592   8.626  12.318  1.00  0.00    -0.237 OA
ATOM     85  O   UNL     1      -3.484   7.065  12.625  1.00  0.00    -0.237 OA
ATOM     86  O   UNL     1      -2.023   6.854  10.651  1.00  0.00    -0.744 OA
ENDBRANCH  79  83
ENDBRANCH  52  76
BRANCH  64  87
ATOM     87  C   UNL     1      -4.880  13.624   3.052  1.00  0.00     0.023 A 
ATOM     88  C   UNL     1      -5.884  14.490   2.574  1.00  0.00     0.031 A 
ATOM     89  C   UNL     1      -3.560  14.105   3.105  1.00  0.00     0.131 A 
ATOM     90  C   UNL     1      -5.544  15.771   2.119  1.00  0.00     0.055 A 
ATOM     91  C   UNL     1      -3.235  15.401   2.698  1.00  0.00     0.041 A 
ATOM     92  F   UNL     1      -2.565  13.318   3.542  1.00  0.00    -0.206 F 
ATOM     93  C   UNL     1      -4.226  16.233   2.186  1.00  0.00     0.022 A 
BRANCH  90  94
ATOM     94  S   UNL     1      -6.778  16.845   1.333  1.00  0.00     0.124 S 
ATOM     95  O   UNL     1      -6.746  18.024   2.196  1.00  0.00    -0.237 OA
ATOM     96  O   UNL     1      -6.216  17.034  -0.001  1.00  0.00    -0.237 OA
ATOM     97  O   UNL     1      -8.011  16.067   1.392  1.00  0.00    -0.744 OA
ENDBRANCH  90  94
ENDBRANCH  64  87
ENDBRANCH  38  39
ENDBRANCH  31  33
ENDBRANCH  30  31
ENDBRANCH  29  30
ENDBRANCH  28  29
ENDBRANCH  27  28
ENDBRANCH   1  27
TORSDOF 22
