REMARK SMILES COc1cc2c(cc1OC)[C@H](C(=O)OCCOCCOCCOC(=O)c1ccc(-c3c4nc(c(-c5cc(S(=O)(=O)[O-])ccc5F)c5ccc([nH]5)c(-c5cc(S(=O)(=O)[O-])ccc5F)c5nc(c(-c6cc(S(=O)(=O)[O-])ccc6F)c6ccc3[nH]6)C=C5)C=C4)cc1)[C@H](c1cccc(Cl)c1)N(C)C2=O
REMARK SMILES IDX 19 1 18 2 17 3 16 4 15 5 14 6 12 7 13 8 11 9 3 10 4 11 8 12
REMARK SMILES IDX 5 13 7 14 6 15 99 16 97 17 100 18 89 19 98 20 2 21 1 22 9 23
REMARK SMILES IDX 10 24 90 25 91 26 96 27 92 28 94 29 93 30 95 31 20 32 21 33
REMARK SMILES IDX 22 34 23 35 24 36 25 37 26 38 27 39 88 40 28 41 87 42 29 43
REMARK SMILES IDX 30 44 31 45 81 46 32 47 86 48 80 49 82 50 33 51 85 52 79 53
REMARK SMILES IDX 78 54 34 56 66 57 46 58 65 59 47 60 50 61 64 62 83 63 48 64
REMARK SMILES IDX 49 65 63 67 84 68 51 69 35 70 36 71 44 72 37 73 43 74 45 75
REMARK SMILES IDX 42 76 38 77 39 78 40 79 41 80 67 81 68 82 76 83 69 84 75 85
REMARK SMILES IDX 77 86 74 87 70 88 71 89 72 90 73 91 52 92 53 93 61 94 54 95
REMARK SMILES IDX 60 96 62 97 59 98 55 99 56 100 57 101 58 102
REMARK H PARENT 82 55 50 66
REMARK Flexibility Score: inf
ROOT
ATOM      1  C   UNL     1       0.737   1.074  -9.248  1.00  0.00     0.188 C 
ENDROOT
BRANCH   1   2
ATOM      2  C   UNL     1       1.091  -0.318  -9.826  1.00  0.00     0.188 C 
BRANCH   2   3
ATOM      3  O   UNL     1      -0.010  -1.026 -10.377  1.00  0.00    -0.376 OA
BRANCH   3   4
ATOM      4  C   UNL     1      -0.497  -2.121  -9.605  1.00  0.00     0.202 C 
BRANCH   4   5
ATOM      5  C   UNL     1      -1.069  -1.757  -8.232  1.00  0.00     0.261 C 
BRANCH   5   6
ATOM      6  O   UNL     1      -0.151  -0.969  -7.459  1.00  0.00    -0.463 OA
BRANCH   6   7
ATOM      7  C   UNL     1       0.756  -1.623  -6.686  1.00  0.00     0.316 C 
ATOM      8  O   UNL     1       0.730  -2.830  -6.507  1.00  0.00    -0.251 OA
BRANCH   7   9
ATOM      9  C   UNL     1       1.688  -0.600  -6.024  1.00  0.00     0.157 C 
ATOM     10  C   UNL     1       0.780  -0.346  -1.832  1.00  0.00     0.161 A 
ATOM     11  C   UNL     1       2.055   0.017  -2.307  1.00  0.00     0.064 A 
ATOM     12  C   UNL     1      -0.246  -0.613  -2.747  1.00  0.00     0.161 A 
ATOM     13  C   UNL     1       2.329   0.022  -3.679  1.00  0.00     0.048 A 
ATOM     14  C   UNL     1       0.049  -0.615  -4.106  1.00  0.00     0.056 A 
ATOM     15  C   UNL     1       1.351  -0.408  -4.571  1.00  0.00    -0.015 A 
ATOM     16  C   UNL     1       3.651   0.499  -4.192  1.00  0.00     0.254 C 
ATOM     17  N   UNL     1       3.987   0.154  -5.504  1.00  0.00    -0.333 N 
ATOM     18  O   UNL     1       4.372   1.163  -3.455  1.00  0.00    -0.269 OA
ATOM     19  C   UNL     1       3.207  -0.859  -6.248  1.00  0.00     0.134 C 
ATOM     20  C   UNL     1       5.274   0.580  -6.038  1.00  0.00     0.147 C 
BRANCH  10  21
ATOM     21  O   UNL     1       0.525  -0.524  -0.500  1.00  0.00    -0.493 OA
ATOM     22  C   UNL     1       1.147   0.402   0.377  1.00  0.00     0.278 C 
ENDBRANCH  10  21
BRANCH  12  23
ATOM     23  O   UNL     1      -1.568  -0.881  -2.529  1.00  0.00    -0.493 OA
ATOM     24  C   UNL     1      -2.002  -1.145  -1.210  1.00  0.00     0.278 C 
ENDBRANCH  12  23
BRANCH  19  25
ATOM     25  C   UNL     1       3.664  -2.284  -5.943  1.00  0.00    -0.023 A 
ATOM     26  C   UNL     1       3.465  -3.291  -6.904  1.00  0.00     0.006 A 
ATOM     27  C   UNL     1       4.178  -2.665  -4.692  1.00  0.00     0.026 A 
ATOM     28  C   UNL     1       3.613  -4.639  -6.572  1.00  0.00     0.002 A 
ATOM     29  C   UNL     1       4.341  -4.011  -4.369  1.00  0.00     0.041 A 
ATOM     30  C   UNL     1       4.028  -5.000  -5.293  1.00  0.00     0.020 A 
ATOM     31  Cl  UNL     1       4.877  -4.443  -2.792  1.00  0.00    -0.084 Cl
ENDBRANCH  19  25
ENDBRANCH   7   9
ENDBRANCH   6   7
ENDBRANCH   5   6
ENDBRANCH   4   5
ENDBRANCH   3   4
ENDBRANCH   2   3
ENDBRANCH   1   2
BRANCH   1  32
ATOM     32  O   UNL     1      -0.613   1.508  -9.226  1.00  0.00    -0.376 OA
BRANCH  32  33
ATOM     33  C   UNL     1      -1.353   1.433 -10.438  1.00  0.00     0.202 C 
BRANCH  33  34
ATOM     34  C   UNL     1      -0.754   2.006 -11.737  1.00  0.00     0.261 C 
BRANCH  34  35
ATOM     35  O   UNL     1       0.590   1.587 -12.046  1.00  0.00    -0.460 OA
BRANCH  35  36
ATOM     36  C   UNL     1       1.541   2.561 -11.970  1.00  0.00     0.338 C 
ATOM     37  O   UNL     1       1.364   3.732 -11.709  1.00  0.00    -0.246 OA
BRANCH  36  38
ATOM     38  C   UNL     1       2.890   1.945 -12.033  1.00  0.00     0.060 A 
ATOM     39  C   UNL     1       3.745   2.068 -10.924  1.00  0.00     0.016 A 
ATOM     40  C   UNL     1       3.328   1.301 -13.188  1.00  0.00     0.016 A 
ATOM     41  C   UNL     1       5.046   1.559 -10.972  1.00  0.00     0.010 A 
ATOM     42  C   UNL     1       4.644   0.828 -13.249  1.00  0.00     0.010 A 
ATOM     43  C   UNL     1       5.517   0.979 -12.155  1.00  0.00    -0.014 A 
BRANCH  43  44
ATOM     44  C   UNL     1       6.971   0.742 -12.350  1.00  0.00     0.031 A 
ATOM     45  C   UNL     1       7.768   1.812 -13.047  1.00  0.00     0.074 A 
ATOM     46  C   UNL     1       7.570  -0.394 -11.950  1.00  0.00     0.049 A 
ATOM     47  N   UNL     1       8.993   1.778 -13.500  1.00  0.00    -0.248 NA
ATOM     48  C   UNL     1       7.076   3.092 -13.270  1.00  0.00     0.031 C 
ATOM     49  C   UNL     1       6.930  -1.468 -11.195  1.00  0.00     0.029 A 
ATOM     50  N   UNL     1       8.854  -0.840 -12.148  1.00  0.00    -0.354 N 
ATOM     51  C   UNL     1       9.216   3.024 -14.076  1.00  0.00     0.074 A 
ATOM     52  C   UNL     1       7.990   3.779 -13.936  1.00  0.00     0.031 C 
ATOM     53  C   UNL     1       7.818  -2.464 -11.019  1.00  0.00     0.029 A 
ATOM     54  C   UNL     1       9.069  -2.121 -11.695  1.00  0.00     0.049 A 
ATOM     55  H   UNL     1       9.555  -0.294 -12.573  1.00  0.00     0.167 HD
ATOM     56  C   UNL     1      10.340   3.494 -14.670  1.00  0.00     0.034 A 
ATOM     57  C   UNL     1      10.134  -2.936 -11.852  1.00  0.00     0.034 A 
ATOM     58  C   UNL     1      11.548   2.722 -14.821  1.00  0.00     0.049 A 
ATOM     59  C   UNL     1      11.337  -2.437 -12.626  1.00  0.00     0.074 A 
ATOM     60  C   UNL     1      12.741   3.095 -15.414  1.00  0.00     0.029 A 
ATOM     61  N   UNL     1      11.713   1.414 -14.386  1.00  0.00    -0.354 N 
ATOM     62  N   UNL     1      11.531  -1.266 -13.191  1.00  0.00    -0.248 NA
ATOM     63  C   UNL     1      12.463  -3.369 -12.786  1.00  0.00     0.031 C 
ATOM     64  C   UNL     1      13.599   1.991 -15.403  1.00  0.00     0.029 A 
ATOM     65  C   UNL     1      12.976   0.956 -14.725  1.00  0.00     0.049 A 
ATOM     66  H   UNL     1      11.032   0.888 -13.906  1.00  0.00     0.167 HD
ATOM     67  C   UNL     1      12.816  -1.311 -13.729  1.00  0.00     0.074 A 
ATOM     68  C   UNL     1      13.350  -2.620 -13.425  1.00  0.00     0.031 C 
ATOM     69  C   UNL     1      13.499  -0.351 -14.405  1.00  0.00     0.034 A 
BRANCH  56  70
ATOM     70  C   UNL     1      10.286   4.884 -15.253  1.00  0.00     0.023 A 
ATOM     71  C   UNL     1      10.099   6.019 -14.445  1.00  0.00     0.031 A 
ATOM     72  C   UNL     1      10.390   5.075 -16.642  1.00  0.00     0.131 A 
ATOM     73  C   UNL     1       9.953   7.282 -15.037  1.00  0.00     0.055 A 
ATOM     74  C   UNL     1      10.327   6.345 -17.218  1.00  0.00     0.041 A 
ATOM     75  F   UNL     1      10.542   4.026 -17.467  1.00  0.00    -0.206 F 
ATOM     76  C   UNL     1      10.092   7.457 -16.416  1.00  0.00     0.022 A 
BRANCH  73  77
ATOM     77  S   UNL     1       9.434   8.672 -13.993  1.00  0.00     0.124 S 
ATOM     78  O   UNL     1       8.160   8.186 -13.469  1.00  0.00    -0.237 OA
ATOM     79  O   UNL     1      10.526   8.769 -13.031  1.00  0.00    -0.237 OA
ATOM     80  O   UNL     1       9.329   9.786 -14.934  1.00  0.00    -0.744 OA
ENDBRANCH  73  77
ENDBRANCH  56  70
BRANCH  57  81
ATOM     81  C   UNL     1      10.110  -4.334 -11.327  1.00  0.00     0.023 A 
ATOM     82  C   UNL     1      11.041  -4.763 -10.367  1.00  0.00     0.031 A 
ATOM     83  C   UNL     1       9.208  -5.285 -11.837  1.00  0.00     0.131 A 
ATOM     84  C   UNL     1      11.086  -6.115  -9.990  1.00  0.00     0.055 A 
ATOM     85  C   UNL     1       9.216  -6.616 -11.413  1.00  0.00     0.041 A 
ATOM     86  F   UNL     1       8.301  -4.934 -12.763  1.00  0.00    -0.206 F 
ATOM     87  C   UNL     1      10.171  -7.041 -10.494  1.00  0.00     0.022 A 
BRANCH  84  88
ATOM     88  S   UNL     1      12.435  -6.670  -8.910  1.00  0.00     0.124 S 
ATOM     89  O   UNL     1      13.609  -6.295  -9.690  1.00  0.00    -0.237 OA
ATOM     90  O   UNL     1      12.191  -5.892  -7.700  1.00  0.00    -0.237 OA
ATOM     91  O   UNL     1      12.200  -8.107  -8.785  1.00  0.00    -0.744 OA
ENDBRANCH  84  88
ENDBRANCH  57  81
BRANCH  69  92
ATOM     92  C   UNL     1      14.928  -0.649 -14.794  1.00  0.00     0.023 A 
ATOM     93  C   UNL     1      15.256  -1.608 -15.767  1.00  0.00     0.031 A 
ATOM     94  C   UNL     1      15.978   0.068 -14.191  1.00  0.00     0.131 A 
ATOM     95  C   UNL     1      16.603  -1.850 -16.082  1.00  0.00     0.055 A 
ATOM     96  C   UNL     1      17.311  -0.136 -14.548  1.00  0.00     0.041 A 
ATOM     97  F   UNL     1      15.722   0.996 -13.254  1.00  0.00    -0.206 F 
ATOM     98  C   UNL     1      17.630  -1.107 -15.493  1.00  0.00     0.022 A 
BRANCH  95  99
ATOM     99  S   UNL     1      17.006  -3.196 -17.229  1.00  0.00     0.124 S 
ATOM    100  O   UNL     1      16.449  -4.357 -16.543  1.00  0.00    -0.237 OA
ATOM    101  O   UNL     1      16.318  -2.785 -18.448  1.00  0.00    -0.237 OA
ATOM    102  O   UNL     1      18.466  -3.160 -17.302  1.00  0.00    -0.744 OA
ENDBRANCH  95  99
ENDBRANCH  69  92
ENDBRANCH  43  44
ENDBRANCH  36  38
ENDBRANCH  35  36
ENDBRANCH  34  35
ENDBRANCH  33  34
ENDBRANCH  32  33
ENDBRANCH   1  32
TORSDOF 23
