REMARK SMILES Cc1ccc([C@H](CC(=O)OCCOCCOCCOC(=O)c2ccc(-c3c4nc(c(-c5cc(S(=O)(=O)[O-])ccc5F)c5ccc([nH]5)c(-c5cc(S(=O)(=O)[O-])ccc5F)c5nc(c(-c6cc(S(=O)(=O)[O-])ccc6F)c6ccc3[nH]6)C=C5)C=C4)cc2)NC(=O)C(F)(F)F)cc1
REMARK SMILES IDX 14 1 13 2 12 3 11 4 10 5 8 6 9 7 7 8 6 9 5 10 1 11 2 12 3 13
REMARK SMILES IDX 93 14 4 15 92 16 85 17 86 18 87 20 88 21 89 22 90 23 91 24
REMARK SMILES IDX 15 25 16 26 17 27 18 28 19 29 20 30 21 31 22 32 23 33 84 34
REMARK SMILES IDX 24 35 83 36 25 37 26 38 27 39 77 40 28 41 82 42 76 43 78 44
REMARK SMILES IDX 29 45 81 46 75 47 74 48 30 50 62 51 42 52 61 53 43 54 46 55
REMARK SMILES IDX 60 56 79 57 44 58 45 59 59 61 80 62 47 63 31 64 32 65 40 66
REMARK SMILES IDX 33 67 39 68 41 69 38 70 34 71 35 72 36 73 37 74 63 75 64 76
REMARK SMILES IDX 72 77 65 78 71 79 73 80 70 81 66 82 67 83 68 84 69 85 48 86
REMARK SMILES IDX 49 87 57 88 50 89 56 90 58 91 55 92 51 93 52 94 53 95 54 96
REMARK H PARENT 85 19 78 49 46 60
REMARK Flexibility Score: inf
ROOT
ATOM      1  C   UNL     1      -1.748   4.268   3.862  1.00  0.00     0.188 C 
ENDROOT
BRANCH   1   2
ATOM      2  O   UNL     1      -1.634   4.741   2.495  1.00  0.00    -0.376 OA
BRANCH   2   3
ATOM      3  C   UNL     1      -2.745   5.058   1.630  1.00  0.00     0.202 C 
BRANCH   3   4
ATOM      4  C   UNL     1      -2.987   4.285   0.178  1.00  0.00     0.261 C 
BRANCH   4   5
ATOM      5  O   UNL     1      -3.650   2.783  -0.206  1.00  0.00    -0.463 OA
BRANCH   5   6
ATOM      6  C   UNL     1      -3.126   1.496  -0.485  1.00  0.00     0.308 C 
ATOM      7  O   UNL     1      -2.005   1.037  -0.272  1.00  0.00    -0.252 OA
BRANCH   6   8
ATOM      8  C   UNL     1      -3.759   0.561  -1.422  1.00  0.00     0.152 C 
BRANCH   8   9
ATOM      9  C   UNL     1      -5.063  -0.061  -1.048  1.00  0.00     0.123 C 
BRANCH   9  10
ATOM     10  C   UNL     1      -5.285  -1.042  -2.197  1.00  0.00    -0.025 A 
ATOM     11  C   UNL     1      -4.824  -3.248  -5.868  1.00  0.00     0.044 C 
ATOM     12  C   UNL     1      -5.035  -2.518  -4.578  1.00  0.00    -0.051 A 
ATOM     13  C   UNL     1      -5.519  -1.208  -4.607  1.00  0.00     0.004 A 
ATOM     14  C   UNL     1      -4.693  -3.098  -3.351  1.00  0.00     0.004 A 
ATOM     15  C   UNL     1      -5.660  -0.485  -3.430  1.00  0.00     0.006 A 
ATOM     16  C   UNL     1      -4.811  -2.366  -2.167  1.00  0.00     0.006 A 
ENDBRANCH   9  10
BRANCH   9  17
ATOM     17  N   UNL     1      -5.047  -0.719   0.248  1.00  0.00    -0.341 N 
ATOM     18  C   UNL     1      -6.070  -0.785   1.164  1.00  0.00     0.326 C 
ATOM     19  H   UNL     1      -4.208  -1.169   0.499  1.00  0.00     0.164 HD
ATOM     20  O   UNL     1      -5.970  -1.634   2.057  1.00  0.00    -0.265 OA
BRANCH  18  21
ATOM     21  C   UNL     1      -7.306   0.134   1.032  1.00  0.00     0.471 C 
ATOM     22  F   UNL     1      -8.325  -0.481   0.364  1.00  0.00    -0.162 F 
ATOM     23  F   UNL     1      -7.071   1.299   0.361  1.00  0.00    -0.162 F 
ATOM     24  F   UNL     1      -7.812   0.517   2.236  1.00  0.00    -0.162 F 
ENDBRANCH  18  21
ENDBRANCH   9  17
ENDBRANCH   8   9
ENDBRANCH   6   8
ENDBRANCH   5   6
ENDBRANCH   4   5
ENDBRANCH   3   4
ENDBRANCH   2   3
ENDBRANCH   1   2
BRANCH   1  25
ATOM     25  C   UNL     1      -3.029   4.414   4.689  1.00  0.00     0.188 C 
BRANCH  25  26
ATOM     26  O   UNL     1      -4.162   4.022   3.924  1.00  0.00    -0.376 OA
BRANCH  26  27
ATOM     27  C   UNL     1      -5.376   3.866   4.638  1.00  0.00     0.202 C 
BRANCH  27  28
ATOM     28  C   UNL     1      -5.485   2.543   5.433  1.00  0.00     0.261 C 
BRANCH  28  29
ATOM     29  O   UNL     1      -5.575   1.366   4.582  1.00  0.00    -0.460 OA
BRANCH  29  30
ATOM     30  C   UNL     1      -4.595   0.398   4.707  1.00  0.00     0.338 C 
ATOM     31  O   UNL     1      -4.689  -0.541   5.487  1.00  0.00    -0.246 OA
BRANCH  30  32
ATOM     32  C   UNL     1      -3.537   0.557   3.654  1.00  0.00     0.060 A 
ATOM     33  C   UNL     1      -2.274  -0.047   3.538  1.00  0.00     0.016 A 
ATOM     34  C   UNL     1      -3.789   1.514   2.737  1.00  0.00     0.016 A 
ATOM     35  C   UNL     1      -1.246   0.452   2.615  1.00  0.00     0.010 A 
ATOM     36  C   UNL     1      -2.705   2.077   2.087  1.00  0.00     0.010 A 
ATOM     37  C   UNL     1      -1.407   1.627   1.878  1.00  0.00    -0.014 A 
BRANCH  37  38
ATOM     38  C   UNL     1      -0.373   2.454   0.933  1.00  0.00     0.031 A 
ATOM     39  C   UNL     1      -0.258   2.717  -0.718  1.00  0.00     0.074 A 
ATOM     40  C   UNL     1       0.643   2.998   1.631  1.00  0.00     0.049 A 
ATOM     41  N   UNL     1       0.874   2.755  -1.396  1.00  0.00    -0.248 NA
ATOM     42  C   UNL     1      -1.323   2.960  -1.747  1.00  0.00     0.031 C 
ATOM     43  C   UNL     1       1.704   3.886   1.181  1.00  0.00     0.029 A 
ATOM     44  N   UNL     1       1.026   2.626   2.917  1.00  0.00    -0.354 N 
ATOM     45  C   UNL     1       0.619   3.193  -2.716  1.00  0.00     0.074 A 
ATOM     46  C   UNL     1      -0.761   3.102  -2.927  1.00  0.00     0.031 C 
ATOM     47  C   UNL     1       2.748   3.739   2.017  1.00  0.00     0.029 A 
ATOM     48  C   UNL     1       2.420   2.656   2.931  1.00  0.00     0.049 A 
ATOM     49  H   UNL     1       0.432   2.388   3.666  1.00  0.00     0.167 HD
ATOM     50  C   UNL     1       1.496   3.867  -3.510  1.00  0.00     0.034 A 
ATOM     51  C   UNL     1       3.105   1.492   3.116  1.00  0.00     0.034 A 
ATOM     52  C   UNL     1       2.754   3.965  -2.834  1.00  0.00     0.049 A 
ATOM     53  C   UNL     1       4.048   1.202   1.965  1.00  0.00     0.074 A 
ATOM     54  C   UNL     1       3.390   4.956  -2.115  1.00  0.00     0.029 A 
ATOM     55  N   UNL     1       3.366   2.774  -2.508  1.00  0.00    -0.354 N 
ATOM     56  N   UNL     1       4.026   1.816   0.810  1.00  0.00    -0.248 NA
ATOM     57  C   UNL     1       5.104   0.205   2.028  1.00  0.00     0.031 C 
ATOM     58  C   UNL     1       4.402   4.328  -1.334  1.00  0.00     0.029 A 
ATOM     59  C   UNL     1       4.396   2.976  -1.626  1.00  0.00     0.049 A 
ATOM     60  H   UNL     1       3.099   1.895  -2.861  1.00  0.00     0.167 HD
ATOM     61  C   UNL     1       5.021   1.338  -0.009  1.00  0.00     0.074 A 
ATOM     62  C   UNL     1       5.659   0.319   0.808  1.00  0.00     0.031 C 
ATOM     63  C   UNL     1       5.207   1.826  -1.279  1.00  0.00     0.034 A 
BRANCH  50  64
ATOM     64  C   UNL     1       1.047   4.702  -4.710  1.00  0.00     0.023 A 
ATOM     65  C   UNL     1       1.585   5.989  -4.903  1.00  0.00     0.031 A 
ATOM     66  C   UNL     1       0.044   4.330  -5.638  1.00  0.00     0.131 A 
ATOM     67  C   UNL     1       1.054   6.875  -5.865  1.00  0.00     0.055 A 
ATOM     68  C   UNL     1      -0.537   5.236  -6.545  1.00  0.00     0.041 A 
ATOM     69  F   UNL     1      -0.420   3.071  -5.694  1.00  0.00    -0.206 F 
ATOM     70  C   UNL     1      -0.043   6.527  -6.648  1.00  0.00     0.022 A 
BRANCH  67  71
ATOM     71  S   UNL     1       1.844   8.492  -6.103  1.00  0.00     0.124 S 
ATOM     72  O   UNL     1       1.646   9.127  -4.805  1.00  0.00    -0.237 OA
ATOM     73  O   UNL     1       3.213   8.118  -6.438  1.00  0.00    -0.237 OA
ATOM     74  O   UNL     1       1.083   9.085  -7.203  1.00  0.00    -0.744 OA
ENDBRANCH  67  71
ENDBRANCH  50  64
BRANCH  51  75
ATOM     75  C   UNL     1       2.412   0.507   4.027  1.00  0.00     0.023 A 
ATOM     76  C   UNL     1       1.850   1.015   5.231  1.00  0.00     0.031 A 
ATOM     77  C   UNL     1       2.024  -0.786   3.654  1.00  0.00     0.131 A 
ATOM     78  C   UNL     1       0.826   0.335   5.907  1.00  0.00     0.055 A 
ATOM     79  C   UNL     1       1.067  -1.512   4.392  1.00  0.00     0.041 A 
ATOM     80  F   UNL     1       2.461  -1.330   2.509  1.00  0.00    -0.206 F 
ATOM     81  C   UNL     1       0.439  -0.940   5.503  1.00  0.00     0.022 A 
BRANCH  78  82
ATOM     82  S   UNL     1      -0.178   1.211   7.153  1.00  0.00     0.124 S 
ATOM     83  O   UNL     1       0.171   0.503   8.380  1.00  0.00    -0.237 OA
ATOM     84  O   UNL     1       0.288   2.593   7.067  1.00  0.00    -0.237 OA
ATOM     85  O   UNL     1      -1.544   1.015   6.672  1.00  0.00    -0.744 OA
ENDBRANCH  78  82
ENDBRANCH  51  75
BRANCH  63  86
ATOM     86  C   UNL     1       6.113   1.282  -2.381  1.00  0.00     0.023 A 
ATOM     87  C   UNL     1       7.076   0.301  -2.164  1.00  0.00     0.031 A 
ATOM     88  C   UNL     1       6.027   1.738  -3.732  1.00  0.00     0.131 A 
ATOM     89  C   UNL     1       7.854  -0.215  -3.217  1.00  0.00     0.055 A 
ATOM     90  C   UNL     1       6.774   1.203  -4.784  1.00  0.00     0.041 A 
ATOM     91  F   UNL     1       5.219   2.736  -4.115  1.00  0.00    -0.206 F 
ATOM     92  C   UNL     1       7.696   0.211  -4.531  1.00  0.00     0.022 A 
BRANCH  89  93
ATOM     93  S   UNL     1       9.124  -1.429  -2.797  1.00  0.00     0.124 S 
ATOM     94  O   UNL     1       9.915  -0.710  -1.803  1.00  0.00    -0.237 OA
ATOM     95  O   UNL     1       8.326  -2.540  -2.288  1.00  0.00    -0.237 OA
ATOM     96  O   UNL     1       9.798  -1.675  -4.070  1.00  0.00    -0.744 OA
ENDBRANCH  89  93
ENDBRANCH  63  86
ENDBRANCH  37  38
ENDBRANCH  30  32
ENDBRANCH  29  30
ENDBRANCH  28  29
ENDBRANCH  27  28
ENDBRANCH  26  27
ENDBRANCH  25  26
ENDBRANCH   1  25
TORSDOF 24
