REMARK SMILES COC(=O)c1ccc(C[N@@H+](CC(=O)OCCOCCOCCOC(=O)c2ccc(-c3c4nc(c(-c5cc(S(=O)(=O)[O-])ccc5F)c5ccc([nH]5)c(-c5cc(S(=O)(=O)[O-])ccc5F)c5nc(c(-c6cc(S(=O)(=O)[O-])ccc6F)c6ccc3[nH]6)C=C5)C=C4)cc2)C(C)(C)C)cc1
REMARK SMILES IDX 18 1 17 2 16 3 15 4 14 5 12 6 13 7 11 8 10 9 9 11 8 12 5 13
REMARK SMILES IDX 6 14 94 15 7 16 93 17 3 18 4 19 2 20 1 21 89 22 90 23 91 24
REMARK SMILES IDX 92 25 19 26 20 27 21 28 22 29 23 30 24 31 25 32 26 33 27 34
REMARK SMILES IDX 88 35 28 36 87 37 29 38 30 39 31 40 81 41 32 42 86 43 80 44
REMARK SMILES IDX 82 45 33 46 85 47 79 48 78 49 34 51 66 52 46 53 65 54 47 55
REMARK SMILES IDX 50 56 64 57 83 58 48 59 49 60 63 62 84 63 51 64 35 65 36 66
REMARK SMILES IDX 44 67 37 68 43 69 45 70 42 71 38 72 39 73 40 74 41 75 67 76
REMARK SMILES IDX 68 77 76 78 69 79 75 80 77 81 74 82 70 83 71 84 72 85 73 86
REMARK SMILES IDX 52 87 53 88 61 89 54 90 60 91 62 92 59 93 55 94 56 95 57 96
REMARK SMILES IDX 58 97
REMARK H PARENT 10 10 82 50 50 61
REMARK Flexibility Score: inf
ROOT
ATOM      1  C   UNL     1      -5.776  -5.289  -8.286  1.00  0.00     0.188 C 
ENDROOT
BRANCH   1   2
ATOM      2  O   UNL     1      -6.402  -6.437  -7.730  1.00  0.00    -0.376 OA
BRANCH   2   3
ATOM      3  C   UNL     1      -5.940  -6.835  -6.443  1.00  0.00     0.202 C 
BRANCH   3   4
ATOM      4  C   UNL     1      -4.496  -7.363  -6.341  1.00  0.00     0.261 C 
BRANCH   4   5
ATOM      5  O   UNL     1      -3.396  -6.440  -6.579  1.00  0.00    -0.459 OA
BRANCH   5   6
ATOM      6  C   UNL     1      -2.582  -6.758  -7.626  1.00  0.00     0.361 C 
ATOM      7  O   UNL     1      -2.904  -7.588  -8.477  1.00  0.00    -0.245 OA
BRANCH   6   8
ATOM      8  C   UNL     1      -1.153  -6.180  -7.652  1.00  0.00     0.387 C 
BRANCH   8   9
ATOM      9  N   UNL     1      -0.719  -4.995  -6.851  1.00  0.00    -0.318 N 
ATOM     10  H   UNL     1       0.278  -4.836  -6.996  1.00  0.00     0.349 HD
BRANCH   9  11
ATOM     11  C   UNL     1      -0.810  -5.295  -5.408  1.00  0.00     0.299 C 
BRANCH  11  12
ATOM     12  C   UNL     1      -0.241  -4.273  -4.447  1.00  0.00     0.006 A 
ATOM     13  C   UNL     1       0.695  -2.164  -2.850  1.00  0.00     0.060 A 
ATOM     14  C   UNL     1       1.566  -2.819  -3.728  1.00  0.00     0.016 A 
ATOM     15  C   UNL     1      -0.634  -2.586  -2.737  1.00  0.00     0.016 A 
ATOM     16  C   UNL     1       1.108  -3.891  -4.500  1.00  0.00     0.010 A 
ATOM     17  C   UNL     1      -1.096  -3.636  -3.530  1.00  0.00     0.010 A 
BRANCH  13  18
ATOM     18  C   UNL     1       1.204  -1.011  -2.074  1.00  0.00     0.337 C 
ATOM     19  O   UNL     1       2.129  -0.297  -2.433  1.00  0.00    -0.246 OA
BRANCH  18  20
ATOM     20  O   UNL     1       0.548  -0.938  -0.889  1.00  0.00    -0.465 OA
ATOM     21  C   UNL     1       1.055   0.059  -0.004  1.00  0.00     0.282 C 
ENDBRANCH  18  20
ENDBRANCH  13  18
ENDBRANCH  11  12
ENDBRANCH   9  11
BRANCH   9  22
ATOM     22  C   UNL     1      -1.115  -3.657  -7.375  1.00  0.00     0.090 C 
ATOM     23  C   UNL     1      -2.545  -3.355  -6.964  1.00  0.00     0.078 C 
ATOM     24  C   UNL     1      -0.241  -2.466  -6.893  1.00  0.00     0.078 C 
ATOM     25  C   UNL     1      -0.986  -3.575  -8.922  1.00  0.00     0.078 C 
ENDBRANCH   9  22
ENDBRANCH   8   9
ENDBRANCH   6   8
ENDBRANCH   5   6
ENDBRANCH   4   5
ENDBRANCH   3   4
ENDBRANCH   2   3
ENDBRANCH   1   2
BRANCH   1  26
ATOM     26  C   UNL     1      -5.991  -3.981  -7.514  1.00  0.00     0.188 C 
BRANCH  26  27
ATOM     27  O   UNL     1      -5.553  -4.051  -6.161  1.00  0.00    -0.376 OA
BRANCH  27  28
ATOM     28  C   UNL     1      -5.499  -2.848  -5.394  1.00  0.00     0.202 C 
BRANCH  28  29
ATOM     29  C   UNL     1      -6.449  -1.694  -5.739  1.00  0.00     0.261 C 
BRANCH  29  30
ATOM     30  O   UNL     1      -6.346  -1.230  -7.099  1.00  0.00    -0.460 OA
BRANCH  30  31
ATOM     31  C   UNL     1      -5.164  -0.677  -7.470  1.00  0.00     0.338 C 
ATOM     32  O   UNL     1      -4.245  -0.373  -6.731  1.00  0.00    -0.246 OA
BRANCH  31  33
ATOM     33  C   UNL     1      -5.092  -0.720  -8.952  1.00  0.00     0.060 A 
ATOM     34  C   UNL     1      -3.993  -1.335  -9.561  1.00  0.00     0.016 A 
ATOM     35  C   UNL     1      -6.116  -0.202  -9.743  1.00  0.00     0.016 A 
ATOM     36  C   UNL     1      -3.891  -1.425 -10.947  1.00  0.00     0.010 A 
ATOM     37  C   UNL     1      -6.008  -0.272 -11.137  1.00  0.00     0.010 A 
ATOM     38  C   UNL     1      -4.883  -0.861 -11.748  1.00  0.00    -0.014 A 
BRANCH  38  39
ATOM     39  C   UNL     1      -4.647  -0.696 -13.204  1.00  0.00     0.031 A 
ATOM     40  C   UNL     1      -4.324   0.681 -13.712  1.00  0.00     0.074 A 
ATOM     41  C   UNL     1      -4.669  -1.739 -14.054  1.00  0.00     0.049 A 
ATOM     42  N   UNL     1      -4.256   1.124 -14.939  1.00  0.00    -0.248 NA
ATOM     43  C   UNL     1      -4.051   1.698 -12.684  1.00  0.00     0.031 C 
ATOM     44  C   UNL     1      -4.853  -3.139 -13.675  1.00  0.00     0.029 A 
ATOM     45  N   UNL     1      -4.544  -1.775 -15.422  1.00  0.00    -0.354 N 
ATOM     46  C   UNL     1      -3.971   2.482 -14.832  1.00  0.00     0.074 A 
ATOM     47  C   UNL     1      -3.905   2.788 -13.419  1.00  0.00     0.031 C 
ATOM     48  C   UNL     1      -4.849  -3.894 -14.787  1.00  0.00     0.029 A 
ATOM     49  C   UNL     1      -4.733  -3.027 -15.959  1.00  0.00     0.049 A 
ATOM     50  H   UNL     1      -4.338  -0.980 -15.966  1.00  0.00     0.167 HD
ATOM     51  C   UNL     1      -3.785   3.386 -15.824  1.00  0.00     0.034 A 
ATOM     52  C   UNL     1      -4.856  -3.418 -17.245  1.00  0.00     0.034 A 
ATOM     53  C   UNL     1      -3.845   3.053 -17.226  1.00  0.00     0.049 A 
ATOM     54  C   UNL     1      -4.760  -2.377 -18.337  1.00  0.00     0.074 A 
ATOM     55  C   UNL     1      -3.679   3.887 -18.317  1.00  0.00     0.029 A 
ATOM     56  N   UNL     1      -4.097   1.783 -17.732  1.00  0.00    -0.354 N 
ATOM     57  N   UNL     1      -4.549  -1.084 -18.233  1.00  0.00    -0.248 NA
ATOM     58  C   UNL     1      -4.921  -2.848 -19.720  1.00  0.00     0.031 C 
ATOM     59  C   UNL     1      -3.912   3.141 -19.477  1.00  0.00     0.029 A 
ATOM     60  C   UNL     1      -4.127   1.820 -19.118  1.00  0.00     0.049 A 
ATOM     61  H   UNL     1      -4.234   0.976 -17.187  1.00  0.00     0.167 HD
ATOM     62  C   UNL     1      -4.521  -0.596 -19.538  1.00  0.00     0.074 A 
ATOM     63  C   UNL     1      -4.724  -1.734 -20.410  1.00  0.00     0.031 C 
ATOM     64  C   UNL     1      -4.337   0.677 -19.977  1.00  0.00     0.034 A 
BRANCH  51  65
ATOM     65  C   UNL     1      -3.584   4.826 -15.417  1.00  0.00     0.023 A 
ATOM     66  C   UNL     1      -2.484   5.240 -14.645  1.00  0.00     0.031 A 
ATOM     67  C   UNL     1      -4.548   5.793 -15.758  1.00  0.00     0.131 A 
ATOM     68  C   UNL     1      -2.421   6.559 -14.169  1.00  0.00     0.055 A 
ATOM     69  C   UNL     1      -4.429   7.125 -15.361  1.00  0.00     0.041 A 
ATOM     70  F   UNL     1      -5.636   5.453 -16.468  1.00  0.00    -0.206 F 
ATOM     71  C   UNL     1      -3.371   7.511 -14.545  1.00  0.00     0.022 A 
BRANCH  68  72
ATOM     72  S   UNL     1      -1.181   6.965 -12.909  1.00  0.00     0.124 S 
ATOM     73  O   UNL     1      -1.508   6.007 -11.855  1.00  0.00    -0.237 OA
ATOM     74  O   UNL     1       0.073   6.735 -13.615  1.00  0.00    -0.237 OA
ATOM     75  O   UNL     1      -1.469   8.360 -12.582  1.00  0.00    -0.744 OA
ENDBRANCH  68  72
ENDBRANCH  51  65
BRANCH  52  76
ATOM     76  C   UNL     1      -5.171  -4.840 -17.577  1.00  0.00     0.023 A 
ATOM     77  C   UNL     1      -4.302  -5.622 -18.355  1.00  0.00     0.031 A 
ATOM     78  C   UNL     1      -6.386  -5.421 -17.167  1.00  0.00     0.131 A 
ATOM     79  C   UNL     1      -4.679  -6.921 -18.734  1.00  0.00     0.055 A 
ATOM     80  C   UNL     1      -6.728  -6.734 -17.494  1.00  0.00     0.041 A 
ATOM     81  F   UNL     1      -7.262  -4.717 -16.433  1.00  0.00    -0.206 F 
ATOM     82  C   UNL     1      -5.877  -7.489 -18.294  1.00  0.00     0.022 A 
BRANCH  79  83
ATOM     83  S   UNL     1      -3.622  -7.831 -19.896  1.00  0.00     0.124 S 
ATOM     84  O   UNL     1      -3.610  -6.936 -21.047  1.00  0.00    -0.237 OA
ATOM     85  O   UNL     1      -2.372  -7.935 -19.151  1.00  0.00    -0.237 OA
ATOM     86  O   UNL     1      -4.336  -9.091 -20.090  1.00  0.00    -0.744 OA
ENDBRANCH  79  83
ENDBRANCH  52  76
BRANCH  64  87
ATOM     87  C   UNL     1      -4.285   0.895 -21.472  1.00  0.00     0.023 A 
ATOM     88  C   UNL     1      -5.404   0.688 -22.297  1.00  0.00     0.031 A 
ATOM     89  C   UNL     1      -3.089   1.323 -22.078  1.00  0.00     0.131 A 
ATOM     90  C   UNL     1      -5.289   0.857 -23.686  1.00  0.00     0.055 A 
ATOM     91  C   UNL     1      -3.000   1.554 -23.451  1.00  0.00     0.041 A 
ATOM     92  F   UNL     1      -1.986   1.533 -21.341  1.00  0.00    -0.206 F 
ATOM     93  C   UNL     1      -4.100   1.308 -24.266  1.00  0.00     0.022 A 
BRANCH  90  94
ATOM     94  S   UNL     1      -6.687   0.385 -24.742  1.00  0.00     0.124 S 
ATOM     95  O   UNL     1      -6.869  -1.020 -24.392  1.00  0.00    -0.237 OA
ATOM     96  O   UNL     1      -7.737   1.294 -24.297  1.00  0.00    -0.237 OA
ATOM     97  O   UNL     1      -6.191   0.627 -26.096  1.00  0.00    -0.744 OA
ENDBRANCH  90  94
ENDBRANCH  64  87
ENDBRANCH  38  39
ENDBRANCH  31  33
ENDBRANCH  30  31
ENDBRANCH  29  30
ENDBRANCH  28  29
ENDBRANCH  27  28
ENDBRANCH  26  27
ENDBRANCH   1  26
TORSDOF 26
