REMARK SMILES CC(C)CCN(C(=O)N[C@H](C(=O)OCCOCCOCCOC(=O)c1ccc(-c2c3nc(c(-c4cc(S(=O)(=O)[O-])ccc4F)c4ccc([nH]4)c(-c4cc(S(=O)(=O)[O-])ccc4F)c4nc(c(-c5cc(S(=O)(=O)[O-])ccc5F)c5ccc2[nH]5)C=C4)C=C3)cc1)[C@H](C)O)C1CCCC1
REMARK SMILES IDX 17 1 16 2 15 3 14 4 13 5 11 6 12 7 10 8 9 9 7 10 8 11 6 13
REMARK SMILES IDX 5 14 4 15 2 16 1 17 3 18 91 19 92 20 95 21 93 22 94 23 88 24
REMARK SMILES IDX 89 25 90 26 18 28 19 29 20 30 21 31 22 32 23 33 24 34 25 35
REMARK SMILES IDX 26 36 87 37 27 38 86 39 28 40 29 41 30 42 80 43 31 44 85 45
REMARK SMILES IDX 79 46 81 47 32 48 84 49 78 50 77 51 33 53 65 54 45 55 64 56
REMARK SMILES IDX 46 57 49 58 63 59 82 60 47 61 48 62 62 64 83 65 50 66 34 67
REMARK SMILES IDX 35 68 43 69 36 70 42 71 44 72 41 73 37 74 38 75 39 76 40 77
REMARK SMILES IDX 66 78 67 79 75 80 68 81 74 82 76 83 73 84 69 85 70 86 71 87
REMARK SMILES IDX 72 88 51 89 52 90 60 91 53 92 59 93 61 94 58 95 54 96 55 97
REMARK SMILES IDX 56 98 57 99
REMARK H PARENT 9 12 90 27 81 52 49 63
REMARK Flexibility Score: inf
ROOT
ATOM      1  C   UNL     1      -4.319  -2.798  -4.725  1.00  0.00     0.188 C 
ENDROOT
BRANCH   1   2
ATOM      2  O   UNL     1      -3.508  -3.365  -5.727  1.00  0.00    -0.376 OA
BRANCH   2   3
ATOM      3  C   UNL     1      -2.382  -4.157  -5.394  1.00  0.00     0.202 C 
BRANCH   3   4
ATOM      4  C   UNL     1      -1.927  -4.526  -3.969  1.00  0.00     0.261 C 
BRANCH   4   5
ATOM      5  O   UNL     1      -2.756  -4.087  -2.899  1.00  0.00    -0.462 OA
BRANCH   5   6
ATOM      6  C   UNL     1      -2.331  -3.032  -2.147  1.00  0.00     0.331 C 
ATOM      7  O   UNL     1      -1.252  -2.471  -2.268  1.00  0.00    -0.250 OA
BRANCH   6   8
ATOM      8  C   UNL     1      -3.422  -2.670  -1.134  1.00  0.00     0.222 C 
BRANCH   8   9
ATOM      9  N   UNL     1      -2.860  -2.716   0.199  1.00  0.00    -0.322 N 
ATOM     10  C   UNL     1      -2.653  -3.667   1.115  1.00  0.00     0.318 C 
ATOM     11  O   UNL     1      -1.908  -3.270   2.019  1.00  0.00    -0.249 OA
ATOM     12  H   UNL     1      -2.556  -1.831   0.505  1.00  0.00     0.166 HD
BRANCH  10  13
ATOM     13  N   UNL     1      -3.175  -4.941   1.099  1.00  0.00    -0.322 N 
BRANCH  13  14
ATOM     14  C   UNL     1      -4.219  -5.556   0.246  1.00  0.00     0.122 C 
BRANCH  14  15
ATOM     15  C   UNL     1      -3.754  -6.737  -0.647  1.00  0.00     0.024 C 
BRANCH  15  16
ATOM     16  C   UNL     1      -3.708  -8.149  -0.001  1.00  0.00    -0.016 C 
ATOM     17  C   UNL     1      -5.013  -8.543   0.699  1.00  0.00     0.007 C 
ATOM     18  C   UNL     1      -3.367  -9.223  -1.041  1.00  0.00     0.007 C 
ENDBRANCH  15  16
ENDBRANCH  14  15
ENDBRANCH  13  14
BRANCH  13  19
ATOM     19  C   UNL     1      -2.806  -5.790   2.236  1.00  0.00     0.087 C 
ATOM     20  C   UNL     1      -1.319  -6.087   2.408  1.00  0.00     0.025 C 
ATOM     21  C   UNL     1      -3.278  -5.316   3.607  1.00  0.00     0.025 C 
ATOM     22  C   UNL     1      -1.246  -6.689   3.806  1.00  0.00     0.002 C 
ATOM     23  C   UNL     1      -2.461  -6.162   4.578  1.00  0.00     0.002 C 
ENDBRANCH  13  19
ENDBRANCH  10  13
ENDBRANCH   8   9
BRANCH   8  24
ATOM     24  C   UNL     1      -4.201  -1.368  -1.427  1.00  0.00     0.145 C 
ATOM     25  C   UNL     1      -3.409  -0.114  -1.755  1.00  0.00     0.041 C 
BRANCH  24  26
ATOM     26  O   UNL     1      -5.086  -1.082  -0.334  1.00  0.00    -0.391 OA
ATOM     27  H   UNL     1      -4.566  -0.885   0.460  1.00  0.00     0.211 HD
ENDBRANCH  24  26
ENDBRANCH   8  24
ENDBRANCH   6   8
ENDBRANCH   5   6
ENDBRANCH   4   5
ENDBRANCH   3   4
ENDBRANCH   2   3
ENDBRANCH   1   2
BRANCH   1  28
ATOM     28  C   UNL     1      -5.330  -3.745  -4.040  1.00  0.00     0.188 C 
BRANCH  28  29
ATOM     29  O   UNL     1      -5.385  -5.097  -4.438  1.00  0.00    -0.376 OA
BRANCH  29  30
ATOM     30  C   UNL     1      -5.667  -5.407  -5.792  1.00  0.00     0.202 C 
BRANCH  30  31
ATOM     31  C   UNL     1      -6.570  -4.548  -6.704  1.00  0.00     0.261 C 
BRANCH  31  32
ATOM     32  O   UNL     1      -6.560  -3.124  -6.522  1.00  0.00    -0.460 OA
BRANCH  32  33
ATOM     33  C   UNL     1      -7.652  -2.601  -5.907  1.00  0.00     0.338 C 
ATOM     34  O   UNL     1      -8.618  -3.228  -5.490  1.00  0.00    -0.246 OA
BRANCH  33  35
ATOM     35  C   UNL     1      -7.430  -1.167  -5.614  1.00  0.00     0.060 A 
ATOM     36  C   UNL     1      -7.458  -0.737  -4.278  1.00  0.00     0.016 A 
ATOM     37  C   UNL     1      -7.243  -0.243  -6.643  1.00  0.00     0.016 A 
ATOM     38  C   UNL     1      -7.348   0.623  -3.971  1.00  0.00     0.010 A 
ATOM     39  C   UNL     1      -7.158   1.122  -6.335  1.00  0.00     0.010 A 
ATOM     40  C   UNL     1      -7.252   1.566  -5.002  1.00  0.00    -0.014 A 
BRANCH  40  41
ATOM     41  C   UNL     1      -7.497   3.007  -4.713  1.00  0.00     0.031 A 
ATOM     42  C   UNL     1      -8.885   3.549  -4.950  1.00  0.00     0.074 A 
ATOM     43  C   UNL     1      -6.534   3.818  -4.237  1.00  0.00     0.049 A 
ATOM     44  N   UNL     1      -9.333   4.773  -4.848  1.00  0.00    -0.248 NA
ATOM     45  C   UNL     1      -9.903   2.569  -5.365  1.00  0.00     0.031 C 
ATOM     46  C   UNL     1      -5.171   3.409  -3.904  1.00  0.00     0.029 A 
ATOM     47  N   UNL     1      -6.558   5.164  -3.955  1.00  0.00    -0.354 N 
ATOM     48  C   UNL     1     -10.679   4.715  -5.197  1.00  0.00     0.074 A 
ATOM     49  C   UNL     1     -10.964   3.339  -5.543  1.00  0.00     0.031 C 
ATOM     50  C   UNL     1      -4.487   4.484  -3.470  1.00  0.00     0.029 A 
ATOM     51  C   UNL     1      -5.346   5.667  -3.537  1.00  0.00     0.049 A 
ATOM     52  H   UNL     1      -7.367   5.717  -4.043  1.00  0.00     0.167 HD
ATOM     53  C   UNL     1     -11.594   5.715  -5.223  1.00  0.00     0.034 A 
ATOM     54  C   UNL     1      -4.969   6.936  -3.269  1.00  0.00     0.034 A 
ATOM     55  C   UNL     1     -11.298   7.085  -4.884  1.00  0.00     0.049 A 
ATOM     56  C   UNL     1      -5.986   8.052  -3.404  1.00  0.00     0.074 A 
ATOM     57  C   UNL     1     -12.156   8.171  -4.869  1.00  0.00     0.029 A 
ATOM     58  N   UNL     1     -10.048   7.562  -4.514  1.00  0.00    -0.354 N 
ATOM     59  N   UNL     1      -7.256   7.983  -3.733  1.00  0.00    -0.248 NA
ATOM     60  C   UNL     1      -5.517   9.417  -3.124  1.00  0.00     0.031 C 
ATOM     61  C   UNL     1     -11.410   9.316  -4.576  1.00  0.00     0.029 A 
ATOM     62  C   UNL     1     -10.106   8.932  -4.306  1.00  0.00     0.049 A 
ATOM     63  H   UNL     1      -9.239   7.010  -4.414  1.00  0.00     0.167 HD
ATOM     64  C   UNL     1      -7.744   9.287  -3.645  1.00  0.00     0.074 A 
ATOM     65  C   UNL     1      -6.636  10.117  -3.227  1.00  0.00     0.031 C 
ATOM     66  C   UNL     1      -8.998   9.754  -3.879  1.00  0.00     0.034 A 
BRANCH  53  67
ATOM     67  C   UNL     1     -12.987   5.374  -5.695  1.00  0.00     0.023 A 
ATOM     68  C   UNL     1     -13.821   4.492  -4.986  1.00  0.00     0.031 A 
ATOM     69  C   UNL     1     -13.483   5.936  -6.885  1.00  0.00     0.131 A 
ATOM     70  C   UNL     1     -15.082   4.155  -5.503  1.00  0.00     0.055 A 
ATOM     71  C   UNL     1     -14.769   5.660  -7.351  1.00  0.00     0.041 A 
ATOM     72  F   UNL     1     -12.722   6.763  -7.620  1.00  0.00    -0.206 F 
ATOM     73  C   UNL     1     -15.572   4.754  -6.665  1.00  0.00     0.022 A 
BRANCH  70  74
ATOM     74  S   UNL     1     -16.018   2.819  -4.709  1.00  0.00     0.124 S 
ATOM     75  O   UNL     1     -15.088   1.698  -4.826  1.00  0.00    -0.237 OA
ATOM     76  O   UNL     1     -16.228   3.338  -3.363  1.00  0.00    -0.237 OA
ATOM     77  O   UNL     1     -17.221   2.709  -5.531  1.00  0.00    -0.744 OA
ENDBRANCH  70  74
ENDBRANCH  53  67
BRANCH  54  78
ATOM     78  C   UNL     1      -3.558   7.258  -2.890  1.00  0.00     0.023 A 
ATOM     79  C   UNL     1      -3.258   7.886  -1.669  1.00  0.00     0.031 A 
ATOM     80  C   UNL     1      -2.499   7.041  -3.791  1.00  0.00     0.131 A 
ATOM     81  C   UNL     1      -1.953   8.337  -1.413  1.00  0.00     0.055 A 
ATOM     82  C   UNL     1      -1.189   7.428  -3.501  1.00  0.00     0.041 A 
ATOM     83  F   UNL     1      -2.725   6.457  -4.979  1.00  0.00    -0.206 F 
ATOM     84  C   UNL     1      -0.913   8.098  -2.314  1.00  0.00     0.022 A 
BRANCH  81  85
ATOM     85  S   UNL     1      -1.660   9.363   0.055  1.00  0.00     0.124 S 
ATOM     86  O   UNL     1      -2.593  10.462  -0.163  1.00  0.00    -0.237 OA
ATOM     87  O   UNL     1      -1.993   8.443   1.138  1.00  0.00    -0.237 OA
ATOM     88  O   UNL     1      -0.245   9.713  -0.051  1.00  0.00    -0.744 OA
ENDBRANCH  81  85
ENDBRANCH  54  78
BRANCH  66  89
ATOM     89  C   UNL     1      -9.262  11.218  -3.606  1.00  0.00     0.023 A 
ATOM     90  C   UNL     1      -8.644  12.245  -4.341  1.00  0.00     0.031 A 
ATOM     91  C   UNL     1     -10.154  11.589  -2.581  1.00  0.00     0.131 A 
ATOM     92  C   UNL     1      -8.878  13.588  -4.002  1.00  0.00     0.055 A 
ATOM     93  C   UNL     1     -10.437  12.925  -2.296  1.00  0.00     0.041 A 
ATOM     94  F   UNL     1     -10.773  10.655  -1.842  1.00  0.00    -0.206 F 
ATOM     95  C   UNL     1      -9.785  13.934  -2.998  1.00  0.00     0.022 A 
BRANCH  92  96
ATOM     96  S   UNL     1      -7.899  14.878  -4.819  1.00  0.00     0.124 S 
ATOM     97  O   UNL     1      -6.534  14.463  -4.514  1.00  0.00    -0.237 OA
ATOM     98  O   UNL     1      -8.309  14.745  -6.213  1.00  0.00    -0.237 OA
ATOM     99  O   UNL     1      -8.334  16.109  -4.161  1.00  0.00    -0.744 OA
ENDBRANCH  92  96
ENDBRANCH  66  89
ENDBRANCH  40  41
ENDBRANCH  33  35
ENDBRANCH  32  33
ENDBRANCH  31  32
ENDBRANCH  30  31
ENDBRANCH  29  30
ENDBRANCH  28  29
ENDBRANCH   1  28
TORSDOF 28
