REMARK SMILES Cc1ccc(-c2ncccc2C(=O)OCCOCCOCCOC(=O)c2ccc(-c3c4nc(c(-c5cc(S(=O)(=O)[O-])ccc5F)c5ccc([nH]5)c(-c5cc(S(=O)(=O)[O-])ccc5F)c5nc(c(-c6cc(S(=O)(=O)[O-])ccc6F)c6ccc3[nH]6)C=C5)C=C4)cc2)c(Cl)c1
REMARK SMILES IDX 19 1 18 2 17 3 16 4 15 5 14 6 12 7 13 8 11 9 6 10 7 11 8 12
REMARK SMILES IDX 10 13 9 14 5 15 1 16 2 17 3 18 91 19 4 20 89 21 90 22 20 23
REMARK SMILES IDX 21 24 22 25 23 26 24 27 25 28 26 29 27 30 88 31 28 32 87 33
REMARK SMILES IDX 29 34 30 35 31 36 81 37 32 38 86 39 80 40 82 41 33 42 85 43
REMARK SMILES IDX 79 44 78 45 34 47 66 48 46 49 65 50 47 51 50 52 64 53 83 54
REMARK SMILES IDX 48 55 49 56 63 58 84 59 51 60 35 61 36 62 44 63 37 64 43 65
REMARK SMILES IDX 45 66 42 67 38 68 39 69 40 70 41 71 67 72 68 73 76 74 69 75
REMARK SMILES IDX 75 76 77 77 74 78 70 79 71 80 72 81 73 82 52 83 53 84 61 85
REMARK SMILES IDX 54 86 60 87 62 88 59 89 55 90 56 91 57 92 58 93
REMARK H PARENT 82 46 50 57
REMARK Flexibility Score: inf
ROOT
ATOM      1  C   UNL     1      -1.171  -4.731  -1.514  1.00  0.00     0.188 C 
ENDROOT
BRANCH   1   2
ATOM      2  C   UNL     1      -1.836  -3.620  -2.351  1.00  0.00     0.188 C 
BRANCH   2   3
ATOM      3  O   UNL     1      -2.050  -4.000  -3.701  1.00  0.00    -0.376 OA
BRANCH   3   4
ATOM      4  C   UNL     1      -1.326  -3.252  -4.662  1.00  0.00     0.202 C 
BRANCH   4   5
ATOM      5  C   UNL     1       0.188  -3.505  -4.706  1.00  0.00     0.261 C 
BRANCH   5   6
ATOM      6  O   UNL     1       0.855  -3.591  -3.434  1.00  0.00    -0.460 OA
BRANCH   6   7
ATOM      7  C   UNL     1       1.352  -2.453  -2.884  1.00  0.00     0.340 C 
ATOM      8  O   UNL     1       1.245  -1.337  -3.352  1.00  0.00    -0.246 OA
BRANCH   7   9
ATOM      9  C   UNL     1       2.001  -2.801  -1.590  1.00  0.00     0.086 A 
ATOM     10  C   UNL     1       1.773  -2.054  -0.427  1.00  0.00     0.086 A 
ATOM     11  N   UNL     1       2.320  -2.396   0.773  1.00  0.00    -0.255 NA
ATOM     12  C   UNL     1       3.111  -3.488   0.824  1.00  0.00     0.112 A 
ATOM     13  C   UNL     1       2.806  -3.946  -1.494  1.00  0.00     0.019 A 
ATOM     14  C   UNL     1       3.368  -4.296  -0.269  1.00  0.00     0.021 A 
BRANCH  10  15
ATOM     15  C   UNL     1       0.764  -0.993  -0.344  1.00  0.00     0.020 A 
ATOM     16  C   UNL     1      -2.453   1.899  -0.519  1.00  0.00     0.044 C 
ATOM     17  C   UNL     1      -1.337   0.897  -0.455  1.00  0.00    -0.050 A 
ATOM     18  C   UNL     1      -1.617  -0.458  -0.285  1.00  0.00     0.004 A 
ATOM     19  C   UNL     1       0.001   1.310  -0.520  1.00  0.00     0.024 A 
ATOM     20  C   UNL     1      -0.575  -1.374  -0.162  1.00  0.00     0.012 A 
ATOM     21  C   UNL     1       1.044   0.371  -0.484  1.00  0.00     0.050 A 
ATOM     22  Cl  UNL     1       2.665   0.950  -0.634  1.00  0.00    -0.084 Cl
ENDBRANCH  10  15
ENDBRANCH   7   9
ENDBRANCH   6   7
ENDBRANCH   5   6
ENDBRANCH   4   5
ENDBRANCH   3   4
ENDBRANCH   2   3
ENDBRANCH   1   2
BRANCH   1  23
ATOM     23  O   UNL     1      -1.320  -6.099  -1.873  1.00  0.00    -0.376 OA
BRANCH  23  24
ATOM     24  C   UNL     1      -2.486  -6.514  -2.558  1.00  0.00     0.202 C 
BRANCH  24  25
ATOM     25  C   UNL     1      -3.853  -6.343  -1.877  1.00  0.00     0.261 C 
BRANCH  25  26
ATOM     26  O   UNL     1      -3.993  -5.225  -0.986  1.00  0.00    -0.460 OA
BRANCH  26  27
ATOM     27  C   UNL     1      -3.719  -5.497   0.315  1.00  0.00     0.338 C 
ATOM     28  O   UNL     1      -3.375  -6.579   0.770  1.00  0.00    -0.246 OA
BRANCH  27  29
ATOM     29  C   UNL     1      -3.743  -4.253   1.121  1.00  0.00     0.060 A 
ATOM     30  C   UNL     1      -2.671  -4.016   1.991  1.00  0.00     0.016 A 
ATOM     31  C   UNL     1      -4.818  -3.361   1.085  1.00  0.00     0.016 A 
ATOM     32  C   UNL     1      -2.689  -2.919   2.857  1.00  0.00     0.010 A 
ATOM     33  C   UNL     1      -4.843  -2.267   1.967  1.00  0.00     0.010 A 
ATOM     34  C   UNL     1      -3.795  -2.060   2.886  1.00  0.00    -0.014 A 
BRANCH  34  35
ATOM     35  C   UNL     1      -3.920  -1.065   3.991  1.00  0.00     0.031 A 
ATOM     36  C   UNL     1      -4.754  -1.411   5.189  1.00  0.00     0.074 A 
ATOM     37  C   UNL     1      -3.265   0.111   3.973  1.00  0.00     0.049 A 
ATOM     38  N   UNL     1      -4.940  -0.729   6.288  1.00  0.00    -0.248 NA
ATOM     39  C   UNL     1      -5.452  -2.703   5.148  1.00  0.00     0.031 C 
ATOM     40  C   UNL     1      -2.354   0.525   2.922  1.00  0.00     0.029 A 
ATOM     41  N   UNL     1      -3.257   1.171   4.846  1.00  0.00    -0.354 N 
ATOM     42  C   UNL     1      -5.749  -1.523   7.090  1.00  0.00     0.074 A 
ATOM     43  C   UNL     1      -6.075  -2.704   6.317  1.00  0.00     0.031 C 
ATOM     44  C   UNL     1      -1.925   1.774   3.158  1.00  0.00     0.029 A 
ATOM     45  C   UNL     1      -2.524   2.248   4.399  1.00  0.00     0.049 A 
ATOM     46  H   UNL     1      -3.732   1.162   5.709  1.00  0.00     0.167 HD
ATOM     47  C   UNL     1      -6.157  -1.296   8.363  1.00  0.00     0.034 A 
ATOM     48  C   UNL     1      -2.346   3.478   4.920  1.00  0.00     0.034 A 
ATOM     49  C   UNL     1      -5.853  -0.093   9.102  1.00  0.00     0.049 A 
ATOM     50  C   UNL     1      -2.914   3.767   6.282  1.00  0.00     0.074 A 
ATOM     51  C   UNL     1      -6.194   0.226  10.405  1.00  0.00     0.029 A 
ATOM     52  N   UNL     1      -5.165   1.006   8.597  1.00  0.00    -0.354 N 
ATOM     53  N   UNL     1      -3.630   2.983   7.056  1.00  0.00    -0.248 NA
ATOM     54  C   UNL     1      -2.612   5.079   6.865  1.00  0.00     0.031 C 
ATOM     55  C   UNL     1      -5.801   1.546  10.653  1.00  0.00     0.029 A 
ATOM     56  C   UNL     1      -5.121   2.021   9.543  1.00  0.00     0.049 A 
ATOM     57  H   UNL     1      -4.767   1.056   7.698  1.00  0.00     0.167 HD
ATOM     58  C   UNL     1      -3.818   3.688   8.240  1.00  0.00     0.074 A 
ATOM     59  C   UNL     1      -3.145   4.961   8.073  1.00  0.00     0.031 C 
ATOM     60  C   UNL     1      -4.470   3.302   9.368  1.00  0.00     0.034 A 
BRANCH  47  61
ATOM     61  C   UNL     1      -7.028  -2.354   8.997  1.00  0.00     0.023 A 
ATOM     62  C   UNL     1      -6.570  -3.670   9.197  1.00  0.00     0.031 A 
ATOM     63  C   UNL     1      -8.357  -2.060   9.347  1.00  0.00     0.131 A 
ATOM     64  C   UNL     1      -7.460  -4.660   9.641  1.00  0.00     0.055 A 
ATOM     65  C   UNL     1      -9.210  -3.030   9.876  1.00  0.00     0.041 A 
ATOM     66  F   UNL     1      -8.858  -0.830   9.155  1.00  0.00    -0.206 F 
ATOM     67  C   UNL     1      -8.769  -4.343  10.007  1.00  0.00     0.022 A 
BRANCH  64  68
ATOM     68  S   UNL     1      -6.936  -6.396   9.558  1.00  0.00     0.124 S 
ATOM     69  O   UNL     1      -6.585  -6.531   8.146  1.00  0.00    -0.237 OA
ATOM     70  O   UNL     1      -5.825  -6.436  10.501  1.00  0.00    -0.237 OA
ATOM     71  O   UNL     1      -8.130  -7.133   9.966  1.00  0.00    -0.744 OA
ENDBRANCH  64  68
ENDBRANCH  47  61
BRANCH  48  72
ATOM     72  C   UNL     1      -1.617   4.524   4.143  1.00  0.00     0.023 A 
ATOM     73  C   UNL     1      -0.388   5.050   4.570  1.00  0.00     0.031 A 
ATOM     74  C   UNL     1      -2.173   5.032   2.953  1.00  0.00     0.131 A 
ATOM     75  C   UNL     1       0.226   6.079   3.835  1.00  0.00     0.055 A 
ATOM     76  C   UNL     1      -1.538   6.023   2.203  1.00  0.00     0.041 A 
ATOM     77  F   UNL     1      -3.345   4.562   2.496  1.00  0.00    -0.206 F 
ATOM     78  C   UNL     1      -0.335   6.559   2.648  1.00  0.00     0.022 A 
BRANCH  75  79
ATOM     79  S   UNL     1       1.741   6.837   4.486  1.00  0.00     0.124 S 
ATOM     80  O   UNL     1       1.295   7.323   5.787  1.00  0.00    -0.237 OA
ATOM     81  O   UNL     1       2.663   5.707   4.504  1.00  0.00    -0.237 OA
ATOM     82  O   UNL     1       2.051   7.875   3.506  1.00  0.00    -0.744 OA
ENDBRANCH  75  79
ENDBRANCH  48  72
BRANCH  60  83
ATOM     83  C   UNL     1      -4.439   4.258  10.538  1.00  0.00     0.023 A 
ATOM     84  C   UNL     1      -5.041   5.528  10.481  1.00  0.00     0.031 A 
ATOM     85  C   UNL     1      -3.773   3.898  11.724  1.00  0.00     0.131 A 
ATOM     86  C   UNL     1      -4.907   6.414  11.561  1.00  0.00     0.055 A 
ATOM     87  C   UNL     1      -3.707   4.756  12.822  1.00  0.00     0.041 A 
ATOM     88  F   UNL     1      -3.171   2.703  11.835  1.00  0.00    -0.206 F 
ATOM     89  C   UNL     1      -4.262   6.029  12.739  1.00  0.00     0.022 A 
BRANCH  86  90
ATOM     90  S   UNL     1      -5.482   8.123  11.362  1.00  0.00     0.124 S 
ATOM     91  O   UNL     1      -4.722   8.563  10.196  1.00  0.00    -0.237 OA
ATOM     92  O   UNL     1      -6.917   7.947  11.159  1.00  0.00    -0.237 OA
ATOM     93  O   UNL     1      -5.108   8.760  12.623  1.00  0.00    -0.744 OA
ENDBRANCH  86  90
ENDBRANCH  60  83
ENDBRANCH  34  35
ENDBRANCH  27  29
ENDBRANCH  26  27
ENDBRANCH  25  26
ENDBRANCH  24  25
ENDBRANCH  23  24
ENDBRANCH   1  23
TORSDOF 21
