REMARK SMILES C[C@@]1(CN2C(=O)c3ccc(C(=O)OCCOCCOCCOC(=O)c4ccc(-c5c6nc(c(-c7cc(S(=O)(=O)[O-])ccc7F)c7ccc([nH]7)c(-c7cc(S(=O)(=O)[O-])ccc7F)c7nc(c(-c8cc(S(=O)(=O)[O-])ccc8F)c8ccc5[nH]8)C=C7)C=C6)cc4)cc3C2=O)CCCO1
REMARK SMILES IDX 18 1 17 2 16 3 15 4 14 5 13 6 11 7 12 8 10 9 4 10 5 11 90 12
REMARK SMILES IDX 6 13 7 14 89 15 91 16 8 17 88 18 9 19 3 20 2 21 1 22 92 23
REMARK SMILES IDX 95 24 93 25 94 26 19 27 20 28 21 29 22 30 23 31 24 32 25 33
REMARK SMILES IDX 26 34 87 35 27 36 86 37 28 38 29 39 30 40 80 41 31 42 85 43
REMARK SMILES IDX 79 44 81 45 32 46 84 47 78 48 77 49 33 51 65 52 45 53 64 54
REMARK SMILES IDX 46 55 49 56 63 57 82 58 47 59 48 60 62 62 83 63 50 64 34 65
REMARK SMILES IDX 35 66 43 67 36 68 42 69 44 70 41 71 37 72 38 73 39 74 40 75
REMARK SMILES IDX 66 76 67 77 75 78 68 79 74 80 76 81 73 82 69 83 70 84 71 85
REMARK SMILES IDX 72 86 51 87 52 88 60 89 53 90 59 91 61 92 58 93 54 94 55 95
REMARK SMILES IDX 56 96 57 97
REMARK H PARENT 81 50 49 61
REMARK Flexibility Score: inf
ROOT
ATOM      1  C   UNL     1      -7.518  -2.098  -2.498  1.00  0.00     0.188 C 
ENDROOT
BRANCH   1   2
ATOM      2  C   UNL     1      -8.089  -0.705  -2.834  1.00  0.00     0.188 C 
BRANCH   2   3
ATOM      3  O   UNL     1      -9.082  -0.577  -3.840  1.00  0.00    -0.376 OA
BRANCH   3   4
ATOM      4  C   UNL     1      -8.874  -1.136  -5.128  1.00  0.00     0.202 C 
BRANCH   4   5
ATOM      5  C   UNL     1      -7.522  -1.036  -5.857  1.00  0.00     0.261 C 
BRANCH   5   6
ATOM      6  O   UNL     1      -6.354  -1.271  -5.057  1.00  0.00    -0.460 OA
BRANCH   6   7
ATOM      7  C   UNL     1      -5.550  -0.195  -4.864  1.00  0.00     0.338 C 
ATOM      8  O   UNL     1      -5.686   0.915  -5.348  1.00  0.00    -0.246 OA
BRANCH   7   9
ATOM      9  C   UNL     1      -4.538  -0.501  -3.824  1.00  0.00     0.060 A 
ATOM     10  N   UNL     1      -1.827   0.269  -0.197  1.00  0.00    -0.271 N 
ATOM     11  C   UNL     1      -1.721  -0.980  -0.750  1.00  0.00     0.261 C 
ATOM     12  C   UNL     1      -2.840   0.984  -0.771  1.00  0.00     0.261 C 
ATOM     13  O   UNL     1      -1.025  -1.918  -0.430  1.00  0.00    -0.269 OA
ATOM     14  C   UNL     1      -2.664  -1.019  -1.869  1.00  0.00     0.053 A 
ATOM     15  C   UNL     1      -3.338   0.187  -1.889  1.00  0.00     0.054 A 
ATOM     16  O   UNL     1      -3.337   2.045  -0.438  1.00  0.00    -0.269 OA
ATOM     17  C   UNL     1      -2.906  -2.010  -2.804  1.00  0.00     0.015 A 
ATOM     18  C   UNL     1      -4.286   0.479  -2.850  1.00  0.00     0.030 A 
ATOM     19  C   UNL     1      -3.860  -1.743  -3.795  1.00  0.00     0.016 A 
BRANCH  10  20
ATOM     20  C   UNL     1      -1.014   0.758   0.911  1.00  0.00     0.164 C 
BRANCH  20  21
ATOM     21  C   UNL     1       0.410   1.235   0.495  1.00  0.00     0.084 C 
ATOM     22  C   UNL     1       1.256   0.112  -0.107  1.00  0.00     0.044 C 
ATOM     23  C   UNL     1       1.144   1.873   1.680  1.00  0.00     0.039 C 
ATOM     24  O   UNL     1       0.298   2.281  -0.494  1.00  0.00    -0.373 OA
ATOM     25  C   UNL     1       0.718   3.318   1.608  1.00  0.00     0.031 C 
ATOM     26  C   UNL     1       0.583   3.549   0.119  1.00  0.00     0.161 C 
ENDBRANCH  20  21
ENDBRANCH  10  20
ENDBRANCH   7   9
ENDBRANCH   6   7
ENDBRANCH   5   6
ENDBRANCH   4   5
ENDBRANCH   3   4
ENDBRANCH   2   3
ENDBRANCH   1   2
BRANCH   1  27
ATOM     27  O   UNL     1      -7.946  -3.134  -3.351  1.00  0.00    -0.376 OA
BRANCH  27  28
ATOM     28  C   UNL     1      -9.087  -3.899  -3.002  1.00  0.00     0.202 C 
BRANCH  28  29
ATOM     29  C   UNL     1     -10.197  -3.473  -2.014  1.00  0.00     0.261 C 
BRANCH  29  30
ATOM     30  O   UNL     1     -10.012  -2.295  -1.226  1.00  0.00    -0.460 OA
BRANCH  30  31
ATOM     31  C   UNL     1      -9.532  -2.481   0.029  1.00  0.00     0.338 C 
ATOM     32  O   UNL     1      -9.192  -3.538   0.529  1.00  0.00    -0.246 OA
BRANCH  31  33
ATOM     33  C   UNL     1      -9.290  -1.155   0.636  1.00  0.00     0.060 A 
ATOM     34  C   UNL     1      -7.968  -0.758   0.876  1.00  0.00     0.016 A 
ATOM     35  C   UNL     1     -10.354  -0.318   0.977  1.00  0.00     0.016 A 
ATOM     36  C   UNL     1      -7.707   0.471   1.482  1.00  0.00     0.010 A 
ATOM     37  C   UNL     1     -10.090   0.906   1.604  1.00  0.00     0.010 A 
ATOM     38  C   UNL     1      -8.767   1.292   1.887  1.00  0.00    -0.014 A 
BRANCH  38  39
ATOM     39  C   UNL     1      -8.489   2.460   2.762  1.00  0.00     0.031 A 
ATOM     40  C   UNL     1      -8.722   2.327   4.242  1.00  0.00     0.074 A 
ATOM     41  C   UNL     1      -8.000   3.607   2.259  1.00  0.00     0.049 A 
ATOM     42  N   UNL     1      -8.556   3.205   5.197  1.00  0.00    -0.248 NA
ATOM     43  C   UNL     1      -9.221   1.023   4.700  1.00  0.00     0.031 C 
ATOM     44  C   UNL     1      -7.699   3.849   0.850  1.00  0.00     0.029 A 
ATOM     45  N   UNL     1      -7.674   4.787   2.882  1.00  0.00    -0.354 N 
ATOM     46  C   UNL     1      -8.933   2.562   6.372  1.00  0.00     0.074 A 
ATOM     47  C   UNL     1      -9.388   1.240   5.994  1.00  0.00     0.031 C 
ATOM     48  C   UNL     1      -7.241   5.104   0.713  1.00  0.00     0.029 A 
ATOM     49  C   UNL     1      -7.249   5.766   2.017  1.00  0.00     0.049 A 
ATOM     50  H   UNL     1      -7.739   4.918   3.856  1.00  0.00     0.167 HD
ATOM     51  C   UNL     1      -8.892   3.026   7.647  1.00  0.00     0.034 A 
ATOM     52  C   UNL     1      -6.928   7.056   2.245  1.00  0.00     0.034 A 
ATOM     53  C   UNL     1      -8.461   4.359   8.001  1.00  0.00     0.049 A 
ATOM     54  C   UNL     1      -6.964   7.583   3.658  1.00  0.00     0.074 A 
ATOM     55  C   UNL     1      -8.361   4.929   9.258  1.00  0.00     0.029 A 
ATOM     56  N   UNL     1      -8.081   5.343   7.093  1.00  0.00    -0.354 N 
ATOM     57  N   UNL     1      -7.295   6.961   4.768  1.00  0.00    -0.248 NA
ATOM     58  C   UNL     1      -6.565   8.982   3.849  1.00  0.00     0.031 C 
ATOM     59  C   UNL     1      -8.012   6.277   9.104  1.00  0.00     0.029 A 
ATOM     60  C   UNL     1      -7.792   6.527   7.758  1.00  0.00     0.049 A 
ATOM     61  H   UNL     1      -8.026   5.217   6.118  1.00  0.00     0.167 HD
ATOM     62  C   UNL     1      -7.122   7.890   5.792  1.00  0.00     0.074 A 
ATOM     63  C   UNL     1      -6.634   9.103   5.167  1.00  0.00     0.031 C 
ATOM     64  C   UNL     1      -7.339   7.749   7.128  1.00  0.00     0.034 A 
BRANCH  51  65
ATOM     65  C   UNL     1      -9.395   2.096   8.730  1.00  0.00     0.023 A 
ATOM     66  C   UNL     1      -8.809   0.837   8.960  1.00  0.00     0.031 A 
ATOM     67  C   UNL     1     -10.527   2.436   9.491  1.00  0.00     0.131 A 
ATOM     68  C   UNL     1      -9.421  -0.073   9.835  1.00  0.00     0.055 A 
ATOM     69  C   UNL     1     -11.070   1.565  10.438  1.00  0.00     0.041 A 
ATOM     70  F   UNL     1     -11.148   3.612   9.307  1.00  0.00    -0.206 F 
ATOM     71  C   UNL     1     -10.532   0.292  10.597  1.00  0.00     0.022 A 
BRANCH  68  72
ATOM     72  S   UNL     1      -8.872  -1.804   9.804  1.00  0.00     0.124 S 
ATOM     73  O   UNL     1      -9.025  -2.137   8.389  1.00  0.00    -0.237 OA
ATOM     74  O   UNL     1      -7.502  -1.708  10.293  1.00  0.00    -0.237 OA
ATOM     75  O   UNL     1      -9.811  -2.477  10.699  1.00  0.00    -0.744 OA
ENDBRANCH  68  72
ENDBRANCH  51  65
BRANCH  52  76
ATOM     76  C   UNL     1      -6.587   7.949   1.100  1.00  0.00     0.023 A 
ATOM     77  C   UNL     1      -5.305   8.501   0.948  1.00  0.00     0.031 A 
ATOM     78  C   UNL     1      -7.564   8.274   0.140  1.00  0.00     0.131 A 
ATOM     79  C   UNL     1      -5.041   9.367  -0.126  1.00  0.00     0.055 A 
ATOM     80  C   UNL     1      -7.282   9.093  -0.954  1.00  0.00     0.041 A 
ATOM     81  F   UNL     1      -8.808   7.778   0.242  1.00  0.00    -0.206 F 
ATOM     82  C   UNL     1      -6.015   9.651  -1.087  1.00  0.00     0.022 A 
BRANCH  79  83
ATOM     83  S   UNL     1      -3.416  10.170  -0.223  1.00  0.00     0.124 S 
ATOM     84  O   UNL     1      -3.393  10.948   1.010  1.00  0.00    -0.237 OA
ATOM     85  O   UNL     1      -2.510   9.027  -0.275  1.00  0.00    -0.237 OA
ATOM     86  O   UNL     1      -3.496  10.954  -1.454  1.00  0.00    -0.744 OA
ENDBRANCH  79  83
ENDBRANCH  52  76
BRANCH  64  87
ATOM     87  C   UNL     1      -7.014   8.940   8.006  1.00  0.00     0.023 A 
ATOM     88  C   UNL     1      -7.686  10.169   7.870  1.00  0.00     0.031 A 
ATOM     89  C   UNL     1      -5.989   8.857   8.966  1.00  0.00     0.131 A 
ATOM     90  C   UNL     1      -7.267  11.283   8.614  1.00  0.00     0.055 A 
ATOM     91  C   UNL     1      -5.633   9.947   9.763  1.00  0.00     0.041 A 
ATOM     92  F   UNL     1      -5.304   7.715   9.141  1.00  0.00    -0.206 F 
ATOM     93  C   UNL     1      -6.259  11.175   9.575  1.00  0.00     0.022 A 
BRANCH  90  94
ATOM     94  S   UNL     1      -7.955  12.912   8.203  1.00  0.00     0.124 S 
ATOM     95  O   UNL     1      -7.657  13.013   6.778  1.00  0.00    -0.237 OA
ATOM     96  O   UNL     1      -9.362  12.754   8.552  1.00  0.00    -0.237 OA
ATOM     97  O   UNL     1      -7.202  13.827   9.060  1.00  0.00    -0.744 OA
ENDBRANCH  90  94
ENDBRANCH  64  87
ENDBRANCH  38  39
ENDBRANCH  31  33
ENDBRANCH  30  31
ENDBRANCH  29  30
ENDBRANCH  28  29
ENDBRANCH  27  28
ENDBRANCH   1  27
TORSDOF 22
