REMARK SMILES CC(C)[C@@H](CO)Nc1ccc(C(=O)OCCOCCOCCOC(=O)c2ccc(-c3c4nc(c(-c5cc(S(=O)(=O)[O-])ccc5F)c5ccc([nH]5)c(-c5cc(S(=O)(=O)[O-])ccc5F)c5nc(c(-c6cc(S(=O)(=O)[O-])ccc6F)c6ccc3[nH]6)C=C5)C=C4)cc2)nn1
REMARK SMILES IDX 18 1 17 2 16 3 15 4 14 5 12 6 13 7 11 8 8 9 9 10 90 11 10 12
REMARK SMILES IDX 89 13 7 14 4 16 2 17 1 18 3 19 5 20 6 21 19 23 20 24 21 25
REMARK SMILES IDX 22 26 23 27 24 28 25 29 26 30 27 31 88 32 28 33 87 34 29 35
REMARK SMILES IDX 30 36 31 37 81 38 32 39 86 40 80 41 82 42 33 43 85 44 79 45
REMARK SMILES IDX 78 46 34 48 66 49 46 50 65 51 47 52 50 53 64 54 83 55 48 56
REMARK SMILES IDX 49 57 63 59 84 60 51 61 35 62 36 63 44 64 37 65 43 66 45 67
REMARK SMILES IDX 42 68 38 69 39 70 40 71 41 72 67 73 68 74 76 75 69 76 75 77
REMARK SMILES IDX 77 78 74 79 70 80 71 81 72 82 73 83 52 84 53 85 61 86 54 87
REMARK SMILES IDX 60 88 62 89 59 90 55 91 56 92 57 93 58 94
REMARK H PARENT 7 15 6 22 82 47 50 58
REMARK Flexibility Score: inf
ROOT
ATOM      1  C   UNL     1      -5.302  -0.281   7.707  1.00  0.00     0.188 C 
ENDROOT
BRANCH   1   2
ATOM      2  O   UNL     1      -5.763   0.686   8.646  1.00  0.00    -0.376 OA
BRANCH   2   3
ATOM      3  C   UNL     1      -6.262   1.937   8.190  1.00  0.00     0.202 C 
BRANCH   3   4
ATOM      4  C   UNL     1      -5.366   2.803   7.296  1.00  0.00     0.261 C 
BRANCH   4   5
ATOM      5  O   UNL     1      -4.887   2.122   6.125  1.00  0.00    -0.458 OA
BRANCH   5   6
ATOM      6  C   UNL     1      -3.533   2.051   6.011  1.00  0.00     0.358 C 
ATOM      7  O   UNL     1      -2.718   2.639   6.703  1.00  0.00    -0.244 OA
BRANCH   6   8
ATOM      8  C   UNL     1      -3.170   1.068   4.964  1.00  0.00     0.171 A 
ATOM      9  C   UNL     1      -2.250  -0.726   3.126  1.00  0.00     0.148 A 
ATOM     10  C   UNL     1      -3.289   0.130   2.783  1.00  0.00     0.051 A 
ATOM     11  N   UNL     1      -1.766  -0.728   4.381  1.00  0.00    -0.132 NA
ATOM     12  C   UNL     1      -3.774   1.041   3.720  1.00  0.00     0.042 A 
ATOM     13  N   UNL     1      -2.199   0.195   5.302  1.00  0.00    -0.141 NA
BRANCH   9  14
ATOM     14  N   UNL     1      -1.621  -1.530   2.186  1.00  0.00    -0.363 N 
ATOM     15  H   UNL     1      -1.589  -2.510   2.284  1.00  0.00     0.162 HD
BRANCH  14  16
ATOM     16  C   UNL     1      -1.004  -0.853   1.035  1.00  0.00     0.108 C 
BRANCH  16  17
ATOM     17  C   UNL     1       0.550  -0.882   1.152  1.00  0.00     0.007 C 
ATOM     18  C   UNL     1       1.204  -0.103   0.004  1.00  0.00     0.009 C 
ATOM     19  C   UNL     1       1.054  -0.294   2.479  1.00  0.00     0.009 C 
ENDBRANCH  16  17
BRANCH  16  20
ATOM     20  C   UNL     1      -1.546  -1.492  -0.269  1.00  0.00     0.181 C 
BRANCH  20  21
ATOM     21  O   UNL     1      -1.121  -2.834  -0.485  1.00  0.00    -0.394 OA
ATOM     22  H   UNL     1      -0.155  -2.857  -0.576  1.00  0.00     0.210 HD
ENDBRANCH  20  21
ENDBRANCH  16  20
ENDBRANCH  14  16
ENDBRANCH   9  14
ENDBRANCH   6   8
ENDBRANCH   5   6
ENDBRANCH   4   5
ENDBRANCH   3   4
ENDBRANCH   2   3
ENDBRANCH   1   2
BRANCH   1  23
ATOM     23  C   UNL     1      -6.130  -0.570   6.437  1.00  0.00     0.188 C 
BRANCH  23  24
ATOM     24  O   UNL     1      -7.356   0.140   6.364  1.00  0.00    -0.376 OA
BRANCH  24  25
ATOM     25  C   UNL     1      -8.537  -0.638   6.512  1.00  0.00     0.202 C 
BRANCH  25  26
ATOM     26  C   UNL     1      -8.753  -1.327   7.869  1.00  0.00     0.261 C 
BRANCH  26  27
ATOM     27  O   UNL     1      -7.681  -2.166   8.330  1.00  0.00    -0.460 OA
BRANCH  27  28
ATOM     28  C   UNL     1      -7.495  -3.341   7.686  1.00  0.00     0.338 C 
ATOM     29  O   UNL     1      -8.134  -3.759   6.738  1.00  0.00    -0.246 OA
BRANCH  28  30
ATOM     30  C   UNL     1      -6.259  -3.956   8.223  1.00  0.00     0.060 A 
ATOM     31  C   UNL     1      -5.172  -4.160   7.365  1.00  0.00     0.016 A 
ATOM     32  C   UNL     1      -6.170  -4.314   9.571  1.00  0.00     0.016 A 
ATOM     33  C   UNL     1      -3.997  -4.740   7.853  1.00  0.00     0.010 A 
ATOM     34  C   UNL     1      -4.998  -4.910  10.053  1.00  0.00     0.010 A 
ATOM     35  C   UNL     1      -3.911  -5.147   9.192  1.00  0.00    -0.014 A 
BRANCH  35  36
ATOM     36  C   UNL     1      -2.746  -5.948   9.655  1.00  0.00     0.031 A 
ATOM     37  C   UNL     1      -2.880  -7.446   9.724  1.00  0.00     0.074 A 
ATOM     38  C   UNL     1      -1.583  -5.360   9.991  1.00  0.00     0.049 A 
ATOM     39  N   UNL     1      -2.012  -8.343  10.115  1.00  0.00    -0.248 NA
ATOM     40  C   UNL     1      -4.172  -8.003   9.296  1.00  0.00     0.031 C 
ATOM     41  C   UNL     1      -1.315  -3.924   9.934  1.00  0.00     0.029 A 
ATOM     42  N   UNL     1      -0.408  -5.902  10.453  1.00  0.00    -0.354 N 
ATOM     43  C   UNL     1      -2.649  -9.572   9.977  1.00  0.00     0.074 A 
ATOM     44  C   UNL     1      -3.990  -9.298   9.506  1.00  0.00     0.031 C 
ATOM     45  C   UNL     1      -0.058  -3.698  10.354  1.00  0.00     0.029 A 
ATOM     46  C   UNL     1       0.559  -4.966  10.741  1.00  0.00     0.049 A 
ATOM     47  H   UNL     1      -0.271  -6.870  10.568  1.00  0.00     0.167 HD
ATOM     48  C   UNL     1      -2.158 -10.815  10.212  1.00  0.00     0.034 A 
ATOM     49  C   UNL     1       1.789  -5.114  11.276  1.00  0.00     0.034 A 
ATOM     50  C   UNL     1      -0.826 -11.075  10.701  1.00  0.00     0.049 A 
ATOM     51  C   UNL     1       2.282  -6.502  11.616  1.00  0.00     0.074 A 
ATOM     52  C   UNL     1      -0.223 -12.296  10.954  1.00  0.00     0.029 A 
ATOM     53  N   UNL     1       0.107 -10.100  11.031  1.00  0.00    -0.354 N 
ATOM     54  N   UNL     1       1.679  -7.658  11.458  1.00  0.00    -0.248 NA
ATOM     55  C   UNL     1       3.627  -6.603  12.198  1.00  0.00     0.031 C 
ATOM     56  C   UNL     1       1.041 -12.057  11.505  1.00  0.00     0.029 A 
ATOM     57  C   UNL     1       1.263 -10.690  11.521  1.00  0.00     0.049 A 
ATOM     58  H   UNL     1      -0.032  -9.130  10.931  1.00  0.00     0.167 HD
ATOM     59  C   UNL     1       2.584  -8.623  11.894  1.00  0.00     0.074 A 
ATOM     60  C   UNL     1       3.779  -7.915  12.304  1.00  0.00     0.031 C 
ATOM     61  C   UNL     1       2.444  -9.973  11.945  1.00  0.00     0.034 A 
BRANCH  48  62
ATOM     62  C   UNL     1      -3.094 -11.980   9.992  1.00  0.00     0.023 A 
ATOM     63  C   UNL     1      -3.600 -12.295   8.718  1.00  0.00     0.031 A 
ATOM     64  C   UNL     1      -3.508 -12.771  11.079  1.00  0.00     0.131 A 
ATOM     65  C   UNL     1      -4.543 -13.325   8.575  1.00  0.00     0.055 A 
ATOM     66  C   UNL     1      -4.386 -13.844  10.917  1.00  0.00     0.041 A 
ATOM     67  F   UNL     1      -3.076 -12.504  12.322  1.00  0.00    -0.206 F 
ATOM     68  C   UNL     1      -4.920 -14.117   9.661  1.00  0.00     0.022 A 
BRANCH  65  69
ATOM     69  S   UNL     1      -5.373 -13.526   6.974  1.00  0.00     0.124 S 
ATOM     70  O   UNL     1      -5.989 -12.214   6.793  1.00  0.00    -0.237 OA
ATOM     71  O   UNL     1      -4.265 -13.842   6.081  1.00  0.00    -0.237 OA
ATOM     72  O   UNL     1      -6.315 -14.619   7.212  1.00  0.00    -0.744 OA
ENDBRANCH  65  69
ENDBRANCH  48  62
BRANCH  49  73
ATOM     73  C   UNL     1       2.636  -3.921  11.572  1.00  0.00     0.023 A 
ATOM     74  C   UNL     1       3.874  -3.726  10.936  1.00  0.00     0.031 A 
ATOM     75  C   UNL     1       2.248  -2.990  12.553  1.00  0.00     0.131 A 
ATOM     76  C   UNL     1       4.699  -2.656  11.321  1.00  0.00     0.055 A 
ATOM     77  C   UNL     1       3.046  -1.897  12.892  1.00  0.00     0.041 A 
ATOM     78  F   UNL     1       1.079  -3.133  13.199  1.00  0.00    -0.206 F 
ATOM     79  C   UNL     1       4.286  -1.732  12.284  1.00  0.00     0.022 A 
BRANCH  76  80
ATOM     80  S   UNL     1       6.364  -2.540  10.610  1.00  0.00     0.124 S 
ATOM     81  O   UNL     1       6.948  -3.816  11.009  1.00  0.00    -0.237 OA
ATOM     82  O   UNL     1       6.079  -2.383   9.187  1.00  0.00    -0.237 OA
ATOM     83  O   UNL     1       6.933  -1.363  11.262  1.00  0.00    -0.744 OA
ENDBRANCH  76  80
ENDBRANCH  49  73
BRANCH  61  84
ATOM     84  C   UNL     1       3.634 -10.772  12.427  1.00  0.00     0.023 A 
ATOM     85  C   UNL     1       4.103 -10.681  13.750  1.00  0.00     0.031 A 
ATOM     86  C   UNL     1       4.319 -11.624  11.542  1.00  0.00     0.131 A 
ATOM     87  C   UNL     1       5.257 -11.383  14.133  1.00  0.00     0.055 A 
ATOM     88  C   UNL     1       5.429 -12.367  11.946  1.00  0.00     0.041 A 
ATOM     89  F   UNL     1       3.920 -11.749  10.266  1.00  0.00    -0.206 F 
ATOM     90  C   UNL     1       5.913 -12.238  13.245  1.00  0.00     0.022 A 
BRANCH  87  91
ATOM     91  S   UNL     1       5.951 -11.087  15.784  1.00  0.00     0.124 S 
ATOM     92  O   UNL     1       6.186  -9.647  15.761  1.00  0.00    -0.237 OA
ATOM     93  O   UNL     1       4.877 -11.544  16.660  1.00  0.00    -0.237 OA
ATOM     94  O   UNL     1       7.158 -11.911  15.802  1.00  0.00    -0.744 OA
ENDBRANCH  87  91
ENDBRANCH  61  84
ENDBRANCH  35  36
ENDBRANCH  28  30
ENDBRANCH  27  28
ENDBRANCH  26  27
ENDBRANCH  25  26
ENDBRANCH  24  25
ENDBRANCH  23  24
ENDBRANCH   1  23
TORSDOF 25
