REMARK SMILES O=C(OCCOCCOCCOC(=O)c1cc(NC(=O)c2cccnc2Cl)ccc1O)c1ccc(-c2c3nc(c(-c4cc(S(=O)(=O)[O-])ccc4F)c4ccc([nH]4)c(-c4cc(S(=O)(=O)[O-])ccc4F)c4nc(c(-c5cc(S(=O)(=O)[O-])ccc5F)c5ccc2[nH]5)C=C4)C=C3)cc1
REMARK SMILES IDX 7 1 6 2 5 3 4 4 3 5 2 6 1 7 32 8 33 9 94 10 34 11 93 12
REMARK SMILES IDX 35 13 36 14 37 15 87 16 38 17 92 18 86 19 88 20 39 21 91 22
REMARK SMILES IDX 85 23 84 24 40 26 72 27 52 28 71 29 53 30 56 31 70 32 89 33
REMARK SMILES IDX 54 34 55 35 69 37 90 38 57 39 41 40 42 41 50 42 43 43 49 44
REMARK SMILES IDX 51 45 48 46 44 47 45 48 46 49 47 50 73 51 74 52 82 53 75 54
REMARK SMILES IDX 81 55 83 56 80 57 76 58 77 59 78 60 79 61 58 62 59 63 67 64
REMARK SMILES IDX 60 65 66 66 68 67 65 68 61 69 62 70 63 71 64 72 8 73 9 74
REMARK SMILES IDX 10 75 11 76 12 77 13 78 14 79 15 80 16 81 30 82 17 83 29 84
REMARK SMILES IDX 28 85 31 86 18 88 19 89 20 91 21 92 22 93 26 94 23 95 25 96
REMARK SMILES IDX 27 97 24 98
REMARK H PARENT 88 25 56 36 31 87 18 90
REMARK Flexibility Score: inf
ROOT
ATOM      1  C   UNL     1       3.478  -0.509  -1.759  1.00  0.00     0.188 C 
ENDROOT
BRANCH   1   2
ATOM      2  O   UNL     1       4.872  -0.674  -1.506  1.00  0.00    -0.376 OA
BRANCH   2   3
ATOM      3  C   UNL     1       5.252  -1.664  -0.553  1.00  0.00     0.202 C 
BRANCH   3   4
ATOM      4  C   UNL     1       4.944  -1.382   0.930  1.00  0.00     0.261 C 
BRANCH   4   5
ATOM      5  O   UNL     1       3.610  -0.910   1.160  1.00  0.00    -0.460 OA
BRANCH   5   6
ATOM      6  C   UNL     1       3.368   0.285   1.770  1.00  0.00     0.338 C 
ATOM      7  O   UNL     1       2.562   0.341   2.694  1.00  0.00    -0.246 OA
BRANCH   6   8
ATOM      8  C   UNL     1       3.883   1.550   1.136  1.00  0.00     0.060 A 
ATOM      9  C   UNL     1       4.983   1.622   0.279  1.00  0.00     0.016 A 
ATOM     10  C   UNL     1       3.190   2.742   1.397  1.00  0.00     0.016 A 
ATOM     11  C   UNL     1       5.345   2.795  -0.373  1.00  0.00     0.010 A 
ATOM     12  C   UNL     1       3.567   3.943   0.771  1.00  0.00     0.010 A 
ATOM     13  C   UNL     1       4.649   3.970  -0.126  1.00  0.00    -0.014 A 
BRANCH  13  14
ATOM     14  C   UNL     1       5.285   5.235  -0.558  1.00  0.00     0.031 A 
ATOM     15  C   UNL     1       5.990   6.010   0.515  1.00  0.00     0.074 A 
ATOM     16  C   UNL     1       5.393   5.586  -1.854  1.00  0.00     0.049 A 
ATOM     17  N   UNL     1       6.615   7.152   0.450  1.00  0.00    -0.248 NA
ATOM     18  C   UNL     1       5.986   5.399   1.856  1.00  0.00     0.031 C 
ATOM     19  C   UNL     1       4.881   4.814  -2.989  1.00  0.00     0.029 A 
ATOM     20  N   UNL     1       6.010   6.663  -2.442  1.00  0.00    -0.354 N 
ATOM     21  C   UNL     1       7.051   7.403   1.746  1.00  0.00     0.074 A 
ATOM     22  C   UNL     1       6.560   6.336   2.583  1.00  0.00     0.031 C 
ATOM     23  C   UNL     1       5.227   5.436  -4.130  1.00  0.00     0.029 A 
ATOM     24  C   UNL     1       5.920   6.679  -3.816  1.00  0.00     0.049 A 
ATOM     25  H   UNL     1       6.474   7.362  -1.927  1.00  0.00     0.167 HD
ATOM     26  C   UNL     1       7.822   8.420   2.194  1.00  0.00     0.034 A 
ATOM     27  C   UNL     1       6.334   7.603  -4.709  1.00  0.00     0.034 A 
ATOM     28  C   UNL     1       8.307   9.462   1.333  1.00  0.00     0.049 A 
ATOM     29  C   UNL     1       7.070   8.811  -4.172  1.00  0.00     0.074 A 
ATOM     30  C   UNL     1       9.034  10.588   1.661  1.00  0.00     0.029 A 
ATOM     31  N   UNL     1       8.105   9.497  -0.044  1.00  0.00    -0.354 N 
ATOM     32  N   UNL     1       7.418   9.080  -2.932  1.00  0.00    -0.248 NA
ATOM     33  C   UNL     1       7.478   9.832  -5.144  1.00  0.00     0.031 C 
ATOM     34  C   UNL     1       9.212  11.339   0.494  1.00  0.00     0.029 A 
ATOM     35  C   UNL     1       8.672  10.640  -0.576  1.00  0.00     0.049 A 
ATOM     36  H   UNL     1       7.628   8.809  -0.562  1.00  0.00     0.167 HD
ATOM     37  C   UNL     1       8.120  10.281  -2.984  1.00  0.00     0.074 A 
ATOM     38  C   UNL     1       8.153  10.676  -4.378  1.00  0.00     0.031 C 
ATOM     39  C   UNL     1       8.690  10.993  -1.977  1.00  0.00     0.034 A 
BRANCH  26  40
ATOM     40  C   UNL     1       8.079   8.460   3.679  1.00  0.00     0.023 A 
ATOM     41  C   UNL     1       8.766   7.423   4.340  1.00  0.00     0.031 A 
ATOM     42  C   UNL     1       7.488   9.464   4.463  1.00  0.00     0.131 A 
ATOM     43  C   UNL     1       8.737   7.351   5.741  1.00  0.00     0.055 A 
ATOM     44  C   UNL     1       7.553   9.441   5.857  1.00  0.00     0.041 A 
ATOM     45  F   UNL     1       6.791  10.458   3.890  1.00  0.00    -0.206 F 
ATOM     46  C   UNL     1       8.159   8.367   6.505  1.00  0.00     0.022 A 
BRANCH  43  47
ATOM     47  S   UNL     1       9.274   5.811   6.539  1.00  0.00     0.124 S 
ATOM     48  O   UNL     1       8.329   4.846   5.981  1.00  0.00    -0.237 OA
ATOM     49  O   UNL     1      10.655   5.685   6.089  1.00  0.00    -0.237 OA
ATOM     50  O   UNL     1       9.104   6.087   7.964  1.00  0.00    -0.744 OA
ENDBRANCH  43  47
ENDBRANCH  26  40
BRANCH  27  51
ATOM     51  C   UNL     1       6.026   7.477  -6.170  1.00  0.00     0.023 A 
ATOM     52  C   UNL     1       7.040   7.446  -7.143  1.00  0.00     0.031 A 
ATOM     53  C   UNL     1       4.692   7.472  -6.626  1.00  0.00     0.131 A 
ATOM     54  C   UNL     1       6.709   7.466  -8.511  1.00  0.00     0.055 A 
ATOM     55  C   UNL     1       4.368   7.442  -7.986  1.00  0.00     0.041 A 
ATOM     56  F   UNL     1       3.673   7.493  -5.753  1.00  0.00    -0.206 F 
ATOM     57  C   UNL     1       5.380   7.454  -8.938  1.00  0.00     0.022 A 
BRANCH  54  58
ATOM     58  S   UNL     1       8.044   7.602  -9.735  1.00  0.00     0.124 S 
ATOM     59  O   UNL     1       8.705   8.833  -9.317  1.00  0.00    -0.237 OA
ATOM     60  O   UNL     1       8.782   6.364  -9.508  1.00  0.00    -0.237 OA
ATOM     61  O   UNL     1       7.330   7.675 -11.008  1.00  0.00    -0.744 OA
ENDBRANCH  54  58
ENDBRANCH  27  51
BRANCH  39  62
ATOM     62  C   UNL     1       9.449  12.236  -2.362  1.00  0.00     0.023 A 
ATOM     63  C   UNL     1       8.802  13.366  -2.886  1.00  0.00     0.031 A 
ATOM     64  C   UNL     1      10.842  12.293  -2.173  1.00  0.00     0.131 A 
ATOM     65  C   UNL     1       9.555  14.490  -3.251  1.00  0.00     0.055 A 
ATOM     66  C   UNL     1      11.575  13.440  -2.471  1.00  0.00     0.041 A 
ATOM     67  F   UNL     1      11.508  11.238  -1.677  1.00  0.00    -0.206 F 
ATOM     68  C   UNL     1      10.933  14.544  -3.024  1.00  0.00     0.022 A 
BRANCH  65  69
ATOM     69  S   UNL     1       8.720  15.849  -4.111  1.00  0.00     0.124 S 
ATOM     70  O   UNL     1       8.184  15.176  -5.290  1.00  0.00    -0.237 OA
ATOM     71  O   UNL     1       7.737  16.287  -3.126  1.00  0.00    -0.237 OA
ATOM     72  O   UNL     1       9.798  16.800  -4.376  1.00  0.00    -0.744 OA
ENDBRANCH  65  69
ENDBRANCH  39  62
ENDBRANCH  13  14
ENDBRANCH   6   8
ENDBRANCH   5   6
ENDBRANCH   4   5
ENDBRANCH   3   4
ENDBRANCH   2   3
ENDBRANCH   1   2
BRANCH   1  73
ATOM     73  C   UNL     1       2.760  -1.700  -2.397  1.00  0.00     0.188 C 
BRANCH  73  74
ATOM     74  O   UNL     1       3.654  -2.705  -2.846  1.00  0.00    -0.376 OA
BRANCH  74  75
ATOM     75  C   UNL     1       4.073  -2.613  -4.202  1.00  0.00     0.202 C 
BRANCH  75  76
ATOM     76  C   UNL     1       4.733  -1.313  -4.687  1.00  0.00     0.261 C 
BRANCH  76  77
ATOM     77  O   UNL     1       3.957  -0.101  -4.633  1.00  0.00    -0.460 OA
BRANCH  77  78
ATOM     78  C   UNL     1       2.827   0.008  -5.359  1.00  0.00     0.342 C 
ATOM     79  O   UNL     1       2.230  -0.892  -5.938  1.00  0.00    -0.246 OA
BRANCH  78  80
ATOM     80  C   UNL     1       2.344   1.402  -5.268  1.00  0.00     0.103 A 
ATOM     81  C   UNL     1       1.154   1.695  -4.569  1.00  0.00     0.045 A 
ATOM     82  C   UNL     1       3.054   2.419  -5.913  1.00  0.00     0.130 A 
ATOM     83  C   UNL     1       0.694   3.017  -4.498  1.00  0.00     0.042 A 
ATOM     84  C   UNL     1       2.579   3.725  -5.876  1.00  0.00     0.049 A 
ATOM     85  C   UNL     1       1.412   4.018  -5.169  1.00  0.00     0.030 A 
BRANCH  82  86
ATOM     86  O   UNL     1       4.199   2.132  -6.600  1.00  0.00    -0.507 OA
ATOM     87  H   UNL     1       4.521   1.253  -6.626  1.00  0.00     0.293 HD
ENDBRANCH  82  86
BRANCH  83  88
ATOM     88  N   UNL     1      -0.458   3.455  -3.811  1.00  0.00    -0.322 N 
ATOM     89  C   UNL     1      -1.248   2.914  -2.824  1.00  0.00     0.258 C 
ATOM     90  H   UNL     1      -0.764   4.344  -4.103  1.00  0.00     0.170 HD
ATOM     91  O   UNL     1      -2.331   3.436  -2.556  1.00  0.00    -0.269 OA
BRANCH  89  92
ATOM     92  C   UNL     1      -0.832   1.777  -2.000  1.00  0.00     0.077 A 
ATOM     93  C   UNL     1      -1.730   0.733  -1.762  1.00  0.00     0.018 A 
ATOM     94  C   UNL     1       0.367   1.760  -1.317  1.00  0.00     0.141 A 
ATOM     95  C   UNL     1      -1.359  -0.316  -0.922  1.00  0.00     0.021 A 
ATOM     96  N   UNL     1       0.756   0.748  -0.506  1.00  0.00    -0.244 NA
ATOM     97  Cl  UNL     1       1.494   3.042  -1.387  1.00  0.00    -0.061 Cl
ATOM     98  C   UNL     1      -0.111  -0.269  -0.326  1.00  0.00     0.113 A 
ENDBRANCH  89  92
ENDBRANCH  83  88
ENDBRANCH  78  80
ENDBRANCH  77  78
ENDBRANCH  76  77
ENDBRANCH  75  76
ENDBRANCH  74  75
ENDBRANCH  73  74
ENDBRANCH   1  73
TORSDOF 23
