REMARK SMILES CCCN(CC(=O)OCCOCCOCCOC(=O)c1ccc(-c2c3nc(c(-c4cc(S(=O)(=O)[O-])ccc4F)c4ccc([nH]4)c(-c4cc(S(=O)(=O)[O-])ccc4F)c4nc(c(-c5cc(S(=O)(=O)[O-])ccc5F)c5ccc2[nH]5)C=C4)C=C3)cc1)C(=O)Cc1ccc(F)c(F)c1
REMARK SMILES IDX 12 1 11 2 10 3 9 4 8 5 6 6 7 7 5 8 4 9 3 10 2 11 1 12 83 13
REMARK SMILES IDX 84 14 85 15 86 16 87 17 93 18 88 19 91 20 89 21 92 22 90 23
REMARK SMILES IDX 13 24 14 25 15 26 16 27 17 28 18 29 19 30 20 31 21 32 82 33
REMARK SMILES IDX 22 34 81 35 23 36 24 37 25 38 75 39 26 40 80 41 74 42 76 43
REMARK SMILES IDX 27 44 79 45 73 46 72 47 28 49 60 50 40 51 59 52 41 53 44 54
REMARK SMILES IDX 58 55 77 56 42 57 43 58 57 60 78 61 45 62 29 63 30 64 38 65
REMARK SMILES IDX 31 66 37 67 39 68 36 69 32 70 33 71 34 72 35 73 61 74 62 75
REMARK SMILES IDX 70 76 63 77 69 78 71 79 68 80 64 81 65 82 66 83 67 84 46 85
REMARK SMILES IDX 47 86 55 87 48 88 54 89 56 90 53 91 49 92 50 93 51 94 52 95
REMARK H PARENT 76 48 44 59
REMARK Flexibility Score: inf
ROOT
ATOM      1  C   UNL     1       1.018   4.606   4.199  1.00  0.00     0.188 C 
ENDROOT
BRANCH   1   2
ATOM      2  O   UNL     1       1.147   4.847   5.599  1.00  0.00    -0.376 OA
BRANCH   2   3
ATOM      3  C   UNL     1       1.998   3.974   6.327  1.00  0.00     0.202 C 
BRANCH   3   4
ATOM      4  C   UNL     1       1.459   2.555   6.536  1.00  0.00     0.261 C 
BRANCH   4   5
ATOM      5  O   UNL     1       1.060   1.896   5.311  1.00  0.00    -0.462 OA
BRANCH   5   6
ATOM      6  C   UNL     1      -0.108   1.203   5.388  1.00  0.00     0.325 C 
ATOM      7  O   UNL     1      -0.774   1.093   6.415  1.00  0.00    -0.250 OA
BRANCH   6   8
ATOM      8  C   UNL     1      -0.603   0.611   4.059  1.00  0.00     0.242 C 
BRANCH   8   9
ATOM      9  N   UNL     1       0.263   0.564   2.866  1.00  0.00    -0.331 N 
BRANCH   9  10
ATOM     10  C   UNL     1       1.050  -0.659   2.665  1.00  0.00     0.120 C 
BRANCH  10  11
ATOM     11  C   UNL     1       0.466  -1.550   1.548  1.00  0.00     0.018 C 
ATOM     12  C   UNL     1       0.773  -1.083   0.127  1.00  0.00     0.006 C 
ENDBRANCH  10  11
ENDBRANCH   9  10
BRANCH   9  13
ATOM     13  C   UNL     1       0.421   1.548   1.915  1.00  0.00     0.227 C 
ATOM     14  O   UNL     1       1.482   1.610   1.276  1.00  0.00    -0.275 OA
BRANCH  13  15
ATOM     15  C   UNL     1      -0.631   2.580   1.571  1.00  0.00     0.135 C 
BRANCH  15  16
ATOM     16  C   UNL     1      -2.086   2.415   1.903  1.00  0.00    -0.036 A 
ATOM     17  C   UNL     1      -2.747   3.439   2.608  1.00  0.00     0.007 A 
ATOM     18  C   UNL     1      -2.826   1.314   1.450  1.00  0.00     0.046 A 
ATOM     19  C   UNL     1      -4.113   3.352   2.874  1.00  0.00     0.043 A 
ATOM     20  C   UNL     1      -4.190   1.236   1.726  1.00  0.00     0.159 A 
ATOM     21  C   UNL     1      -4.829   2.248   2.430  1.00  0.00     0.158 A 
ATOM     22  F   UNL     1      -4.878   0.164   1.311  1.00  0.00    -0.204 F 
ATOM     23  F   UNL     1      -6.139   2.167   2.692  1.00  0.00    -0.204 F 
ENDBRANCH  15  16
ENDBRANCH  13  15
ENDBRANCH   9  13
ENDBRANCH   8   9
ENDBRANCH   6   8
ENDBRANCH   5   6
ENDBRANCH   4   5
ENDBRANCH   3   4
ENDBRANCH   2   3
ENDBRANCH   1   2
BRANCH   1  24
ATOM     24  C   UNL     1       2.240   4.074   3.437  1.00  0.00     0.188 C 
BRANCH  24  25
ATOM     25  O   UNL     1       3.409   4.823   3.765  1.00  0.00    -0.376 OA
BRANCH  25  26
ATOM     26  C   UNL     1       4.241   5.067   2.636  1.00  0.00     0.202 C 
BRANCH  26  27
ATOM     27  C   UNL     1       3.994   6.487   2.122  1.00  0.00     0.261 C 
BRANCH  27  28
ATOM     28  O   UNL     1       2.612   6.764   1.819  1.00  0.00    -0.460 OA
BRANCH  28  29
ATOM     29  C   UNL     1       2.159   6.284   0.637  1.00  0.00     0.338 C 
ATOM     30  O   UNL     1       2.796   5.616  -0.156  1.00  0.00    -0.246 OA
BRANCH  29  31
ATOM     31  C   UNL     1       0.712   6.587   0.501  1.00  0.00     0.060 A 
ATOM     32  C   UNL     1      -0.130   5.581   0.021  1.00  0.00     0.016 A 
ATOM     33  C   UNL     1       0.180   7.846   0.797  1.00  0.00     0.016 A 
ATOM     34  C   UNL     1      -1.502   5.811  -0.128  1.00  0.00     0.010 A 
ATOM     35  C   UNL     1      -1.188   8.096   0.594  1.00  0.00     0.010 A 
ATOM     36  C   UNL     1      -2.040   7.081   0.127  1.00  0.00    -0.014 A 
BRANCH  36  37
ATOM     37  C   UNL     1      -3.452   7.374  -0.251  1.00  0.00     0.031 A 
ATOM     38  C   UNL     1      -3.766   7.702  -1.687  1.00  0.00     0.074 A 
ATOM     39  C   UNL     1      -4.454   7.312   0.648  1.00  0.00     0.049 A 
ATOM     40  N   UNL     1      -4.906   8.037  -2.233  1.00  0.00    -0.248 NA
ATOM     41  C   UNL     1      -2.639   7.642  -2.628  1.00  0.00     0.031 C 
ATOM     42  C   UNL     1      -4.299   6.941   2.052  1.00  0.00     0.029 A 
ATOM     43  N   UNL     1      -5.803   7.545   0.512  1.00  0.00    -0.354 N 
ATOM     44  C   UNL     1      -4.635   8.242  -3.582  1.00  0.00     0.074 A 
ATOM     45  C   UNL     1      -3.222   7.984  -3.768  1.00  0.00     0.031 C 
ATOM     46  C   UNL     1      -5.509   6.943   2.640  1.00  0.00     0.029 A 
ATOM     47  C   UNL     1      -6.521   7.374   1.675  1.00  0.00     0.049 A 
ATOM     48  H   UNL     1      -6.218   7.809  -0.341  1.00  0.00     0.167 HD
ATOM     49  C   UNL     1      -5.477   8.633  -4.571  1.00  0.00     0.034 A 
ATOM     50  C   UNL     1      -7.832   7.572   1.939  1.00  0.00     0.034 A 
ATOM     51  C   UNL     1      -6.873   8.937  -4.373  1.00  0.00     0.049 A 
ATOM     52  C   UNL     1      -8.732   8.096   0.837  1.00  0.00     0.074 A 
ATOM     53  C   UNL     1      -7.793   9.403  -5.297  1.00  0.00     0.029 A 
ATOM     54  N   UNL     1      -7.550   8.820  -3.167  1.00  0.00    -0.354 N 
ATOM     55  N   UNL     1      -8.447   8.336  -0.423  1.00  0.00    -0.248 NA
ATOM     56  C   UNL     1     -10.125   8.400   1.201  1.00  0.00     0.031 C 
ATOM     57  C   UNL     1      -9.003   9.636  -4.634  1.00  0.00     0.029 A 
ATOM     58  C   UNL     1      -8.864   9.237  -3.315  1.00  0.00     0.049 A 
ATOM     59  H   UNL     1      -7.155   8.489  -2.328  1.00  0.00     0.167 HD
ATOM     60  C   UNL     1      -9.628   8.806  -0.998  1.00  0.00     0.074 A 
ATOM     61  C   UNL     1     -10.635   8.785   0.040  1.00  0.00     0.031 C 
ATOM     62  C   UNL     1      -9.858   9.228  -2.268  1.00  0.00     0.034 A 
BRANCH  49  63
ATOM     63  C   UNL     1      -4.870   8.857  -5.933  1.00  0.00     0.023 A 
ATOM     64  C   UNL     1      -4.350   7.799  -6.699  1.00  0.00     0.031 A 
ATOM     65  C   UNL     1      -4.762  10.161  -6.447  1.00  0.00     0.131 A 
ATOM     66  C   UNL     1      -3.684   8.074  -7.904  1.00  0.00     0.055 A 
ATOM     67  C   UNL     1      -4.168  10.419  -7.683  1.00  0.00     0.041 A 
ATOM     68  F   UNL     1      -5.216  11.212  -5.745  1.00  0.00    -0.206 F 
ATOM     69  C   UNL     1      -3.611   9.373  -8.412  1.00  0.00     0.022 A 
BRANCH  66  70
ATOM     70  S   UNL     1      -2.786   6.729  -8.726  1.00  0.00     0.124 S 
ATOM     71  O   UNL     1      -1.843   6.325  -7.685  1.00  0.00    -0.237 OA
ATOM     72  O   UNL     1      -3.849   5.778  -9.030  1.00  0.00    -0.237 OA
ATOM     73  O   UNL     1      -2.180   7.380  -9.886  1.00  0.00    -0.744 OA
ENDBRANCH  66  70
ENDBRANCH  49  63
BRANCH  50  74
ATOM     74  C   UNL     1      -8.390   7.360   3.313  1.00  0.00     0.023 A 
ATOM     75  C   UNL     1      -9.452   6.467   3.541  1.00  0.00     0.031 A 
ATOM     76  C   UNL     1      -7.941   8.129   4.403  1.00  0.00     0.131 A 
ATOM     77  C   UNL     1     -10.064   6.408   4.805  1.00  0.00     0.055 A 
ATOM     78  C   UNL     1      -8.505   8.014   5.675  1.00  0.00     0.041 A 
ATOM     79  F   UNL     1      -6.944   9.015   4.246  1.00  0.00    -0.206 F 
ATOM     80  C   UNL     1      -9.585   7.162   5.878  1.00  0.00     0.022 A 
BRANCH  77  81
ATOM     81  S   UNL     1     -11.584   5.432   4.998  1.00  0.00     0.124 S 
ATOM     82  O   UNL     1     -12.457   6.046   4.004  1.00  0.00    -0.237 OA
ATOM     83  O   UNL     1     -11.119   4.082   4.701  1.00  0.00    -0.237 OA
ATOM     84  O   UNL     1     -11.963   5.666   6.391  1.00  0.00    -0.744 OA
ENDBRANCH  77  81
ENDBRANCH  50  74
BRANCH  62  85
ATOM     85  C   UNL     1     -11.261   9.677  -2.608  1.00  0.00     0.023 A 
ATOM     86  C   UNL     1     -11.825  10.838  -2.050  1.00  0.00     0.031 A 
ATOM     87  C   UNL     1     -12.042   8.934  -3.513  1.00  0.00     0.131 A 
ATOM     88  C   UNL     1     -13.145  11.198  -2.365  1.00  0.00     0.055 A 
ATOM     89  C   UNL     1     -13.335   9.327  -3.865  1.00  0.00     0.041 A 
ATOM     90  F   UNL     1     -11.556   7.817  -4.078  1.00  0.00    -0.206 F 
ATOM     91  C   UNL     1     -13.897  10.459  -3.281  1.00  0.00     0.022 A 
BRANCH  88  92
ATOM     92  S   UNL     1     -13.897  12.609  -1.507  1.00  0.00     0.124 S 
ATOM     93  O   UNL     1     -13.802  12.202  -0.109  1.00  0.00    -0.237 OA
ATOM     94  O   UNL     1     -13.035  13.716  -1.909  1.00  0.00    -0.237 OA
ATOM     95  O   UNL     1     -15.255  12.656  -2.047  1.00  0.00    -0.744 OA
ENDBRANCH  88  92
ENDBRANCH  62  85
ENDBRANCH  36  37
ENDBRANCH  29  31
ENDBRANCH  28  29
ENDBRANCH  27  28
ENDBRANCH  26  27
ENDBRANCH  25  26
ENDBRANCH  24  25
ENDBRANCH   1  24
TORSDOF 26
