REMARK SMILES NS(=O)(=O)c1ccc(-n2nc(C(=O)NCCCCCCCCCCC(=O)OCCOCCOCCOC(=O)c3ccc(-c4c5nc(c(-c6cc(S(=O)(=O)[O-])ccc6F)c6ccc([nH]6)c(-c6cc(S(=O)(=O)[O-])ccc6F)c6nc(c(-c7cc(S(=O)(=O)[O-])ccc7F)c7ccc4[nH]7)C=C6)C=C5)cc3)cc2-c2ccccc2)cc1
REMARK SMILES IDX 25 1 26 2 24 3 23 4 22 5 21 6 20 7 19 8 18 9 17 10 16 11
REMARK SMILES IDX 15 12 14 13 12 14 13 15 11 17 9 18 10 19 103 20 102 21 8 22
REMARK SMILES IDX 5 23 6 24 111 25 7 26 110 27 2 28 3 29 4 30 1 31 104 34
REMARK SMILES IDX 105 35 109 36 106 37 108 38 107 39 27 40 28 41 29 42 30 43
REMARK SMILES IDX 31 44 32 45 33 46 34 47 35 48 36 49 37 50 38 51 39 52 40 53
REMARK SMILES IDX 101 54 41 55 100 56 42 57 43 58 44 59 94 60 45 61 99 62
REMARK SMILES IDX 93 63 95 64 46 65 98 66 92 67 91 68 47 70 79 71 59 72 78 73
REMARK SMILES IDX 60 74 63 75 77 76 96 77 61 78 62 79 76 81 97 82 64 83 48 84
REMARK SMILES IDX 49 85 57 86 50 87 56 88 58 89 55 90 51 91 52 92 53 93 54 94
REMARK SMILES IDX 80 95 81 96 89 97 82 98 88 99 90 100 87 101 83 102 84 103
REMARK SMILES IDX 85 104 86 105 65 106 66 107 74 108 67 109 73 110 75 111
REMARK SMILES IDX 72 112 68 113 69 114 70 115 71 116
REMARK H PARENT 14 16 1 32 1 33 95 69 63 80
REMARK Flexibility Score: inf
ROOT
ATOM      1  C   UNL     1       7.647 -15.883   9.912  1.00  0.00     0.305 C 
ATOM      2  O   UNL     1       8.734 -15.847  10.476  1.00  0.00    -0.252 OA
ENDROOT
BRANCH   1   3
ATOM      3  C   UNL     1       7.455 -15.396   8.482  1.00  0.00     0.123 C 
BRANCH   3   4
ATOM      4  C   UNL     1       6.026 -15.308   7.936  1.00  0.00     0.012 C 
BRANCH   4   5
ATOM      5  C   UNL     1       5.044 -14.532   8.814  1.00  0.00     0.001 C 
BRANCH   5   6
ATOM      6  C   UNL     1       5.549 -13.131   9.153  1.00  0.00     0.000 C 
BRANCH   6   7
ATOM      7  C   UNL     1       5.538 -12.209   7.933  1.00  0.00     0.000 C 
BRANCH   7   8
ATOM      8  C   UNL     1       4.134 -12.040   7.346  1.00  0.00     0.000 C 
BRANCH   8   9
ATOM      9  C   UNL     1       3.121 -11.555   8.390  1.00  0.00     0.000 C 
BRANCH   9  10
ATOM     10  C   UNL     1       3.478 -10.178   8.966  1.00  0.00     0.002 C 
BRANCH  10  11
ATOM     11  C   UNL     1       3.629  -9.109   7.880  1.00  0.00     0.021 C 
BRANCH  11  12
ATOM     12  C   UNL     1       2.313  -8.914   7.133  1.00  0.00     0.116 C 
BRANCH  12  13
ATOM     13  N   UNL     1       1.522  -7.931   7.830  1.00  0.00    -0.351 N 
ATOM     14  C   UNL     1       1.347  -6.587   7.620  1.00  0.00     0.271 C 
ATOM     15  O   UNL     1       0.695  -5.985   8.476  1.00  0.00    -0.267 OA
ATOM     16  H   UNL     1       1.015  -8.289   8.594  1.00  0.00     0.163 HD
BRANCH  14  17
ATOM     17  C   UNL     1       1.851  -5.934   6.395  1.00  0.00     0.151 A 
ATOM     18  N   UNL     1       1.779  -4.535   4.774  1.00  0.00    -0.232 N 
ATOM     19  N   UNL     1       1.380  -4.721   6.047  1.00  0.00    -0.162 NA
ATOM     20  C   UNL     1       2.654  -5.516   4.348  1.00  0.00     0.075 A 
ATOM     21  C   UNL     1       2.807  -6.348   5.435  1.00  0.00     0.065 A 
BRANCH  18  22
ATOM     22  C   UNL     1       1.341  -3.402   4.057  1.00  0.00     0.065 A 
ATOM     23  C   UNL     1       0.739  -1.133   2.597  1.00  0.00     0.082 A 
ATOM     24  C   UNL     1       0.624  -2.389   1.993  1.00  0.00     0.024 A 
ATOM     25  C   UNL     1       1.111  -1.006   3.940  1.00  0.00     0.024 A 
ATOM     26  C   UNL     1       0.941  -3.529   2.722  1.00  0.00     0.030 A 
ATOM     27  C   UNL     1       1.381  -2.152   4.686  1.00  0.00     0.030 A 
BRANCH  23  28
ATOM     28  S   UNL     1       0.487   0.320   1.628  1.00  0.00     0.238 S 
ATOM     29  O   UNL     1       1.259   1.401   2.179  1.00  0.00    -0.207 OA
ATOM     30  O   UNL     1      -0.926   0.433   1.326  1.00  0.00    -0.207 OA
BRANCH  28  31
ATOM     31  N   UNL     1       1.245  -0.062   0.176  1.00  0.00    -0.225 NA
ATOM     32  H   UNL     1       1.158   0.723  -0.470  1.00  0.00     0.137 HD
ATOM     33  H   UNL     1       0.804  -0.887  -0.231  1.00  0.00     0.137 HD
ENDBRANCH  28  31
ENDBRANCH  23  28
ENDBRANCH  18  22
BRANCH  20  34
ATOM     34  C   UNL     1       3.344  -5.561   3.066  1.00  0.00     0.000 A 
ATOM     35  C   UNL     1       4.289  -4.585   2.733  1.00  0.00     0.010 A 
ATOM     36  C   UNL     1       3.062  -6.587   2.156  1.00  0.00     0.010 A 
ATOM     37  C   UNL     1       4.929  -4.622   1.495  1.00  0.00     0.001 A 
ATOM     38  C   UNL     1       3.700  -6.620   0.915  1.00  0.00     0.001 A 
ATOM     39  C   UNL     1       4.631  -5.636   0.585  1.00  0.00     0.000 A 
ENDBRANCH  20  34
ENDBRANCH  14  17
ENDBRANCH  12  13
ENDBRANCH  11  12
ENDBRANCH  10  11
ENDBRANCH   9  10
ENDBRANCH   8   9
ENDBRANCH   7   8
ENDBRANCH   6   7
ENDBRANCH   5   6
ENDBRANCH   4   5
ENDBRANCH   3   4
ENDBRANCH   1   3
BRANCH   1  40
ATOM     40  O   UNL     1       6.521 -16.416  10.435  1.00  0.00    -0.463 OA
BRANCH  40  41
ATOM     41  C   UNL     1       6.614 -17.176  11.648  1.00  0.00     0.261 C 
BRANCH  41  42
ATOM     42  C   UNL     1       6.205 -18.643  11.449  1.00  0.00     0.202 C 
BRANCH  42  43
ATOM     43  O   UNL     1       6.857 -19.330  10.379  1.00  0.00    -0.376 OA
BRANCH  43  44
ATOM     44  C   UNL     1       6.511 -18.929   9.048  1.00  0.00     0.188 C 
BRANCH  44  45
ATOM     45  C   UNL     1       5.009 -18.838   8.760  1.00  0.00     0.188 C 
BRANCH  45  46
ATOM     46  O   UNL     1       4.365 -17.848   9.549  1.00  0.00    -0.376 OA
BRANCH  46  47
ATOM     47  C   UNL     1       2.954 -17.842   9.739  1.00  0.00     0.202 C 
BRANCH  47  48
ATOM     48  C   UNL     1       2.086 -19.102   9.652  1.00  0.00     0.261 C 
BRANCH  48  49
ATOM     49  O   UNL     1       2.430 -20.058   8.669  1.00  0.00    -0.460 OA
BRANCH  49  50
ATOM     50  C   UNL     1       2.589 -19.673   7.387  1.00  0.00     0.338 C 
ATOM     51  O   UNL     1       2.398 -18.569   6.919  1.00  0.00    -0.246 OA
BRANCH  50  52
ATOM     52  C   UNL     1       3.090 -20.867   6.676  1.00  0.00     0.060 A 
ATOM     53  C   UNL     1       3.144 -20.829   5.286  1.00  0.00     0.016 A 
ATOM     54  C   UNL     1       3.330 -22.059   7.386  1.00  0.00     0.016 A 
ATOM     55  C   UNL     1       3.139 -22.032   4.610  1.00  0.00     0.010 A 
ATOM     56  C   UNL     1       3.306 -23.254   6.715  1.00  0.00     0.010 A 
ATOM     57  C   UNL     1       3.089 -23.224   5.345  1.00  0.00    -0.014 A 
BRANCH  57  58
ATOM     58  C   UNL     1       2.898 -24.481   4.651  1.00  0.00     0.031 A 
ATOM     59  C   UNL     1       4.136 -24.908   3.978  1.00  0.00     0.074 A 
ATOM     60  C   UNL     1       1.744 -25.179   4.706  1.00  0.00     0.049 A 
ATOM     61  N   UNL     1       4.425 -24.739   2.731  1.00  0.00    -0.248 NA
ATOM     62  C   UNL     1       5.287 -25.310   4.804  1.00  0.00     0.031 C 
ATOM     63  C   UNL     1       0.566 -24.893   5.535  1.00  0.00     0.029 A 
ATOM     64  N   UNL     1       1.392 -26.338   4.078  1.00  0.00    -0.354 N 
ATOM     65  C   UNL     1       5.667 -25.336   2.572  1.00  0.00     0.074 A 
ATOM     66  C   UNL     1       6.250 -25.377   3.882  1.00  0.00     0.031 C 
ATOM     67  C   UNL     1      -0.275 -25.956   5.515  1.00  0.00     0.029 A 
ATOM     68  C   UNL     1       0.225 -26.936   4.563  1.00  0.00     0.049 A 
ATOM     69  H   UNL     1       1.919 -26.723   3.341  1.00  0.00     0.167 HD
ATOM     70  C   UNL     1       5.912 -26.084   1.462  1.00  0.00     0.034 A 
ATOM     71  C   UNL     1      -0.295 -28.144   4.201  1.00  0.00     0.034 A 
ATOM     72  C   UNL     1       4.901 -25.825   0.457  1.00  0.00     0.049 A 
ATOM     73  C   UNL     1       0.216 -28.425   2.842  1.00  0.00     0.074 A 
ATOM     74  C   UNL     1       4.573 -24.783  -0.383  1.00  0.00     0.029 A 
ATOM     75  N   UNL     1       3.791 -26.631   0.557  1.00  0.00    -0.354 N 
ATOM     76  N   UNL     1      -0.115 -27.702   1.808  1.00  0.00    -0.248 NA
ATOM     77  C   UNL     1       1.425 -29.224   2.674  1.00  0.00     0.031 C 
ATOM     78  C   UNL     1       3.166 -24.881  -0.603  1.00  0.00     0.029 A 
ATOM     79  C   UNL     1       2.678 -26.013   0.049  1.00  0.00     0.049 A 
ATOM     80  H   UNL     1       3.795 -27.535   0.945  1.00  0.00     0.167 HD
ATOM     81  C   UNL     1       1.048 -27.600   1.069  1.00  0.00     0.074 A 
ATOM     82  C   UNL     1       1.894 -28.691   1.540  1.00  0.00     0.031 C 
ATOM     83  C   UNL     1       1.334 -26.455   0.384  1.00  0.00     0.034 A 
BRANCH  70  84
ATOM     84  C   UNL     1       6.693 -27.388   1.455  1.00  0.00     0.023 A 
ATOM     85  C   UNL     1       6.779 -28.067   0.223  1.00  0.00     0.031 A 
ATOM     86  C   UNL     1       7.086 -28.136   2.590  1.00  0.00     0.131 A 
ATOM     87  C   UNL     1       7.138 -29.425   0.166  1.00  0.00     0.055 A 
ATOM     88  C   UNL     1       7.489 -29.472   2.522  1.00  0.00     0.041 A 
ATOM     89  F   UNL     1       7.024 -27.665   3.839  1.00  0.00    -0.206 F 
ATOM     90  C   UNL     1       7.490 -30.134   1.310  1.00  0.00     0.022 A 
BRANCH  87  91
ATOM     91  S   UNL     1       6.991 -30.295  -1.414  1.00  0.00     0.124 S 
ATOM     92  O   UNL     1       5.592 -30.062  -1.754  1.00  0.00    -0.237 OA
ATOM     93  O   UNL     1       7.980 -29.600  -2.231  1.00  0.00    -0.237 OA
ATOM     94  O   UNL     1       7.328 -31.675  -1.071  1.00  0.00    -0.744 OA
ENDBRANCH  87  91
ENDBRANCH  70  84
BRANCH  71  95
ATOM     95  C   UNL     1      -0.953 -29.183   5.048  1.00  0.00     0.023 A 
ATOM     96  C   UNL     1      -1.768 -30.221   4.532  1.00  0.00     0.031 A 
ATOM     97  C   UNL     1      -0.531 -29.323   6.388  1.00  0.00     0.131 A 
ATOM     98  C   UNL     1      -2.107 -31.338   5.341  1.00  0.00     0.055 A 
ATOM     99  C   UNL     1      -0.858 -30.430   7.175  1.00  0.00     0.041 A 
ATOM    100  F   UNL     1       0.296 -28.426   6.948  1.00  0.00    -0.206 F 
ATOM    101  C   UNL     1      -1.637 -31.449   6.651  1.00  0.00     0.022 A 
BRANCH  98 102
ATOM    102  S   UNL     1      -3.107 -32.719   4.681  1.00  0.00     0.124 S 
ATOM    103  O   UNL     1      -4.394 -32.082   4.428  1.00  0.00    -0.237 OA
ATOM    104  O   UNL     1      -2.343 -33.130   3.509  1.00  0.00    -0.237 OA
ATOM    105  O   UNL     1      -3.113 -33.692   5.775  1.00  0.00    -0.744 OA
ENDBRANCH  98 102
ENDBRANCH  71  95
BRANCH  83 106
ATOM    106  C   UNL     1       0.174 -25.549   0.042  1.00  0.00     0.023 A 
ATOM    107  C   UNL     1      -0.642 -24.870   0.975  1.00  0.00     0.031 A 
ATOM    108  C   UNL     1      -0.086 -25.348  -1.324  1.00  0.00     0.131 A 
ATOM    109  C   UNL     1      -1.682 -24.034   0.519  1.00  0.00     0.055 A 
ATOM    110  C   UNL     1      -1.098 -24.503  -1.771  1.00  0.00     0.041 A 
ATOM    111  F   UNL     1       0.664 -25.960  -2.256  1.00  0.00    -0.206 F 
ATOM    112  C   UNL     1      -1.905 -23.847  -0.850  1.00  0.00     0.022 A 
BRANCH 109 113
ATOM    113  S   UNL     1      -2.785 -23.190   1.700  1.00  0.00     0.124 S 
ATOM    114  O   UNL     1      -3.221 -24.263   2.586  1.00  0.00    -0.237 OA
ATOM    115  O   UNL     1      -1.905 -22.188   2.295  1.00  0.00    -0.237 OA
ATOM    116  O   UNL     1      -3.840 -22.638   0.847  1.00  0.00    -0.744 OA
ENDBRANCH 109 113
ENDBRANCH  83 106
ENDBRANCH  57  58
ENDBRANCH  50  52
ENDBRANCH  49  50
ENDBRANCH  48  49
ENDBRANCH  47  48
ENDBRANCH  46  47
ENDBRANCH  45  46
ENDBRANCH  44  45
ENDBRANCH  43  44
ENDBRANCH  42  43
ENDBRANCH  41  42
ENDBRANCH  40  41
ENDBRANCH   1  40
TORSDOF 35
