REMARK SMILES CCc1sc(NC(=O)[C@H]2CC(C)=C(C)C[C@H]2C(=O)OCCOCCOCCOC(=O)c2ccc(-c3c4nc(c(-c5cc(S(=O)(=O)[O-])ccc5F)c5ccc([nH]5)c(-c5cc(S(=O)(=O)[O-])ccc5F)c5nc(c(-c6cc(S(=O)(=O)[O-])ccc6F)c6ccc3[nH]6)C=C5)C=C4)cc2)nc1-c1ccccc1
REMARK SMILES IDX 23 1 22 2 21 3 20 4 19 5 17 6 18 7 16 8 9 9 10 10 11 11
REMARK SMILES IDX 15 12 12 13 13 14 14 15 7 16 6 17 8 19 5 20 3 21 4 22 95 23
REMARK SMILES IDX 94 24 2 25 1 26 96 27 97 28 101 29 98 30 100 31 99 32 24 33
REMARK SMILES IDX 25 34 26 35 27 36 28 37 29 38 30 39 31 40 32 41 93 42 33 43
REMARK SMILES IDX 92 44 34 45 35 46 36 47 86 48 37 49 91 50 85 51 87 52 38 53
REMARK SMILES IDX 90 54 84 55 83 56 39 58 71 59 51 60 70 61 52 62 55 63 69 64
REMARK SMILES IDX 88 65 53 66 54 67 68 69 89 70 56 71 40 72 41 73 49 74 42 75
REMARK SMILES IDX 48 76 50 77 47 78 43 79 44 80 45 81 46 82 72 83 73 84 81 85
REMARK SMILES IDX 74 86 80 87 82 88 79 89 75 90 76 91 77 92 78 93 57 94 58 95
REMARK SMILES IDX 66 96 59 97 65 98 67 99 64 100 60 101 61 102 62 103 63 104
REMARK H PARENT 6 18 87 57 55 68
REMARK Flexibility Score: inf
ROOT
ATOM      1  C   UNL     1       0.901  -8.123  -4.975  1.00  0.00     0.188 C 
ENDROOT
BRANCH   1   2
ATOM      2  O   UNL     1       0.043  -8.755  -5.921  1.00  0.00    -0.376 OA
BRANCH   2   3
ATOM      3  C   UNL     1      -0.665  -7.894  -6.809  1.00  0.00     0.202 C 
BRANCH   3   4
ATOM      4  C   UNL     1      -1.749  -7.005  -6.188  1.00  0.00     0.261 C 
BRANCH   4   5
ATOM      5  O   UNL     1      -1.315  -6.251  -5.037  1.00  0.00    -0.463 OA
BRANCH   5   6
ATOM      6  C   UNL     1      -1.966  -6.534  -3.885  1.00  0.00     0.310 C 
ATOM      7  O   UNL     1      -2.803  -7.432  -3.801  1.00  0.00    -0.252 OA
BRANCH   6   8
ATOM      8  C   UNL     1      -1.483  -5.786  -2.634  1.00  0.00     0.116 C 
ATOM      9  C   UNL     1      -0.576  -4.510  -2.659  1.00  0.00     0.097 C 
ATOM     10  C   UNL     1      -1.094  -3.414  -1.705  1.00  0.00     0.045 C 
ATOM     11  C   UNL     1      -2.575  -3.202  -1.730  1.00  0.00    -0.074 C 
ATOM     12  C   UNL     1      -2.719  -5.642  -1.694  1.00  0.00     0.046 C 
ATOM     13  C   UNL     1      -3.016  -1.767  -1.720  1.00  0.00     0.039 C 
ATOM     14  C   UNL     1      -3.369  -4.283  -1.730  1.00  0.00    -0.073 C 
ATOM     15  C   UNL     1      -4.864  -4.206  -1.684  1.00  0.00     0.039 C 
BRANCH   9  16
ATOM     16  C   UNL     1      -0.273  -3.841  -4.001  1.00  0.00     0.230 C 
ATOM     17  N   UNL     1       1.019  -3.419  -4.262  1.00  0.00    -0.302 N 
ATOM     18  H   UNL     1       1.601  -3.958  -4.845  1.00  0.00     0.172 HD
ATOM     19  O   UNL     1      -1.147  -3.636  -4.845  1.00  0.00    -0.274 OA
BRANCH  17  20
ATOM     20  C   UNL     1       1.499  -2.246  -3.709  1.00  0.00     0.190 A 
ATOM     21  C   UNL     1       1.553  -0.386  -2.229  1.00  0.00     0.034 A 
ATOM     22  S   UNL     1       1.808  -2.086  -2.041  1.00  0.00    -0.101 S 
ATOM     23  C   UNL     1       1.850  -0.085  -3.555  1.00  0.00     0.087 A 
ATOM     24  N   UNL     1       1.777  -1.175  -4.416  1.00  0.00    -0.220 NA
BRANCH  21  25
ATOM     25  C   UNL     1       0.988   0.498  -1.152  1.00  0.00     0.046 C 
ATOM     26  C   UNL     1       1.197   0.048   0.281  1.00  0.00     0.010 C 
ENDBRANCH  21  25
BRANCH  23  27
ATOM     27  C   UNL     1       2.040   1.270  -4.056  1.00  0.00     0.001 A 
ATOM     28  C   UNL     1       2.918   2.149  -3.403  1.00  0.00     0.010 A 
ATOM     29  C   UNL     1       1.364   1.710  -5.199  1.00  0.00     0.010 A 
ATOM     30  C   UNL     1       3.084   3.458  -3.859  1.00  0.00     0.001 A 
ATOM     31  C   UNL     1       1.536   3.020  -5.658  1.00  0.00     0.001 A 
ATOM     32  C   UNL     1       2.389   3.894  -4.984  1.00  0.00     0.000 A 
ENDBRANCH  23  27
ENDBRANCH  17  20
ENDBRANCH   9  16
ENDBRANCH   6   8
ENDBRANCH   5   6
ENDBRANCH   4   5
ENDBRANCH   3   4
ENDBRANCH   2   3
ENDBRANCH   1   2
BRANCH   1  33
ATOM     33  C   UNL     1       1.987  -7.211  -5.552  1.00  0.00     0.188 C 
BRANCH  33  34
ATOM     34  O   UNL     1       1.495  -6.131  -6.335  1.00  0.00    -0.376 OA
BRANCH  34  35
ATOM     35  C   UNL     1       2.443  -5.233  -6.917  1.00  0.00     0.202 C 
BRANCH  35  36
ATOM     36  C   UNL     1       3.851  -5.727  -7.281  1.00  0.00     0.261 C 
BRANCH  36  37
ATOM     37  O   UNL     1       4.584  -6.351  -6.213  1.00  0.00    -0.460 OA
BRANCH  37  38
ATOM     38  C   UNL     1       4.718  -5.674  -5.042  1.00  0.00     0.338 C 
ATOM     39  O   UNL     1       4.448  -4.510  -4.849  1.00  0.00    -0.246 OA
BRANCH  38  40
ATOM     40  C   UNL     1       4.998  -6.679  -3.974  1.00  0.00     0.060 A 
ATOM     41  C   UNL     1       4.515  -6.430  -2.682  1.00  0.00     0.016 A 
ATOM     42  C   UNL     1       5.629  -7.897  -4.256  1.00  0.00     0.016 A 
ATOM     43  C   UNL     1       4.708  -7.373  -1.667  1.00  0.00     0.010 A 
ATOM     44  C   UNL     1       5.813  -8.843  -3.244  1.00  0.00     0.010 A 
ATOM     45  C   UNL     1       5.390  -8.569  -1.933  1.00  0.00    -0.014 A 
BRANCH  45  46
ATOM     46  C   UNL     1       5.840  -9.428  -0.807  1.00  0.00     0.031 A 
ATOM     47  C   UNL     1       7.263  -9.289  -0.333  1.00  0.00     0.074 A 
ATOM     48  C   UNL     1       5.005 -10.284  -0.188  1.00  0.00     0.049 A 
ATOM     49  N   UNL     1       7.874  -9.885   0.659  1.00  0.00    -0.248 NA
ATOM     50  C   UNL     1       8.111  -8.352  -1.087  1.00  0.00     0.031 C 
ATOM     51  C   UNL     1       3.606 -10.510  -0.543  1.00  0.00     0.029 A 
ATOM     52  N   UNL     1       5.220 -11.122   0.879  1.00  0.00    -0.354 N 
ATOM     53  C   UNL     1       9.172  -9.384   0.657  1.00  0.00     0.074 A 
ATOM     54  C   UNL     1       9.274  -8.485  -0.472  1.00  0.00     0.031 C 
ATOM     55  C   UNL     1       3.085 -11.422   0.297  1.00  0.00     0.029 A 
ATOM     56  C   UNL     1       4.117 -11.862   1.236  1.00  0.00     0.049 A 
ATOM     57  H   UNL     1       6.085 -11.188   1.345  1.00  0.00     0.167 HD
ATOM     58  C   UNL     1      10.182  -9.630   1.528  1.00  0.00     0.034 A 
ATOM     59  C   UNL     1       3.961 -12.788   2.205  1.00  0.00     0.034 A 
ATOM     60  C   UNL     1      10.083 -10.547   2.636  1.00  0.00     0.049 A 
ATOM     61  C   UNL     1       5.124 -13.103   3.120  1.00  0.00     0.074 A 
ATOM     62  C   UNL     1      11.043 -10.863   3.581  1.00  0.00     0.029 A 
ATOM     63  N   UNL     1       8.963 -11.310   2.941  1.00  0.00    -0.354 N 
ATOM     64  N   UNL     1       6.334 -12.591   3.132  1.00  0.00    -0.248 NA
ATOM     65  C   UNL     1       4.889 -14.108   4.165  1.00  0.00     0.031 C 
ATOM     66  C   UNL     1      10.530 -11.867   4.411  1.00  0.00     0.029 A 
ATOM     67  C   UNL     1       9.220 -12.119   4.038  1.00  0.00     0.049 A 
ATOM     68  H   UNL     1       8.110 -11.281   2.449  1.00  0.00     0.167 HD
ATOM     69  C   UNL     1       6.990 -13.191   4.207  1.00  0.00     0.074 A 
ATOM     70  C   UNL     1       6.033 -14.082   4.830  1.00  0.00     0.031 C 
ATOM     71  C   UNL     1       8.266 -13.020   4.644  1.00  0.00     0.034 A 
BRANCH  58  72
ATOM     72  C   UNL     1      11.491  -8.922   1.276  1.00  0.00     0.023 A 
ATOM     73  C   UNL     1      11.596  -7.521   1.337  1.00  0.00     0.031 A 
ATOM     74  C   UNL     1      12.639  -9.654   0.926  1.00  0.00     0.131 A 
ATOM     75  C   UNL     1      12.798  -6.892   0.981  1.00  0.00     0.055 A 
ATOM     76  C   UNL     1      13.856  -9.026   0.653  1.00  0.00     0.041 A 
ATOM     77  F   UNL     1      12.593 -10.991   0.825  1.00  0.00    -0.206 F 
ATOM     78  C   UNL     1      13.937  -7.636   0.665  1.00  0.00     0.022 A 
BRANCH  75  79
ATOM     79  S   UNL     1      12.810  -5.088   0.789  1.00  0.00     0.124 S 
ATOM     80  O   UNL     1      11.784  -4.893  -0.233  1.00  0.00    -0.237 OA
ATOM     81  O   UNL     1      12.472  -4.626   2.130  1.00  0.00    -0.237 OA
ATOM     82  O   UNL     1      14.175  -4.799   0.354  1.00  0.00    -0.744 OA
ENDBRANCH  75  79
ENDBRANCH  58  72
BRANCH  59  83
ATOM     83  C   UNL     1       2.666 -13.514   2.365  1.00  0.00     0.023 A 
ATOM     84  C   UNL     1       1.904 -13.399   3.540  1.00  0.00     0.031 A 
ATOM     85  C   UNL     1       2.214 -14.402   1.373  1.00  0.00     0.131 A 
ATOM     86  C   UNL     1       0.763 -14.198   3.716  1.00  0.00     0.055 A 
ATOM     87  C   UNL     1       1.048 -15.153   1.529  1.00  0.00     0.041 A 
ATOM     88  F   UNL     1       2.906 -14.554   0.232  1.00  0.00    -0.206 F 
ATOM     89  C   UNL     1       0.322 -15.064   2.713  1.00  0.00     0.022 A 
BRANCH  86  90
ATOM     90  S   UNL     1      -0.089 -14.158   5.318  1.00  0.00     0.124 S 
ATOM     91  O   UNL     1       0.972 -14.572   6.229  1.00  0.00    -0.237 OA
ATOM     92  O   UNL     1      -0.503 -12.762   5.407  1.00  0.00    -0.237 OA
ATOM     93  O   UNL     1      -1.178 -15.118   5.149  1.00  0.00    -0.744 OA
ENDBRANCH  86  90
ENDBRANCH  59  83
BRANCH  71  94
ATOM     94  C   UNL     1       8.679 -13.785   5.881  1.00  0.00     0.023 A 
ATOM     95  C   UNL     1       8.722 -15.191   5.905  1.00  0.00     0.031 A 
ATOM     96  C   UNL     1       8.997 -13.099   7.067  1.00  0.00     0.131 A 
ATOM     97  C   UNL     1       8.995 -15.864   7.106  1.00  0.00     0.055 A 
ATOM     98  C   UNL     1       9.339 -13.773   8.241  1.00  0.00     0.041 A 
ATOM     99  F   UNL     1       8.974 -11.757   7.108  1.00  0.00    -0.206 F 
ATOM    100  C   UNL     1       9.320 -15.164   8.270  1.00  0.00     0.022 A 
BRANCH  97 101
ATOM    101  S   UNL     1       8.790 -17.667   7.160  1.00  0.00     0.124 S 
ATOM    102  O   UNL     1       7.418 -17.831   6.690  1.00  0.00    -0.237 OA
ATOM    103  O   UNL     1       9.835 -18.126   6.251  1.00  0.00    -0.237 OA
ATOM    104  O   UNL     1       9.005 -17.994   8.569  1.00  0.00    -0.744 OA
ENDBRANCH  97 101
ENDBRANCH  71  94
ENDBRANCH  45  46
ENDBRANCH  38  40
ENDBRANCH  37  38
ENDBRANCH  36  37
ENDBRANCH  35  36
ENDBRANCH  34  35
ENDBRANCH  33  34
ENDBRANCH   1  33
TORSDOF 24
