REMARK SMILES CC[C@@]1(C(=O)OCCOCCOCCOC(=O)c2ccc(-c3c4nc(c(-c5cc(S(=O)(=O)[O-])ccc5F)c5ccc([nH]5)c(-c5cc(S(=O)(=O)[O-])ccc5F)c5nc(c(-c6cc(S(=O)(=O)[O-])ccc6F)c6ccc3[nH]6)C=C5)C=C4)cc2)CCC[N@@H+](Cc2ccc(C3CC3)cc2)C1
REMARK SMILES IDX 10 1 9 2 8 3 7 4 6 5 4 6 5 7 3 8 81 9 95 10 82 11 84 12
REMARK SMILES IDX 83 13 2 15 1 16 85 17 86 18 87 19 94 20 88 21 93 22 89 23
REMARK SMILES IDX 90 24 91 25 92 26 11 27 12 28 13 29 14 30 15 31 16 32 17 33
REMARK SMILES IDX 18 34 19 35 80 36 20 37 79 38 21 39 22 40 23 41 73 42 24 43
REMARK SMILES IDX 78 44 72 45 74 46 25 47 77 48 71 49 70 50 26 52 58 53 38 54
REMARK SMILES IDX 57 55 39 56 42 57 56 58 75 59 40 60 41 61 55 63 76 64 43 65
REMARK SMILES IDX 27 66 28 67 36 68 29 69 35 70 37 71 34 72 30 73 31 74 32 75
REMARK SMILES IDX 33 76 59 77 60 78 68 79 61 80 67 81 69 82 66 83 62 84 63 85
REMARK SMILES IDX 64 86 65 87 44 88 45 89 53 90 46 91 52 92 54 93 51 94 47 95
REMARK SMILES IDX 48 96 49 97 50 98
REMARK H PARENT 84 14 74 51 42 62
REMARK Flexibility Score: inf
ROOT
ATOM      1  C   UNL     1       0.196  -1.994   2.494  1.00  0.00     0.188 C 
ENDROOT
BRANCH   1   2
ATOM      2  O   UNL     1      -0.432  -2.793   1.506  1.00  0.00    -0.376 OA
BRANCH   2   3
ATOM      3  C   UNL     1      -1.237  -2.097   0.565  1.00  0.00     0.202 C 
BRANCH   3   4
ATOM      4  C   UNL     1      -0.524  -1.051  -0.298  1.00  0.00     0.261 C 
BRANCH   4   5
ATOM      5  O   UNL     1       0.234  -0.078   0.437  1.00  0.00    -0.463 OA
BRANCH   5   6
ATOM      6  C   UNL     1      -0.424   0.964   1.006  1.00  0.00     0.317 C 
ATOM      7  O   UNL     1      -1.645   1.072   1.005  1.00  0.00    -0.251 OA
BRANCH   6   8
ATOM      8  C   UNL     1       0.541   1.956   1.692  1.00  0.00     0.117 C 
ATOM      9  C   UNL     1       0.068   3.397   1.399  1.00  0.00     0.030 C 
ATOM     10  C   UNL     1       1.983   1.845   1.136  1.00  0.00     0.281 C 
ATOM     11  C   UNL     1       0.255   3.764  -0.079  1.00  0.00     0.063 C 
ATOM     12  N   UNL     1       2.073   2.123  -0.300  1.00  0.00    -0.330 N 
ATOM     13  C   UNL     1       1.683   3.502  -0.581  1.00  0.00     0.262 C 
ATOM     14  H   UNL     1       1.395   1.539  -0.789  1.00  0.00     0.348 HD
BRANCH   8  15
ATOM     15  C   UNL     1       0.617   1.702   3.228  1.00  0.00     0.021 C 
ATOM     16  C   UNL     1      -0.703   1.585   3.979  1.00  0.00     0.005 C 
ENDBRANCH   8  15
BRANCH  12  17
ATOM     17  C   UNL     1       3.362   1.704  -0.881  1.00  0.00     0.299 C 
BRANCH  17  18
ATOM     18  C   UNL     1       4.587   2.423  -0.360  1.00  0.00     0.006 A 
ATOM     19  C   UNL     1       5.133   3.494  -1.069  1.00  0.00     0.010 A 
ATOM     20  C   UNL     1       5.158   2.080   0.870  1.00  0.00     0.010 A 
ATOM     21  C   UNL     1       6.154   4.266  -0.506  1.00  0.00     0.004 A 
ATOM     22  C   UNL     1       6.162   2.872   1.436  1.00  0.00     0.004 A 
ATOM     23  C   UNL     1       6.656   4.012   0.783  1.00  0.00    -0.045 A 
BRANCH  23  24
ATOM     24  C   UNL     1       7.643   4.978   1.406  1.00  0.00     0.019 C 
ATOM     25  C   UNL     1       7.844   5.063   2.901  1.00  0.00     0.009 C 
ATOM     26  C   UNL     1       8.923   4.486   2.030  1.00  0.00     0.009 C 
ENDBRANCH  23  24
ENDBRANCH  17  18
ENDBRANCH  12  17
ENDBRANCH   6   8
ENDBRANCH   5   6
ENDBRANCH   4   5
ENDBRANCH   3   4
ENDBRANCH   2   3
ENDBRANCH   1   2
BRANCH   1  27
ATOM     27  C   UNL     1       1.722  -1.869   2.308  1.00  0.00     0.188 C 
BRANCH  27  28
ATOM     28  O   UNL     1       2.385  -2.618   1.303  1.00  0.00    -0.376 OA
BRANCH  28  29
ATOM     29  C   UNL     1       2.051  -3.990   1.170  1.00  0.00     0.202 C 
BRANCH  29  30
ATOM     30  C   UNL     1       2.064  -4.901   2.414  1.00  0.00     0.261 C 
BRANCH  30  31
ATOM     31  O   UNL     1       1.386  -4.406   3.587  1.00  0.00    -0.460 OA
BRANCH  31  32
ATOM     32  C   UNL     1       2.180  -4.003   4.614  1.00  0.00     0.338 C 
ATOM     33  O   UNL     1       3.403  -4.043   4.645  1.00  0.00    -0.246 OA
BRANCH  32  34
ATOM     34  C   UNL     1       1.375  -3.306   5.647  1.00  0.00     0.060 A 
ATOM     35  C   UNL     1       1.647  -1.958   5.937  1.00  0.00     0.016 A 
ATOM     36  C   UNL     1       0.399  -3.989   6.372  1.00  0.00     0.016 A 
ATOM     37  C   UNL     1       0.966  -1.298   6.967  1.00  0.00     0.010 A 
ATOM     38  C   UNL     1      -0.259  -3.336   7.423  1.00  0.00     0.010 A 
ATOM     39  C   UNL     1       0.041  -1.999   7.750  1.00  0.00    -0.014 A 
BRANCH  39  40
ATOM     40  C   UNL     1      -0.444  -1.437   9.040  1.00  0.00     0.031 A 
ATOM     41  C   UNL     1       0.241  -1.885  10.306  1.00  0.00     0.074 A 
ATOM     42  C   UNL     1      -1.472  -0.572   9.108  1.00  0.00     0.049 A 
ATOM     43  N   UNL     1      -0.093  -1.682  11.554  1.00  0.00    -0.248 NA
ATOM     44  C   UNL     1       1.465  -2.681  10.130  1.00  0.00     0.031 C 
ATOM     45  C   UNL     1      -2.173   0.003   7.963  1.00  0.00     0.029 A 
ATOM     46  N   UNL     1      -2.120  -0.040  10.200  1.00  0.00    -0.354 N 
ATOM     47  C   UNL     1       0.870  -2.340  12.314  1.00  0.00     0.074 A 
ATOM     48  C   UNL     1       1.780  -2.972  11.382  1.00  0.00     0.031 C 
ATOM     49  C   UNL     1      -3.169   0.789   8.412  1.00  0.00     0.029 A 
ATOM     50  C   UNL     1      -3.212   0.732   9.874  1.00  0.00     0.049 A 
ATOM     51  H   UNL     1      -1.830  -0.198  11.127  1.00  0.00     0.167 HD
ATOM     52  C   UNL     1       0.987  -2.410  13.663  1.00  0.00     0.034 A 
ATOM     53  C   UNL     1      -4.157   1.291  10.661  1.00  0.00     0.034 A 
ATOM     54  C   UNL     1       0.063  -1.791  14.582  1.00  0.00     0.049 A 
ATOM     55  C   UNL     1      -4.078   1.100  12.162  1.00  0.00     0.074 A 
ATOM     56  C   UNL     1       0.084  -1.808  15.966  1.00  0.00     0.029 A 
ATOM     57  N   UNL     1      -1.054  -1.054  14.212  1.00  0.00    -0.354 N 
ATOM     58  N   UNL     1      -3.179   0.456  12.871  1.00  0.00    -0.248 NA
ATOM     59  C   UNL     1      -5.143   1.714  12.970  1.00  0.00     0.031 C 
ATOM     60  C   UNL     1      -1.061  -1.153  16.430  1.00  0.00     0.029 A 
ATOM     61  C   UNL     1      -1.745  -0.640  15.340  1.00  0.00     0.049 A 
ATOM     62  H   UNL     1      -1.317  -0.856  13.284  1.00  0.00     0.167 HD
ATOM     63  C   UNL     1      -3.545   0.633  14.205  1.00  0.00     0.074 A 
ATOM     64  C   UNL     1      -4.744   1.442  14.203  1.00  0.00     0.031 C 
ATOM     65  C   UNL     1      -2.937   0.177  15.331  1.00  0.00     0.034 A 
BRANCH  52  66
ATOM     66  C   UNL     1       2.123  -3.235  14.219  1.00  0.00     0.023 A 
ATOM     67  C   UNL     1       3.467  -2.895  13.988  1.00  0.00     0.031 A 
ATOM     68  C   UNL     1       1.857  -4.397  14.965  1.00  0.00     0.131 A 
ATOM     69  C   UNL     1       4.490  -3.747  14.431  1.00  0.00     0.055 A 
ATOM     70  C   UNL     1       2.882  -5.193  15.480  1.00  0.00     0.041 A 
ATOM     71  F   UNL     1       0.594  -4.788  15.197  1.00  0.00    -0.206 F 
ATOM     72  C   UNL     1       4.208  -4.878  15.200  1.00  0.00     0.022 A 
BRANCH  69  73
ATOM     73  S   UNL     1       6.182  -3.437  13.857  1.00  0.00     0.124 S 
ATOM     74  O   UNL     1       6.018  -3.505  12.407  1.00  0.00    -0.237 OA
ATOM     75  O   UNL     1       6.466  -2.117  14.407  1.00  0.00    -0.237 OA
ATOM     76  O   UNL     1       6.949  -4.536  14.442  1.00  0.00    -0.744 OA
ENDBRANCH  69  73
ENDBRANCH  52  66
BRANCH  53  77
ATOM     77  C   UNL     1      -5.302   2.045  10.065  1.00  0.00     0.023 A 
ATOM     78  C   UNL     1      -5.517   3.399  10.372  1.00  0.00     0.031 A 
ATOM     79  C   UNL     1      -6.248   1.401   9.246  1.00  0.00     0.131 A 
ATOM     80  C   UNL     1      -6.675   4.048   9.914  1.00  0.00     0.055 A 
ATOM     81  C   UNL     1      -7.365   2.069   8.740  1.00  0.00     0.041 A 
ATOM     82  F   UNL     1      -6.103   0.105   8.929  1.00  0.00    -0.206 F 
ATOM     83  C   UNL     1      -7.592   3.397   9.086  1.00  0.00     0.022 A 
BRANCH  80  84
ATOM     84  S   UNL     1      -7.026   5.724  10.513  1.00  0.00     0.124 S 
ATOM     85  O   UNL     1      -7.069   5.519  11.956  1.00  0.00    -0.237 OA
ATOM     86  O   UNL     1      -5.882   6.473  10.004  1.00  0.00    -0.237 OA
ATOM     87  O   UNL     1      -8.308   6.047   9.889  1.00  0.00    -0.744 OA
ENDBRANCH  80  84
ENDBRANCH  53  77
BRANCH  65  88
ATOM     88  C   UNL     1      -3.504   0.614  16.663  1.00  0.00     0.023 A 
ATOM     89  C   UNL     1      -4.772   0.207  17.113  1.00  0.00     0.031 A 
ATOM     90  C   UNL     1      -2.741   1.444  17.507  1.00  0.00     0.131 A 
ATOM     91  C   UNL     1      -5.258   0.668  18.348  1.00  0.00     0.055 A 
ATOM     92  C   UNL     1      -3.202   1.846  18.761  1.00  0.00     0.041 A 
ATOM     93  F   UNL     1      -1.524   1.868  17.130  1.00  0.00    -0.206 F 
ATOM     94  C   UNL     1      -4.473   1.467  19.183  1.00  0.00     0.022 A 
BRANCH  91  95
ATOM     95  S   UNL     1      -6.968   0.282  18.816  1.00  0.00     0.124 S 
ATOM     96  O   UNL     1      -7.723   0.857  17.708  1.00  0.00    -0.237 OA
ATOM     97  O   UNL     1      -6.951  -1.176  18.888  1.00  0.00    -0.237 OA
ATOM     98  O   UNL     1      -7.135   0.962  20.099  1.00  0.00    -0.744 OA
ENDBRANCH  91  95
ENDBRANCH  65  88
ENDBRANCH  39  40
ENDBRANCH  32  34
ENDBRANCH  31  32
ENDBRANCH  30  31
ENDBRANCH  29  30
ENDBRANCH  28  29
ENDBRANCH  27  28
ENDBRANCH   1  27
TORSDOF 24
