REMARK SMILES [NH3+]CCOCC(=O)Nc1cc(C(=O)OCCOCCOCCOC(=O)c2ccc(-c3c4nc(c(-c5cc(S(=O)(=O)[O-])ccc5F)c5ccc([nH]5)c(-c5cc(S(=O)(=O)[O-])ccc5F)c5nc(c(-c6cc(S(=O)(=O)[O-])ccc6F)c6ccc3[nH]6)C=C5)C=C4)cc2)ccc1Cl
REMARK SMILES IDX 17 1 16 2 15 3 14 4 12 5 13 6 11 7 9 8 10 9 91 10 90 11
REMARK SMILES IDX 92 12 89 13 8 14 6 15 7 16 5 18 4 19 3 20 2 21 1 22 18 26
REMARK SMILES IDX 19 27 20 28 21 29 22 30 23 31 24 32 25 33 26 34 27 35 88 36
REMARK SMILES IDX 28 37 87 38 29 39 30 40 31 41 81 42 32 43 86 44 80 45 82 46
REMARK SMILES IDX 33 47 85 48 79 49 78 50 34 52 66 53 46 54 65 55 47 56 50 57
REMARK SMILES IDX 64 58 83 59 48 60 49 61 63 63 84 64 51 65 35 66 36 67 44 68
REMARK SMILES IDX 37 69 43 70 45 71 42 72 38 73 39 74 40 75 41 76 67 77 68 78
REMARK SMILES IDX 76 79 69 80 75 81 77 82 74 83 70 84 71 85 72 86 73 87 52 88
REMARK SMILES IDX 53 89 61 90 54 91 60 92 62 93 59 94 55 95 56 96 57 97 58 98
REMARK H PARENT 8 17 1 23 1 24 1 25 82 51 50 62
REMARK Flexibility Score: inf
ROOT
ATOM      1  O   UNL     1       4.457  10.076  -2.756  1.00  0.00    -0.376 OA
ENDROOT
BRANCH   1   2
ATOM      2  C   UNL     1       3.284  10.834  -3.030  1.00  0.00     0.202 C 
BRANCH   2   3
ATOM      3  C   UNL     1       2.049  10.066  -3.506  1.00  0.00     0.261 C 
BRANCH   3   4
ATOM      4  O   UNL     1       1.571   9.145  -2.512  1.00  0.00    -0.460 OA
BRANCH   4   5
ATOM      5  C   UNL     1       1.372   7.875  -2.938  1.00  0.00     0.338 C 
ATOM      6  O   UNL     1       1.405   7.463  -4.085  1.00  0.00    -0.246 OA
BRANCH   5   7
ATOM      7  C   UNL     1       1.306   6.989  -1.759  1.00  0.00     0.062 A 
ATOM      8  C   UNL     1       2.127   5.003  -0.646  1.00  0.00     0.060 A 
ATOM      9  C   UNL     1       2.105   5.838  -1.763  1.00  0.00     0.043 A 
ATOM     10  C   UNL     1       1.410   5.370   0.507  1.00  0.00     0.064 A 
ATOM     11  C   UNL     1       0.601   6.511   0.499  1.00  0.00     0.023 A 
ATOM     12  Cl  UNL     1       1.638   4.577   2.024  1.00  0.00    -0.082 Cl
ATOM     13  C   UNL     1       0.535   7.316  -0.638  1.00  0.00     0.017 A 
BRANCH   8  14
ATOM     14  N   UNL     1       2.913   3.843  -0.726  1.00  0.00    -0.323 N 
ATOM     15  C   UNL     1       2.460   2.549  -0.652  1.00  0.00     0.250 C 
ATOM     16  O   UNL     1       3.269   1.620  -0.622  1.00  0.00    -0.272 OA
ATOM     17  H   UNL     1       3.881   3.969  -0.846  1.00  0.00     0.170 HD
BRANCH  15  18
ATOM     18  C   UNL     1       0.944   2.274  -0.713  1.00  0.00     0.260 C 
BRANCH  18  19
ATOM     19  O   UNL     1       0.192   2.205   0.481  1.00  0.00    -0.366 OA
BRANCH  19  20
ATOM     20  C   UNL     1       0.728   1.336   1.481  1.00  0.00     0.222 C 
BRANCH  20  21
ATOM     21  C   UNL     1       0.289  -0.126   1.327  1.00  0.00     0.287 C 
BRANCH  21  22
ATOM     22  N   UNL     1       0.954  -0.868   0.258  1.00  0.00    -0.356 N 
ATOM     23  H   UNL     1       0.597  -1.823   0.234  1.00  0.00     0.344 HD
ATOM     24  H   UNL     1       1.959  -0.884   0.430  1.00  0.00     0.344 HD
ATOM     25  H   UNL     1       0.769  -0.414  -0.636  1.00  0.00     0.344 HD
ENDBRANCH  21  22
ENDBRANCH  20  21
ENDBRANCH  19  20
ENDBRANCH  18  19
ENDBRANCH  15  18
ENDBRANCH   8  14
ENDBRANCH   5   7
ENDBRANCH   4   5
ENDBRANCH   3   4
ENDBRANCH   2   3
ENDBRANCH   1   2
BRANCH   1  26
ATOM     26  C   UNL     1       4.417   9.062  -1.756  1.00  0.00     0.188 C 
BRANCH  26  27
ATOM     27  C   UNL     1       3.770   9.371  -0.392  1.00  0.00     0.188 C 
BRANCH  27  28
ATOM     28  O   UNL     1       3.496  10.746  -0.176  1.00  0.00    -0.376 OA
BRANCH  28  29
ATOM     29  C   UNL     1       4.256  11.375   0.845  1.00  0.00     0.202 C 
BRANCH  29  30
ATOM     30  C   UNL     1       5.724  11.626   0.483  1.00  0.00     0.261 C 
BRANCH  30  31
ATOM     31  O   UNL     1       6.491  10.452   0.169  1.00  0.00    -0.460 OA
BRANCH  31  32
ATOM     32  C   UNL     1       6.725   9.580   1.178  1.00  0.00     0.338 C 
ATOM     33  O   UNL     1       6.333   9.674   2.326  1.00  0.00    -0.246 OA
BRANCH  32  34
ATOM     34  C   UNL     1       7.395   8.395   0.599  1.00  0.00     0.060 A 
ATOM     35  C   UNL     1       6.819   7.131   0.774  1.00  0.00     0.016 A 
ATOM     36  C   UNL     1       8.583   8.536  -0.124  1.00  0.00     0.016 A 
ATOM     37  C   UNL     1       7.442   6.001   0.235  1.00  0.00     0.010 A 
ATOM     38  C   UNL     1       9.211   7.403  -0.650  1.00  0.00     0.010 A 
ATOM     39  C   UNL     1       8.655   6.126  -0.459  1.00  0.00    -0.014 A 
BRANCH  39  40
ATOM     40  C   UNL     1       9.422   4.918  -0.858  1.00  0.00     0.031 A 
ATOM     41  C   UNL     1      10.511   4.420   0.052  1.00  0.00     0.074 A 
ATOM     42  C   UNL     1       9.166   4.279  -2.014  1.00  0.00     0.049 A 
ATOM     43  N   UNL     1      11.344   3.425  -0.111  1.00  0.00    -0.248 NA
ATOM     44  C   UNL     1      10.684   5.152   1.316  1.00  0.00     0.031 C 
ATOM     45  C   UNL     1       8.123   4.647  -2.970  1.00  0.00     0.029 A 
ATOM     46  N   UNL     1       9.776   3.189  -2.586  1.00  0.00    -0.354 N 
ATOM     47  C   UNL     1      12.137   3.404   1.031  1.00  0.00     0.074 A 
ATOM     48  C   UNL     1      11.710   4.513   1.858  1.00  0.00     0.031 C 
ATOM     49  C   UNL     1       8.174   3.804  -4.017  1.00  0.00     0.029 A 
ATOM     50  C   UNL     1       9.275   2.860  -3.825  1.00  0.00     0.049 A 
ATOM     51  H   UNL     1      10.504   2.690  -2.150  1.00  0.00     0.167 HD
ATOM     52  C   UNL     1      13.126   2.537   1.363  1.00  0.00     0.034 A 
ATOM     53  C   UNL     1       9.677   1.925  -4.711  1.00  0.00     0.034 A 
ATOM     54  C   UNL     1      13.565   1.454   0.519  1.00  0.00     0.049 A 
ATOM     55  C   UNL     1      10.845   1.032  -4.363  1.00  0.00     0.074 A 
ATOM     56  C   UNL     1      14.546   0.509   0.767  1.00  0.00     0.029 A 
ATOM     57  N   UNL     1      13.065   1.180  -0.748  1.00  0.00    -0.354 N 
ATOM     58  N   UNL     1      11.575   1.010  -3.270  1.00  0.00    -0.248 NA
ATOM     59  C   UNL     1      11.243   0.036  -5.368  1.00  0.00     0.031 C 
ATOM     60  C   UNL     1      14.689  -0.288  -0.375  1.00  0.00     0.029 A 
ATOM     61  C   UNL     1      13.745   0.109  -1.309  1.00  0.00     0.049 A 
ATOM     62  H   UNL     1      12.335   1.676  -1.185  1.00  0.00     0.167 HD
ATOM     63  C   UNL     1      12.497  -0.019  -3.449  1.00  0.00     0.074 A 
ATOM     64  C   UNL     1      12.225  -0.600  -4.747  1.00  0.00     0.031 C 
ATOM     65  C   UNL     1      13.477  -0.450  -2.613  1.00  0.00     0.034 A 
BRANCH  52  66
ATOM     66  C   UNL     1      13.829   2.769   2.678  1.00  0.00     0.023 A 
ATOM     67  C   UNL     1      13.155   2.652   3.907  1.00  0.00     0.031 A 
ATOM     68  C   UNL     1      15.182   3.152   2.702  1.00  0.00     0.131 A 
ATOM     69  C   UNL     1      13.814   2.984   5.100  1.00  0.00     0.055 A 
ATOM     70  C   UNL     1      15.853   3.406   3.899  1.00  0.00     0.041 A 
ATOM     71  F   UNL     1      15.869   3.303   1.559  1.00  0.00    -0.206 F 
ATOM     72  C   UNL     1      15.165   3.338   5.107  1.00  0.00     0.022 A 
BRANCH  69  73
ATOM     73  S   UNL     1      12.841   3.087   6.628  1.00  0.00     0.124 S 
ATOM     74  O   UNL     1      11.838   4.088   6.273  1.00  0.00    -0.237 OA
ATOM     75  O   UNL     1      12.355   1.722   6.785  1.00  0.00    -0.237 OA
ATOM     76  O   UNL     1      13.816   3.522   7.627  1.00  0.00    -0.744 OA
ENDBRANCH  69  73
ENDBRANCH  52  66
BRANCH  53  77
ATOM     77  C   UNL     1       9.014   1.808  -6.042  1.00  0.00     0.023 A 
ATOM     78  C   UNL     1       8.314   0.648  -6.410  1.00  0.00     0.031 A 
ATOM     79  C   UNL     1       9.129   2.838  -6.994  1.00  0.00     0.131 A 
ATOM     80  C   UNL     1       7.795   0.526  -7.710  1.00  0.00     0.055 A 
ATOM     81  C   UNL     1       8.568   2.733  -8.268  1.00  0.00     0.041 A 
ATOM     82  F   UNL     1       9.792   3.967  -6.695  1.00  0.00    -0.206 F 
ATOM     83  C   UNL     1       7.907   1.566  -8.636  1.00  0.00     0.022 A 
BRANCH  80  84
ATOM     84  S   UNL     1       7.039  -1.048  -8.203  1.00  0.00     0.124 S 
ATOM     85  O   UNL     1       8.140  -1.982  -8.001  1.00  0.00    -0.237 OA
ATOM     86  O   UNL     1       5.925  -1.154  -7.266  1.00  0.00    -0.237 OA
ATOM     87  O   UNL     1       6.659  -0.821  -9.595  1.00  0.00    -0.744 OA
ENDBRANCH  80  84
ENDBRANCH  53  77
BRANCH  65  88
ATOM     88  C   UNL     1      14.299  -1.633  -3.067  1.00  0.00     0.023 A 
ATOM     89  C   UNL     1      15.187  -1.546  -4.154  1.00  0.00     0.031 A 
ATOM     90  C   UNL     1      14.185  -2.868  -2.405  1.00  0.00     0.131 A 
ATOM     91  C   UNL     1      15.888  -2.686  -4.578  1.00  0.00     0.055 A 
ATOM     92  C   UNL     1      14.926  -3.984  -2.796  1.00  0.00     0.041 A 
ATOM     93  F   UNL     1      13.352  -3.009  -1.361  1.00  0.00    -0.206 F 
ATOM     94  C   UNL     1      15.775  -3.900  -3.895  1.00  0.00     0.022 A 
BRANCH  91  95
ATOM     95  S   UNL     1      16.893  -2.584  -6.085  1.00  0.00     0.124 S 
ATOM     96  O   UNL     1      15.903  -2.197  -7.085  1.00  0.00    -0.237 OA
ATOM     97  O   UNL     1      17.879  -1.567  -5.736  1.00  0.00    -0.237 OA
ATOM     98  O   UNL     1      17.427  -3.937  -6.234  1.00  0.00    -0.744 OA
ENDBRANCH  91  95
ENDBRANCH  65  88
ENDBRANCH  39  40
ENDBRANCH  32  34
ENDBRANCH  31  32
ENDBRANCH  30  31
ENDBRANCH  29  30
ENDBRANCH  28  29
ENDBRANCH  27  28
ENDBRANCH  26  27
ENDBRANCH   1  26
TORSDOF 26
