REMARK SMILES Nc1c(Cl)ccc2c1C=C(C(=O)OCCOCCOCCOC(=O)c1ccc(-c3c4nc(c(-c5cc(S(=O)(=O)[O-])ccc5F)c5ccc([nH]5)c(-c5cc(S(=O)(=O)[O-])ccc5F)c5nc(c(-c6cc(S(=O)(=O)[O-])ccc6F)c6ccc3[nH]6)C=C5)C=C4)cc1)[C@@H](C(F)(F)F)O2
REMARK SMILES IDX 18 1 17 2 16 3 15 4 14 5 13 6 11 7 12 8 10 9 2 10 3 11 8 12
REMARK SMILES IDX 4 13 5 14 7 15 9 16 6 17 93 18 88 19 1 20 89 23 90 24 91 25
REMARK SMILES IDX 92 26 19 27 20 28 21 29 22 30 23 31 24 32 25 33 26 34 87 35
REMARK SMILES IDX 27 36 86 37 28 38 29 39 30 40 80 41 31 42 85 43 79 44 81 45
REMARK SMILES IDX 32 46 84 47 78 48 77 49 33 51 65 52 45 53 64 54 46 55 49 56
REMARK SMILES IDX 63 57 82 58 47 59 48 60 62 62 83 63 50 64 34 65 35 66 43 67
REMARK SMILES IDX 36 68 42 69 44 70 41 71 37 72 38 73 39 74 40 75 66 76 67 77
REMARK SMILES IDX 75 78 68 79 74 80 76 81 73 82 69 83 70 84 71 85 72 86 51 87
REMARK SMILES IDX 52 88 60 89 53 90 59 91 61 92 58 93 54 94 55 95 56 96 57 97
REMARK H PARENT 1 21 1 22 81 50 49 61
REMARK Flexibility Score: inf
ROOT
ATOM      1  C   UNL     1      -4.554   2.236  -1.174  1.00  0.00     0.188 C 
ENDROOT
BRANCH   1   2
ATOM      2  C   UNL     1      -3.795   3.568  -1.001  1.00  0.00     0.188 C 
BRANCH   2   3
ATOM      3  O   UNL     1      -4.447   4.647  -1.648  1.00  0.00    -0.376 OA
BRANCH   3   4
ATOM      4  C   UNL     1      -3.789   5.230  -2.758  1.00  0.00     0.202 C 
BRANCH   4   5
ATOM      5  C   UNL     1      -3.626   4.353  -4.007  1.00  0.00     0.261 C 
BRANCH   5   6
ATOM      6  O   UNL     1      -3.212   2.999  -3.762  1.00  0.00    -0.460 OA
BRANCH   6   7
ATOM      7  C   UNL     1      -1.887   2.759  -3.662  1.00  0.00     0.338 C 
ATOM      8  O   UNL     1      -0.992   3.582  -3.752  1.00  0.00    -0.246 OA
BRANCH   7   9
ATOM      9  C   UNL     1      -1.696   1.329  -3.325  1.00  0.00     0.088 C 
ATOM     10  C   UNL     1       0.301  -0.779  -0.996  1.00  0.00     0.061 A 
ATOM     11  C   UNL     1       0.568  -2.160  -0.855  1.00  0.00     0.064 A 
ATOM     12  C   UNL     1      -0.613  -0.375  -2.000  1.00  0.00     0.042 A 
ATOM     13  Cl  UNL     1       1.757  -2.723   0.273  1.00  0.00    -0.082 Cl
ATOM     14  C   UNL     1      -0.116  -3.117  -1.605  1.00  0.00     0.026 A 
ATOM     15  C   UNL     1      -1.319  -1.349  -2.724  1.00  0.00     0.130 A 
ATOM     16  C   UNL     1      -0.825   1.031  -2.353  1.00  0.00     0.029 C 
ATOM     17  C   UNL     1      -1.077  -2.710  -2.521  1.00  0.00     0.049 A 
ATOM     18  O   UNL     1      -2.272  -1.075  -3.663  1.00  0.00    -0.475 OA
ATOM     19  C   UNL     1      -2.510   0.298  -4.061  1.00  0.00     0.316 C 
BRANCH  10  20
ATOM     20  N   UNL     1       1.026   0.149  -0.240  1.00  0.00    -0.397 N 
ATOM     21  H   UNL     1       1.654  -0.163   0.452  1.00  0.00     0.156 HD
ATOM     22  H   UNL     1       0.908   1.113  -0.398  1.00  0.00     0.156 HD
ENDBRANCH  10  20
BRANCH  19  23
ATOM     23  C   UNL     1      -2.334   0.388  -5.583  1.00  0.00     0.430 C 
ATOM     24  F   UNL     1      -3.058  -0.569  -6.218  1.00  0.00    -0.167 F 
ATOM     25  F   UNL     1      -2.756   1.576  -6.076  1.00  0.00    -0.167 F 
ATOM     26  F   UNL     1      -1.044   0.230  -5.959  1.00  0.00    -0.167 F 
ENDBRANCH  19  23
ENDBRANCH   7   9
ENDBRANCH   6   7
ENDBRANCH   5   6
ENDBRANCH   4   5
ENDBRANCH   3   4
ENDBRANCH   2   3
ENDBRANCH   1   2
BRANCH   1  27
ATOM     27  O   UNL     1      -5.867   2.241  -1.724  1.00  0.00    -0.376 OA
BRANCH  27  28
ATOM     28  C   UNL     1      -6.803   3.200  -1.241  1.00  0.00     0.202 C 
BRANCH  28  29
ATOM     29  C   UNL     1      -7.115   3.237   0.262  1.00  0.00     0.261 C 
BRANCH  29  30
ATOM     30  O   UNL     1      -5.963   3.362   1.112  1.00  0.00    -0.460 OA
BRANCH  30  31
ATOM     31  C   UNL     1      -5.716   2.298   1.918  1.00  0.00     0.338 C 
ATOM     32  O   UNL     1      -6.374   1.277   2.016  1.00  0.00    -0.246 OA
BRANCH  31  33
ATOM     33  C   UNL     1      -4.396   2.462   2.557  1.00  0.00     0.060 A 
ATOM     34  C   UNL     1      -3.375   1.562   2.218  1.00  0.00     0.016 A 
ATOM     35  C   UNL     1      -4.188   3.438   3.532  1.00  0.00     0.016 A 
ATOM     36  C   UNL     1      -2.141   1.629   2.861  1.00  0.00     0.010 A 
ATOM     37  C   UNL     1      -2.964   3.477   4.206  1.00  0.00     0.010 A 
ATOM     38  C   UNL     1      -1.949   2.556   3.892  1.00  0.00    -0.014 A 
BRANCH  38  39
ATOM     39  C   UNL     1      -0.766   2.425   4.771  1.00  0.00     0.031 A 
ATOM     40  C   UNL     1      -0.857   1.509   5.958  1.00  0.00     0.074 A 
ATOM     41  C   UNL     1       0.364   3.108   4.525  1.00  0.00     0.049 A 
ATOM     42  N   UNL     1       0.043   1.244   6.866  1.00  0.00    -0.248 NA
ATOM     43  C   UNL     1      -2.132   0.794   6.143  1.00  0.00     0.031 C 
ATOM     44  C   UNL     1       0.574   4.004   3.392  1.00  0.00     0.029 A 
ATOM     45  N   UNL     1       1.541   3.165   5.229  1.00  0.00    -0.354 N 
ATOM     46  C   UNL     1      -0.554   0.338   7.733  1.00  0.00     0.074 A 
ATOM     47  C   UNL     1      -1.898   0.109   7.252  1.00  0.00     0.031 C 
ATOM     48  C   UNL     1       1.800   4.546   3.492  1.00  0.00     0.029 A 
ATOM     49  C   UNL     1       2.449   4.055   4.710  1.00  0.00     0.049 A 
ATOM     50  H   UNL     1       1.718   2.619   6.029  1.00  0.00     0.167 HD
ATOM     51  C   UNL     1      -0.028  -0.248   8.832  1.00  0.00     0.034 A 
ATOM     52  C   UNL     1       3.654   4.448   5.175  1.00  0.00     0.034 A 
ATOM     53  C   UNL     1       1.303   0.001   9.316  1.00  0.00     0.049 A 
ATOM     54  C   UNL     1       4.203   3.823   6.433  1.00  0.00     0.074 A 
ATOM     55  C   UNL     1       1.938  -0.582  10.397  1.00  0.00     0.029 A 
ATOM     56  N   UNL     1       2.191   0.914   8.770  1.00  0.00    -0.354 N 
ATOM     57  N   UNL     1       3.664   2.901   7.197  1.00  0.00    -0.248 NA
ATOM     58  C   UNL     1       5.523   4.280   6.893  1.00  0.00     0.031 C 
ATOM     59  C   UNL     1       3.185   0.026  10.545  1.00  0.00     0.029 A 
ATOM     60  C   UNL     1       3.357   0.940   9.516  1.00  0.00     0.049 A 
ATOM     61  H   UNL     1       2.019   1.464   7.971  1.00  0.00     0.167 HD
ATOM     62  C   UNL     1       4.586   2.651   8.211  1.00  0.00     0.074 A 
ATOM     63  C   UNL     1       5.723   3.512   7.958  1.00  0.00     0.031 C 
ATOM     64  C   UNL     1       4.495   1.787   9.253  1.00  0.00     0.034 A 
BRANCH  51  65
ATOM     65  C   UNL     1      -0.888  -1.204   9.609  1.00  0.00     0.023 A 
ATOM     66  C   UNL     1      -1.298  -0.871  10.912  1.00  0.00     0.031 A 
ATOM     67  C   UNL     1      -1.212  -2.476   9.107  1.00  0.00     0.131 A 
ATOM     68  C   UNL     1      -1.987  -1.813  11.683  1.00  0.00     0.055 A 
ATOM     69  C   UNL     1      -1.928  -3.400   9.868  1.00  0.00     0.041 A 
ATOM     70  F   UNL     1      -0.847  -2.832   7.864  1.00  0.00    -0.206 F 
ATOM     71  C   UNL     1      -2.310  -3.073  11.166  1.00  0.00     0.022 A 
BRANCH  68  72
ATOM     72  S   UNL     1      -2.459  -1.452  13.395  1.00  0.00     0.124 S 
ATOM     73  O   UNL     1      -3.898  -1.710  13.372  1.00  0.00    -0.237 OA
ATOM     74  O   UNL     1      -1.663  -2.422  14.140  1.00  0.00    -0.237 OA
ATOM     75  O   UNL     1      -2.085  -0.053  13.574  1.00  0.00    -0.744 OA
ENDBRANCH  68  72
ENDBRANCH  51  65
BRANCH  52  76
ATOM     76  C   UNL     1       4.418   5.471   4.409  1.00  0.00     0.023 A 
ATOM     77  C   UNL     1       3.929   6.783   4.279  1.00  0.00     0.031 A 
ATOM     78  C   UNL     1       5.584   5.123   3.708  1.00  0.00     0.131 A 
ATOM     79  C   UNL     1       4.567   7.680   3.413  1.00  0.00     0.055 A 
ATOM     80  C   UNL     1       6.251   6.039   2.893  1.00  0.00     0.041 A 
ATOM     81  F   UNL     1       6.080   3.880   3.798  1.00  0.00    -0.206 F 
ATOM     82  C   UNL     1       5.734   7.322   2.731  1.00  0.00     0.022 A 
BRANCH  79  83
ATOM     83  S   UNL     1       3.846   9.309   3.072  1.00  0.00     0.124 S 
ATOM     84  O   UNL     1       4.985  10.201   3.272  1.00  0.00    -0.237 OA
ATOM     85  O   UNL     1       3.405   9.149   1.689  1.00  0.00    -0.237 OA
ATOM     86  O   UNL     1       2.778   9.426   4.059  1.00  0.00    -0.744 OA
ENDBRANCH  79  83
ENDBRANCH  52  76
BRANCH  64  87
ATOM     87  C   UNL     1       5.646   1.686  10.224  1.00  0.00     0.023 A 
ATOM     88  C   UNL     1       6.359   0.477  10.340  1.00  0.00     0.031 A 
ATOM     89  C   UNL     1       5.911   2.708  11.150  1.00  0.00     0.131 A 
ATOM     90  C   UNL     1       7.266   0.301  11.392  1.00  0.00     0.055 A 
ATOM     91  C   UNL     1       6.849   2.544  12.171  1.00  0.00     0.041 A 
ATOM     92  F   UNL     1       5.248   3.874  11.087  1.00  0.00    -0.206 F 
ATOM     93  C   UNL     1       7.520   1.330  12.304  1.00  0.00     0.022 A 
BRANCH  90  94
ATOM     94  S   UNL     1       8.087  -1.294  11.662  1.00  0.00     0.124 S 
ATOM     95  O   UNL     1       9.498  -0.916  11.649  1.00  0.00    -0.237 OA
ATOM     96  O   UNL     1       7.560  -1.693  12.964  1.00  0.00    -0.237 OA
ATOM     97  O   UNL     1       7.654  -2.109  10.532  1.00  0.00    -0.744 OA
ENDBRANCH  90  94
ENDBRANCH  64  87
ENDBRANCH  38  39
ENDBRANCH  31  33
ENDBRANCH  30  31
ENDBRANCH  29  30
ENDBRANCH  28  29
ENDBRANCH  27  28
ENDBRANCH   1  27
TORSDOF 22
