REMARK SMILES O=C1C[C@@H](C(=O)OCCOCCOCCOC(=O)c2ccc(-c3c4nc(c(-c5cc(S(=O)(=O)[O-])ccc5F)c5ccc([nH]5)c(-c5cc(S(=O)(=O)[O-])ccc5F)c5nc(c(-c6cc(S(=O)(=O)[O-])ccc6F)c6ccc3[nH]6)C=C5)C=C4)cc2)C2(CC[NH+](Cc3c[nH]nc3-c3ccc(Cl)cc3)CC2)N1
REMARK SMILES IDX 11 1 10 2 9 3 8 4 7 5 5 6 6 7 4 8 1 9 2 10 3 11 101 12 82 13
REMARK SMILES IDX 83 15 100 16 84 17 99 18 85 19 86 21 87 22 88 23 91 24 89 25
REMARK SMILES IDX 90 26 92 28 93 29 98 30 94 31 97 32 95 33 96 34 12 35 13 36
REMARK SMILES IDX 14 37 15 38 16 39 17 40 18 41 19 42 20 43 81 44 21 45 80 46
REMARK SMILES IDX 22 47 23 48 24 49 74 50 25 51 79 52 73 53 75 54 26 55 78 56
REMARK SMILES IDX 72 57 71 58 27 60 59 61 39 62 58 63 40 64 43 65 57 66 76 67
REMARK SMILES IDX 41 68 42 69 56 71 77 72 44 73 28 74 29 75 37 76 30 77 36 78
REMARK SMILES IDX 38 79 35 80 31 81 32 82 33 83 34 84 60 85 61 86 69 87 62 88
REMARK SMILES IDX 68 89 70 90 67 91 63 92 64 93 65 94 66 95 45 96 46 97 54 98
REMARK SMILES IDX 47 99 53 100 55 101 52 102 48 103 49 104 50 105 51 106
REMARK H PARENT 101 14 85 20 89 27 75 59 43 70
REMARK Flexibility Score: inf
ROOT
ATOM      1  C   UNL     1       5.460   2.950  -4.075  1.00  0.00     0.188 C 
ENDROOT
BRANCH   1   2
ATOM      2  O   UNL     1       4.406   2.803  -5.020  1.00  0.00    -0.376 OA
BRANCH   2   3
ATOM      3  C   UNL     1       3.075   3.120  -4.647  1.00  0.00     0.202 C 
BRANCH   3   4
ATOM      4  C   UNL     1       2.309   2.075  -3.810  1.00  0.00     0.261 C 
BRANCH   4   5
ATOM      5  O   UNL     1       2.851   1.651  -2.527  1.00  0.00    -0.463 OA
BRANCH   5   6
ATOM      6  C   UNL     1       3.593   0.517  -2.558  1.00  0.00     0.311 C 
ATOM      7  O   UNL     1       3.890  -0.054  -3.607  1.00  0.00    -0.252 OA
BRANCH   6   8
ATOM      8  C   UNL     1       3.961  -0.136  -1.220  1.00  0.00     0.134 C 
ATOM      9  O   UNL     1       0.894  -1.101   0.330  1.00  0.00    -0.275 OA
ATOM     10  C   UNL     1       2.016  -0.709   0.039  1.00  0.00     0.221 C 
ATOM     11  C   UNL     1       2.914  -1.259  -1.032  1.00  0.00     0.117 C 
ATOM     12  N   UNL     1       2.684   0.292   0.689  1.00  0.00    -0.349 N 
ATOM     13  C   UNL     1       4.032   0.502   0.198  1.00  0.00     0.064 C 
ATOM     14  H   UNL     1       2.287   0.819   1.420  1.00  0.00     0.164 HD
ATOM     15  C   UNL     1       4.358   1.981   0.342  1.00  0.00     0.091 C 
ATOM     16  C   UNL     1       5.022  -0.316   1.106  1.00  0.00     0.091 C 
ATOM     17  C   UNL     1       5.834   2.228   0.121  1.00  0.00     0.264 C 
ATOM     18  C   UNL     1       6.500   0.127   1.083  1.00  0.00     0.264 C 
ATOM     19  N   UNL     1       6.720   1.562   1.046  1.00  0.00    -0.331 N 
ATOM     20  H   UNL     1       7.657   1.626   0.648  1.00  0.00     0.348 HD
BRANCH  19  21
ATOM     21  C   UNL     1       7.066   2.283   2.281  1.00  0.00     0.303 C 
BRANCH  21  22
ATOM     22  C   UNL     1       5.906   2.454   3.205  1.00  0.00     0.052 A 
ATOM     23  C   UNL     1       5.358   1.456   3.989  1.00  0.00     0.115 A 
ATOM     24  C   UNL     1       5.146   3.625   3.557  1.00  0.00     0.101 A 
ATOM     25  N   UNL     1       4.253   1.983   4.567  1.00  0.00    -0.285 N 
ATOM     26  N   UNL     1       4.111   3.292   4.351  1.00  0.00    -0.175 NA
ATOM     27  H   UNL     1       3.615   1.451   5.096  1.00  0.00     0.189 HD
BRANCH  24  28
ATOM     28  C   UNL     1       5.322   5.038   3.208  1.00  0.00     0.003 A 
ATOM     29  C   UNL     1       5.417   5.988   4.237  1.00  0.00     0.012 A 
ATOM     30  C   UNL     1       5.312   5.494   1.891  1.00  0.00     0.012 A 
ATOM     31  C   UNL     1       5.511   7.356   3.952  1.00  0.00     0.021 A 
ATOM     32  C   UNL     1       5.422   6.861   1.599  1.00  0.00     0.021 A 
ATOM     33  C   UNL     1       5.516   7.787   2.630  1.00  0.00     0.041 A 
ATOM     34  Cl  UNL     1       5.608   9.466   2.266  1.00  0.00    -0.084 Cl
ENDBRANCH  24  28
ENDBRANCH  21  22
ENDBRANCH  19  21
ENDBRANCH   6   8
ENDBRANCH   5   6
ENDBRANCH   4   5
ENDBRANCH   3   4
ENDBRANCH   2   3
ENDBRANCH   1   2
BRANCH   1  35
ATOM     35  C   UNL     1       5.153   3.582  -2.727  1.00  0.00     0.188 C 
BRANCH  35  36
ATOM     36  O   UNL     1       4.376   4.758  -2.820  1.00  0.00    -0.376 OA
BRANCH  36  37
ATOM     37  C   UNL     1       4.846   5.858  -2.067  1.00  0.00     0.202 C 
BRANCH  37  38
ATOM     38  C   UNL     1       6.076   6.508  -2.708  1.00  0.00     0.261 C 
BRANCH  38  39
ATOM     39  O   UNL     1       7.226   5.643  -2.850  1.00  0.00    -0.460 OA
BRANCH  39  40
ATOM     40  C   UNL     1       7.900   5.351  -1.712  1.00  0.00     0.338 C 
ATOM     41  O   UNL     1       7.610   5.725  -0.590  1.00  0.00    -0.246 OA
BRANCH  40  42
ATOM     42  C   UNL     1       8.949   4.351  -2.005  1.00  0.00     0.060 A 
ATOM     43  C   UNL     1       8.718   3.015  -1.675  1.00  0.00     0.016 A 
ATOM     44  C   UNL     1      10.189   4.723  -2.506  1.00  0.00     0.016 A 
ATOM     45  C   UNL     1       9.706   2.047  -1.796  1.00  0.00     0.010 A 
ATOM     46  C   UNL     1      11.183   3.745  -2.664  1.00  0.00     0.010 A 
ATOM     47  C   UNL     1      10.957   2.402  -2.291  1.00  0.00    -0.014 A 
BRANCH  47  48
ATOM     48  C   UNL     1      12.057   1.403  -2.316  1.00  0.00     0.031 A 
ATOM     49  C   UNL     1      13.269   1.639  -1.462  1.00  0.00     0.074 A 
ATOM     50  C   UNL     1      11.975   0.293  -3.075  1.00  0.00     0.049 A 
ATOM     51  N   UNL     1      14.440   1.062  -1.499  1.00  0.00    -0.248 NA
ATOM     52  C   UNL     1      13.142   2.688  -0.440  1.00  0.00     0.031 C 
ATOM     53  C   UNL     1      10.810  -0.111  -3.864  1.00  0.00     0.029 A 
ATOM     54  N   UNL     1      12.900  -0.692  -3.321  1.00  0.00    -0.354 N 
ATOM     55  C   UNL     1      15.215   1.724  -0.553  1.00  0.00     0.074 A 
ATOM     56  C   UNL     1      14.377   2.750   0.031  1.00  0.00     0.031 C 
ATOM     57  C   UNL     1      11.096  -1.247  -4.518  1.00  0.00     0.029 A 
ATOM     58  C   UNL     1      12.491  -1.599  -4.271  1.00  0.00     0.049 A 
ATOM     59  H   UNL     1      13.771  -0.743  -2.863  1.00  0.00     0.167 HD
ATOM     60  C   UNL     1      16.511   1.496  -0.219  1.00  0.00     0.034 A 
ATOM     61  C   UNL     1      13.179  -2.555  -4.927  1.00  0.00     0.034 A 
ATOM     62  C   UNL     1      17.308   0.447  -0.810  1.00  0.00     0.049 A 
ATOM     63  C   UNL     1      14.640  -2.739  -4.611  1.00  0.00     0.074 A 
ATOM     64  C   UNL     1      18.622   0.107  -0.540  1.00  0.00     0.029 A 
ATOM     65  N   UNL     1      16.868  -0.427  -1.798  1.00  0.00    -0.354 N 
ATOM     66  N   UNL     1      15.390  -2.078  -3.758  1.00  0.00    -0.248 NA
ATOM     67  C   UNL     1      15.349  -3.791  -5.348  1.00  0.00     0.031 C 
ATOM     68  C   UNL     1      19.001  -0.909  -1.425  1.00  0.00     0.029 A 
ATOM     69  C   UNL     1      17.897  -1.276  -2.180  1.00  0.00     0.049 A 
ATOM     70  H   UNL     1      15.958  -0.442  -2.173  1.00  0.00     0.167 HD
ATOM     71  C   UNL     1      16.657  -2.651  -3.841  1.00  0.00     0.074 A 
ATOM     72  C   UNL     1      16.561  -3.720  -4.816  1.00  0.00     0.031 C 
ATOM     73  C   UNL     1      17.792  -2.327  -3.168  1.00  0.00     0.034 A 
BRANCH  60  74
ATOM     74  C   UNL     1      17.154   2.460   0.752  1.00  0.00     0.023 A 
ATOM     75  C   UNL     1      16.677   2.640   2.063  1.00  0.00     0.031 A 
ATOM     76  C   UNL     1      18.221   3.275   0.328  1.00  0.00     0.131 A 
ATOM     77  C   UNL     1      17.190   3.676   2.859  1.00  0.00     0.055 A 
ATOM     78  C   UNL     1      18.795   4.236   1.162  1.00  0.00     0.041 A 
ATOM     79  F   UNL     1      18.706   3.172  -0.919  1.00  0.00    -0.206 F 
ATOM     80  C   UNL     1      18.265   4.457   2.429  1.00  0.00     0.022 A 
BRANCH  77  81
ATOM     81  S   UNL     1      16.300   4.119   4.377  1.00  0.00     0.124 S 
ATOM     82  O   UNL     1      14.956   4.380   3.865  1.00  0.00    -0.237 OA
ATOM     83  O   UNL     1      16.450   2.919   5.192  1.00  0.00    -0.237 OA
ATOM     84  O   UNL     1      17.013   5.299   4.862  1.00  0.00    -0.744 OA
ENDBRANCH  77  81
ENDBRANCH  60  74
BRANCH  61  85
ATOM     85  C   UNL     1      12.514  -3.342  -6.007  1.00  0.00     0.023 A 
ATOM     86  C   UNL     1      12.325  -4.727  -5.893  1.00  0.00     0.031 A 
ATOM     87  C   UNL     1      12.059  -2.709  -7.180  1.00  0.00     0.131 A 
ATOM     88  C   UNL     1      11.714  -5.437  -6.941  1.00  0.00     0.055 A 
ATOM     89  C   UNL     1      11.404  -3.409  -8.193  1.00  0.00     0.041 A 
ATOM     90  F   UNL     1      12.221  -1.386  -7.344  1.00  0.00    -0.206 F 
ATOM     91  C   UNL     1      11.235  -4.785  -8.080  1.00  0.00     0.022 A 
BRANCH  88  92
ATOM     92  S   UNL     1      11.604  -7.243  -6.820  1.00  0.00     0.124 S 
ATOM     93  O   UNL     1      13.010  -7.620  -6.730  1.00  0.00    -0.237 OA
ATOM     94  O   UNL     1      10.814  -7.419  -5.606  1.00  0.00    -0.237 OA
ATOM     95  O   UNL     1      10.932  -7.628  -8.059  1.00  0.00    -0.744 OA
ENDBRANCH  88  92
ENDBRANCH  61  85
BRANCH  73  96
ATOM     96  C   UNL     1      19.012  -3.178  -3.431  1.00  0.00     0.023 A 
ATOM     97  C   UNL     1      19.650  -3.201  -4.683  1.00  0.00     0.031 A 
ATOM     98  C   UNL     1      19.540  -3.986  -2.407  1.00  0.00     0.131 A 
ATOM     99  C   UNL     1      20.741  -4.057  -4.896  1.00  0.00     0.055 A 
ATOM    100  C   UNL     1      20.670  -4.781  -2.604  1.00  0.00     0.041 A 
ATOM    101  F   UNL     1      18.968  -4.012  -1.192  1.00  0.00    -0.206 F 
ATOM    102  C   UNL     1      21.269  -4.830  -3.859  1.00  0.00     0.022 A 
BRANCH  99 103
ATOM    103  S   UNL     1      21.396  -4.232  -6.579  1.00  0.00     0.124 S 
ATOM    104  O   UNL     1      20.217  -4.676  -7.316  1.00  0.00    -0.237 OA
ATOM    105  O   UNL     1      21.864  -2.882  -6.875  1.00  0.00    -0.237 OA
ATOM    106  O   UNL     1      22.449  -5.236  -6.434  1.00  0.00    -0.744 OA
ENDBRANCH  99 103
ENDBRANCH  73  96
ENDBRANCH  47  48
ENDBRANCH  40  42
ENDBRANCH  39  40
ENDBRANCH  38  39
ENDBRANCH  37  38
ENDBRANCH  36  37
ENDBRANCH  35  36
ENDBRANCH   1  35
TORSDOF 23
