REMARK SMILES C[C@]1(C(=O)N2CCC(CC(=O)OCCOCCOCCOC(=O)c3ccc(-c4c5nc(c(-c6cc(S(=O)(=O)[O-])ccc6F)c6ccc([nH]6)c(-c6cc(S(=O)(=O)[O-])ccc6F)c6nc(c(-c7cc(S(=O)(=O)[O-])ccc7F)c7ccc4[nH]7)C=C6)C=C5)cc3)CC2)CCC[NH2+]C1
REMARK SMILES IDX 17 1 16 2 15 3 14 4 13 5 12 6 10 7 11 8 9 9 8 10 3 11 4 12
REMARK SMILES IDX 5 13 6 14 88 15 7 16 87 17 2 18 1 19 89 20 93 21 90 22 92 23
REMARK SMILES IDX 91 24 18 27 19 28 20 29 21 30 22 31 23 32 24 33 25 34 86 35
REMARK SMILES IDX 26 36 85 37 27 38 28 39 29 40 79 41 30 42 84 43 78 44 80 45
REMARK SMILES IDX 31 46 83 47 77 48 76 49 32 51 64 52 44 53 63 54 45 55 48 56
REMARK SMILES IDX 62 57 81 58 46 59 47 60 61 62 82 63 49 64 33 65 34 66 42 67
REMARK SMILES IDX 35 68 41 69 43 70 40 71 36 72 37 73 38 74 39 75 65 76 66 77
REMARK SMILES IDX 74 78 67 79 73 80 75 81 72 82 68 83 69 84 70 85 71 86 50 87
REMARK SMILES IDX 51 88 59 89 52 90 58 91 60 92 57 93 53 94 54 95 55 96 56 97
REMARK H PARENT 92 25 92 26 80 50 48 61
REMARK Flexibility Score: inf
ROOT
ATOM      1  C   UNL     1       8.409  -1.716   0.303  1.00  0.00     0.188 C 
ENDROOT
BRANCH   1   2
ATOM      2  C   UNL     1       8.608  -2.915  -0.625  1.00  0.00     0.188 C 
BRANCH   2   3
ATOM      3  O   UNL     1       9.548  -2.749  -1.681  1.00  0.00    -0.376 OA
BRANCH   3   4
ATOM      4  C   UNL     1       9.298  -1.685  -2.596  1.00  0.00     0.202 C 
BRANCH   4   5
ATOM      5  C   UNL     1       8.013  -1.791  -3.429  1.00  0.00     0.261 C 
BRANCH   5   6
ATOM      6  O   UNL     1       6.830  -1.998  -2.634  1.00  0.00    -0.463 OA
BRANCH   6   7
ATOM      7  C   UNL     1       6.073  -3.073  -2.963  1.00  0.00     0.306 C 
ATOM      8  O   UNL     1       6.263  -3.777  -3.951  1.00  0.00    -0.252 OA
BRANCH   7   9
ATOM      9  C   UNL     1       4.968  -3.401  -1.975  1.00  0.00     0.126 C 
BRANCH   9  10
ATOM     10  C   UNL     1       4.562  -2.446  -0.829  1.00  0.00     0.003 C 
ATOM     11  C   UNL     1       1.124  -0.128  -0.110  1.00  0.00     0.234 C 
ATOM     12  O   UNL     1       0.390  -0.110   0.885  1.00  0.00    -0.274 OA
ATOM     13  N   UNL     1       2.340  -0.772  -0.060  1.00  0.00    -0.342 N 
ATOM     14  C   UNL     1       2.487  -2.012   0.678  1.00  0.00     0.120 C 
ATOM     15  C   UNL     1       3.606  -0.127  -0.344  1.00  0.00     0.120 C 
ATOM     16  C   UNL     1       3.242  -3.001  -0.209  1.00  0.00     0.026 C 
ATOM     17  C   UNL     1       4.426  -0.986  -1.298  1.00  0.00     0.026 C 
BRANCH  11  18
ATOM     18  C   UNL     1       0.573   0.370  -1.481  1.00  0.00     0.095 C 
ATOM     19  C   UNL     1      -0.687  -0.512  -1.708  1.00  0.00     0.028 C 
ATOM     20  C   UNL     1       0.121   1.839  -1.372  1.00  0.00     0.028 C 
ATOM     21  C   UNL     1       1.448   0.196  -2.739  1.00  0.00     0.277 C 
ATOM     22  C   UNL     1       1.305   2.794  -1.486  1.00  0.00     0.063 C 
ATOM     23  N   UNL     1       2.531   1.169  -2.900  1.00  0.00    -0.345 N 
ATOM     24  C   UNL     1       2.093   2.551  -2.771  1.00  0.00     0.260 C 
ATOM     25  H   UNL     1       3.238   0.986  -2.187  1.00  0.00     0.346 HD
ATOM     26  H   UNL     1       2.899   1.056  -3.845  1.00  0.00     0.346 HD
ENDBRANCH  11  18
ENDBRANCH   9  10
ENDBRANCH   7   9
ENDBRANCH   6   7
ENDBRANCH   5   6
ENDBRANCH   4   5
ENDBRANCH   3   4
ENDBRANCH   2   3
ENDBRANCH   1   2
BRANCH   1  27
ATOM     27  O   UNL     1       8.171  -0.460  -0.324  1.00  0.00    -0.376 OA
BRANCH  27  28
ATOM     28  C   UNL     1       7.925   0.635   0.568  1.00  0.00     0.202 C 
BRANCH  28  29
ATOM     29  C   UNL     1       8.971   0.870   1.680  1.00  0.00     0.261 C 
BRANCH  29  30
ATOM     30  O   UNL     1       9.137  -0.212   2.622  1.00  0.00    -0.460 OA
BRANCH  30  31
ATOM     31  C   UNL     1       8.027  -0.706   3.222  1.00  0.00     0.338 C 
ATOM     32  O   UNL     1       6.925  -0.183   3.229  1.00  0.00    -0.246 OA
BRANCH  31  33
ATOM     33  C   UNL     1       8.288  -2.120   3.614  1.00  0.00     0.060 A 
ATOM     34  C   UNL     1       7.250  -3.052   3.457  1.00  0.00     0.016 A 
ATOM     35  C   UNL     1       9.544  -2.554   4.050  1.00  0.00     0.016 A 
ATOM     36  C   UNL     1       7.451  -4.399   3.777  1.00  0.00     0.010 A 
ATOM     37  C   UNL     1       9.741  -3.901   4.381  1.00  0.00     0.010 A 
ATOM     38  C   UNL     1       8.686  -4.826   4.281  1.00  0.00    -0.014 A 
BRANCH  38  39
ATOM     39  C   UNL     1       8.805  -6.171   4.910  1.00  0.00     0.031 A 
ATOM     40  C   UNL     1       8.696  -6.261   6.410  1.00  0.00     0.074 A 
ATOM     41  C   UNL     1       8.984  -7.293   4.188  1.00  0.00     0.049 A 
ATOM     42  N   UNL     1       8.813  -7.298   7.197  1.00  0.00    -0.248 NA
ATOM     43  C   UNL     1       8.424  -4.998   7.113  1.00  0.00     0.031 C 
ATOM     44  C   UNL     1       9.068  -7.358   2.731  1.00  0.00     0.029 A 
ATOM     45  N   UNL     1       9.139  -8.598   4.593  1.00  0.00    -0.354 N 
ATOM     46  C   UNL     1       8.637  -6.814   8.490  1.00  0.00     0.074 A 
ATOM     47  C   UNL     1       8.449  -5.383   8.378  1.00  0.00     0.031 C 
ATOM     48  C   UNL     1       9.278  -8.635   2.365  1.00  0.00     0.029 A 
ATOM     49  C   UNL     1       9.382  -9.474   3.559  1.00  0.00     0.049 A 
ATOM     50  H   UNL     1       9.082  -8.880   5.534  1.00  0.00     0.167 HD
ATOM     51  C   UNL     1       8.623  -7.497   9.662  1.00  0.00     0.034 A 
ATOM     52  C   UNL     1       9.685 -10.790   3.576  1.00  0.00     0.034 A 
ATOM     53  C   UNL     1       8.827  -8.921   9.766  1.00  0.00     0.049 A 
ATOM     54  C   UNL     1       9.756 -11.521   4.899  1.00  0.00     0.074 A 
ATOM     55  C   UNL     1       8.808  -9.711  10.902  1.00  0.00     0.029 A 
ATOM     56  N   UNL     1       9.112  -9.766   8.701  1.00  0.00    -0.354 N 
ATOM     57  N   UNL     1       9.564 -11.057   6.113  1.00  0.00    -0.248 NA
ATOM     58  C   UNL     1      10.077 -12.954   4.852  1.00  0.00     0.031 C 
ATOM     59  C   UNL     1       9.164 -11.014  10.537  1.00  0.00     0.029 A 
ATOM     60  C   UNL     1       9.315 -11.060   9.160  1.00  0.00     0.049 A 
ATOM     61  H   UNL     1       9.163  -9.487   7.758  1.00  0.00     0.167 HD
ATOM     62  C   UNL     1       9.713 -12.149   6.968  1.00  0.00     0.074 A 
ATOM     63  C   UNL     1       9.998 -13.295   6.131  1.00  0.00     0.031 C 
ATOM     64  C   UNL     1       9.615 -12.199   8.322  1.00  0.00     0.034 A 
BRANCH  51  65
ATOM     65  C   UNL     1       8.443  -6.688  10.925  1.00  0.00     0.023 A 
ATOM     66  C   UNL     1       7.276  -5.941  11.170  1.00  0.00     0.031 A 
ATOM     67  C   UNL     1       9.479  -6.617  11.874  1.00  0.00     0.131 A 
ATOM     68  C   UNL     1       7.212  -5.088  12.282  1.00  0.00     0.055 A 
ATOM     69  C   UNL     1       9.370  -5.838  13.027  1.00  0.00     0.041 A 
ATOM     70  F   UNL     1      10.626  -7.287  11.684  1.00  0.00    -0.206 F 
ATOM     71  C   UNL     1       8.240  -5.052  13.227  1.00  0.00     0.022 A 
BRANCH  68  72
ATOM     72  S   UNL     1       5.848  -3.896  12.379  1.00  0.00     0.124 S 
ATOM     73  O   UNL     1       5.990  -3.182  11.112  1.00  0.00    -0.237 OA
ATOM     74  O   UNL     1       4.681  -4.761  12.499  1.00  0.00    -0.237 OA
ATOM     75  O   UNL     1       6.167  -3.107  13.567  1.00  0.00    -0.744 OA
ENDBRANCH  68  72
ENDBRANCH  51  65
BRANCH  52  76
ATOM     76  C   UNL     1      10.013 -11.503   2.304  1.00  0.00     0.023 A 
ATOM     77  C   UNL     1       9.225 -12.563   1.828  1.00  0.00     0.031 A 
ATOM     78  C   UNL     1      11.166 -11.162   1.574  1.00  0.00     0.131 A 
ATOM     79  C   UNL     1       9.620 -13.268   0.678  1.00  0.00     0.055 A 
ATOM     80  C   UNL     1      11.526 -11.829   0.403  1.00  0.00     0.041 A 
ATOM     81  F   UNL     1      11.961 -10.163   1.990  1.00  0.00    -0.206 F 
ATOM     82  C   UNL     1      10.756 -12.897  -0.046  1.00  0.00     0.022 A 
BRANCH  79  83
ATOM     83  S   UNL     1       8.671 -14.732   0.179  1.00  0.00     0.124 S 
ATOM     84  O   UNL     1       8.808 -15.588   1.352  1.00  0.00    -0.237 OA
ATOM     85  O   UNL     1       7.345 -14.169  -0.053  1.00  0.00    -0.237 OA
ATOM     86  O   UNL     1       9.366 -15.198  -1.019  1.00  0.00    -0.744 OA
ENDBRANCH  79  83
ENDBRANCH  52  76
BRANCH  64  87
ATOM     87  C   UNL     1       9.770 -13.551   8.984  1.00  0.00     0.023 A 
ATOM     88  C   UNL     1      10.986 -14.257   8.968  1.00  0.00     0.031 A 
ATOM     89  C   UNL     1       8.677 -14.140   9.648  1.00  0.00     0.131 A 
ATOM     90  C   UNL     1      11.066 -15.530   9.556  1.00  0.00     0.055 A 
ATOM     91  C   UNL     1       8.780 -15.378  10.285  1.00  0.00     0.041 A 
ATOM     92  F   UNL     1       7.489 -13.517   9.695  1.00  0.00    -0.206 F 
ATOM     93  C   UNL     1       9.976 -16.086  10.230  1.00  0.00     0.022 A 
BRANCH  90  94
ATOM     94  S   UNL     1      12.588 -16.496   9.349  1.00  0.00     0.124 S 
ATOM     95  O   UNL     1      12.702 -16.575   7.896  1.00  0.00    -0.237 OA
ATOM     96  O   UNL     1      13.580 -15.665  10.023  1.00  0.00    -0.237 OA
ATOM     97  O   UNL     1      12.285 -17.762  10.016  1.00  0.00    -0.744 OA
ENDBRANCH  90  94
ENDBRANCH  64  87
ENDBRANCH  38  39
ENDBRANCH  31  33
ENDBRANCH  30  31
ENDBRANCH  29  30
ENDBRANCH  28  29
ENDBRANCH  27  28
ENDBRANCH   1  27
TORSDOF 22
