REMARK SMILES C[C@@H](C(=O)OCCOCCOCCOC(=O)c1ccc(-c2c3nc(c(-c4cc(S(=O)(=O)[O-])ccc4F)c4ccc([nH]4)c(-c4cc(S(=O)(=O)[O-])ccc4F)c4nc(c(-c5cc(S(=O)(=O)[O-])ccc5F)c5ccc2[nH]5)C=C4)C=C3)cc1)c1ccc(-c2cccc(OC(=O)Nc3ccccc3)c2)c(F)c1
REMARK SMILES IDX 9 1 8 2 7 3 6 4 5 5 3 6 4 7 2 8 1 9 80 10 81 11 102 12 82 13
REMARK SMILES IDX 100 14 83 15 101 16 84 17 85 18 99 19 86 20 88 21 87 22
REMARK SMILES IDX 89 23 90 24 91 25 92 26 93 28 94 29 98 30 95 31 97 32 96 33
REMARK SMILES IDX 10 34 11 35 12 36 13 37 14 38 15 39 16 40 17 41 18 42 79 43
REMARK SMILES IDX 19 44 78 45 20 46 21 47 22 48 72 49 23 50 77 51 71 52 73 53
REMARK SMILES IDX 24 54 76 55 70 56 69 57 25 59 57 60 37 61 56 62 38 63 41 64
REMARK SMILES IDX 55 65 74 66 39 67 40 68 54 70 75 71 42 72 26 73 27 74 35 75
REMARK SMILES IDX 28 76 34 77 36 78 33 79 29 80 30 81 31 82 32 83 58 84 59 85
REMARK SMILES IDX 67 86 60 87 66 88 68 89 65 90 61 91 62 92 63 93 64 94 43 95
REMARK SMILES IDX 44 96 52 97 45 98 51 99 53 100 50 101 46 102 47 103 48 104
REMARK SMILES IDX 49 105
REMARK H PARENT 92 27 73 58 41 69
REMARK Flexibility Score: inf
ROOT
ATOM      1  C   UNL     1       0.420  -3.754   0.464  1.00  0.00     0.188 C 
ENDROOT
BRANCH   1   2
ATOM      2  O   UNL     1       1.161  -4.895   0.040  1.00  0.00    -0.376 OA
BRANCH   2   3
ATOM      3  C   UNL     1       2.392  -4.696  -0.648  1.00  0.00     0.202 C 
BRANCH   3   4
ATOM      4  C   UNL     1       2.430  -3.724  -1.841  1.00  0.00     0.261 C 
BRANCH   4   5
ATOM      5  O   UNL     1       1.926  -2.401  -1.557  1.00  0.00    -0.463 OA
BRANCH   5   6
ATOM      6  C   UNL     1       1.093  -1.847  -2.480  1.00  0.00     0.313 C 
ATOM      7  O   UNL     1       0.825  -2.378  -3.553  1.00  0.00    -0.252 OA
BRANCH   6   8
ATOM      8  C   UNL     1       0.480  -0.500  -2.051  1.00  0.00     0.126 C 
ATOM      9  C   UNL     1       1.313   0.294  -1.028  1.00  0.00     0.025 C 
BRANCH   8  10
ATOM     10  C   UNL     1      -1.019  -0.528  -1.707  1.00  0.00    -0.031 A 
ATOM     11  C   UNL     1      -1.677   0.658  -1.329  1.00  0.00     0.005 A 
ATOM     12  C   UNL     1      -1.817  -1.674  -1.835  1.00  0.00     0.044 A 
ATOM     13  C   UNL     1      -3.066   0.697  -1.107  1.00  0.00     0.012 A 
ATOM     14  C   UNL     1      -3.202  -1.631  -1.603  1.00  0.00     0.131 A 
ATOM     15  C   UNL     1      -3.862  -0.447  -1.253  1.00  0.00     0.018 A 
ATOM     16  F   UNL     1      -3.895  -2.765  -1.782  1.00  0.00    -0.206 F 
BRANCH  15  17
ATOM     17  C   UNL     1      -5.333  -0.360  -1.174  1.00  0.00    -0.012 A 
ATOM     18  C   UNL     1      -6.044   0.227  -2.240  1.00  0.00     0.009 A 
ATOM     19  C   UNL     1      -6.075  -0.904  -0.110  1.00  0.00     0.056 A 
ATOM     20  C   UNL     1      -7.443   0.257  -2.256  1.00  0.00     0.004 A 
ATOM     21  C   UNL     1      -7.475  -0.890  -0.147  1.00  0.00     0.133 A 
ATOM     22  C   UNL     1      -8.163  -0.313  -1.211  1.00  0.00     0.047 A 
BRANCH  21  23
ATOM     23  O   UNL     1      -8.240  -1.747   0.706  1.00  0.00    -0.410 OA
BRANCH  23  24
ATOM     24  C   UNL     1      -8.339  -1.703   2.095  1.00  0.00     0.417 C 
ATOM     25  O   UNL     1      -7.880  -0.703   2.666  1.00  0.00    -0.224 OA
ATOM     26  N   UNL     1      -8.972  -2.736   2.913  1.00  0.00    -0.291 N 
ATOM     27  H   UNL     1      -8.709  -2.439   3.814  1.00  0.00     0.173 HD
BRANCH  26  28
ATOM     28  C   UNL     1      -9.762  -3.954   3.249  1.00  0.00     0.044 A 
ATOM     29  C   UNL     1     -10.026  -4.154   4.621  1.00  0.00     0.026 A 
ATOM     30  C   UNL     1     -10.343  -4.921   2.441  1.00  0.00     0.026 A 
ATOM     31  C   UNL     1     -11.062  -4.961   5.104  1.00  0.00     0.002 A 
ATOM     32  C   UNL     1     -11.402  -5.734   2.892  1.00  0.00     0.002 A 
ATOM     33  C   UNL     1     -11.813  -5.698   4.215  1.00  0.00     0.000 A 
ENDBRANCH  26  28
ENDBRANCH  23  24
ENDBRANCH  21  23
ENDBRANCH  15  17
ENDBRANCH   8  10
ENDBRANCH   6   8
ENDBRANCH   5   6
ENDBRANCH   4   5
ENDBRANCH   3   4
ENDBRANCH   2   3
ENDBRANCH   1   2
BRANCH   1  34
ATOM     34  C   UNL     1       1.167  -2.602   1.157  1.00  0.00     0.188 C 
BRANCH  34  35
ATOM     35  O   UNL     1       2.540  -2.851   1.360  1.00  0.00    -0.376 OA
BRANCH  35  36
ATOM     36  C   UNL     1       3.003  -3.052   2.681  1.00  0.00     0.202 C 
BRANCH  36  37
ATOM     37  C   UNL     1       2.279  -4.026   3.627  1.00  0.00     0.261 C 
BRANCH  37  38
ATOM     38  O   UNL     1       0.845  -4.034   3.604  1.00  0.00    -0.460 OA
BRANCH  38  39
ATOM     39  C   UNL     1       0.202  -3.006   4.207  1.00  0.00     0.338 C 
ATOM     40  O   UNL     1       0.719  -2.046   4.754  1.00  0.00    -0.246 OA
BRANCH  39  41
ATOM     41  C   UNL     1      -1.238  -3.147   3.884  1.00  0.00     0.060 A 
ATOM     42  C   UNL     1      -1.891  -2.132   3.173  1.00  0.00     0.016 A 
ATOM     43  C   UNL     1      -1.930  -4.305   4.250  1.00  0.00     0.016 A 
ATOM     44  C   UNL     1      -3.242  -2.271   2.838  1.00  0.00     0.010 A 
ATOM     45  C   UNL     1      -3.286  -4.432   3.933  1.00  0.00     0.010 A 
ATOM     46  C   UNL     1      -3.956  -3.411   3.240  1.00  0.00    -0.014 A 
BRANCH  46  47
ATOM     47  C   UNL     1      -5.443  -3.450   3.129  1.00  0.00     0.031 A 
ATOM     48  C   UNL     1      -6.160  -2.772   4.372  1.00  0.00     0.074 A 
ATOM     49  C   UNL     1      -6.005  -3.942   1.966  1.00  0.00     0.049 A 
ATOM     50  N   UNL     1      -7.414  -2.463   4.527  1.00  0.00    -0.248 NA
ATOM     51  C   UNL     1      -5.408  -2.309   5.555  1.00  0.00     0.031 C 
ATOM     52  C   UNL     1      -5.328  -4.314   0.712  1.00  0.00     0.029 A 
ATOM     53  N   UNL     1      -7.318  -4.116   1.572  1.00  0.00    -0.354 N 
ATOM     54  C   UNL     1      -7.653  -1.701   5.653  1.00  0.00     0.074 A 
ATOM     55  C   UNL     1      -6.347  -1.707   6.304  1.00  0.00     0.031 C 
ATOM     56  C   UNL     1      -6.243  -4.470  -0.287  1.00  0.00     0.029 A 
ATOM     57  C   UNL     1      -7.615  -4.234   0.212  1.00  0.00     0.049 A 
ATOM     58  H   UNL     1      -8.037  -4.156   2.244  1.00  0.00     0.167 HD
ATOM     59  C   UNL     1      -8.855  -1.138   6.054  1.00  0.00     0.034 A 
ATOM     60  C   UNL     1      -8.782  -4.041  -0.537  1.00  0.00     0.034 A 
ATOM     61  C   UNL     1     -10.208  -1.118   5.354  1.00  0.00     0.049 A 
ATOM     62  C   UNL     1     -10.215  -3.378  -0.034  1.00  0.00     0.074 A 
ATOM     63  C   UNL     1     -11.482  -1.122   5.921  1.00  0.00     0.029 A 
ATOM     64  N   UNL     1     -10.535  -1.003   3.969  1.00  0.00    -0.354 N 
ATOM     65  N   UNL     1     -10.455  -2.506   0.928  1.00  0.00    -0.248 NA
ATOM     66  C   UNL     1     -11.487  -3.748  -0.680  1.00  0.00     0.031 C 
ATOM     67  C   UNL     1     -12.450  -1.392   4.915  1.00  0.00     0.029 A 
ATOM     68  C   UNL     1     -11.831  -1.488   3.669  1.00  0.00     0.049 A 
ATOM     69  H   UNL     1      -9.924  -0.627   3.295  1.00  0.00     0.167 HD
ATOM     70  C   UNL     1     -11.801  -2.400   1.201  1.00  0.00     0.074 A 
ATOM     71  C   UNL     1     -12.395  -3.074   0.045  1.00  0.00     0.031 C 
ATOM     72  C   UNL     1     -12.430  -1.964   2.356  1.00  0.00     0.034 A 
BRANCH  59  73
ATOM     73  C   UNL     1      -8.851  -0.856   7.538  1.00  0.00     0.023 A 
ATOM     74  C   UNL     1      -8.192   0.243   8.101  1.00  0.00     0.031 A 
ATOM     75  C   UNL     1      -9.432  -1.801   8.413  1.00  0.00     0.131 A 
ATOM     76  C   UNL     1      -8.096   0.347   9.499  1.00  0.00     0.055 A 
ATOM     77  C   UNL     1      -9.400  -1.651   9.798  1.00  0.00     0.041 A 
ATOM     78  F   UNL     1     -10.020  -2.908   7.929  1.00  0.00    -0.206 F 
ATOM     79  C   UNL     1      -8.718  -0.574  10.350  1.00  0.00     0.022 A 
BRANCH  76  80
ATOM     80  S   UNL     1      -7.017   1.624  10.199  1.00  0.00     0.124 S 
ATOM     81  O   UNL     1      -5.719   1.243   9.649  1.00  0.00    -0.237 OA
ATOM     82  O   UNL     1      -7.601   2.852   9.672  1.00  0.00    -0.237 OA
ATOM     83  O   UNL     1      -7.154   1.437  11.642  1.00  0.00    -0.744 OA
ENDBRANCH  76  80
ENDBRANCH  59  73
BRANCH  60  84
ATOM     84  C   UNL     1      -8.785  -4.442  -1.990  1.00  0.00     0.023 A 
ATOM     85  C   UNL     1      -9.378  -3.628  -2.973  1.00  0.00     0.031 A 
ATOM     86  C   UNL     1      -8.329  -5.711  -2.398  1.00  0.00     0.131 A 
ATOM     87  C   UNL     1      -9.544  -4.106  -4.285  1.00  0.00     0.055 A 
ATOM     88  C   UNL     1      -8.422  -6.149  -3.720  1.00  0.00     0.041 A 
ATOM     89  F   UNL     1      -7.809  -6.571  -1.508  1.00  0.00    -0.206 F 
ATOM     90  C   UNL     1      -9.048  -5.352  -4.670  1.00  0.00     0.022 A 
BRANCH  87  91
ATOM     91  S   UNL     1     -10.539  -3.133  -5.451  1.00  0.00     0.124 S 
ATOM     92  O   UNL     1     -11.831  -3.093  -4.775  1.00  0.00    -0.237 OA
ATOM     93  O   UNL     1      -9.805  -1.873  -5.510  1.00  0.00    -0.237 OA
ATOM     94  O   UNL     1     -10.503  -3.930  -6.676  1.00  0.00    -0.744 OA
ENDBRANCH  87  91
ENDBRANCH  60  84
BRANCH  72  95
ATOM     95  C   UNL     1     -13.945  -2.180   2.369  1.00  0.00     0.023 A 
ATOM     96  C   UNL     1     -14.530  -3.456   2.213  1.00  0.00     0.031 A 
ATOM     97  C   UNL     1     -14.815  -1.102   2.601  1.00  0.00     0.131 A 
ATOM     98  C   UNL     1     -15.928  -3.611   2.216  1.00  0.00     0.055 A 
ATOM     99  C   UNL     1     -16.203  -1.268   2.666  1.00  0.00     0.041 A 
ATOM    100  F   UNL     1     -14.331   0.137   2.787  1.00  0.00    -0.206 F 
ATOM    101  C   UNL     1     -16.768  -2.523   2.455  1.00  0.00     0.022 A 
BRANCH  98 102
ATOM    102  S   UNL     1     -16.645  -5.229   1.801  1.00  0.00     0.124 S 
ATOM    103  O   UNL     1     -15.911  -5.598   0.595  1.00  0.00    -0.237 OA
ATOM    104  O   UNL     1     -16.346  -6.017   2.993  1.00  0.00    -0.237 OA
ATOM    105  O   UNL     1     -18.062  -4.932   1.594  1.00  0.00    -0.744 OA
ENDBRANCH  98 102
ENDBRANCH  72  95
ENDBRANCH  46  47
ENDBRANCH  39  41
ENDBRANCH  38  39
ENDBRANCH  37  38
ENDBRANCH  36  37
ENDBRANCH  35  36
ENDBRANCH  34  35
ENDBRANCH   1  34
TORSDOF 25
