REMARK SMILES Cc1c(Cl)cccc1NC(=O)C[C@](C)(C(=O)OCCOCCOCCOC(=O)c1ccc(-c2c3nc(c(-c4cc(S(=O)(=O)[O-])ccc4F)c4ccc([nH]4)c(-c4cc(S(=O)(=O)[O-])ccc4F)c4nc(c(-c5cc(S(=O)(=O)[O-])ccc5F)c5ccc2[nH]5)C=C4)C=C3)cc1)c1ccccc1
REMARK SMILES IDX 21 1 20 2 19 3 18 4 17 5 15 6 16 7 13 8 14 9 12 10 10 11
REMARK SMILES IDX 9 12 11 14 8 15 1 16 2 17 3 18 4 19 5 20 7 21 6 22 92 23
REMARK SMILES IDX 93 24 97 25 94 26 96 27 95 28 22 29 23 30 24 31 25 32 26 33
REMARK SMILES IDX 27 34 28 35 29 36 30 37 91 38 31 39 90 40 32 41 33 42 34 43
REMARK SMILES IDX 84 44 35 45 89 46 83 47 85 48 36 49 88 50 82 51 81 52 37 54
REMARK SMILES IDX 69 55 49 56 68 57 50 58 53 59 67 60 86 61 51 62 52 63 66 65
REMARK SMILES IDX 87 66 54 67 38 68 39 69 47 70 40 71 46 72 48 73 45 74 41 75
REMARK SMILES IDX 42 76 43 77 44 78 70 79 71 80 79 81 72 82 78 83 80 84 77 85
REMARK SMILES IDX 73 86 74 87 75 88 76 89 55 90 56 91 64 92 57 93 63 94 65 95
REMARK SMILES IDX 62 96 58 97 59 98 60 99 61 100
REMARK H PARENT 9 13 85 53 53 64
REMARK Flexibility Score: inf
ROOT
ATOM      1  C   UNL     1      -7.986  -0.892  -1.772  1.00  0.00     0.188 C 
ENDROOT
BRANCH   1   2
ATOM      2  O   UNL     1      -8.325  -2.275  -1.782  1.00  0.00    -0.376 OA
BRANCH   2   3
ATOM      3  C   UNL     1      -7.437  -3.185  -1.139  1.00  0.00     0.202 C 
BRANCH   3   4
ATOM      4  C   UNL     1      -5.948  -3.084  -1.486  1.00  0.00     0.261 C 
BRANCH   4   5
ATOM      5  O   UNL     1      -5.338  -1.819  -1.150  1.00  0.00    -0.463 OA
BRANCH   5   6
ATOM      6  C   UNL     1      -4.333  -1.421  -1.974  1.00  0.00     0.316 C 
ATOM      7  O   UNL     1      -3.920  -2.127  -2.891  1.00  0.00    -0.251 OA
BRANCH   6   8
ATOM      8  C   UNL     1      -3.732  -0.017  -1.667  1.00  0.00     0.099 C 
ATOM      9  C   UNL     1      -4.295   0.714  -0.416  1.00  0.00     0.029 C 
BRANCH   8  10
ATOM     10  C   UNL     1      -2.197  -0.226  -1.433  1.00  0.00     0.123 C 
BRANCH  10  11
ATOM     11  C   UNL     1      -1.646  -1.646  -1.271  1.00  0.00     0.225 C 
ATOM     12  N   UNL     1      -2.063  -2.555  -0.344  1.00  0.00    -0.326 N 
ATOM     13  H   UNL     1      -1.730  -3.463  -0.531  1.00  0.00     0.169 HD
ATOM     14  O   UNL     1      -0.755  -2.033  -2.038  1.00  0.00    -0.275 OA
BRANCH  12  15
ATOM     15  C   UNL     1      -2.858  -2.503   0.816  1.00  0.00     0.045 A 
ATOM     16  C   UNL     1      -3.405  -5.009   0.586  1.00  0.00     0.048 C 
ATOM     17  C   UNL     1      -3.544  -3.663   1.260  1.00  0.00    -0.009 A 
ATOM     18  C   UNL     1      -4.403  -3.553   2.378  1.00  0.00     0.046 A 
ATOM     19  Cl  UNL     1      -5.322  -4.899   2.968  1.00  0.00    -0.084 Cl
ATOM     20  C   UNL     1      -4.555  -2.345   3.057  1.00  0.00     0.021 A 
ATOM     21  C   UNL     1      -2.952  -1.331   1.569  1.00  0.00     0.026 A 
ATOM     22  C   UNL     1      -3.810  -1.241   2.668  1.00  0.00     0.004 A 
ENDBRANCH  12  15
ENDBRANCH  10  11
ENDBRANCH   8  10
BRANCH   8  23
ATOM     23  C   UNL     1      -4.013   0.978  -2.845  1.00  0.00    -0.030 A 
ATOM     24  C   UNL     1      -3.613   2.331  -2.758  1.00  0.00     0.005 A 
ATOM     25  C   UNL     1      -4.761   0.610  -3.980  1.00  0.00     0.005 A 
ATOM     26  C   UNL     1      -3.982   3.268  -3.733  1.00  0.00     0.000 A 
ATOM     27  C   UNL     1      -5.103   1.542  -4.965  1.00  0.00     0.000 A 
ATOM     28  C   UNL     1      -4.730   2.873  -4.836  1.00  0.00     0.000 A 
ENDBRANCH   8  23
ENDBRANCH   6   8
ENDBRANCH   5   6
ENDBRANCH   4   5
ENDBRANCH   3   4
ENDBRANCH   2   3
ENDBRANCH   1   2
BRANCH   1  29
ATOM     29  C   UNL     1      -7.584  -0.269  -0.426  1.00  0.00     0.188 C 
BRANCH  29  30
ATOM     30  O   UNL     1      -7.657  -1.142   0.677  1.00  0.00    -0.376 OA
BRANCH  30  31
ATOM     31  C   UNL     1      -8.668  -0.924   1.639  1.00  0.00     0.202 C 
BRANCH  31  32
ATOM     32  C   UNL     1     -10.121  -0.648   1.209  1.00  0.00     0.261 C 
BRANCH  32  33
ATOM     33  O   UNL     1     -10.323   0.127   0.021  1.00  0.00    -0.460 OA
BRANCH  33  34
ATOM     34  C   UNL     1     -10.188   1.479   0.109  1.00  0.00     0.338 C 
ATOM     35  O   UNL     1      -9.930   2.115   1.101  1.00  0.00    -0.246 OA
BRANCH  34  36
ATOM     36  C   UNL     1     -10.141   1.980  -1.295  1.00  0.00     0.060 A 
ATOM     37  C   UNL     1      -9.015   2.699  -1.726  1.00  0.00     0.016 A 
ATOM     38  C   UNL     1     -11.143   1.634  -2.205  1.00  0.00     0.016 A 
ATOM     39  C   UNL     1      -8.887   3.066  -3.070  1.00  0.00     0.010 A 
ATOM     40  C   UNL     1     -11.030   2.031  -3.539  1.00  0.00     0.010 A 
ATOM     41  C   UNL     1      -9.911   2.760  -3.977  1.00  0.00    -0.014 A 
BRANCH  41  42
ATOM     42  C   UNL     1      -9.938   3.371  -5.329  1.00  0.00     0.031 A 
ATOM     43  C   UNL     1     -10.672   4.671  -5.490  1.00  0.00     0.074 A 
ATOM     44  C   UNL     1      -9.371   2.777  -6.394  1.00  0.00     0.049 A 
ATOM     45  N   UNL     1     -10.974   5.330  -6.577  1.00  0.00    -0.248 NA
ATOM     46  C   UNL     1     -11.142   5.300  -4.247  1.00  0.00     0.031 C 
ATOM     47  C   UNL     1      -8.588   1.545  -6.356  1.00  0.00     0.029 A 
ATOM     48  N   UNL     1      -9.379   3.130  -7.721  1.00  0.00    -0.354 N 
ATOM     49  C   UNL     1     -11.679   6.451  -6.151  1.00  0.00     0.074 A 
ATOM     50  C   UNL     1     -11.784   6.359  -4.710  1.00  0.00     0.031 C 
ATOM     51  C   UNL     1      -8.187   1.246  -7.605  1.00  0.00     0.029 A 
ATOM     52  C   UNL     1      -8.735   2.230  -8.539  1.00  0.00     0.049 A 
ATOM     53  H   UNL     1      -9.806   3.952  -8.056  1.00  0.00     0.167 HD
ATOM     54  C   UNL     1     -12.192   7.462  -6.893  1.00  0.00     0.034 A 
ATOM     55  C   UNL     1      -8.637   2.189  -9.884  1.00  0.00     0.034 A 
ATOM     56  C   UNL     1     -12.119   7.514  -8.331  1.00  0.00     0.049 A 
ATOM     57  C   UNL     1      -9.341   3.250 -10.703  1.00  0.00     0.074 A 
ATOM     58  C   UNL     1     -12.618   8.480  -9.187  1.00  0.00     0.029 A 
ATOM     59  N   UNL     1     -11.526   6.544  -9.130  1.00  0.00    -0.354 N 
ATOM     60  N   UNL     1     -10.019   4.298 -10.294  1.00  0.00    -0.248 NA
ATOM     61  C   UNL     1      -9.285   3.107 -12.165  1.00  0.00     0.031 C 
ATOM     62  C   UNL     1     -12.394   8.056 -10.502  1.00  0.00     0.029 A 
ATOM     63  C   UNL     1     -11.683   6.867 -10.468  1.00  0.00     0.049 A 
ATOM     64  H   UNL     1     -11.061   5.744  -8.794  1.00  0.00     0.167 HD
ATOM     65  C   UNL     1     -10.447   4.950 -11.450  1.00  0.00     0.074 A 
ATOM     66  C   UNL     1      -9.942   4.184 -12.570  1.00  0.00     0.031 C 
ATOM     67  C   UNL     1     -11.187   6.082 -11.575  1.00  0.00     0.034 A 
BRANCH  54  68
ATOM     68  C   UNL     1     -12.937   8.541  -6.146  1.00  0.00     0.023 A 
ATOM     69  C   UNL     1     -12.295   9.351  -5.193  1.00  0.00     0.031 A 
ATOM     70  C   UNL     1     -14.321   8.707  -6.326  1.00  0.00     0.131 A 
ATOM     71  C   UNL     1     -13.050  10.218  -4.389  1.00  0.00     0.055 A 
ATOM     72  C   UNL     1     -15.052   9.638  -5.587  1.00  0.00     0.041 A 
ATOM     73  F   UNL     1     -14.993   7.943  -7.202  1.00  0.00    -0.206 F 
ATOM     74  C   UNL     1     -14.421  10.386  -4.597  1.00  0.00     0.022 A 
BRANCH  71  75
ATOM     75  S   UNL     1     -12.248  10.977  -2.950  1.00  0.00     0.124 S 
ATOM     76  O   UNL     1     -11.775   9.802  -2.221  1.00  0.00    -0.237 OA
ATOM     77  O   UNL     1     -11.216  11.805  -3.565  1.00  0.00    -0.237 OA
ATOM     78  O   UNL     1     -13.332  11.709  -2.300  1.00  0.00    -0.744 OA
ENDBRANCH  71  75
ENDBRANCH  54  68
BRANCH  55  79
ATOM     79  C   UNL     1      -7.897   1.085 -10.566  1.00  0.00     0.023 A 
ATOM     80  C   UNL     1      -6.776   1.358 -11.367  1.00  0.00     0.031 A 
ATOM     81  C   UNL     1      -8.337  -0.248 -10.485  1.00  0.00     0.131 A 
ATOM     82  C   UNL     1      -6.157   0.322 -12.085  1.00  0.00     0.055 A 
ATOM     83  C   UNL     1      -7.684  -1.284 -11.156  1.00  0.00     0.041 A 
ATOM     84  F   UNL     1      -9.412  -0.566  -9.746  1.00  0.00    -0.206 F 
ATOM     85  C   UNL     1      -6.594  -1.000 -11.972  1.00  0.00     0.022 A 
BRANCH  82  86
ATOM     86  S   UNL     1      -4.824   0.741 -13.242  1.00  0.00     0.124 S 
ATOM     87  O   UNL     1      -5.509   1.634 -14.170  1.00  0.00    -0.237 OA
ATOM     88  O   UNL     1      -3.841   1.362 -12.362  1.00  0.00    -0.237 OA
ATOM     89  O   UNL     1      -4.434  -0.554 -13.796  1.00  0.00    -0.744 OA
ENDBRANCH  82  86
ENDBRANCH  55  79
BRANCH  67  90
ATOM     90  C   UNL     1     -11.462   6.581 -12.974  1.00  0.00     0.023 A 
ATOM     91  C   UNL     1     -12.310   5.888 -13.856  1.00  0.00     0.031 A 
ATOM     92  C   UNL     1     -10.881   7.782 -13.421  1.00  0.00     0.131 A 
ATOM     93  C   UNL     1     -12.524   6.383 -15.152  1.00  0.00     0.055 A 
ATOM     94  C   UNL     1     -11.142   8.297 -14.691  1.00  0.00     0.041 A 
ATOM     95  F   UNL     1     -10.063   8.484 -12.620  1.00  0.00    -0.206 F 
ATOM     96  C   UNL     1     -11.960   7.592 -15.568  1.00  0.00     0.022 A 
BRANCH  93  97
ATOM     97  S   UNL     1     -13.506   5.396 -16.315  1.00  0.00     0.124 S 
ATOM     98  O   UNL     1     -12.719   4.170 -16.412  1.00  0.00    -0.237 OA
ATOM     99  O   UNL     1     -14.786   5.278 -15.625  1.00  0.00    -0.237 OA
ATOM    100  O   UNL     1     -13.530   6.214 -17.526  1.00  0.00    -0.744 OA
ENDBRANCH  93  97
ENDBRANCH  67  90
ENDBRANCH  41  42
ENDBRANCH  34  36
ENDBRANCH  33  34
ENDBRANCH  32  33
ENDBRANCH  31  32
ENDBRANCH  30  31
ENDBRANCH  29  30
ENDBRANCH   1  29
TORSDOF 24
