REMARK SMILES COc1ccc2c(c1)c(Cc1nc(-c3ccc(C(=O)OCCOCCOCCOC(=O)c4ccc(-c5c6nc(c(-c7cc(S(=O)(=O)[O-])ccc7F)c7ccc([nH]7)c(-c7cc(S(=O)(=O)[O-])ccc7F)c7nc(c(-c8cc(S(=O)(=O)[O-])ccc8F)c8ccc5[nH]8)C=C7)C=C6)cc4)cc3)cs1)c(C)n2C(=O)c1ccc(Cl)cc1
REMARK SMILES IDX 24 1 23 2 22 3 21 4 20 5 18 6 19 7 17 8 14 9 15 10 96 11
REMARK SMILES IDX 16 12 95 13 13 14 11 15 12 16 98 17 97 18 10 19 9 20 3 21
REMARK SMILES IDX 4 22 8 23 5 24 7 25 6 26 101 27 99 28 100 29 2 30 1 31
REMARK SMILES IDX 102 32 103 33 104 34 105 35 110 36 106 37 109 38 107 39
REMARK SMILES IDX 108 40 25 41 26 42 27 43 28 44 29 45 30 46 31 47 32 48 33 49
REMARK SMILES IDX 94 50 34 51 93 52 35 53 36 54 37 55 87 56 38 57 92 58 86 59
REMARK SMILES IDX 88 60 39 61 91 62 85 63 84 64 40 66 72 67 52 68 71 69 53 70
REMARK SMILES IDX 56 71 70 72 89 73 54 74 55 75 69 77 90 78 57 79 41 80 42 81
REMARK SMILES IDX 50 82 43 83 49 84 51 85 48 86 44 87 45 88 46 89 47 90 73 91
REMARK SMILES IDX 74 92 82 93 75 94 81 95 83 96 80 97 76 98 77 99 78 100
REMARK SMILES IDX 79 101 58 102 59 103 67 104 60 105 66 106 68 107 65 108
REMARK SMILES IDX 61 109 62 110 63 111 64 112
REMARK H PARENT 88 65 56 76
REMARK Flexibility Score: inf
ROOT
ATOM      1  C   UNL     1      -3.161   6.623  -6.401  1.00  0.00     0.188 C 
ENDROOT
BRANCH   1   2
ATOM      2  O   UNL     1      -3.407   6.491  -7.778  1.00  0.00    -0.376 OA
BRANCH   2   3
ATOM      3  C   UNL     1      -3.363   5.172  -8.287  1.00  0.00     0.202 C 
BRANCH   3   4
ATOM      4  C   UNL     1      -3.070   3.942  -7.385  1.00  0.00     0.261 C 
BRANCH   4   5
ATOM      5  O   UNL     1      -3.532   3.991  -6.000  1.00  0.00    -0.460 OA
BRANCH   5   6
ATOM      6  C   UNL     1      -2.592   3.727  -5.037  1.00  0.00     0.338 C 
ATOM      7  O   UNL     1      -1.462   3.331  -5.286  1.00  0.00    -0.246 OA
BRANCH   6   8
ATOM      8  C   UNL     1      -2.951   4.248  -3.661  1.00  0.00     0.060 A 
ATOM      9  C   UNL     1      -3.050   5.352  -0.963  1.00  0.00     0.001 A 
ATOM     10  C   UNL     1      -2.458   5.995  -2.021  1.00  0.00     0.011 A 
ATOM     11  C   UNL     1      -3.574   4.092  -1.273  1.00  0.00     0.011 A 
ATOM     12  C   UNL     1      -2.461   5.502  -3.331  1.00  0.00     0.016 A 
ATOM     13  C   UNL     1      -3.513   3.535  -2.607  1.00  0.00     0.016 A 
BRANCH   9  14
ATOM     14  C   UNL     1      -2.944   6.015   0.352  1.00  0.00     0.081 A 
ATOM     15  C   UNL     1      -2.390   6.151   2.503  1.00  0.00     0.098 A 
ATOM     16  N   UNL     1      -2.799   5.334   1.540  1.00  0.00    -0.241 NA
ATOM     17  S   UNL     1      -2.443   7.822   2.110  1.00  0.00    -0.126 S 
ATOM     18  C   UNL     1      -2.849   7.394   0.505  1.00  0.00     0.095 A 
BRANCH  15  19
ATOM     19  C   UNL     1      -1.862   5.737   3.857  1.00  0.00     0.105 C 
BRANCH  19  20
ATOM     20  C   UNL     1      -0.414   5.328   3.799  1.00  0.00    -0.012 A 
ATOM     21  C   UNL     1      -0.136   1.587   1.305  1.00  0.00     0.119 A 
ATOM     22  C   UNL     1       1.587   1.391   1.548  1.00  0.00     0.048 A 
ATOM     23  C   UNL     1      -0.881   2.995   2.025  1.00  0.00     0.057 A 
ATOM     24  C   UNL     1       2.598   2.790   2.607  1.00  0.00     0.031 A 
ATOM     25  C   UNL     1      -0.008   4.222   3.028  1.00  0.00     0.008 A 
ATOM     26  C   UNL     1       1.670   4.144   3.336  1.00  0.00     0.057 A 
ATOM     27  N   UNL     1       1.888   5.048   4.378  1.00  0.00    -0.280 N 
ATOM     28  C   UNL     1       0.657   5.723   4.634  1.00  0.00     0.028 A 
ATOM     29  C   UNL     1       0.455   6.597   5.841  1.00  0.00     0.065 C 
BRANCH  21  30
ATOM     30  O   UNL     1      -0.862   0.775   0.485  1.00  0.00    -0.497 OA
ATOM     31  C   UNL     1      -0.054  -0.207  -0.157  1.00  0.00     0.278 C 
ENDBRANCH  21  30
BRANCH  27  32
ATOM     32  C   UNL     1       3.115   5.112   5.135  1.00  0.00     0.262 C 
ATOM     33  O   UNL     1       3.175   5.795   6.158  1.00  0.00    -0.268 OA
BRANCH  32  34
ATOM     34  C   UNL     1       4.372   4.372   4.837  1.00  0.00     0.040 A 
ATOM     35  C   UNL     1       5.082   4.575   3.647  1.00  0.00     0.015 A 
ATOM     36  C   UNL     1       4.859   3.456   5.785  1.00  0.00     0.015 A 
ATOM     37  C   UNL     1       6.184   3.759   3.344  1.00  0.00     0.021 A 
ATOM     38  C   UNL     1       5.976   2.664   5.492  1.00  0.00     0.021 A 
ATOM     39  C   UNL     1       6.610   2.794   4.258  1.00  0.00     0.041 A 
ATOM     40  Cl  UNL     1       7.905   1.734   3.850  1.00  0.00    -0.084 Cl
ENDBRANCH  32  34
ENDBRANCH  27  32
ENDBRANCH  19  20
ENDBRANCH  15  19
ENDBRANCH   9  14
ENDBRANCH   6   8
ENDBRANCH   5   6
ENDBRANCH   4   5
ENDBRANCH   3   4
ENDBRANCH   2   3
ENDBRANCH   1   2
BRANCH   1  41
ATOM     41  C   UNL     1      -4.405   6.605  -5.475  1.00  0.00     0.188 C 
BRANCH  41  42
ATOM     42  O   UNL     1      -5.607   6.069  -5.970  1.00  0.00    -0.376 OA
BRANCH  42  43
ATOM     43  C   UNL     1      -6.162   6.778  -7.059  1.00  0.00     0.202 C 
BRANCH  43  44
ATOM     44  C   UNL     1      -6.026   8.331  -7.153  1.00  0.00     0.261 C 
BRANCH  44  45
ATOM     45  O   UNL     1      -4.721   8.928  -6.851  1.00  0.00    -0.460 OA
BRANCH  45  46
ATOM     46  C   UNL     1      -4.619   9.804  -5.794  1.00  0.00     0.338 C 
ATOM     47  O   UNL     1      -5.572  10.334  -5.242  1.00  0.00    -0.246 OA
BRANCH  46  48
ATOM     48  C   UNL     1      -3.245   9.700  -5.142  1.00  0.00     0.060 A 
ATOM     49  C   UNL     1      -2.013   9.675  -5.809  1.00  0.00     0.016 A 
ATOM     50  C   UNL     1      -3.221   9.348  -3.796  1.00  0.00     0.016 A 
ATOM     51  C   UNL     1      -0.871   9.008  -5.222  1.00  0.00     0.010 A 
ATOM     52  C   UNL     1      -2.060   8.783  -3.223  1.00  0.00     0.010 A 
ATOM     53  C   UNL     1      -0.922   8.384  -3.954  1.00  0.00    -0.014 A 
BRANCH  53  54
ATOM     54  C   UNL     1       0.295   7.719  -3.210  1.00  0.00     0.031 A 
ATOM     55  C   UNL     1       1.153   8.872  -2.854  1.00  0.00     0.074 A 
ATOM     56  C   UNL     1       0.724   6.455  -2.778  1.00  0.00     0.049 A 
ATOM     57  N   UNL     1       2.117   9.299  -3.604  1.00  0.00    -0.248 NA
ATOM     58  C   UNL     1       0.708   9.842  -1.844  1.00  0.00     0.031 C 
ATOM     59  C   UNL     1       0.197   5.107  -3.018  1.00  0.00     0.029 A 
ATOM     60  N   UNL     1       1.812   6.058  -1.955  1.00  0.00    -0.354 N 
ATOM     61  C   UNL     1       2.611  10.409  -2.941  1.00  0.00     0.074 A 
ATOM     62  C   UNL     1       1.543  10.854  -2.089  1.00  0.00     0.031 C 
ATOM     63  C   UNL     1       0.598   4.168  -2.123  1.00  0.00     0.029 A 
ATOM     64  C   UNL     1       1.708   4.719  -1.368  1.00  0.00     0.049 A 
ATOM     65  H   UNL     1       2.585   6.645  -1.790  1.00  0.00     0.167 HD
ATOM     66  C   UNL     1       3.958  10.589  -2.851  1.00  0.00     0.034 A 
ATOM     67  C   UNL     1       2.654   3.883  -0.779  1.00  0.00     0.034 A 
ATOM     68  C   UNL     1       4.635   9.716  -3.790  1.00  0.00     0.049 A 
ATOM     69  C   UNL     1       3.970   4.387  -1.151  1.00  0.00     0.074 A 
ATOM     70  C   UNL     1       4.768   9.606  -5.158  1.00  0.00     0.029 A 
ATOM     71  N   UNL     1       4.870   8.471  -3.275  1.00  0.00    -0.354 N 
ATOM     72  N   UNL     1       4.428   4.305  -2.365  1.00  0.00    -0.248 NA
ATOM     73  C   UNL     1       4.437   5.479  -0.328  1.00  0.00     0.031 C 
ATOM     74  C   UNL     1       4.837   8.204  -5.438  1.00  0.00     0.029 A 
ATOM     75  C   UNL     1       4.866   7.502  -4.234  1.00  0.00     0.049 A 
ATOM     76  H   UNL     1       5.026   8.294  -2.319  1.00  0.00     0.167 HD
ATOM     77  C   UNL     1       4.838   5.597  -2.630  1.00  0.00     0.074 A 
ATOM     78  C   UNL     1       4.875   6.261  -1.315  1.00  0.00     0.031 C 
ATOM     79  C   UNL     1       4.773   6.096  -3.900  1.00  0.00     0.034 A 
BRANCH  66  80
ATOM     80  C   UNL     1       4.625  11.089  -1.578  1.00  0.00     0.023 A 
ATOM     81  C   UNL     1       3.949  11.292  -0.355  1.00  0.00     0.031 A 
ATOM     82  C   UNL     1       6.028  11.183  -1.510  1.00  0.00     0.131 A 
ATOM     83  C   UNL     1       4.623  11.624   0.828  1.00  0.00     0.055 A 
ATOM     84  C   UNL     1       6.712  11.448  -0.314  1.00  0.00     0.041 A 
ATOM     85  F   UNL     1       6.784  10.974  -2.599  1.00  0.00    -0.206 F 
ATOM     86  C   UNL     1       6.010  11.680   0.863  1.00  0.00     0.022 A 
BRANCH  83  87
ATOM     87  S   UNL     1       3.695  11.993   2.346  1.00  0.00     0.124 S 
ATOM     88  O   UNL     1       4.294  11.070   3.302  1.00  0.00    -0.237 OA
ATOM     89  O   UNL     1       4.009  13.406   2.541  1.00  0.00    -0.237 OA
ATOM     90  O   UNL     1       2.310  11.711   1.978  1.00  0.00    -0.744 OA
ENDBRANCH  83  87
ENDBRANCH  66  80
BRANCH  67  91
ATOM     91  C   UNL     1       2.554   2.960   0.410  1.00  0.00     0.023 A 
ATOM     92  C   UNL     1       1.155   3.244   1.468  1.00  0.00     0.031 A 
ATOM     93  C   UNL     1       3.717   1.742   0.975  1.00  0.00     0.131 A 
ATOM     94  C   UNL     1       0.887   2.132   3.164  1.00  0.00     0.055 A 
ATOM     95  C   UNL     1       3.546   0.763   2.474  1.00  0.00     0.041 A 
ATOM     96  F   UNL     1       4.829   1.517   0.258  1.00  0.00    -0.206 F 
ATOM     97  C   UNL     1       2.169   0.925   3.570  1.00  0.00     0.022 A 
BRANCH  94  98
ATOM     98  S   UNL     1      -0.423   1.934   4.690  1.00  0.00     0.124 S 
ATOM     99  O   UNL     1      -0.287   0.502   4.973  1.00  0.00    -0.237 OA
ATOM    100  O   UNL     1       0.171   2.791   5.715  1.00  0.00    -0.237 OA
ATOM    101  O   UNL     1      -1.768   2.299   4.257  1.00  0.00    -0.744 OA
ENDBRANCH  94  98
ENDBRANCH  67  91
BRANCH  79 102
ATOM    102  C   UNL     1       4.549   5.140  -5.051  1.00  0.00     0.023 A 
ATOM    103  C   UNL     1       5.621   5.015  -5.934  1.00  0.00     0.031 A 
ATOM    104  C   UNL     1       3.324   4.564  -5.439  1.00  0.00     0.131 A 
ATOM    105  C   UNL     1       5.443   4.427  -7.188  1.00  0.00     0.055 A 
ATOM    106  C   UNL     1       3.163   3.900  -6.666  1.00  0.00     0.041 A 
ATOM    107  F   UNL     1       2.229   4.703  -4.689  1.00  0.00    -0.206 F 
ATOM    108  C   UNL     1       4.225   3.851  -7.561  1.00  0.00     0.022 A 
BRANCH 105 109
ATOM    109  S   UNL     1       6.751   4.590  -8.422  1.00  0.00     0.124 S 
ATOM    110  O   UNL     1       7.063   3.198  -8.730  1.00  0.00    -0.237 OA
ATOM    111  O   UNL     1       6.075   5.335  -9.482  1.00  0.00    -0.237 OA
ATOM    112  O   UNL     1       7.802   5.326  -7.724  1.00  0.00    -0.744 OA
ENDBRANCH 105 109
ENDBRANCH  79 102
ENDBRANCH  53  54
ENDBRANCH  46  48
ENDBRANCH  45  46
ENDBRANCH  44  45
ENDBRANCH  43  44
ENDBRANCH  42  43
ENDBRANCH  41  42
ENDBRANCH   1  41
TORSDOF 26
