REMARK SMILES Cc1cc(/C=C2/C(=O)NC(=S)N=C2OCCOCCOCCOC(=O)c2ccc(-c3c4nc(c(-c5cc(S(=O)(=O)[O-])ccc5F)c5ccc([nH]5)c(-c5cc(S(=O)(=O)[O-])ccc5F)c5nc(c(-c6cc(S(=O)(=O)[O-])ccc6F)c6ccc3[nH]6)C=C5)C=C4)cc2)c(C)n1-c1cccc(C(=O)[O-])c1
REMARK SMILES IDX 19 1 18 2 17 3 16 4 15 5 14 6 13 7 5 8 6 9 7 10 8 11 9 12
REMARK SMILES IDX 12 13 10 14 11 16 4 17 1 18 2 19 3 20 91 21 89 22 90 23
REMARK SMILES IDX 92 24 93 25 100 26 94 27 96 28 95 29 97 30 98 31 99 32 20 33
REMARK SMILES IDX 21 34 22 35 23 36 24 37 25 38 26 39 27 40 88 41 28 42 87 43
REMARK SMILES IDX 29 44 30 45 31 46 81 47 32 48 86 49 80 50 82 51 33 52 85 53
REMARK SMILES IDX 79 54 78 55 34 57 66 58 46 59 65 60 47 61 50 62 64 63 83 64
REMARK SMILES IDX 48 65 49 66 63 68 84 69 51 70 35 71 36 72 44 73 37 74 43 75
REMARK SMILES IDX 45 76 42 77 38 78 39 79 40 80 41 81 67 82 68 83 76 84 69 85
REMARK SMILES IDX 75 86 77 87 74 88 70 89 71 90 72 91 73 92 52 93 53 94 61 95
REMARK SMILES IDX 54 96 60 97 62 98 59 99 55 100 56 101 57 102 58 103
REMARK H PARENT 9 15 82 56 50 67
REMARK Flexibility Score: inf
ROOT
ATOM      1  C   UNL     1      -3.267   4.463   4.976  1.00  0.00     0.188 C 
ENDROOT
BRANCH   1   2
ATOM      2  C   UNL     1      -1.955   4.582   5.755  1.00  0.00     0.188 C 
BRANCH   2   3
ATOM      3  O   UNL     1      -1.220   5.799   5.717  1.00  0.00    -0.376 OA
BRANCH   3   4
ATOM      4  C   UNL     1      -0.049   5.829   4.887  1.00  0.00     0.201 C 
BRANCH   4   5
ATOM      5  C   UNL     1       1.214   5.044   5.347  1.00  0.00     0.260 C 
BRANCH   5   6
ATOM      6  O   UNL     1       1.139   3.594   5.196  1.00  0.00    -0.475 OA
BRANCH   6   7
ATOM      7  C   UNL     1       0.618   2.904   6.231  1.00  0.00     0.229 C 
ATOM      8  C   UNL     1      -0.123   0.862   4.753  1.00  0.00     0.029 C 
ATOM      9  C   UNL     1      -0.028   1.609   5.880  1.00  0.00     0.103 C 
ATOM     10  C   UNL     1      -0.813   1.036   7.030  1.00  0.00     0.262 C 
ATOM     11  O   UNL     1      -1.381  -0.052   7.007  1.00  0.00    -0.269 OA
ATOM     12  N   UNL     1      -0.874   1.813   8.152  1.00  0.00    -0.297 N 
ATOM     13  N   UNL     1       0.593   3.469   7.389  1.00  0.00    -0.184 NA
ATOM     14  C   UNL     1      -0.185   2.968   8.382  1.00  0.00     0.203 C 
ATOM     15  H   UNL     1      -1.476   1.509   8.868  1.00  0.00     0.172 HD
ATOM     16  S   UNL     1      -0.401   3.741   9.851  1.00  0.00    -0.038 S 
BRANCH   8  17
ATOM     17  C   UNL     1       0.347   0.945   3.397  1.00  0.00    -0.003 A 
ATOM     18  C   UNL     1       1.050  -0.569   0.033  1.00  0.00     0.065 C 
ATOM     19  C   UNL     1       0.833   0.224   1.270  1.00  0.00     0.020 A 
ATOM     20  C   UNL     1       0.529  -0.199   2.556  1.00  0.00     0.031 A 
ATOM     21  N   UNL     1       0.962   1.593   1.333  1.00  0.00    -0.318 N 
ATOM     22  C   UNL     1       0.443   2.025   2.544  1.00  0.00     0.027 A 
ATOM     23  C   UNL     1      -0.012   3.424   2.663  1.00  0.00     0.065 C 
BRANCH  21  24
ATOM     24  C   UNL     1       1.372   2.491   0.317  1.00  0.00     0.046 A 
ATOM     25  C   UNL     1       2.459   3.332   0.596  1.00  0.00     0.026 A 
ATOM     26  C   UNL     1       0.511   2.758  -0.752  1.00  0.00     0.036 A 
ATOM     27  C   UNL     1       2.692   4.452  -0.198  1.00  0.00     0.003 A 
ATOM     28  C   UNL     1       0.732   3.905  -1.529  1.00  0.00    -0.001 A 
ATOM     29  C   UNL     1       1.825   4.744  -1.250  1.00  0.00     0.010 A 
BRANCH  28  30
ATOM     30  C   UNL     1      -0.207   4.319  -2.591  1.00  0.00     0.072 C 
ATOM     31  O   UNL     1      -0.072   5.304  -3.320  1.00  0.00    -0.545 OA
ATOM     32  O   UNL     1      -1.280   3.527  -2.690  1.00  0.00    -0.545 OA
ENDBRANCH  28  30
ENDBRANCH  21  24
ENDBRANCH   8  17
ENDBRANCH   6   7
ENDBRANCH   5   6
ENDBRANCH   4   5
ENDBRANCH   3   4
ENDBRANCH   2   3
ENDBRANCH   1   2
BRANCH   1  33
ATOM     33  O   UNL     1      -3.190   4.859   3.618  1.00  0.00    -0.376 OA
BRANCH  33  34
ATOM     34  C   UNL     1      -3.324   6.270   3.397  1.00  0.00     0.202 C 
BRANCH  34  35
ATOM     35  C   UNL     1      -4.683   6.920   3.796  1.00  0.00     0.261 C 
BRANCH  35  36
ATOM     36  O   UNL     1      -4.721   7.851   4.944  1.00  0.00    -0.460 OA
BRANCH  36  37
ATOM     37  C   UNL     1      -5.653   7.590   5.925  1.00  0.00     0.338 C 
ATOM     38  O   UNL     1      -6.122   6.471   6.096  1.00  0.00    -0.246 OA
BRANCH  37  39
ATOM     39  C   UNL     1      -6.058   8.761   6.845  1.00  0.00     0.060 A 
ATOM     40  C   UNL     1      -5.952   8.591   8.216  1.00  0.00     0.016 A 
ATOM     41  C   UNL     1      -6.772   9.922   6.469  1.00  0.00     0.016 A 
ATOM     42  C   UNL     1      -6.491   9.558   9.143  1.00  0.00     0.010 A 
ATOM     43  C   UNL     1      -7.397  10.872   7.438  1.00  0.00     0.010 A 
ATOM     44  C   UNL     1      -7.298  10.728   8.835  1.00  0.00    -0.014 A 
BRANCH  44  45
ATOM     45  C   UNL     1      -8.197  11.415  10.090  1.00  0.00     0.031 A 
ATOM     46  C   UNL     1      -8.455  10.226  10.956  1.00  0.00     0.074 A 
ATOM     47  C   UNL     1      -8.870  12.568  10.571  1.00  0.00     0.049 A 
ATOM     48  N   UNL     1      -9.034   9.178  10.441  1.00  0.00    -0.248 NA
ATOM     49  C   UNL     1      -7.741   9.966  12.209  1.00  0.00     0.031 C 
ATOM     50  C   UNL     1      -9.052  13.867   9.893  1.00  0.00     0.029 A 
ATOM     51  N   UNL     1      -9.594  12.877  11.806  1.00  0.00    -0.354 N 
ATOM     52  C   UNL     1      -9.053   8.220  11.419  1.00  0.00     0.074 A 
ATOM     53  C   UNL     1      -8.051   8.673  12.377  1.00  0.00     0.031 C 
ATOM     54  C   UNL     1      -9.648  14.807  10.695  1.00  0.00     0.029 A 
ATOM     55  C   UNL     1     -10.014  14.268  12.011  1.00  0.00     0.049 A 
ATOM     56  H   UNL     1      -9.791  12.179  12.472  1.00  0.00     0.167 HD
ATOM     57  C   UNL     1     -10.273   7.659  11.663  1.00  0.00     0.034 A 
ATOM     58  C   UNL     1     -10.666  14.941  13.073  1.00  0.00     0.034 A 
ATOM     59  C   UNL     1     -10.886   8.236  12.829  1.00  0.00     0.049 A 
ATOM     60  C   UNL     1     -11.439  13.949  13.818  1.00  0.00     0.074 A 
ATOM     61  C   UNL     1     -10.407   8.551  14.086  1.00  0.00     0.029 A 
ATOM     62  N   UNL     1     -12.002   9.019  12.623  1.00  0.00    -0.354 N 
ATOM     63  N   UNL     1     -12.586  13.523  13.393  1.00  0.00    -0.248 NA
ATOM     64  C   UNL     1     -11.016  13.429  15.112  1.00  0.00     0.031 C 
ATOM     65  C   UNL     1     -10.919   9.841  14.346  1.00  0.00     0.029 A 
ATOM     66  C   UNL     1     -11.976  10.099  13.479  1.00  0.00     0.049 A 
ATOM     67  H   UNL     1     -12.709   8.835  11.964  1.00  0.00     0.167 HD
ATOM     68  C   UNL     1     -12.688  12.317  14.010  1.00  0.00     0.074 A 
ATOM     69  C   UNL     1     -11.915  12.449  15.232  1.00  0.00     0.031 C 
ATOM     70  C   UNL     1     -12.827  11.239  13.197  1.00  0.00     0.034 A 
BRANCH  57  71
ATOM     71  C   UNL     1     -11.024   7.272  10.412  1.00  0.00     0.023 A 
ATOM     72  C   UNL     1     -11.183   5.917  10.102  1.00  0.00     0.031 A 
ATOM     73  C   UNL     1     -11.466   8.218   9.459  1.00  0.00     0.131 A 
ATOM     74  C   UNL     1     -11.691   5.545   8.845  1.00  0.00     0.055 A 
ATOM     75  C   UNL     1     -11.900   7.846   8.188  1.00  0.00     0.041 A 
ATOM     76  F   UNL     1     -11.480   9.530   9.749  1.00  0.00    -0.206 F 
ATOM     77  C   UNL     1     -12.004   6.499   7.870  1.00  0.00     0.022 A 
BRANCH  74  78
ATOM     78  S   UNL     1     -11.970   3.786   8.507  1.00  0.00     0.124 S 
ATOM     79  O   UNL     1     -10.620   3.236   8.564  1.00  0.00    -0.237 OA
ATOM     80  O   UNL     1     -12.854   3.398   9.604  1.00  0.00    -0.237 OA
ATOM     81  O   UNL     1     -12.591   3.778   7.184  1.00  0.00    -0.744 OA
ENDBRANCH  74  78
ENDBRANCH  57  71
BRANCH  58  82
ATOM     82  C   UNL     1     -11.023  16.363  13.690  1.00  0.00     0.023 A 
ATOM     83  C   UNL     1     -12.197  16.618  14.533  1.00  0.00     0.031 A 
ATOM     84  C   UNL     1     -10.030  17.343  13.809  1.00  0.00     0.131 A 
ATOM     85  C   UNL     1     -12.299  17.742  15.422  1.00  0.00     0.055 A 
ATOM     86  C   UNL     1     -10.139  18.455  14.687  1.00  0.00     0.041 A 
ATOM     87  F   UNL     1      -8.864  17.199  13.164  1.00  0.00    -0.206 F 
ATOM     88  C   UNL     1     -11.254  18.652  15.501  1.00  0.00     0.022 A 
BRANCH  85  89
ATOM     89  S   UNL     1     -13.699  17.987  16.625  1.00  0.00     0.124 S 
ATOM     90  O   UNL     1     -14.832  18.294  15.762  1.00  0.00    -0.237 OA
ATOM     91  O   UNL     1     -13.744  16.714  17.337  1.00  0.00    -0.237 OA
ATOM     92  O   UNL     1     -13.253  19.113  17.453  1.00  0.00    -0.744 OA
ENDBRANCH  85  89
ENDBRANCH  58  82
BRANCH  70  93
ATOM     93  C   UNL     1     -13.710  11.402  11.954  1.00  0.00     0.023 A 
ATOM     94  C   UNL     1     -13.713  12.507  11.057  1.00  0.00     0.031 A 
ATOM     95  C   UNL     1     -14.660  10.400  11.698  1.00  0.00     0.131 A 
ATOM     96  C   UNL     1     -14.648  12.593  10.004  1.00  0.00     0.055 A 
ATOM     97  C   UNL     1     -15.552  10.459  10.624  1.00  0.00     0.041 A 
ATOM     98  F   UNL     1     -14.741   9.327  12.501  1.00  0.00    -0.206 F 
ATOM     99  C   UNL     1     -15.561  11.564   9.782  1.00  0.00     0.022 A 
BRANCH  96 100
ATOM    100  S   UNL     1     -14.741  14.090   8.960  1.00  0.00     0.124 S 
ATOM    101  O   UNL     1     -14.759  15.179   9.929  1.00  0.00    -0.237 OA
ATOM    102  O   UNL     1     -13.536  13.987   8.142  1.00  0.00    -0.237 OA
ATOM    103  O   UNL     1     -15.994  13.914   8.224  1.00  0.00    -0.744 OA
ENDBRANCH  96 100
ENDBRANCH  70  93
ENDBRANCH  44  45
ENDBRANCH  37  39
ENDBRANCH  36  37
ENDBRANCH  35  36
ENDBRANCH  34  35
ENDBRANCH  33  34
ENDBRANCH   1  33
TORSDOF 22
