REMARK SMILES C[C@H]1CCCC[C@@H]1n1c(SCC(=O)OCCOCCOCCOC(=O)c2ccc(-c3c4nc(c(-c5cc(S(=O)(=O)[O-])ccc5F)c5ccc([nH]5)c(-c5cc(S(=O)(=O)[O-])ccc5F)c5nc(c(-c6cc(S(=O)(=O)[O-])ccc6F)c6ccc3[nH]6)C=C5)C=C4)cc2)nc2ccccc2c1=O
REMARK SMILES IDX 18 1 17 2 16 3 15 4 14 5 12 6 13 7 11 8 10 9 9 10 8 11 96 12
REMARK SMILES IDX 89 13 95 14 97 15 90 16 94 17 91 18 93 19 92 20 7 21 1 22
REMARK SMILES IDX 2 23 3 24 4 25 6 26 5 27 19 28 20 29 21 30 22 31 23 32 24 33
REMARK SMILES IDX 25 34 26 35 27 36 88 37 28 38 87 39 29 40 30 41 31 42 81 43
REMARK SMILES IDX 32 44 86 45 80 46 82 47 33 48 85 49 79 50 78 51 34 53 66 54
REMARK SMILES IDX 46 55 65 56 47 57 50 58 64 59 83 60 48 61 49 62 63 64 84 65
REMARK SMILES IDX 51 66 35 67 36 68 44 69 37 70 43 71 45 72 42 73 38 74 39 75
REMARK SMILES IDX 40 76 41 77 67 78 68 79 76 80 69 81 75 82 77 83 74 84 70 85
REMARK SMILES IDX 71 86 72 87 73 88 52 89 53 90 61 91 54 92 60 93 62 94 59 95
REMARK SMILES IDX 55 96 56 97 57 98 58 99
REMARK H PARENT 82 52 50 63
REMARK Flexibility Score: inf
ROOT
ATOM      1  C   UNL     1      -0.552  -1.473   3.141  1.00  0.00     0.188 C 
ENDROOT
BRANCH   1   2
ATOM      2  O   UNL     1      -1.232  -1.228   4.352  1.00  0.00    -0.376 OA
BRANCH   2   3
ATOM      3  C   UNL     1      -2.429  -1.952   4.593  1.00  0.00     0.202 C 
BRANCH   3   4
ATOM      4  C   UNL     1      -3.444  -2.080   3.449  1.00  0.00     0.261 C 
BRANCH   4   5
ATOM      5  O   UNL     1      -3.006  -2.926   2.361  1.00  0.00    -0.463 OA
BRANCH   5   6
ATOM      6  C   UNL     1      -3.509  -2.572   1.146  1.00  0.00     0.316 C 
ATOM      7  O   UNL     1      -4.264  -1.617   0.980  1.00  0.00    -0.251 OA
BRANCH   6   8
ATOM      8  C   UNL     1      -3.189  -3.495  -0.004  1.00  0.00     0.200 C 
BRANCH   8   9
ATOM      9  S   UNL     1      -1.670  -4.361  -0.071  1.00  0.00    -0.076 SA
BRANCH   9  10
ATOM     10  C   UNL     1      -0.062  -3.724  -0.296  1.00  0.00     0.172 A 
ATOM     11  N   UNL     1       0.501  -2.483  -0.678  1.00  0.00    -0.284 N 
ATOM     12  C   UNL     1       1.808  -2.625  -1.230  1.00  0.00     0.262 A 
ATOM     13  N   UNL     1       0.664  -4.783  -0.077  1.00  0.00    -0.224 NA
ATOM     14  C   UNL     1       2.688  -3.731  -0.746  1.00  0.00     0.066 A 
ATOM     15  O   UNL     1       2.261  -1.896  -2.109  1.00  0.00    -0.269 OA
ATOM     16  C   UNL     1       2.038  -4.786  -0.159  1.00  0.00     0.079 A 
ATOM     17  C   UNL     1       4.095  -3.697  -0.744  1.00  0.00     0.016 A 
ATOM     18  C   UNL     1       2.768  -5.860   0.370  1.00  0.00     0.029 A 
ATOM     19  C   UNL     1       4.827  -4.720  -0.122  1.00  0.00     0.001 A 
ATOM     20  C   UNL     1       4.162  -5.821   0.410  1.00  0.00     0.002 A 
BRANCH  11  21
ATOM     21  C   UNL     1      -0.124  -1.060  -0.947  1.00  0.00     0.096 C 
ATOM     22  C   UNL     1       1.044   0.723   0.858  1.00  0.00     0.010 C 
ATOM     23  C   UNL     1      -0.151   0.134   0.141  1.00  0.00     0.009 C 
ATOM     24  C   UNL     1      -0.873   1.378  -0.449  1.00  0.00     0.005 C 
ATOM     25  C   UNL     1      -2.334   1.059  -0.639  1.00  0.00     0.000 C 
ATOM     26  C   UNL     1      -1.582  -1.248  -1.334  1.00  0.00     0.026 C 
ATOM     27  C   UNL     1      -2.441  -0.039  -1.679  1.00  0.00     0.002 C 
ENDBRANCH  11  21
ENDBRANCH   9  10
ENDBRANCH   8   9
ENDBRANCH   6   8
ENDBRANCH   5   6
ENDBRANCH   4   5
ENDBRANCH   3   4
ENDBRANCH   2   3
ENDBRANCH   1   2
BRANCH   1  28
ATOM     28  C   UNL     1       0.046  -2.850   2.838  1.00  0.00     0.188 C 
BRANCH  28  29
ATOM     29  O   UNL     1       0.325  -3.740   3.894  1.00  0.00    -0.376 OA
BRANCH  29  30
ATOM     30  C   UNL     1       1.015  -3.195   4.998  1.00  0.00     0.202 C 
BRANCH  30  31
ATOM     31  C   UNL     1       2.442  -2.681   4.757  1.00  0.00     0.261 C 
BRANCH  31  32
ATOM     32  O   UNL     1       2.622  -1.647   3.755  1.00  0.00    -0.460 OA
BRANCH  32  33
ATOM     33  C   UNL     1       3.770  -1.756   3.030  1.00  0.00     0.338 C 
ATOM     34  O   UNL     1       4.548  -2.721   3.063  1.00  0.00    -0.246 OA
BRANCH  33  35
ATOM     35  C   UNL     1       3.994  -0.646   2.074  1.00  0.00     0.060 A 
ATOM     36  C   UNL     1       4.654   0.541   2.358  1.00  0.00     0.016 A 
ATOM     37  C   UNL     1       3.627  -0.868   0.755  1.00  0.00     0.016 A 
ATOM     38  C   UNL     1       4.835   1.511   1.334  1.00  0.00     0.010 A 
ATOM     39  C   UNL     1       3.852   0.058  -0.278  1.00  0.00     0.010 A 
ATOM     40  C   UNL     1       4.392   1.304   0.008  1.00  0.00    -0.014 A 
BRANCH  40  41
ATOM     41  C   UNL     1       4.623   2.297  -1.086  1.00  0.00     0.031 A 
ATOM     42  C   UNL     1       3.571   3.198  -1.688  1.00  0.00     0.074 A 
ATOM     43  C   UNL     1       5.836   2.333  -1.657  1.00  0.00     0.049 A 
ATOM     44  N   UNL     1       3.691   4.427  -2.129  1.00  0.00    -0.248 NA
ATOM     45  C   UNL     1       2.221   2.658  -1.860  1.00  0.00     0.031 C 
ATOM     46  C   UNL     1       6.903   1.377  -1.386  1.00  0.00     0.029 A 
ATOM     47  N   UNL     1       6.361   3.193  -2.584  1.00  0.00    -0.354 N 
ATOM     48  C   UNL     1       2.403   4.849  -2.462  1.00  0.00     0.074 A 
ATOM     49  C   UNL     1       1.525   3.725  -2.243  1.00  0.00     0.031 C 
ATOM     50  C   UNL     1       7.977   1.722  -2.107  1.00  0.00     0.029 A 
ATOM     51  C   UNL     1       7.678   2.938  -2.866  1.00  0.00     0.049 A 
ATOM     52  H   UNL     1       5.847   3.920  -3.005  1.00  0.00     0.167 HD
ATOM     53  C   UNL     1       2.001   6.045  -2.963  1.00  0.00     0.034 A 
ATOM     54  C   UNL     1       8.563   3.635  -3.606  1.00  0.00     0.034 A 
ATOM     55  C   UNL     1       2.932   6.990  -3.526  1.00  0.00     0.049 A 
ATOM     56  C   UNL     1       8.154   4.978  -4.150  1.00  0.00     0.074 A 
ATOM     57  C   UNL     1       2.685   8.245  -4.051  1.00  0.00     0.029 A 
ATOM     58  N   UNL     1       4.276   6.720  -3.749  1.00  0.00    -0.354 N 
ATOM     59  N   UNL     1       6.983   5.571  -4.090  1.00  0.00    -0.248 NA
ATOM     60  C   UNL     1       9.194   5.773  -4.813  1.00  0.00     0.031 C 
ATOM     61  C   UNL     1       3.843   8.669  -4.709  1.00  0.00     0.029 A 
ATOM     62  C   UNL     1       4.851   7.745  -4.476  1.00  0.00     0.049 A 
ATOM     63  H   UNL     1       4.750   5.916  -3.436  1.00  0.00     0.167 HD
ATOM     64  C   UNL     1       7.150   6.819  -4.686  1.00  0.00     0.074 A 
ATOM     65  C   UNL     1       8.543   6.900  -5.079  1.00  0.00     0.031 C 
ATOM     66  C   UNL     1       6.238   7.807  -4.881  1.00  0.00     0.034 A 
BRANCH  53  67
ATOM     67  C   UNL     1       0.528   6.417  -2.946  1.00  0.00     0.023 A 
ATOM     68  C   UNL     1      -0.164   6.782  -4.121  1.00  0.00     0.031 A 
ATOM     69  C   UNL     1      -0.131   6.611  -1.716  1.00  0.00     0.131 A 
ATOM     70  C   UNL     1      -1.445   7.356  -4.035  1.00  0.00     0.055 A 
ATOM     71  C   UNL     1      -1.415   7.159  -1.638  1.00  0.00     0.041 A 
ATOM     72  F   UNL     1       0.480   6.303  -0.560  1.00  0.00    -0.206 F 
ATOM     73  C   UNL     1      -2.073   7.545  -2.800  1.00  0.00     0.022 A 
BRANCH  70  74
ATOM     74  S   UNL     1      -2.329   7.942  -5.510  1.00  0.00     0.124 S 
ATOM     75  O   UNL     1      -3.579   7.187  -5.430  1.00  0.00    -0.237 OA
ATOM     76  O   UNL     1      -2.452   9.373  -5.247  1.00  0.00    -0.237 OA
ATOM     77  O   UNL     1      -1.452   7.572  -6.614  1.00  0.00    -0.744 OA
ENDBRANCH  70  74
ENDBRANCH  53  67
BRANCH  54  78
ATOM     78  C   UNL     1       9.952   3.102  -3.679  1.00  0.00     0.023 A 
ATOM     79  C   UNL     1      10.191   1.846  -4.271  1.00  0.00     0.031 A 
ATOM     80  C   UNL     1      10.986   3.700  -2.942  1.00  0.00     0.131 A 
ATOM     81  C   UNL     1      11.395   1.180  -4.013  1.00  0.00     0.055 A 
ATOM     82  C   UNL     1      12.216   3.067  -2.761  1.00  0.00     0.041 A 
ATOM     83  F   UNL     1      10.790   4.881  -2.337  1.00  0.00    -0.206 F 
ATOM     84  C   UNL     1      12.414   1.788  -3.273  1.00  0.00     0.022 A 
BRANCH  81  85
ATOM     85  S   UNL     1      11.584  -0.577  -4.435  1.00  0.00     0.124 S 
ATOM     86  O   UNL     1      12.701  -0.545  -5.373  1.00  0.00    -0.237 OA
ATOM     87  O   UNL     1      11.870  -1.168  -3.130  1.00  0.00    -0.237 OA
ATOM     88  O   UNL     1      10.290  -0.936  -5.005  1.00  0.00    -0.744 OA
ENDBRANCH  81  85
ENDBRANCH  54  78
BRANCH  66  89
ATOM     89  C   UNL     1       6.675   9.079  -5.570  1.00  0.00     0.023 A 
ATOM     90  C   UNL     1       6.526  10.312  -4.905  1.00  0.00     0.031 A 
ATOM     91  C   UNL     1       7.055   9.095  -6.923  1.00  0.00     0.131 A 
ATOM     92  C   UNL     1       6.702  11.509  -5.607  1.00  0.00     0.055 A 
ATOM     93  C   UNL     1       7.290  10.292  -7.602  1.00  0.00     0.041 A 
ATOM     94  F   UNL     1       7.189   7.949  -7.609  1.00  0.00    -0.206 F 
ATOM     95  C   UNL     1       7.095  11.506  -6.949  1.00  0.00     0.022 A 
BRANCH  92  96
ATOM     96  S   UNL     1       6.307  13.105  -4.840  1.00  0.00     0.124 S 
ATOM     97  O   UNL     1       7.605  13.776  -4.858  1.00  0.00    -0.237 OA
ATOM     98  O   UNL     1       5.310  13.649  -5.758  1.00  0.00    -0.237 OA
ATOM     99  O   UNL     1       5.811  12.748  -3.515  1.00  0.00    -0.744 OA
ENDBRANCH  92  96
ENDBRANCH  66  89
ENDBRANCH  40  41
ENDBRANCH  33  35
ENDBRANCH  32  33
ENDBRANCH  31  32
ENDBRANCH  30  31
ENDBRANCH  29  30
ENDBRANCH  28  29
ENDBRANCH   1  28
TORSDOF 23
