REMARK SMILES C[C@H](NC(=O)c1ccncc1/C=C/C(=O)OCCOCCOCCOC(=O)c1ccc(-c2c3nc(c(-c4cc(S(=O)(=O)[O-])ccc4F)c4ccc([nH]4)c(-c4cc(S(=O)(=O)[O-])ccc4F)c4nc(c(-c5cc(S(=O)(=O)[O-])ccc5F)c5ccc2[nH]5)C=C4)C=C3)cc1)c1ccco1
REMARK SMILES IDX 20 1 19 2 18 3 17 4 16 5 14 6 15 7 13 8 12 9 11 10 6 11 7 12
REMARK SMILES IDX 8 13 10 14 9 15 4 16 3 17 5 19 2 20 1 21 91 22 92 23 95 24
REMARK SMILES IDX 93 25 94 26 21 27 22 28 23 29 24 30 25 31 26 32 27 33 28 34
REMARK SMILES IDX 29 35 90 36 30 37 89 38 31 39 32 40 33 41 83 42 34 43 88 44
REMARK SMILES IDX 82 45 84 46 35 47 87 48 81 49 80 50 36 52 68 53 48 54 67 55
REMARK SMILES IDX 49 56 52 57 66 58 85 59 50 60 51 61 65 63 86 64 53 65 37 66
REMARK SMILES IDX 38 67 46 68 39 69 45 70 47 71 44 72 40 73 41 74 42 75 43 76
REMARK SMILES IDX 69 77 70 78 78 79 71 80 77 81 79 82 76 83 72 84 73 85 74 86
REMARK SMILES IDX 75 87 54 88 55 89 63 90 56 91 62 92 64 93 61 94 57 95 58 96
REMARK SMILES IDX 59 97 60 98
REMARK H PARENT 3 18 84 51 52 62
REMARK Flexibility Score: inf
ROOT
ATOM      1  C   UNL     1       3.070   2.219  -6.972  1.00  0.00     0.188 C 
ENDROOT
BRANCH   1   2
ATOM      2  O   UNL     1       3.065   1.380  -8.120  1.00  0.00    -0.376 OA
BRANCH   2   3
ATOM      3  C   UNL     1       2.816  -0.012  -7.979  1.00  0.00     0.202 C 
BRANCH   3   4
ATOM      4  C   UNL     1       3.548  -0.839  -6.909  1.00  0.00     0.261 C 
BRANCH   4   5
ATOM      5  O   UNL     1       3.585  -0.262  -5.593  1.00  0.00    -0.460 OA
BRANCH   5   6
ATOM      6  C   UNL     1       4.824   0.015  -5.122  1.00  0.00     0.330 C 
ATOM      7  O   UNL     1       5.880  -0.205  -5.697  1.00  0.00    -0.247 OA
BRANCH   6   8
ATOM      8  C   UNL     1       4.810   0.732  -3.828  1.00  0.00     0.094 C 
ATOM      9  C   UNL     1       3.793   0.833  -2.953  1.00  0.00     0.018 C 
BRANCH   9  10
ATOM     10  C   UNL     1       3.953   1.530  -1.656  1.00  0.00     0.006 A 
ATOM     11  C   UNL     1       3.373   1.100  -0.450  1.00  0.00     0.050 A 
ATOM     12  C   UNL     1       3.722   1.695   0.767  1.00  0.00     0.034 A 
ATOM     13  C   UNL     1       4.538   2.807   0.734  1.00  0.00     0.112 A 
ATOM     14  C   UNL     1       4.718   2.693  -1.562  1.00  0.00     0.119 A 
ATOM     15  N   UNL     1       5.011   3.339  -0.407  1.00  0.00    -0.264 NA
BRANCH  11  16
ATOM     16  C   UNL     1       2.388   0.004  -0.426  1.00  0.00     0.252 C 
ATOM     17  N   UNL     1       1.111   0.215   0.029  1.00  0.00    -0.342 N 
ATOM     18  H   UNL     1       0.512  -0.551  -0.127  1.00  0.00     0.164 HD
ATOM     19  O   UNL     1       2.700  -1.105  -0.850  1.00  0.00    -0.269 OA
BRANCH  17  20
ATOM     20  C   UNL     1       0.447   1.345   0.702  1.00  0.00     0.145 C 
ATOM     21  C   UNL     1       0.672   2.700   0.019  1.00  0.00     0.039 C 
BRANCH  20  22
ATOM     22  C   UNL     1      -1.028   1.032   0.821  1.00  0.00     0.125 A 
ATOM     23  C   UNL     1      -1.778  -0.132   0.879  1.00  0.00     0.048 A 
ATOM     24  O   UNL     1      -1.873   2.103   0.941  1.00  0.00    -0.467 OA
ATOM     25  C   UNL     1      -3.137   0.258   0.980  1.00  0.00     0.042 A 
ATOM     26  C   UNL     1      -3.139   1.630   1.012  1.00  0.00     0.195 A 
ENDBRANCH  20  22
ENDBRANCH  17  20
ENDBRANCH  11  16
ENDBRANCH   9  10
ENDBRANCH   6   8
ENDBRANCH   5   6
ENDBRANCH   4   5
ENDBRANCH   3   4
ENDBRANCH   2   3
ENDBRANCH   1   2
BRANCH   1  27
ATOM     27  C   UNL     1       1.902   2.144  -5.966  1.00  0.00     0.188 C 
BRANCH  27  28
ATOM     28  O   UNL     1       0.989   1.100  -6.212  1.00  0.00    -0.376 OA
BRANCH  28  29
ATOM     29  C   UNL     1      -0.229   1.379  -6.880  1.00  0.00     0.202 C 
BRANCH  29  30
ATOM     30  C   UNL     1      -0.423   2.489  -7.935  1.00  0.00     0.261 C 
BRANCH  30  31
ATOM     31  O   UNL     1       0.543   3.540  -8.008  1.00  0.00    -0.460 OA
BRANCH  31  32
ATOM     32  C   UNL     1       0.274   4.661  -7.306  1.00  0.00     0.338 C 
ATOM     33  O   UNL     1      -0.677   4.843  -6.550  1.00  0.00    -0.246 OA
BRANCH  32  34
ATOM     34  C   UNL     1       1.409   5.587  -7.457  1.00  0.00     0.060 A 
ATOM     35  C   UNL     1       2.208   5.871  -6.343  1.00  0.00     0.016 A 
ATOM     36  C   UNL     1       1.678   6.182  -8.693  1.00  0.00     0.016 A 
ATOM     37  C   UNL     1       3.272   6.767  -6.458  1.00  0.00     0.010 A 
ATOM     38  C   UNL     1       2.732   7.094  -8.800  1.00  0.00     0.010 A 
ATOM     39  C   UNL     1       3.520   7.410  -7.678  1.00  0.00    -0.014 A 
BRANCH  39  40
ATOM     40  C   UNL     1       4.487   8.535  -7.742  1.00  0.00     0.031 A 
ATOM     41  C   UNL     1       3.956   9.941  -7.670  1.00  0.00     0.074 A 
ATOM     42  C   UNL     1       5.810   8.316  -7.849  1.00  0.00     0.049 A 
ATOM     43  N   UNL     1       4.592  11.079  -7.775  1.00  0.00    -0.248 NA
ATOM     44  C   UNL     1       2.507  10.076  -7.453  1.00  0.00     0.031 C 
ATOM     45  C   UNL     1       6.447   7.000  -7.878  1.00  0.00     0.029 A 
ATOM     46  N   UNL     1       6.855   9.199  -7.962  1.00  0.00    -0.354 N 
ATOM     47  C   UNL     1       3.623  12.067  -7.638  1.00  0.00     0.074 A 
ATOM     48  C   UNL     1       2.352  11.391  -7.484  1.00  0.00     0.031 C 
ATOM     49  C   UNL     1       7.775   7.164  -8.017  1.00  0.00     0.029 A 
ATOM     50  C   UNL     1       8.078   8.590  -8.129  1.00  0.00     0.049 A 
ATOM     51  H   UNL     1       6.741  10.176  -7.927  1.00  0.00     0.167 HD
ATOM     52  C   UNL     1       3.780  13.414  -7.632  1.00  0.00     0.034 A 
ATOM     53  C   UNL     1       9.292   9.123  -8.377  1.00  0.00     0.034 A 
ATOM     54  C   UNL     1       5.051  14.073  -7.809  1.00  0.00     0.049 A 
ATOM     55  C   UNL     1       9.428  10.626  -8.473  1.00  0.00     0.074 A 
ATOM     56  C   UNL     1       5.324  15.430  -7.821  1.00  0.00     0.029 A 
ATOM     57  N   UNL     1       6.261  13.425  -8.023  1.00  0.00    -0.354 N 
ATOM     58  N   UNL     1       8.506  11.552  -8.338  1.00  0.00    -0.248 NA
ATOM     59  C   UNL     1      10.771  11.155  -8.748  1.00  0.00     0.031 C 
ATOM     60  C   UNL     1       6.681  15.603  -8.116  1.00  0.00     0.029 A 
ATOM     61  C   UNL     1       7.275  14.354  -8.201  1.00  0.00     0.049 A 
ATOM     62  H   UNL     1       6.381  12.448  -8.044  1.00  0.00     0.167 HD
ATOM     63  C   UNL     1       9.167  12.772  -8.476  1.00  0.00     0.074 A 
ATOM     64  C   UNL     1      10.565  12.463  -8.691  1.00  0.00     0.031 C 
ATOM     65  C   UNL     1       8.666  14.033  -8.422  1.00  0.00     0.034 A 
BRANCH  52  66
ATOM     66  C   UNL     1       2.534  14.254  -7.482  1.00  0.00     0.023 A 
ATOM     67  C   UNL     1       1.748  14.211  -6.316  1.00  0.00     0.031 A 
ATOM     68  C   UNL     1       2.107  15.084  -8.533  1.00  0.00     0.131 A 
ATOM     69  C   UNL     1       0.541  14.924  -6.259  1.00  0.00     0.055 A 
ATOM     70  C   UNL     1       0.947  15.856  -8.437  1.00  0.00     0.041 A 
ATOM     71  F   UNL     1       2.801  15.148  -9.680  1.00  0.00    -0.206 F 
ATOM     72  C   UNL     1       0.149  15.767  -7.301  1.00  0.00     0.022 A 
BRANCH  69  73
ATOM     73  S   UNL     1      -0.580  14.620  -4.866  1.00  0.00     0.124 S 
ATOM     74  O   UNL     1      -0.814  13.182  -4.984  1.00  0.00    -0.237 OA
ATOM     75  O   UNL     1       0.215  15.046  -3.721  1.00  0.00    -0.237 OA
ATOM     76  O   UNL     1      -1.739  15.458  -5.169  1.00  0.00    -0.744 OA
ENDBRANCH  69  73
ENDBRANCH  52  66
BRANCH  53  77
ATOM     77  C   UNL     1      10.477   8.243  -8.605  1.00  0.00     0.023 A 
ATOM     78  C   UNL     1      11.597   8.294  -7.761  1.00  0.00     0.031 A 
ATOM     79  C   UNL     1      10.534   7.388  -9.721  1.00  0.00     0.131 A 
ATOM     80  C   UNL     1      12.745   7.548  -8.074  1.00  0.00     0.055 A 
ATOM     81  C   UNL     1      11.655   6.602  -9.994  1.00  0.00     0.041 A 
ATOM     82  F   UNL     1       9.495   7.304 -10.567  1.00  0.00    -0.206 F 
ATOM     83  C   UNL     1      12.776   6.691  -9.176  1.00  0.00     0.022 A 
BRANCH  80  84
ATOM     84  S   UNL     1      14.241   7.795  -7.076  1.00  0.00     0.124 S 
ATOM     85  O   UNL     1      14.470   9.227  -7.236  1.00  0.00    -0.237 OA
ATOM     86  O   UNL     1      13.799   7.360  -5.755  1.00  0.00    -0.237 OA
ATOM     87  O   UNL     1      15.226   6.929  -7.719  1.00  0.00    -0.744 OA
ENDBRANCH  80  84
ENDBRANCH  53  77
BRANCH  65  88
ATOM     88  C   UNL     1       9.650  15.174  -8.543  1.00  0.00     0.023 A 
ATOM     89  C   UNL     1      10.363  15.422  -9.730  1.00  0.00     0.031 A 
ATOM     90  C   UNL     1       9.879  16.026  -7.447  1.00  0.00     0.131 A 
ATOM     91  C   UNL     1      11.310  16.458  -9.774  1.00  0.00     0.055 A 
ATOM     92  C   UNL     1      10.775  17.093  -7.517  1.00  0.00     0.041 A 
ATOM     93  F   UNL     1       9.229  15.836  -6.287  1.00  0.00    -0.206 F 
ATOM     94  C   UNL     1      11.507  17.306  -8.681  1.00  0.00     0.022 A 
BRANCH  91  95
ATOM     95  S   UNL     1      12.352  16.627 -11.249  1.00  0.00     0.124 S 
ATOM     96  O   UNL     1      12.999  15.321 -11.315  1.00  0.00    -0.237 OA
ATOM     97  O   UNL     1      11.372  16.905 -12.294  1.00  0.00    -0.237 OA
ATOM     98  O   UNL     1      13.237  17.742 -10.919  1.00  0.00    -0.744 OA
ENDBRANCH  91  95
ENDBRANCH  65  88
ENDBRANCH  39  40
ENDBRANCH  32  34
ENDBRANCH  31  32
ENDBRANCH  30  31
ENDBRANCH  29  30
ENDBRANCH  28  29
ENDBRANCH  27  28
ENDBRANCH   1  27
TORSDOF 24
