REMARK SMILES C[C@H]1[NH2+]CC[C@H]1C(=O)N1CCC(C(=O)OCCOCCOCCOC(=O)c2ccc(-c3c4nc(c(-c5cc(S(=O)(=O)[O-])ccc5F)c5ccc([nH]5)c(-c5cc(S(=O)(=O)[O-])ccc5F)c5nc(c(-c6cc(S(=O)(=O)[O-])ccc6F)c6ccc3[nH]6)C=C5)C=C4)cc2)CC1
REMARK SMILES IDX 20 1 19 2 18 3 17 4 16 5 15 6 13 7 14 8 12 9 7 10 8 11 9 12
REMARK SMILES IDX 10 13 91 14 11 15 90 16 6 17 1 18 2 19 3 20 4 21 5 24 21 25
REMARK SMILES IDX 22 26 23 27 24 28 25 29 26 30 27 31 28 32 89 33 29 34 88 35
REMARK SMILES IDX 30 36 31 37 32 38 82 39 33 40 87 41 81 42 83 43 34 44 86 45
REMARK SMILES IDX 80 46 79 47 35 49 67 50 47 51 66 52 48 53 51 54 65 55 84 56
REMARK SMILES IDX 49 57 50 58 64 60 85 61 52 62 36 63 37 64 45 65 38 66 44 67
REMARK SMILES IDX 46 68 43 69 39 70 40 71 41 72 42 73 68 74 69 75 77 76 70 77
REMARK SMILES IDX 76 78 78 79 75 80 71 81 72 82 73 83 74 84 53 85 54 86 62 87
REMARK SMILES IDX 55 88 61 89 63 90 60 91 56 92 57 93 58 94 59 95
REMARK H PARENT 3 22 3 23 83 48 51 59
REMARK Flexibility Score: inf
ROOT
ATOM      1  C   UNL     1       4.297   6.810   3.519  1.00  0.00     0.188 C 
ENDROOT
BRANCH   1   2
ATOM      2  C   UNL     1       5.528   6.467   4.361  1.00  0.00     0.188 C 
BRANCH   2   3
ATOM      3  O   UNL     1       6.815   6.841   3.891  1.00  0.00    -0.376 OA
BRANCH   3   4
ATOM      4  C   UNL     1       7.105   6.784   2.498  1.00  0.00     0.202 C 
BRANCH   4   5
ATOM      5  C   UNL     1       6.864   5.472   1.730  1.00  0.00     0.261 C 
BRANCH   5   6
ATOM      6  O   UNL     1       5.491   5.022   1.655  1.00  0.00    -0.463 OA
BRANCH   6   7
ATOM      7  C   UNL     1       5.228   3.839   2.262  1.00  0.00     0.309 C 
ATOM      8  O   UNL     1       6.082   3.158   2.826  1.00  0.00    -0.252 OA
BRANCH   7   9
ATOM      9  C   UNL     1       3.766   3.399   2.254  1.00  0.00     0.103 C 
ATOM     10  C   UNL     1       1.044   1.966  -0.163  1.00  0.00     0.231 C 
ATOM     11  O   UNL     1       1.461   2.712  -1.052  1.00  0.00    -0.274 OA
ATOM     12  N   UNL     1       1.358   2.189   1.171  1.00  0.00    -0.342 N 
ATOM     13  C   UNL     1       1.299   3.554   1.666  1.00  0.00     0.120 C 
ATOM     14  C   UNL     1       2.365   1.383   1.836  1.00  0.00     0.120 C 
ATOM     15  C   UNL     1       2.664   4.259   1.597  1.00  0.00     0.037 C 
ATOM     16  C   UNL     1       3.738   2.001   1.628  1.00  0.00     0.037 C 
BRANCH  10  17
ATOM     17  C   UNL     1       0.028   0.870  -0.484  1.00  0.00     0.142 C 
ATOM     18  C   UNL     1       1.635  -1.193  -0.167  1.00  0.00     0.076 C 
ATOM     19  C   UNL     1       0.469  -0.536  -0.888  1.00  0.00     0.192 C 
ATOM     20  N   UNL     1      -0.735  -1.377  -0.692  1.00  0.00    -0.343 N 
ATOM     21  C   UNL     1      -1.681  -0.659   0.167  1.00  0.00     0.261 C 
ATOM     22  H   UNL     1      -0.469  -2.257  -0.249  1.00  0.00     0.346 HD
ATOM     23  H   UNL     1      -1.168  -1.576  -1.594  1.00  0.00     0.346 HD
ATOM     24  C   UNL     1      -1.041   0.654   0.569  1.00  0.00     0.081 C 
ENDBRANCH  10  17
ENDBRANCH   7   9
ENDBRANCH   6   7
ENDBRANCH   5   6
ENDBRANCH   4   5
ENDBRANCH   3   4
ENDBRANCH   2   3
ENDBRANCH   1   2
BRANCH   1  25
ATOM     25  O   UNL     1       4.539   7.626   2.395  1.00  0.00    -0.376 OA
BRANCH  25  26
ATOM     26  C   UNL     1       3.883   8.882   2.339  1.00  0.00     0.202 C 
BRANCH  26  27
ATOM     27  C   UNL     1       4.173   9.850   3.497  1.00  0.00     0.261 C 
BRANCH  27  28
ATOM     28  O   UNL     1       3.887   9.347   4.817  1.00  0.00    -0.460 OA
BRANCH  28  29
ATOM     29  C   UNL     1       2.590   9.067   5.094  1.00  0.00     0.338 C 
ATOM     30  O   UNL     1       1.635   9.271   4.361  1.00  0.00    -0.246 OA
BRANCH  29  31
ATOM     31  C   UNL     1       2.552   8.213   6.309  1.00  0.00     0.060 A 
ATOM     32  C   UNL     1       1.860   6.993   6.251  1.00  0.00     0.016 A 
ATOM     33  C   UNL     1       3.211   8.587   7.481  1.00  0.00     0.016 A 
ATOM     34  C   UNL     1       1.782   6.173   7.379  1.00  0.00     0.010 A 
ATOM     35  C   UNL     1       3.114   7.774   8.618  1.00  0.00     0.010 A 
ATOM     36  C   UNL     1       2.362   6.584   8.586  1.00  0.00    -0.014 A 
BRANCH  36  37
ATOM     37  C   UNL     1       1.969   5.907   9.852  1.00  0.00     0.031 A 
ATOM     38  C   UNL     1       0.884   6.545  10.684  1.00  0.00     0.074 A 
ATOM     39  C   UNL     1       2.508   4.737  10.241  1.00  0.00     0.049 A 
ATOM     40  N   UNL     1       0.375   6.166  11.827  1.00  0.00    -0.248 NA
ATOM     41  C   UNL     1       0.300   7.784  10.146  1.00  0.00     0.031 C 
ATOM     42  C   UNL     1       3.527   3.987   9.508  1.00  0.00     0.029 A 
ATOM     43  N   UNL     1       2.268   3.972  11.358  1.00  0.00    -0.354 N 
ATOM     44  C   UNL     1      -0.586   7.120  12.148  1.00  0.00     0.074 A 
ATOM     45  C   UNL     1      -0.552   8.118  11.101  1.00  0.00     0.031 C 
ATOM     46  C   UNL     1       3.827   2.872  10.198  1.00  0.00     0.029 A 
ATOM     47  C   UNL     1       3.050   2.843  11.438  1.00  0.00     0.049 A 
ATOM     48  H   UNL     1       1.598   4.211  12.038  1.00  0.00     0.167 HD
ATOM     49  C   UNL     1      -1.429   7.158  13.209  1.00  0.00     0.034 A 
ATOM     50  C   UNL     1       3.142   1.907  12.406  1.00  0.00     0.034 A 
ATOM     51  C   UNL     1      -1.448   6.168  14.258  1.00  0.00     0.049 A 
ATOM     52  C   UNL     1       2.255   2.017  13.628  1.00  0.00     0.074 A 
ATOM     53  C   UNL     1      -2.263   6.112  15.375  1.00  0.00     0.029 A 
ATOM     54  N   UNL     1      -0.606   5.065  14.328  1.00  0.00    -0.354 N 
ATOM     55  N   UNL     1       1.347   2.922  13.917  1.00  0.00    -0.248 NA
ATOM     56  C   UNL     1       2.397   0.967  14.646  1.00  0.00     0.031 C 
ATOM     57  C   UNL     1      -1.861   5.026  16.159  1.00  0.00     0.029 A 
ATOM     58  C   UNL     1      -0.861   4.343  15.485  1.00  0.00     0.049 A 
ATOM     59  H   UNL     1       0.073   4.830  13.655  1.00  0.00     0.167 HD
ATOM     60  C   UNL     1       0.783   2.522  15.129  1.00  0.00     0.074 A 
ATOM     61  C   UNL     1       1.442   1.290  15.505  1.00  0.00     0.031 C 
ATOM     62  C   UNL     1      -0.197   3.116  15.860  1.00  0.00     0.034 A 
BRANCH  49  63
ATOM     63  C   UNL     1      -2.361   8.343  13.308  1.00  0.00     0.023 A 
ATOM     64  C   UNL     1      -3.348   8.595  12.339  1.00  0.00     0.031 A 
ATOM     65  C   UNL     1      -2.234   9.257  14.370  1.00  0.00     0.131 A 
ATOM     66  C   UNL     1      -4.115   9.768  12.409  1.00  0.00     0.055 A 
ATOM     67  C   UNL     1      -3.061  10.376  14.482  1.00  0.00     0.041 A 
ATOM     68  F   UNL     1      -1.292   9.085  15.311  1.00  0.00    -0.206 F 
ATOM     69  C   UNL     1      -3.998  10.646  13.489  1.00  0.00     0.022 A 
BRANCH  66  70
ATOM     70  S   UNL     1      -5.154  10.210  10.989  1.00  0.00     0.124 S 
ATOM     71  O   UNL     1      -4.170  10.270   9.911  1.00  0.00    -0.237 OA
ATOM     72  O   UNL     1      -6.098   9.100  10.931  1.00  0.00    -0.237 OA
ATOM     73  O   UNL     1      -5.727  11.498  11.372  1.00  0.00    -0.744 OA
ENDBRANCH  66  70
ENDBRANCH  49  63
BRANCH  50  74
ATOM     74  C   UNL     1       4.131   0.792  12.299  1.00  0.00     0.023 A 
ATOM     75  C   UNL     1       3.719  -0.551  12.260  1.00  0.00     0.031 A 
ATOM     76  C   UNL     1       5.513   1.053  12.316  1.00  0.00     0.131 A 
ATOM     77  C   UNL     1       4.674  -1.580  12.294  1.00  0.00     0.055 A 
ATOM     78  C   UNL     1       6.460   0.027  12.289  1.00  0.00     0.041 A 
ATOM     79  F   UNL     1       5.965   2.316  12.362  1.00  0.00    -0.206 F 
ATOM     80  C   UNL     1       6.042  -1.300  12.293  1.00  0.00     0.022 A 
BRANCH  77  81
ATOM     81  S   UNL     1       4.101  -3.296  12.441  1.00  0.00     0.124 S 
ATOM     82  O   UNL     1       3.344  -3.249  13.687  1.00  0.00    -0.237 OA
ATOM     83  O   UNL     1       3.319  -3.459  11.220  1.00  0.00    -0.237 OA
ATOM     84  O   UNL     1       5.342  -4.066  12.491  1.00  0.00    -0.744 OA
ENDBRANCH  77  81
ENDBRANCH  50  74
BRANCH  62  85
ATOM     85  C   UNL     1      -0.661   2.400  17.111  1.00  0.00     0.023 A 
ATOM     86  C   UNL     1       0.192   2.173  18.205  1.00  0.00     0.031 A 
ATOM     87  C   UNL     1      -1.978   1.909  17.194  1.00  0.00     0.131 A 
ATOM     88  C   UNL     1      -0.254   1.409  19.296  1.00  0.00     0.055 A 
ATOM     89  C   UNL     1      -2.439   1.217  18.315  1.00  0.00     0.041 A 
ATOM     90  F   UNL     1      -2.842   2.091  16.182  1.00  0.00    -0.206 F 
ATOM     91  C   UNL     1      -1.570   0.947  19.366  1.00  0.00     0.022 A 
BRANCH  88  92
ATOM     92  S   UNL     1       0.949   0.913  20.561  1.00  0.00     0.124 S 
ATOM     93  O   UNL     1       1.973   0.249  19.761  1.00  0.00    -0.237 OA
ATOM     94  O   UNL     1       1.329   2.193  21.149  1.00  0.00    -0.237 OA
ATOM     95  O   UNL     1       0.180   0.032  21.438  1.00  0.00    -0.744 OA
ENDBRANCH  88  92
ENDBRANCH  62  85
ENDBRANCH  36  37
ENDBRANCH  29  31
ENDBRANCH  28  29
ENDBRANCH  27  28
ENDBRANCH  26  27
ENDBRANCH  25  26
ENDBRANCH   1  25
TORSDOF 21
