REMARK SMILES C/C=C(\C)[C@H]1C(C)=C[C@H]2CC[C@@H](OS(=O)(=O)[O-])[C@@H](C)[C@H]2[C@H]1/C=C/C=C/C(=O)OCCOCCOCCOC(=O)c1ccc(-c2c3nc(c(-c4cc(S(=O)(=O)[O-])ccc4F)c4ccc([nH]4)c(-c4cc(S(=O)(=O)[O-])ccc4F)c4nc(c(-c5cc(S(=O)(=O)[O-])ccc5F)c5ccc2[nH]5)C=C4)C=C3)cc1
REMARK SMILES IDX 32 1 31 2 30 3 29 4 28 5 26 6 27 7 25 8 24 9 23 10 22 11
REMARK SMILES IDX 21 12 5 13 6 14 7 15 8 16 20 17 9 18 18 19 10 20 12 21 19 22
REMARK SMILES IDX 11 23 3 24 1 25 2 26 4 27 13 28 14 29 15 30 16 31 17 32
REMARK SMILES IDX 33 33 34 34 35 35 36 36 37 37 38 38 39 39 40 40 41 41 102 42
REMARK SMILES IDX 42 43 101 44 43 45 44 46 45 47 95 48 46 49 100 50 94 51
REMARK SMILES IDX 96 52 47 53 99 54 93 55 92 56 48 58 80 59 60 60 79 61 61 62
REMARK SMILES IDX 64 63 78 64 97 65 62 66 63 67 77 69 98 70 65 71 49 72 50 73
REMARK SMILES IDX 58 74 51 75 57 76 59 77 56 78 52 79 53 80 54 81 55 82 81 83
REMARK SMILES IDX 82 84 90 85 83 86 89 87 91 88 88 89 84 90 85 91 86 92 87 93
REMARK SMILES IDX 66 94 67 95 75 96 68 97 74 98 76 99 73 100 69 101 70 102
REMARK SMILES IDX 71 103 72 104
REMARK H PARENT 96 57 64 68
REMARK Flexibility Score: inf
ROOT
ATOM      1  C   UNL     1       5.500   0.951  -7.493  1.00  0.00     0.188 C 
ENDROOT
BRANCH   1   2
ATOM      2  O   UNL     1       6.737   0.245  -7.472  1.00  0.00    -0.376 OA
BRANCH   2   3
ATOM      3  C   UNL     1       7.038  -0.647  -6.406  1.00  0.00     0.202 C 
BRANCH   3   4
ATOM      4  C   UNL     1       6.875  -0.210  -4.941  1.00  0.00     0.261 C 
BRANCH   4   5
ATOM      5  O   UNL     1       5.669   0.508  -4.659  1.00  0.00    -0.460 OA
BRANCH   5   6
ATOM      6  C   UNL     1       5.824   1.817  -4.350  1.00  0.00     0.330 C 
ATOM      7  O   UNL     1       6.880   2.401  -4.162  1.00  0.00    -0.247 OA
BRANCH   6   8
ATOM      8  C   UNL     1       4.536   2.536  -4.397  1.00  0.00     0.093 C 
ATOM      9  C   UNL     1       3.339   1.950  -4.257  1.00  0.00     0.007 C 
BRANCH   9  10
ATOM     10  C   UNL     1       2.125   2.732  -4.218  1.00  0.00    -0.004 C 
ATOM     11  C   UNL     1       1.210   2.429  -3.285  1.00  0.00    -0.022 C 
BRANCH  11  12
ATOM     12  C   UNL     1       0.195   3.404  -2.695  1.00  0.00     0.027 C 
ATOM     13  C   UNL     1      -0.710   2.822  -1.503  1.00  0.00     0.047 C 
ATOM     14  C   UNL     1      -0.875   3.749  -0.292  1.00  0.00    -0.069 C 
ATOM     15  C   UNL     1      -1.462   3.212   0.987  1.00  0.00     0.040 C 
ATOM     16  C   UNL     1      -0.605   5.065  -0.372  1.00  0.00    -0.024 C 
ATOM     17  C   UNL     1       0.872   4.798  -2.390  1.00  0.00     0.009 C 
ATOM     18  C   UNL     1      -0.084   5.724  -1.615  1.00  0.00     0.016 C 
ATOM     19  C   UNL     1       2.320   4.756  -1.782  1.00  0.00     0.021 C 
ATOM     20  C   UNL     1       0.563   7.088  -1.323  1.00  0.00     0.011 C 
ATOM     21  C   UNL     1       2.894   6.164  -1.506  1.00  0.00     0.141 C 
ATOM     22  C   UNL     1       2.505   3.824  -0.579  1.00  0.00     0.011 C 
ATOM     23  C   UNL     1       1.932   6.989  -0.659  1.00  0.00     0.034 C 
BRANCH  13  24
ATOM     24  C   UNL     1      -0.436   1.332  -1.173  1.00  0.00    -0.070 C 
ATOM     25  C   UNL     1       0.940  -0.429   0.095  1.00  0.00     0.035 C 
ATOM     26  C   UNL     1       0.428   0.940  -0.211  1.00  0.00    -0.031 C 
ATOM     27  C   UNL     1      -1.154   0.369  -2.094  1.00  0.00     0.040 C 
ENDBRANCH  13  24
BRANCH  21  28
ATOM     28  O   UNL     1       4.163   5.963  -0.894  1.00  0.00    -0.276 OA
BRANCH  28  29
ATOM     29  S   UNL     1       5.062   7.194  -0.367  1.00  0.00     0.217 S 
ATOM     30  O   UNL     1       5.185   8.184  -1.413  1.00  0.00    -0.213 OA
ATOM     31  O   UNL     1       4.631   7.545   0.965  1.00  0.00    -0.213 OA
ATOM     32  O   UNL     1       6.516   6.520  -0.205  1.00  0.00    -0.726 OA
ENDBRANCH  28  29
ENDBRANCH  21  28
ENDBRANCH  11  12
ENDBRANCH   9  10
ENDBRANCH   6   8
ENDBRANCH   5   6
ENDBRANCH   4   5
ENDBRANCH   3   4
ENDBRANCH   2   3
ENDBRANCH   1   2
BRANCH   1  33
ATOM     33  C   UNL     1       4.182   0.211  -7.184  1.00  0.00     0.188 C 
BRANCH  33  34
ATOM     34  O   UNL     1       4.363  -1.115  -6.739  1.00  0.00    -0.376 OA
BRANCH  34  35
ATOM     35  C   UNL     1       4.041  -2.151  -7.652  1.00  0.00     0.202 C 
BRANCH  35  36
ATOM     36  C   UNL     1       4.479  -2.094  -9.133  1.00  0.00     0.261 C 
BRANCH  36  37
ATOM     37  O   UNL     1       4.568  -0.807  -9.768  1.00  0.00    -0.460 OA
BRANCH  37  38
ATOM     38  C   UNL     1       3.431  -0.311 -10.312  1.00  0.00     0.338 C 
ATOM     39  O   UNL     1       2.333  -0.836 -10.292  1.00  0.00    -0.246 OA
BRANCH  38  40
ATOM     40  C   UNL     1       3.683   1.079 -10.762  1.00  0.00     0.060 A 
ATOM     41  C   UNL     1       3.019   2.127 -10.110  1.00  0.00     0.016 A 
ATOM     42  C   UNL     1       4.534   1.351 -11.837  1.00  0.00     0.016 A 
ATOM     43  C   UNL     1       3.171   3.441 -10.557  1.00  0.00     0.010 A 
ATOM     44  C   UNL     1       4.674   2.671 -12.293  1.00  0.00     0.010 A 
ATOM     45  C   UNL     1       3.965   3.720 -11.678  1.00  0.00    -0.014 A 
BRANCH  45  46
ATOM     46  C   UNL     1       3.911   5.080 -12.281  1.00  0.00     0.031 A 
ATOM     47  C   UNL     1       3.066   5.304 -13.509  1.00  0.00     0.074 A 
ATOM     48  C   UNL     1       4.544   6.120 -11.706  1.00  0.00     0.049 A 
ATOM     49  N   UNL     1       2.830   6.409 -14.170  1.00  0.00    -0.248 NA
ATOM     50  C   UNL     1       2.397   4.118 -14.065  1.00  0.00     0.031 C 
ATOM     51  C   UNL     1       5.366   6.040 -10.499  1.00  0.00     0.029 A 
ATOM     52  N   UNL     1       4.587   7.448 -12.053  1.00  0.00    -0.354 N 
ATOM     53  C   UNL     1       1.988   6.054 -15.219  1.00  0.00     0.074 A 
ATOM     54  C   UNL     1       1.793   4.622 -15.130  1.00  0.00     0.031 C 
ATOM     55  C   UNL     1       5.826   7.268 -10.203  1.00  0.00     0.029 A 
ATOM     56  C   UNL     1       5.364   8.216 -11.216  1.00  0.00     0.049 A 
ATOM     57  H   UNL     1       4.107   7.817 -12.830  1.00  0.00     0.167 HD
ATOM     58  C   UNL     1       1.420   6.848 -16.162  1.00  0.00     0.034 A 
ATOM     59  C   UNL     1       5.678   9.527 -11.268  1.00  0.00     0.034 A 
ATOM     60  C   UNL     1       1.636   8.274 -16.248  1.00  0.00     0.049 A 
ATOM     61  C   UNL     1       5.090  10.379 -12.368  1.00  0.00     0.074 A 
ATOM     62  C   UNL     1       1.097   9.174 -17.152  1.00  0.00     0.029 A 
ATOM     63  N   UNL     1       2.471   9.009 -15.414  1.00  0.00    -0.354 N 
ATOM     64  N   UNL     1       4.274  10.034 -13.339  1.00  0.00    -0.248 NA
ATOM     65  C   UNL     1       5.451  11.802 -12.364  1.00  0.00     0.031 C 
ATOM     66  C   UNL     1       1.671  10.429 -16.921  1.00  0.00     0.029 A 
ATOM     67  C   UNL     1       2.490  10.340 -15.807  1.00  0.00     0.049 A 
ATOM     68  H   UNL     1       2.975   8.638 -14.654  1.00  0.00     0.167 HD
ATOM     69  C   UNL     1       3.999  11.208 -14.040  1.00  0.00     0.074 A 
ATOM     70  C   UNL     1       4.716  12.269 -13.362  1.00  0.00     0.031 C 
ATOM     71  C   UNL     1       3.222  11.393 -15.140  1.00  0.00     0.034 A 
BRANCH  58  72
ATOM     72  C   UNL     1       0.558   6.179 -17.209  1.00  0.00     0.023 A 
ATOM     73  C   UNL     1      -0.625   5.495 -16.877  1.00  0.00     0.031 A 
ATOM     74  C   UNL     1       0.941   6.206 -18.563  1.00  0.00     0.131 A 
ATOM     75  C   UNL     1      -1.340   4.807 -17.871  1.00  0.00     0.055 A 
ATOM     76  C   UNL     1       0.177   5.593 -19.559  1.00  0.00     0.041 A 
ATOM     77  F   UNL     1       2.072   6.821 -18.942  1.00  0.00    -0.206 F 
ATOM     78  C   UNL     1      -0.963   4.875 -19.213  1.00  0.00     0.022 A 
BRANCH  75  79
ATOM     79  S   UNL     1      -2.682   3.695 -17.363  1.00  0.00     0.124 S 
ATOM     80  O   UNL     1      -1.986   2.788 -16.454  1.00  0.00    -0.237 OA
ATOM     81  O   UNL     1      -3.634   4.611 -16.747  1.00  0.00    -0.237 OA
ATOM     82  O   UNL     1      -3.119   3.090 -18.620  1.00  0.00    -0.744 OA
ENDBRANCH  75  79
ENDBRANCH  58  72
BRANCH  59  83
ATOM     83  C   UNL     1       6.619  10.120 -10.271  1.00  0.00     0.023 A 
ATOM     84  C   UNL     1       6.218  11.148  -9.402  1.00  0.00     0.031 A 
ATOM     85  C   UNL     1       7.962   9.704 -10.218  1.00  0.00     0.131 A 
ATOM     86  C   UNL     1       7.158  11.758  -8.555  1.00  0.00     0.055 A 
ATOM     87  C   UNL     1       8.878  10.270  -9.330  1.00  0.00     0.041 A 
ATOM     88  F   UNL     1       8.404   8.732 -11.032  1.00  0.00    -0.206 F 
ATOM     89  C   UNL     1       8.481  11.313  -8.501  1.00  0.00     0.022 A 
BRANCH  86  90
ATOM     90  S   UNL     1       6.652  13.211  -7.593  1.00  0.00     0.124 S 
ATOM     91  O   UNL     1       6.225  14.127  -8.644  1.00  0.00    -0.237 OA
ATOM     92  O   UNL     1       5.593  12.663  -6.752  1.00  0.00    -0.237 OA
ATOM     93  O   UNL     1       7.872  13.594  -6.887  1.00  0.00    -0.744 OA
ENDBRANCH  86  90
ENDBRANCH  59  83
BRANCH  71  94
ATOM     94  C   UNL     1       3.071  12.813 -15.644  1.00  0.00     0.023 A 
ATOM     95  C   UNL     1       4.171  13.563 -16.099  1.00  0.00     0.031 A 
ATOM     96  C   UNL     1       1.814  13.444 -15.620  1.00  0.00     0.131 A 
ATOM     97  C   UNL     1       4.010  14.921 -16.418  1.00  0.00     0.055 A 
ATOM     98  C   UNL     1       1.645  14.771 -16.021  1.00  0.00     0.041 A 
ATOM     99  F   UNL     1       0.724  12.785 -15.193  1.00  0.00    -0.206 F 
ATOM    100  C   UNL     1       2.751  15.524 -16.401  1.00  0.00     0.022 A 
BRANCH  97 101
ATOM    101  S   UNL     1       5.494  15.927 -16.701  1.00  0.00     0.124 S 
ATOM    102  O   UNL     1       6.258  15.688 -15.482  1.00  0.00    -0.237 OA
ATOM    103  O   UNL     1       6.039  15.342 -17.922  1.00  0.00    -0.237 OA
ATOM    104  O   UNL     1       4.965  17.283 -16.846  1.00  0.00    -0.744 OA
ENDBRANCH  97 101
ENDBRANCH  71  94
ENDBRANCH  45  46
ENDBRANCH  38  40
ENDBRANCH  37  38
ENDBRANCH  36  37
ENDBRANCH  35  36
ENDBRANCH  34  35
ENDBRANCH  33  34
ENDBRANCH   1  33
TORSDOF 25
