REMARK SMILES CO[C@H]1C[C@@H](C(=O)OCCOCCOCCOC(=O)c2ccc(-c3c4nc(c(-c5cc(S(=O)(=O)[O-])ccc5F)c5ccc([nH]5)c(-c5cc(S(=O)(=O)[O-])ccc5F)c5nc(c(-c6cc(S(=O)(=O)[O-])ccc6F)c6ccc3[nH]6)C=C5)C=C4)cc2)N(C(=O)Nc2cc(C)cc(F)c2)C1
REMARK SMILES IDX 13 1 12 2 11 3 10 4 9 5 8 6 6 7 7 8 5 9 3 10 4 11 95 12
REMARK SMILES IDX 83 13 2 14 1 15 84 16 85 17 86 18 87 20 88 21 94 22 89 23
REMARK SMILES IDX 92 24 90 25 91 26 93 27 14 28 15 29 16 30 17 31 18 32 19 33
REMARK SMILES IDX 20 34 21 35 82 36 22 37 81 38 23 39 24 40 25 41 75 42 26 43
REMARK SMILES IDX 80 44 74 45 76 46 27 47 79 48 73 49 72 50 28 52 60 53 40 54
REMARK SMILES IDX 59 55 41 56 44 57 58 58 77 59 42 60 43 61 57 63 78 64 45 65
REMARK SMILES IDX 29 66 30 67 38 68 31 69 37 70 39 71 36 72 32 73 33 74 34 75
REMARK SMILES IDX 35 76 61 77 62 78 70 79 63 80 69 81 71 82 68 83 64 84 65 85
REMARK SMILES IDX 66 86 67 87 46 88 47 89 55 90 48 91 54 92 56 93 53 94 49 95
REMARK SMILES IDX 50 96 51 97 52 98
REMARK H PARENT 86 19 76 51 44 62
REMARK Flexibility Score: inf
ROOT
ATOM      1  C   UNL     1       1.702   7.034   0.803  1.00  0.00     0.188 C 
ENDROOT
BRANCH   1   2
ATOM      2  C   UNL     1       1.063   7.743  -0.389  1.00  0.00     0.188 C 
BRANCH   2   3
ATOM      3  O   UNL     1      -0.078   8.523  -0.124  1.00  0.00    -0.376 OA
BRANCH   3   4
ATOM      4  C   UNL     1      -1.386   7.995  -0.064  1.00  0.00     0.202 C 
BRANCH   4   5
ATOM      5  C   UNL     1      -1.765   6.526  -0.322  1.00  0.00     0.261 C 
BRANCH   5   6
ATOM      6  O   UNL     1      -0.777   5.707  -0.963  1.00  0.00    -0.462 OA
BRANCH   6   7
ATOM      7  C   UNL     1      -1.189   4.842  -1.938  1.00  0.00     0.329 C 
ATOM      8  O   UNL     1      -2.321   4.831  -2.410  1.00  0.00    -0.250 OA
BRANCH   7   9
ATOM      9  C   UNL     1      -0.174   3.688  -2.159  1.00  0.00     0.199 C 
ATOM     10  C   UNL     1       0.987   2.060  -0.774  1.00  0.00     0.140 C 
ATOM     11  C   UNL     1      -0.161   3.037  -0.749  1.00  0.00     0.071 C 
ATOM     12  C   UNL     1       2.019   2.842  -1.584  1.00  0.00     0.154 C 
ATOM     13  N   UNL     1       1.279   3.720  -2.513  1.00  0.00    -0.308 N 
BRANCH  10  14
ATOM     14  O   UNL     1       1.481   1.788   0.534  1.00  0.00    -0.380 OA
ATOM     15  C   UNL     1       0.608   0.995   1.326  1.00  0.00     0.195 C 
ENDBRANCH  10  14
BRANCH  13  16
ATOM     16  C   UNL     1       1.905   3.898  -3.732  1.00  0.00     0.322 C 
ATOM     17  O   UNL     1       2.978   3.331  -3.973  1.00  0.00    -0.248 OA
ATOM     18  N   UNL     1       1.417   4.623  -4.767  1.00  0.00    -0.308 N 
ATOM     19  H   UNL     1       1.639   4.237  -5.644  1.00  0.00     0.171 HD
BRANCH  18  20
ATOM     20  C   UNL     1       0.667   5.800  -4.863  1.00  0.00     0.046 A 
ATOM     21  C   UNL     1       0.320   6.333  -6.113  1.00  0.00     0.029 A 
ATOM     22  C   UNL     1       0.350   6.528  -3.745  1.00  0.00     0.065 A 
ATOM     23  C   UNL     1      -0.475   7.496  -6.204  1.00  0.00    -0.046 A 
ATOM     24  C   UNL     1      -0.487   7.628  -3.824  1.00  0.00     0.125 A 
ATOM     25  C   UNL     1      -0.772   8.162  -7.512  1.00  0.00     0.044 C 
ATOM     26  C   UNL     1      -0.927   8.105  -5.036  1.00  0.00     0.042 A 
ATOM     27  F   UNL     1      -0.877   8.252  -2.714  1.00  0.00    -0.207 F 
ENDBRANCH  18  20
ENDBRANCH  13  16
ENDBRANCH   7   9
ENDBRANCH   6   7
ENDBRANCH   5   6
ENDBRANCH   4   5
ENDBRANCH   3   4
ENDBRANCH   2   3
ENDBRANCH   1   2
BRANCH   1  28
ATOM     28  O   UNL     1       1.819   7.714   2.046  1.00  0.00    -0.376 OA
BRANCH  28  29
ATOM     29  C   UNL     1       1.726   9.129   2.066  1.00  0.00     0.202 C 
BRANCH  29  30
ATOM     30  C   UNL     1       2.910   9.942   1.523  1.00  0.00     0.261 C 
BRANCH  30  31
ATOM     31  O   UNL     1       3.373   9.619   0.200  1.00  0.00    -0.460 OA
BRANCH  31  32
ATOM     32  C   UNL     1       4.473   8.824   0.152  1.00  0.00     0.338 C 
ATOM     33  O   UNL     1       5.033   8.306   1.100  1.00  0.00    -0.246 OA
BRANCH  32  34
ATOM     34  C   UNL     1       4.922   8.614  -1.245  1.00  0.00     0.060 A 
ATOM     35  C   UNL     1       5.054   7.303  -1.722  1.00  0.00     0.016 A 
ATOM     36  C   UNL     1       5.394   9.685  -2.008  1.00  0.00     0.016 A 
ATOM     37  C   UNL     1       5.714   7.056  -2.933  1.00  0.00     0.010 A 
ATOM     38  C   UNL     1       6.060   9.433  -3.217  1.00  0.00     0.010 A 
ATOM     39  C   UNL     1       6.267   8.115  -3.668  1.00  0.00    -0.014 A 
BRANCH  39  40
ATOM     40  C   UNL     1       7.198   7.859  -4.806  1.00  0.00     0.031 A 
ATOM     41  C   UNL     1       8.684   8.015  -4.587  1.00  0.00     0.074 A 
ATOM     42  C   UNL     1       6.747   7.510  -6.025  1.00  0.00     0.049 A 
ATOM     43  N   UNL     1       9.667   7.973  -5.452  1.00  0.00    -0.248 NA
ATOM     44  C   UNL     1       9.114   8.258  -3.202  1.00  0.00     0.031 C 
ATOM     45  C   UNL     1       5.348   7.269  -6.372  1.00  0.00     0.029 A 
ATOM     46  N   UNL     1       7.425   7.315  -7.207  1.00  0.00    -0.354 N 
ATOM     47  C   UNL     1      10.831   8.197  -4.721  1.00  0.00     0.074 A 
ATOM     48  C   UNL     1      10.422   8.406  -3.347  1.00  0.00     0.031 C 
ATOM     49  C   UNL     1       5.269   6.979  -7.683  1.00  0.00     0.029 A 
ATOM     50  C   UNL     1       6.603   7.057  -8.280  1.00  0.00     0.049 A 
ATOM     51  H   UNL     1       8.406   7.355  -7.277  1.00  0.00     0.167 HD
ATOM     52  C   UNL     1      12.118   8.222  -5.150  1.00  0.00     0.034 A 
ATOM     53  C   UNL     1       6.885   6.935  -9.595  1.00  0.00     0.034 A 
ATOM     54  C   UNL     1      12.521   8.018  -6.523  1.00  0.00     0.049 A 
ATOM     55  C   UNL     1       8.316   7.064 -10.069  1.00  0.00     0.074 A 
ATOM     56  C   UNL     1      13.800   8.009  -7.053  1.00  0.00     0.029 A 
ATOM     57  N   UNL     1      11.654   7.799  -7.585  1.00  0.00    -0.354 N 
ATOM     58  N   UNL     1       9.405   7.285  -9.370  1.00  0.00    -0.248 NA
ATOM     59  C   UNL     1       8.553   6.923 -11.514  1.00  0.00     0.031 C 
ATOM     60  C   UNL     1      13.702   7.863  -8.442  1.00  0.00     0.029 A 
ATOM     61  C   UNL     1      12.368   7.691  -8.770  1.00  0.00     0.049 A 
ATOM     62  H   UNL     1      10.675   7.730  -7.509  1.00  0.00     0.167 HD
ATOM     63  C   UNL     1      10.456   7.269 -10.286  1.00  0.00     0.074 A 
ATOM     64  C   UNL     1       9.873   7.013 -11.585  1.00  0.00     0.031 C 
ATOM     65  C   UNL     1      11.786   7.439 -10.068  1.00  0.00     0.034 A 
BRANCH  52  66
ATOM     66  C   UNL     1      13.186   8.537  -4.128  1.00  0.00     0.023 A 
ATOM     67  C   UNL     1      13.449   7.687  -3.039  1.00  0.00     0.031 A 
ATOM     68  C   UNL     1      13.943   9.718  -4.237  1.00  0.00     0.131 A 
ATOM     69  C   UNL     1      14.389   8.063  -2.068  1.00  0.00     0.055 A 
ATOM     70  C   UNL     1      14.934  10.047  -3.310  1.00  0.00     0.041 A 
ATOM     71  F   UNL     1      13.726  10.579  -5.243  1.00  0.00    -0.206 F 
ATOM     72  C   UNL     1      15.152   9.225  -2.209  1.00  0.00     0.022 A 
BRANCH  69  73
ATOM     73  S   UNL     1      14.503   7.086  -0.544  1.00  0.00     0.124 S 
ATOM     74  O   UNL     1      13.135   7.168  -0.038  1.00  0.00    -0.237 OA
ATOM     75  O   UNL     1      14.926   5.780  -1.037  1.00  0.00    -0.237 OA
ATOM     76  O   UNL     1      15.496   7.805   0.251  1.00  0.00    -0.744 OA
ENDBRANCH  69  73
ENDBRANCH  52  66
BRANCH  53  77
ATOM     77  C   UNL     1       5.787   6.730 -10.585  1.00  0.00     0.023 A 
ATOM     78  C   UNL     1       5.719   5.565 -11.367  1.00  0.00     0.031 A 
ATOM     79  C   UNL     1       4.827   7.733 -10.814  1.00  0.00     0.131 A 
ATOM     80  C   UNL     1       4.745   5.452 -12.372  1.00  0.00     0.055 A 
ATOM     81  C   UNL     1       3.826   7.592 -11.777  1.00  0.00     0.041 A 
ATOM     82  F   UNL     1       4.848   8.869 -10.100  1.00  0.00    -0.206 F 
ATOM     83  C   UNL     1       3.790   6.451 -12.572  1.00  0.00     0.022 A 
BRANCH  80  84
ATOM     84  S   UNL     1       4.799   4.016 -13.480  1.00  0.00     0.124 S 
ATOM     85  O   UNL     1       6.125   4.147 -14.070  1.00  0.00    -0.237 OA
ATOM     86  O   UNL     1       4.615   2.909 -12.548  1.00  0.00    -0.237 OA
ATOM     87  O   UNL     1       3.682   4.251 -14.393  1.00  0.00    -0.744 OA
ENDBRANCH  80  84
ENDBRANCH  53  77
BRANCH  65  88
ATOM     88  C   UNL     1      12.714   7.289 -11.254  1.00  0.00     0.023 A 
ATOM     89  C   UNL     1      12.712   8.197 -12.328  1.00  0.00     0.031 A 
ATOM     90  C   UNL     1      13.619   6.213 -11.304  1.00  0.00     0.131 A 
ATOM     91  C   UNL     1      13.561   7.984 -13.427  1.00  0.00     0.055 A 
ATOM     92  C   UNL     1      14.502   6.039 -12.371  1.00  0.00     0.041 A 
ATOM     93  F   UNL     1      13.666   5.312 -10.309  1.00  0.00    -0.206 F 
ATOM     94  C   UNL     1      14.467   6.921 -13.447  1.00  0.00     0.022 A 
BRANCH  91  95
ATOM     95  S   UNL     1      13.409   9.068 -14.875  1.00  0.00     0.124 S 
ATOM     96  O   UNL     1      12.012   8.879 -15.252  1.00  0.00    -0.237 OA
ATOM     97  O   UNL     1      13.750  10.376 -14.324  1.00  0.00    -0.237 OA
ATOM     98  O   UNL     1      14.384   8.521 -15.818  1.00  0.00    -0.744 OA
ENDBRANCH  91  95
ENDBRANCH  65  88
ENDBRANCH  39  40
ENDBRANCH  32  34
ENDBRANCH  31  32
ENDBRANCH  30  31
ENDBRANCH  29  30
ENDBRANCH  28  29
ENDBRANCH   1  28
TORSDOF 23
