REMARK SMILES NS(=O)(=O)c1ccc(-n2nc(NC(=O)NCCCC(=O)OCCOCCOCCOC(=O)c3ccc(-c4c5nc(c(-c6cc(S(=O)(=O)[O-])ccc6F)c6ccc([nH]6)c(-c6cc(S(=O)(=O)[O-])ccc6F)c6nc(c(-c7cc(S(=O)(=O)[O-])ccc7F)c7ccc4[nH]7)C=C6)C=C5)cc3)cc2-c2ccccc2)cc1
REMARK SMILES IDX 23 1 22 2 21 3 19 4 20 5 18 6 17 7 16 8 15 9 12 10 13 11
REMARK SMILES IDX 14 13 11 15 9 16 10 17 97 18 96 19 8 20 5 21 6 22 105 23
REMARK SMILES IDX 7 24 104 25 2 26 3 27 4 28 1 29 98 32 99 33 103 34 100 35
REMARK SMILES IDX 102 36 101 37 24 38 25 39 26 40 27 41 28 42 29 43 30 44
REMARK SMILES IDX 31 45 32 46 33 47 34 48 95 49 35 50 94 51 36 52 37 53 38 54
REMARK SMILES IDX 88 55 39 56 93 57 87 58 89 59 40 60 92 61 86 62 85 63 41 65
REMARK SMILES IDX 73 66 53 67 72 68 54 69 57 70 71 71 90 72 55 73 56 74 70 76
REMARK SMILES IDX 91 77 58 78 42 79 43 80 51 81 44 82 50 83 52 84 49 85 45 86
REMARK SMILES IDX 46 87 47 88 48 89 74 90 75 91 83 92 76 93 82 94 84 95 81 96
REMARK SMILES IDX 77 97 78 98 79 99 80 100 59 101 60 102 68 103 61 104 67 105
REMARK SMILES IDX 69 106 66 107 62 108 63 109 64 110 65 111
REMARK H PARENT 12 12 15 14 1 30 1 31 89 64 57 75
REMARK Flexibility Score: inf
ROOT
ATOM      1  C   UNL     1       0.234   5.011   2.788  1.00  0.00     0.202 C 
ENDROOT
BRANCH   1   2
ATOM      2  C   UNL     1       0.698   6.475   2.669  1.00  0.00     0.261 C 
BRANCH   2   3
ATOM      3  O   UNL     1       1.824   6.756   1.812  1.00  0.00    -0.463 OA
BRANCH   3   4
ATOM      4  C   UNL     1       3.044   6.714   2.389  1.00  0.00     0.305 C 
ATOM      5  O   UNL     1       3.227   6.523   3.588  1.00  0.00    -0.252 OA
BRANCH   4   6
ATOM      6  C   UNL     1       4.200   7.029   1.449  1.00  0.00     0.124 C 
BRANCH   6   7
ATOM      7  C   UNL     1       4.241   6.636  -0.030  1.00  0.00     0.033 C 
BRANCH   7   8
ATOM      8  C   UNL     1       3.230   7.176  -1.048  1.00  0.00     0.118 C 
BRANCH   8   9
ATOM      9  N   UNL     1       3.279   8.573  -1.354  1.00  0.00    -0.338 N 
ATOM     10  N   UNL     1       2.684   8.631  -3.679  1.00  0.00    -0.291 N 
ATOM     11  C   UNL     1       2.938   9.208  -2.490  1.00  0.00     0.320 C 
ATOM     12  H   UNL     1       2.759   9.283  -4.412  1.00  0.00     0.173 HD
ATOM     13  O   UNL     1       2.967  10.446  -2.457  1.00  0.00    -0.248 OA
ATOM     14  H   UNL     1       3.609   9.152  -0.630  1.00  0.00     0.165 HD
BRANCH  10  15
ATOM     15  C   UNL     1       2.348   7.379  -4.158  1.00  0.00     0.157 A 
ATOM     16  N   UNL     1       1.725   5.348  -4.379  1.00  0.00    -0.231 N 
ATOM     17  N   UNL     1       1.777   6.375  -3.491  1.00  0.00    -0.149 NA
ATOM     18  C   UNL     1       2.064   5.734  -5.667  1.00  0.00     0.076 A 
ATOM     19  C   UNL     1       2.478   7.044  -5.534  1.00  0.00     0.078 A 
BRANCH  16  20
ATOM     20  C   UNL     1       1.139   4.114  -4.030  1.00  0.00     0.065 A 
ATOM     21  C   UNL     1      -0.192   1.718  -3.657  1.00  0.00     0.082 A 
ATOM     22  C   UNL     1       1.156   1.718  -4.050  1.00  0.00     0.024 A 
ATOM     23  C   UNL     1      -0.901   2.903  -3.555  1.00  0.00     0.024 A 
ATOM     24  C   UNL     1       1.835   2.920  -4.227  1.00  0.00     0.030 A 
ATOM     25  C   UNL     1      -0.227   4.110  -3.731  1.00  0.00     0.030 A 
BRANCH  21  26
ATOM     26  S   UNL     1      -1.039   0.194  -3.432  1.00  0.00     0.238 S 
ATOM     27  O   UNL     1      -0.067  -0.785  -3.783  1.00  0.00    -0.207 OA
ATOM     28  O   UNL     1      -2.362   0.286  -4.008  1.00  0.00    -0.207 OA
BRANCH  26  29
ATOM     29  N   UNL     1      -1.226  -0.026  -1.771  1.00  0.00    -0.225 NA
ATOM     30  H   UNL     1      -1.715  -0.904  -1.597  1.00  0.00     0.137 HD
ATOM     31  H   UNL     1      -1.766   0.747  -1.384  1.00  0.00     0.137 HD
ENDBRANCH  26  29
ENDBRANCH  21  26
ENDBRANCH  16  20
BRANCH  18  32
ATOM     32  C   UNL     1       1.916   4.876  -6.849  1.00  0.00     0.000 A 
ATOM     33  C   UNL     1       0.694   4.233  -7.115  1.00  0.00     0.010 A 
ATOM     34  C   UNL     1       3.009   4.604  -7.677  1.00  0.00     0.010 A 
ATOM     35  C   UNL     1       0.593   3.265  -8.113  1.00  0.00     0.001 A 
ATOM     36  C   UNL     1       2.897   3.658  -8.701  1.00  0.00     0.001 A 
ATOM     37  C   UNL     1       1.699   2.972  -8.902  1.00  0.00     0.000 A 
ENDBRANCH  18  32
ENDBRANCH  10  15
ENDBRANCH   8   9
ENDBRANCH   7   8
ENDBRANCH   6   7
ENDBRANCH   4   6
ENDBRANCH   3   4
ENDBRANCH   2   3
ENDBRANCH   1   2
BRANCH   1  38
ATOM     38  O   UNL     1       1.192   3.984   2.632  1.00  0.00    -0.376 OA
BRANCH  38  39
ATOM     39  C   UNL     1       1.922   3.874   1.413  1.00  0.00     0.188 C 
BRANCH  39  40
ATOM     40  C   UNL     1       1.417   4.572   0.131  1.00  0.00     0.188 C 
BRANCH  40  41
ATOM     41  O   UNL     1       0.068   4.959   0.133  1.00  0.00    -0.376 OA
BRANCH  41  42
ATOM     42  C   UNL     1      -0.760   3.952  -0.401  1.00  0.00     0.202 C 
BRANCH  42  43
ATOM     43  C   UNL     1      -0.422   2.518  -0.007  1.00  0.00     0.261 C 
BRANCH  43  44
ATOM     44  O   UNL     1       0.634   1.717  -0.678  1.00  0.00    -0.460 OA
BRANCH  44  45
ATOM     45  C   UNL     1       1.987   1.682  -0.859  1.00  0.00     0.338 C 
ATOM     46  O   UNL     1       2.850   2.536  -0.892  1.00  0.00    -0.246 OA
BRANCH  45  47
ATOM     47  C   UNL     1       2.318   0.274  -1.064  1.00  0.00     0.060 A 
ATOM     48  C   UNL     1       3.132  -0.103  -2.133  1.00  0.00     0.016 A 
ATOM     49  C   UNL     1       1.600  -0.651  -0.315  1.00  0.00     0.016 A 
ATOM     50  C   UNL     1       2.993  -1.388  -2.635  1.00  0.00     0.010 A 
ATOM     51  C   UNL     1       1.405  -1.892  -0.861  1.00  0.00     0.010 A 
ATOM     52  C   UNL     1       2.038  -2.236  -2.064  1.00  0.00    -0.014 A 
BRANCH  52  53
ATOM     53  C   UNL     1       1.905  -3.623  -2.491  1.00  0.00     0.031 A 
ATOM     54  C   UNL     1       2.885  -4.451  -1.756  1.00  0.00     0.074 A 
ATOM     55  C   UNL     1       0.923  -4.172  -3.234  1.00  0.00     0.049 A 
ATOM     56  N   UNL     1       4.089  -4.716  -2.151  1.00  0.00    -0.248 NA
ATOM     57  C   UNL     1       2.659  -4.706  -0.320  1.00  0.00     0.031 C 
ATOM     58  C   UNL     1      -0.210  -3.574  -3.917  1.00  0.00     0.029 A 
ATOM     59  N   UNL     1       0.702  -5.493  -3.467  1.00  0.00    -0.354 N 
ATOM     60  C   UNL     1       4.629  -5.441  -1.104  1.00  0.00     0.074 A 
ATOM     61  C   UNL     1       3.899  -5.022   0.054  1.00  0.00     0.031 C 
ATOM     62  C   UNL     1      -1.145  -4.495  -4.224  1.00  0.00     0.029 A 
ATOM     63  C   UNL     1      -0.567  -5.792  -3.956  1.00  0.00     0.049 A 
ATOM     64  H   UNL     1       1.384  -6.183  -3.304  1.00  0.00     0.167 HD
ATOM     65  C   UNL     1       5.287  -6.611  -1.330  1.00  0.00     0.034 A 
ATOM     66  C   UNL     1      -1.102  -7.006  -4.238  1.00  0.00     0.034 A 
ATOM     67  C   UNL     1       5.589  -6.756  -2.744  1.00  0.00     0.049 A 
ATOM     68  C   UNL     1       0.053  -7.913  -4.441  1.00  0.00     0.074 A 
ATOM     69  C   UNL     1       6.257  -5.985  -3.678  1.00  0.00     0.029 A 
ATOM     70  N   UNL     1       4.810  -7.629  -3.478  1.00  0.00    -0.354 N 
ATOM     71  N   UNL     1       0.886  -7.778  -5.441  1.00  0.00    -0.248 NA
ATOM     72  C   UNL     1       0.597  -8.588  -3.272  1.00  0.00     0.031 C 
ATOM     73  C   UNL     1       5.496  -6.107  -4.879  1.00  0.00     0.029 A 
ATOM     74  C   UNL     1       4.460  -7.018  -4.658  1.00  0.00     0.049 A 
ATOM     75  H   UNL     1       4.549  -8.537  -3.202  1.00  0.00     0.167 HD
ATOM     76  C   UNL     1       2.147  -7.935  -4.882  1.00  0.00     0.074 A 
ATOM     77  C   UNL     1       1.900  -8.529  -3.566  1.00  0.00     0.031 C 
ATOM     78  C   UNL     1       3.240  -7.298  -5.402  1.00  0.00     0.034 A 
BRANCH  65  79
ATOM     79  C   UNL     1       5.271  -7.797  -0.380  1.00  0.00     0.023 A 
ATOM     80  C   UNL     1       6.010  -8.921  -0.784  1.00  0.00     0.031 A 
ATOM     81  C   UNL     1       4.421  -8.003   0.736  1.00  0.00     0.131 A 
ATOM     82  C   UNL     1       5.803 -10.175  -0.189  1.00  0.00     0.055 A 
ATOM     83  C   UNL     1       4.264  -9.240   1.363  1.00  0.00     0.041 A 
ATOM     84  F   UNL     1       3.629  -7.062   1.256  1.00  0.00    -0.206 F 
ATOM     85  C   UNL     1       4.930 -10.346   0.879  1.00  0.00     0.022 A 
BRANCH  82  86
ATOM     86  S   UNL     1       6.577 -11.615  -0.957  1.00  0.00     0.124 S 
ATOM     87  O   UNL     1       6.095 -11.504  -2.329  1.00  0.00    -0.237 OA
ATOM     88  O   UNL     1       7.994 -11.337  -0.745  1.00  0.00    -0.237 OA
ATOM     89  O   UNL     1       6.038 -12.735  -0.191  1.00  0.00    -0.744 OA
ENDBRANCH  82  86
ENDBRANCH  65  79
BRANCH  66  90
ATOM     90  C   UNL     1      -2.506  -7.427  -3.974  1.00  0.00     0.023 A 
ATOM     91  C   UNL     1      -3.080  -8.582  -4.543  1.00  0.00     0.031 A 
ATOM     92  C   UNL     1      -3.249  -6.793  -2.948  1.00  0.00     0.131 A 
ATOM     93  C   UNL     1      -4.329  -9.062  -4.077  1.00  0.00     0.055 A 
ATOM     94  C   UNL     1      -4.481  -7.270  -2.494  1.00  0.00     0.041 A 
ATOM     95  F   UNL     1      -2.761  -5.729  -2.289  1.00  0.00    -0.206 F 
ATOM     96  C   UNL     1      -5.021  -8.416  -3.049  1.00  0.00     0.022 A 
BRANCH  93  97
ATOM     97  S   UNL     1      -5.038 -10.602  -4.747  1.00  0.00     0.124 S 
ATOM     98  O   UNL     1      -5.354 -10.228  -6.120  1.00  0.00    -0.237 OA
ATOM     99  O   UNL     1      -3.946 -11.552  -4.567  1.00  0.00    -0.237 OA
ATOM    100  O   UNL     1      -6.203 -10.843  -3.893  1.00  0.00    -0.744 OA
ENDBRANCH  93  97
ENDBRANCH  66  90
BRANCH  78 101
ATOM    101  C   UNL     1       3.137  -6.689  -6.791  1.00  0.00     0.023 A 
ATOM    102  C   UNL     1       2.266  -5.640  -7.173  1.00  0.00     0.031 A 
ATOM    103  C   UNL     1       4.086  -7.121  -7.735  1.00  0.00     0.131 A 
ATOM    104  C   UNL     1       2.376  -5.069  -8.461  1.00  0.00     0.055 A 
ATOM    105  C   UNL     1       4.202  -6.542  -8.998  1.00  0.00     0.041 A 
ATOM    106  F   UNL     1       4.957  -8.096  -7.425  1.00  0.00    -0.206 F 
ATOM    107  C   UNL     1       3.345  -5.514  -9.367  1.00  0.00     0.022 A 
BRANCH 104 108
ATOM    108  S   UNL     1       1.256  -3.730  -8.998  1.00  0.00     0.124 S 
ATOM    109  O   UNL     1      -0.068  -4.240  -8.664  1.00  0.00    -0.237 OA
ATOM    110  O   UNL     1       1.724  -2.590  -8.213  1.00  0.00    -0.237 OA
ATOM    111  O   UNL     1       1.520  -3.619 -10.435  1.00  0.00    -0.744 OA
ENDBRANCH 104 108
ENDBRANCH  78 101
ENDBRANCH  52  53
ENDBRANCH  45  47
ENDBRANCH  44  45
ENDBRANCH  43  44
ENDBRANCH  42  43
ENDBRANCH  41  42
ENDBRANCH  40  41
ENDBRANCH  39  40
ENDBRANCH  38  39
ENDBRANCH   1  38
TORSDOF 28
