REMARK SMILES CC1=C(CC(=O)OCCOCCOCCOC(=O)c2ccc(-c3c4nc(c(-c5cc(S(=O)(=O)[O-])ccc5F)c5ccc([nH]5)c(-c5cc(S(=O)(=O)[O-])ccc5F)c5nc(c(-c6cc(S(=O)(=O)[O-])ccc6F)c6ccc3[nH]6)C=C5)C=C4)cc2)c2cc(F)ccc2/C1=C\c1cccc(OCc2ccccc2)c1
REMARK SMILES IDX 11 1 10 2 9 3 8 4 7 5 5 6 6 7 4 8 3 9 1 10 2 11 89 12 82 13
REMARK SMILES IDX 88 14 90 15 83 16 87 17 84 18 86 19 85 20 91 21 92 22 104 23
REMARK SMILES IDX 93 24 95 25 94 26 96 27 97 28 98 29 99 30 103 31 100 32
REMARK SMILES IDX 102 33 101 34 12 35 13 36 14 37 15 38 16 39 17 40 18 41
REMARK SMILES IDX 19 42 20 43 81 44 21 45 80 46 22 47 23 48 24 49 74 50 25 51
REMARK SMILES IDX 79 52 73 53 75 54 26 55 78 56 72 57 71 58 27 60 59 61 39 62
REMARK SMILES IDX 58 63 40 64 43 65 57 66 76 67 41 68 42 69 56 71 77 72 44 73
REMARK SMILES IDX 28 74 29 75 37 76 30 77 36 78 38 79 35 80 31 81 32 82 33 83
REMARK SMILES IDX 34 84 60 85 61 86 69 87 62 88 68 89 70 90 67 91 63 92 64 93
REMARK SMILES IDX 65 94 66 95 45 96 46 97 54 98 47 99 53 100 55 101 52 102
REMARK SMILES IDX 48 103 49 104 50 105 51 106
REMARK H PARENT 75 59 43 70
REMARK Flexibility Score: inf
ROOT
ATOM      1  C   UNL     1      -4.058   2.309  -2.564  1.00  0.00     0.188 C 
ENDROOT
BRANCH   1   2
ATOM      2  O   UNL     1      -5.136   1.458  -2.174  1.00  0.00    -0.376 OA
BRANCH   2   3
ATOM      3  C   UNL     1      -4.992   0.731  -0.959  1.00  0.00     0.202 C 
BRANCH   3   4
ATOM      4  C   UNL     1      -3.912  -0.352  -0.995  1.00  0.00     0.261 C 
BRANCH   4   5
ATOM      5  O   UNL     1      -2.603   0.226  -1.177  1.00  0.00    -0.463 OA
BRANCH   5   6
ATOM      6  C   UNL     1      -1.681  -0.580  -1.762  1.00  0.00     0.310 C 
ATOM      7  O   UNL     1      -1.860  -1.773  -1.983  1.00  0.00    -0.252 OA
BRANCH   6   8
ATOM      8  C   UNL     1      -0.443   0.173  -2.253  1.00  0.00     0.159 C 
BRANCH   8   9
ATOM      9  C   UNL     1       0.128   1.266  -1.397  1.00  0.00    -0.025 C 
ATOM     10  C   UNL     1       0.853  -0.029   0.670  1.00  0.00     0.045 C 
ATOM     11  C   UNL     1       0.656   1.199  -0.152  1.00  0.00    -0.039 C 
ATOM     12  C   UNL     1       1.129   2.532   0.268  1.00  0.00    -0.014 C 
ATOM     13  C   UNL     1       0.351   2.645  -1.882  1.00  0.00    -0.011 A 
ATOM     14  C   UNL     1       0.853   3.452  -0.846  1.00  0.00    -0.010 A 
ATOM     15  C   UNL     1       1.787   2.805   1.410  1.00  0.00     0.017 C 
ATOM     16  C   UNL     1       0.210   3.178  -3.153  1.00  0.00     0.048 A 
ATOM     17  C   UNL     1       1.051   4.818  -1.025  1.00  0.00     0.012 A 
ATOM     18  C   UNL     1       0.497   4.532  -3.344  1.00  0.00     0.123 A 
ATOM     19  C   UNL     1       0.864   5.362  -2.291  1.00  0.00     0.040 A 
ATOM     20  F   UNL     1       0.392   5.054  -4.572  1.00  0.00    -0.207 F 
BRANCH  15  21
ATOM     21  C   UNL     1       2.373   4.106   1.761  1.00  0.00    -0.021 A 
ATOM     22  C   UNL     1       1.656   5.014   2.543  1.00  0.00     0.008 A 
ATOM     23  C   UNL     1       3.625   4.474   1.242  1.00  0.00     0.054 A 
ATOM     24  C   UNL     1       2.175   6.286   2.784  1.00  0.00     0.004 A 
ATOM     25  C   UNL     1       4.168   5.731   1.514  1.00  0.00     0.120 A 
ATOM     26  C   UNL     1       3.424   6.641   2.269  1.00  0.00     0.046 A 
BRANCH  25  27
ATOM     27  O   UNL     1       5.389   6.194   1.103  1.00  0.00    -0.489 OA
BRANCH  27  28
ATOM     28  C   UNL     1       6.328   5.262   0.549  1.00  0.00     0.265 C 
BRANCH  28  29
ATOM     29  C   UNL     1       6.830   4.267   1.572  1.00  0.00    -0.011 A 
ATOM     30  C   UNL     1       7.406   4.709   2.772  1.00  0.00     0.007 A 
ATOM     31  C   UNL     1       6.676   2.889   1.360  1.00  0.00     0.007 A 
ATOM     32  C   UNL     1       7.776   3.793   3.757  1.00  0.00     0.000 A 
ATOM     33  C   UNL     1       7.031   1.976   2.353  1.00  0.00     0.000 A 
ATOM     34  C   UNL     1       7.575   2.429   3.553  1.00  0.00     0.000 A 
ENDBRANCH  28  29
ENDBRANCH  27  28
ENDBRANCH  25  27
ENDBRANCH  15  21
ENDBRANCH   8   9
ENDBRANCH   6   8
ENDBRANCH   5   6
ENDBRANCH   4   5
ENDBRANCH   3   4
ENDBRANCH   2   3
ENDBRANCH   1   2
BRANCH   1  35
ATOM     35  C   UNL     1      -3.349   3.115  -1.464  1.00  0.00     0.188 C 
BRANCH  35  36
ATOM     36  O   UNL     1      -4.277   3.663  -0.530  1.00  0.00    -0.376 OA
BRANCH  36  37
ATOM     37  C   UNL     1      -4.084   5.052  -0.291  1.00  0.00     0.202 C 
BRANCH  37  38
ATOM     38  C   UNL     1      -4.954   5.872  -1.244  1.00  0.00     0.261 C 
BRANCH  38  39
ATOM     39  O   UNL     1      -4.679   5.616  -2.634  1.00  0.00    -0.460 OA
BRANCH  39  40
ATOM     40  C   UNL     1      -3.582   6.223  -3.138  1.00  0.00     0.338 C 
ATOM     41  O   UNL     1      -2.798   6.933  -2.538  1.00  0.00    -0.246 OA
BRANCH  40  42
ATOM     42  C   UNL     1      -3.431   5.797  -4.542  1.00  0.00     0.060 A 
ATOM     43  C   UNL     1      -4.094   6.462  -5.567  1.00  0.00     0.016 A 
ATOM     44  C   UNL     1      -2.556   4.754  -4.838  1.00  0.00     0.016 A 
ATOM     45  C   UNL     1      -3.852   6.083  -6.894  1.00  0.00     0.010 A 
ATOM     46  C   UNL     1      -2.268   4.416  -6.161  1.00  0.00     0.010 A 
ATOM     47  C   UNL     1      -2.914   5.078  -7.207  1.00  0.00    -0.014 A 
BRANCH  47  48
ATOM     48  C   UNL     1      -2.538   4.812  -8.623  1.00  0.00     0.031 A 
ATOM     49  C   UNL     1      -2.830   3.499  -9.294  1.00  0.00     0.074 A 
ATOM     50  C   UNL     1      -1.887   5.777  -9.305  1.00  0.00     0.049 A 
ATOM     51  N   UNL     1      -2.731   3.189 -10.562  1.00  0.00    -0.248 NA
ATOM     52  C   UNL     1      -3.259   2.382  -8.439  1.00  0.00     0.031 C 
ATOM     53  C   UNL     1      -1.420   7.036  -8.723  1.00  0.00     0.029 A 
ATOM     54  N   UNL     1      -1.518   5.863 -10.625  1.00  0.00    -0.354 N 
ATOM     55  C   UNL     1      -3.110   1.855 -10.662  1.00  0.00     0.074 A 
ATOM     56  C   UNL     1      -3.360   1.391  -9.316  1.00  0.00     0.031 C 
ATOM     57  C   UNL     1      -0.889   7.796  -9.691  1.00  0.00     0.029 A 
ATOM     58  C   UNL     1      -0.960   7.076 -10.960  1.00  0.00     0.049 A 
ATOM     59  H   UNL     1      -1.640   5.129 -11.269  1.00  0.00     0.167 HD
ATOM     60  C   UNL     1      -3.272   1.104 -11.779  1.00  0.00     0.034 A 
ATOM     61  C   UNL     1      -0.585   7.573 -12.158  1.00  0.00     0.034 A 
ATOM     62  C   UNL     1      -3.018   1.592 -13.112  1.00  0.00     0.049 A 
ATOM     63  C   UNL     1      -0.829   6.747 -13.396  1.00  0.00     0.074 A 
ATOM     64  C   UNL     1      -3.234   0.945 -14.316  1.00  0.00     0.029 A 
ATOM     65  N   UNL     1      -2.489   2.838 -13.419  1.00  0.00    -0.354 N 
ATOM     66  N   UNL     1      -1.356   5.549 -13.495  1.00  0.00    -0.248 NA
ATOM     67  C   UNL     1      -0.455   7.343 -14.686  1.00  0.00     0.031 C 
ATOM     68  C   UNL     1      -2.782   1.773 -15.344  1.00  0.00     0.029 A 
ATOM     69  C   UNL     1      -2.348   2.967 -14.791  1.00  0.00     0.049 A 
ATOM     70  H   UNL     1      -2.249   3.527 -12.759  1.00  0.00     0.167 HD
ATOM     71  C   UNL     1      -1.399   5.258 -14.855  1.00  0.00     0.074 A 
ATOM     72  C   UNL     1      -0.869   6.417 -15.543  1.00  0.00     0.031 C 
ATOM     73  C   UNL     1      -1.835   4.132 -15.474  1.00  0.00     0.034 A 
BRANCH  60  74
ATOM     74  C   UNL     1      -3.808  -0.303 -11.639  1.00  0.00     0.023 A 
ATOM     75  C   UNL     1      -3.063  -1.405 -12.100  1.00  0.00     0.031 A 
ATOM     76  C   UNL     1      -5.121  -0.534 -11.186  1.00  0.00     0.131 A 
ATOM     77  C   UNL     1      -3.646  -2.680 -12.123  1.00  0.00     0.055 A 
ATOM     78  C   UNL     1      -5.681  -1.812 -11.171  1.00  0.00     0.041 A 
ATOM     79  F   UNL     1      -5.880   0.484 -10.748  1.00  0.00    -0.206 F 
ATOM     80  C   UNL     1      -4.947  -2.890 -11.654  1.00  0.00     0.022 A 
BRANCH  77  81
ATOM     81  S   UNL     1      -2.771  -4.106 -12.825  1.00  0.00     0.124 S 
ATOM     82  O   UNL     1      -2.738  -5.026 -11.689  1.00  0.00    -0.237 OA
ATOM     83  O   UNL     1      -3.654  -4.499 -13.919  1.00  0.00    -0.237 OA
ATOM     84  O   UNL     1      -1.476  -3.564 -13.221  1.00  0.00    -0.744 OA
ENDBRANCH  77  81
ENDBRANCH  60  74
BRANCH  61  85
ATOM     85  C   UNL     1      -0.069   8.972 -12.227  1.00  0.00     0.023 A 
ATOM     86  C   UNL     1       1.121   9.343 -11.576  1.00  0.00     0.031 A 
ATOM     87  C   UNL     1      -0.832   9.984 -12.836  1.00  0.00     0.131 A 
ATOM     88  C   UNL     1       1.478  10.697 -11.493  1.00  0.00     0.055 A 
ATOM     89  C   UNL     1      -0.438  11.323 -12.809  1.00  0.00     0.041 A 
ATOM     90  F   UNL     1      -1.986   9.683 -13.452  1.00  0.00    -0.206 F 
ATOM     91  C   UNL     1       0.714  11.687 -12.120  1.00  0.00     0.022 A 
BRANCH  88  92
ATOM     92  S   UNL     1       2.865  11.233 -10.454  1.00  0.00     0.124 S 
ATOM     93  O   UNL     1       3.752  11.858 -11.429  1.00  0.00    -0.237 OA
ATOM     94  O   UNL     1       2.206  12.147  -9.524  1.00  0.00    -0.237 OA
ATOM     95  O   UNL     1       3.352   9.992  -9.862  1.00  0.00    -0.744 OA
ENDBRANCH  88  92
ENDBRANCH  61  85
BRANCH  73  96
ATOM     96  C   UNL     1      -1.768   4.058 -16.981  1.00  0.00     0.023 A 
ATOM     97  C   UNL     1      -2.950   3.905 -17.731  1.00  0.00     0.031 A 
ATOM     98  C   UNL     1      -0.537   3.963 -17.653  1.00  0.00     0.131 A 
ATOM     99  C   UNL     1      -2.875   3.618 -19.100  1.00  0.00     0.055 A 
ATOM    100  C   UNL     1      -0.469   3.725 -19.026  1.00  0.00     0.041 A 
ATOM    101  F   UNL     1       0.618   4.090 -16.980  1.00  0.00    -0.206 F 
ATOM    102  C   UNL     1      -1.641   3.534 -19.753  1.00  0.00     0.022 A 
BRANCH  99 103
ATOM    103  S   UNL     1      -4.368   3.246 -20.063  1.00  0.00     0.124 S 
ATOM    104  O   UNL     1      -4.333   4.289 -21.087  1.00  0.00    -0.237 OA
ATOM    105  O   UNL     1      -4.096   1.894 -20.542  1.00  0.00    -0.237 OA
ATOM    106  O   UNL     1      -5.452   3.364 -19.094  1.00  0.00    -0.744 OA
ENDBRANCH  99 103
ENDBRANCH  73  96
ENDBRANCH  47  48
ENDBRANCH  40  42
ENDBRANCH  39  40
ENDBRANCH  38  39
ENDBRANCH  37  38
ENDBRANCH  36  37
ENDBRANCH  35  36
ENDBRANCH   1  35
TORSDOF 25
