REMARK SMILES Cc1c(C[NH2+]Cc2cccc(F)c2)c(C(=O)OCCOCCOCCOC(=O)c2ccc(-c3c4nc(c(-c5cc(S(=O)(=O)[O-])ccc5F)c5ccc([nH]5)c(-c5cc(S(=O)(=O)[O-])ccc5F)c5nc(c(-c6cc(S(=O)(=O)[O-])ccc6F)c6ccc3[nH]6)C=C5)C=C4)cc2)c(C)n1Cc1c(F)cccc1Cl
REMARK SMILES IDX 21 1 20 2 19 3 18 4 17 5 15 6 16 7 14 8 1 9 2 10 3 11 94 12
REMARK SMILES IDX 92 13 93 14 4 15 5 16 6 19 7 20 8 21 13 22 9 23 11 24 10 25
REMARK SMILES IDX 12 26 95 27 96 28 97 29 102 30 98 31 99 32 101 33 103 34
REMARK SMILES IDX 100 35 22 36 23 37 24 38 25 39 26 40 27 41 28 42 29 43 30 44
REMARK SMILES IDX 91 45 31 46 90 47 32 48 33 49 34 50 84 51 35 52 89 53 83 54
REMARK SMILES IDX 85 55 36 56 88 57 82 58 81 59 37 61 69 62 49 63 68 64 50 65
REMARK SMILES IDX 53 66 67 67 86 68 51 69 52 70 66 72 87 73 54 74 38 75 39 76
REMARK SMILES IDX 47 77 40 78 46 79 48 80 45 81 41 82 42 83 43 84 44 85 70 86
REMARK SMILES IDX 71 87 79 88 72 89 78 90 80 91 77 92 73 93 74 94 75 95 76 96
REMARK SMILES IDX 55 97 56 98 64 99 57 100 63 101 65 102 62 103 58 104 59 105
REMARK SMILES IDX 60 106 61 107
REMARK H PARENT 5 17 5 18 85 60 53 71
REMARK Flexibility Score: inf
ROOT
ATOM      1  C   UNL     1      -2.419  -3.539   5.086  1.00  0.00     0.188 C 
ENDROOT
BRANCH   1   2
ATOM      2  O   UNL     1      -2.381  -3.796   6.483  1.00  0.00    -0.376 OA
BRANCH   2   3
ATOM      3  C   UNL     1      -2.236  -2.732   7.413  1.00  0.00     0.202 C 
BRANCH   3   4
ATOM      4  C   UNL     1      -1.018  -1.815   7.319  1.00  0.00     0.261 C 
BRANCH   4   5
ATOM      5  O   UNL     1      -0.913  -1.180   6.047  1.00  0.00    -0.460 OA
BRANCH   5   6
ATOM      6  C   UNL     1       0.260  -1.411   5.372  1.00  0.00     0.340 C 
ATOM      7  O   UNL     1       1.190  -2.061   5.787  1.00  0.00    -0.246 OA
BRANCH   6   8
ATOM      8  C   UNL     1       0.261  -0.683   4.105  1.00  0.00     0.089 A 
ATOM      9  C   UNL     1       0.606  -0.116   0.451  1.00  0.00     0.065 C 
ATOM     10  C   UNL     1       0.378  -0.105   1.925  1.00  0.00     0.025 A 
ATOM     11  C   UNL     1       0.322  -1.207   2.779  1.00  0.00     0.042 A 
ATOM     12  N   UNL     1       0.198   1.053   2.680  1.00  0.00    -0.343 N 
ATOM     13  C   UNL     1       0.243   0.702   4.020  1.00  0.00     0.030 A 
ATOM     14  C   UNL     1       0.261   1.644   5.176  1.00  0.00     0.065 C 
BRANCH  11  15
ATOM     15  C   UNL     1       0.311  -2.663   2.385  1.00  0.00     0.300 C 
BRANCH  15  16
ATOM     16  N   UNL     1       1.401  -3.352   3.055  1.00  0.00    -0.339 N 
ATOM     17  H   UNL     1       1.246  -3.297   4.062  1.00  0.00     0.346 HD
ATOM     18  H   UNL     1       2.265  -2.892   2.768  1.00  0.00     0.346 HD
BRANCH  16  19
ATOM     19  C   UNL     1       1.524  -4.759   2.685  1.00  0.00     0.297 C 
BRANCH  19  20
ATOM     20  C   UNL     1       2.068  -5.058   1.301  1.00  0.00     0.009 A 
ATOM     21  C   UNL     1       2.648  -4.091   0.462  1.00  0.00     0.010 A 
ATOM     22  C   UNL     1       2.011  -6.384   0.837  1.00  0.00     0.048 A 
ATOM     23  C   UNL     1       3.101  -4.423  -0.819  1.00  0.00     0.004 A 
ATOM     24  C   UNL     1       2.483  -6.708  -0.432  1.00  0.00     0.123 A 
ATOM     25  C   UNL     1       3.014  -5.737  -1.269  1.00  0.00     0.039 A 
ATOM     26  F   UNL     1       2.425  -7.979  -0.853  1.00  0.00    -0.207 F 
ENDBRANCH  19  20
ENDBRANCH  16  19
ENDBRANCH  15  16
ENDBRANCH  11  15
BRANCH  12  27
ATOM     27  C   UNL     1       0.159   2.433   2.153  1.00  0.00     0.162 C 
BRANCH  27  28
ATOM     28  C   UNL     1      -1.230   3.007   1.955  1.00  0.00     0.026 A 
ATOM     29  C   UNL     1      -1.986   3.422   3.062  1.00  0.00     0.129 A 
ATOM     30  C   UNL     1      -1.808   3.245   0.697  1.00  0.00     0.048 A 
ATOM     31  F   UNL     1      -1.448   3.422   4.285  1.00  0.00    -0.207 F 
ATOM     32  C   UNL     1      -3.275   3.945   2.954  1.00  0.00     0.040 A 
ATOM     33  C   UNL     1      -3.105   3.778   0.576  1.00  0.00     0.021 A 
ATOM     34  Cl  UNL     1      -0.946   3.032  -0.786  1.00  0.00    -0.084 Cl
ATOM     35  C   UNL     1      -3.847   4.111   1.705  1.00  0.00     0.005 A 
ENDBRANCH  27  28
ENDBRANCH  12  27
ENDBRANCH   6   8
ENDBRANCH   5   6
ENDBRANCH   4   5
ENDBRANCH   3   4
ENDBRANCH   2   3
ENDBRANCH   1   2
BRANCH   1  36
ATOM     36  C   UNL     1      -3.436  -2.561   4.469  1.00  0.00     0.188 C 
BRANCH  36  37
ATOM     37  O   UNL     1      -4.482  -2.063   5.282  1.00  0.00    -0.376 OA
BRANCH  37  38
ATOM     38  C   UNL     1      -5.367  -3.007   5.894  1.00  0.00     0.202 C 
BRANCH  38  39
ATOM     39  C   UNL     1      -6.242  -3.892   4.972  1.00  0.00     0.261 C 
BRANCH  39  40
ATOM     40  O   UNL     1      -5.936  -5.336   4.958  1.00  0.00    -0.460 OA
BRANCH  40  41
ATOM     41  C   UNL     1      -6.314  -5.992   3.803  1.00  0.00     0.338 C 
ATOM     42  O   UNL     1      -6.582  -5.398   2.767  1.00  0.00    -0.246 OA
BRANCH  41  43
ATOM     43  C   UNL     1      -6.455  -7.514   3.866  1.00  0.00     0.060 A 
ATOM     44  C   UNL     1      -5.378  -8.345   3.585  1.00  0.00     0.016 A 
ATOM     45  C   UNL     1      -7.719  -8.150   3.851  1.00  0.00     0.016 A 
ATOM     46  C   UNL     1      -5.573  -9.750   3.320  1.00  0.00     0.010 A 
ATOM     47  C   UNL     1      -7.915  -9.568   3.533  1.00  0.00     0.010 A 
ATOM     48  C   UNL     1      -6.846 -10.429   3.229  1.00  0.00    -0.014 A 
BRANCH  48  49
ATOM     49  C   UNL     1      -6.896 -11.796   2.360  1.00  0.00     0.031 A 
ATOM     50  C   UNL     1      -6.042 -11.481   1.175  1.00  0.00     0.074 A 
ATOM     51  C   UNL     1      -7.470 -13.073   2.279  1.00  0.00     0.049 A 
ATOM     52  N   UNL     1      -6.229 -10.410   0.452  1.00  0.00    -0.248 NA
ATOM     53  C   UNL     1      -4.754 -12.143   0.959  1.00  0.00     0.031 C 
ATOM     54  C   UNL     1      -8.464 -13.691   3.173  1.00  0.00     0.029 A 
ATOM     55  N   UNL     1      -7.285 -14.165   1.352  1.00  0.00    -0.354 N 
ATOM     56  C   UNL     1      -5.312 -10.502  -0.561  1.00  0.00     0.074 A 
ATOM     57  C   UNL     1      -4.286 -11.393  -0.041  1.00  0.00     0.031 C 
ATOM     58  C   UNL     1      -8.678 -15.008   2.869  1.00  0.00     0.029 A 
ATOM     59  C   UNL     1      -7.913 -15.423   1.691  1.00  0.00     0.049 A 
ATOM     60  H   UNL     1      -6.757 -14.058   0.529  1.00  0.00     0.167 HD
ATOM     61  C   UNL     1      -5.784 -10.425  -1.839  1.00  0.00     0.034 A 
ATOM     62  C   UNL     1      -7.898 -16.674   1.065  1.00  0.00     0.034 A 
ATOM     63  C   UNL     1      -5.679 -11.666  -2.557  1.00  0.00     0.049 A 
ATOM     64  C   UNL     1      -7.640 -16.447  -0.360  1.00  0.00     0.074 A 
ATOM     65  C   UNL     1      -4.711 -12.641  -2.671  1.00  0.00     0.029 A 
ATOM     66  N   UNL     1      -6.867 -12.245  -2.957  1.00  0.00    -0.354 N 
ATOM     67  N   UNL     1      -8.568 -16.006  -1.151  1.00  0.00    -0.248 NA
ATOM     68  C   UNL     1      -6.410 -16.887  -1.018  1.00  0.00     0.031 C 
ATOM     69  C   UNL     1      -5.420 -13.865  -2.653  1.00  0.00     0.029 A 
ATOM     70  C   UNL     1      -6.779 -13.611  -2.814  1.00  0.00     0.049 A 
ATOM     71  H   UNL     1      -7.653 -11.757  -3.293  1.00  0.00     0.167 HD
ATOM     72  C   UNL     1      -7.882 -15.658  -2.274  1.00  0.00     0.074 A 
ATOM     73  C   UNL     1      -6.686 -16.477  -2.257  1.00  0.00     0.031 C 
ATOM     74  C   UNL     1      -8.012 -14.368  -2.668  1.00  0.00     0.034 A 
BRANCH  61  75
ATOM     75  C   UNL     1      -6.906  -9.453  -2.073  1.00  0.00     0.023 A 
ATOM     76  C   UNL     1      -6.692  -8.344  -2.899  1.00  0.00     0.031 A 
ATOM     77  C   UNL     1      -8.182  -9.609  -1.490  1.00  0.00     0.131 A 
ATOM     78  C   UNL     1      -7.718  -7.400  -3.071  1.00  0.00     0.055 A 
ATOM     79  C   UNL     1      -9.177  -8.645  -1.619  1.00  0.00     0.041 A 
ATOM     80  F   UNL     1      -8.495 -10.731  -0.822  1.00  0.00    -0.206 F 
ATOM     81  C   UNL     1      -8.944  -7.524  -2.408  1.00  0.00     0.022 A 
BRANCH  78  82
ATOM     82  S   UNL     1      -7.449  -6.033  -4.231  1.00  0.00     0.124 S 
ATOM     83  O   UNL     1      -6.347  -5.303  -3.611  1.00  0.00    -0.237 OA
ATOM     84  O   UNL     1      -7.118  -6.737  -5.468  1.00  0.00    -0.237 OA
ATOM     85  O   UNL     1      -8.729  -5.329  -4.247  1.00  0.00    -0.744 OA
ENDBRANCH  78  82
ENDBRANCH  61  75
BRANCH  62  86
ATOM     86  C   UNL     1      -8.247 -18.188   1.262  1.00  0.00     0.023 A 
ATOM     87  C   UNL     1      -8.402 -19.080   0.121  1.00  0.00     0.031 A 
ATOM     88  C   UNL     1      -8.111 -18.853   2.483  1.00  0.00     0.131 A 
ATOM     89  C   UNL     1      -8.329 -20.495   0.214  1.00  0.00     0.055 A 
ATOM     90  C   UNL     1      -8.082 -20.271   2.580  1.00  0.00     0.041 A 
ATOM     91  F   UNL     1      -7.912 -18.161   3.613  1.00  0.00    -0.206 F 
ATOM     92  C   UNL     1      -8.162 -21.093   1.453  1.00  0.00     0.022 A 
BRANCH  89  93
ATOM     93  S   UNL     1      -8.211 -21.570  -1.280  1.00  0.00     0.124 S 
ATOM     94  O   UNL     1      -9.602 -21.926  -1.533  1.00  0.00    -0.237 OA
ATOM     95  O   UNL     1      -7.572 -20.706  -2.268  1.00  0.00    -0.237 OA
ATOM     96  O   UNL     1      -7.370 -22.679  -0.824  1.00  0.00    -0.744 OA
ENDBRANCH  89  93
ENDBRANCH  62  86
BRANCH  74  97
ATOM     97  C   UNL     1      -9.422 -13.774  -2.654  1.00  0.00     0.023 A 
ATOM     98  C   UNL     1     -10.399 -13.930  -1.632  1.00  0.00     0.031 A 
ATOM     99  C   UNL     1      -9.824 -13.054  -3.790  1.00  0.00     0.131 A 
ATOM    100  C   UNL     1     -11.705 -13.420  -1.786  1.00  0.00     0.055 A 
ATOM    101  C   UNL     1     -11.102 -12.507  -3.923  1.00  0.00     0.041 A 
ATOM    102  F   UNL     1      -8.967 -12.868  -4.807  1.00  0.00    -0.206 F 
ATOM    103  C   UNL     1     -12.053 -12.699  -2.927  1.00  0.00     0.022 A 
BRANCH 100 104
ATOM    104  S   UNL     1     -12.980 -13.741  -0.518  1.00  0.00     0.124 S 
ATOM    105  O   UNL     1     -13.037 -15.198  -0.465  1.00  0.00    -0.237 OA
ATOM    106  O   UNL     1     -12.441 -13.079   0.666  1.00  0.00    -0.237 OA
ATOM    107  O   UNL     1     -14.181 -13.111  -1.072  1.00  0.00    -0.744 OA
ENDBRANCH 100 104
ENDBRANCH  74  97
ENDBRANCH  48  49
ENDBRANCH  41  43
ENDBRANCH  40  41
ENDBRANCH  39  40
ENDBRANCH  38  39
ENDBRANCH  37  38
ENDBRANCH  36  37
ENDBRANCH   1  36
TORSDOF 26
