REMARK SMILES O=C(OCCOCCOCCOC(=O)[C@H]1[C@@H]2C[C@H]3C[C@@H](C2)C[C@]1(n1ncc(N2CCN(c4ccc(F)cc4)CC2)c(Cl)c1=O)C3)c1ccc(-c2c3nc(c(-c4cc(S(=O)(=O)[O-])ccc4F)c4ccc([nH]4)c(-c4cc(S(=O)(=O)[O-])ccc4F)c4nc(c(-c5cc(S(=O)(=O)[O-])ccc5F)c5ccc2[nH]5)C=C4)C=C3)cc1
REMARK SMILES IDX 7 1 6 2 5 3 4 4 3 5 2 6 1 7 46 8 47 9 108 10 48 11 107 12
REMARK SMILES IDX 49 13 50 14 51 15 101 16 52 17 106 18 100 19 102 20 53 21
REMARK SMILES IDX 105 22 99 23 98 24 54 26 86 27 66 28 85 29 67 30 70 31 84 32
REMARK SMILES IDX 103 33 68 34 69 35 83 37 104 38 71 39 55 40 56 41 64 42
REMARK SMILES IDX 57 43 63 44 65 45 62 46 58 47 59 48 60 49 61 50 87 51 88 52
REMARK SMILES IDX 96 53 89 54 95 55 97 56 94 57 90 58 91 59 92 60 93 61 72 62
REMARK SMILES IDX 73 63 81 64 74 65 80 66 82 67 79 68 75 69 76 70 77 71 78 72
REMARK SMILES IDX 8 73 9 74 10 75 11 76 12 77 13 78 14 79 15 80 16 81 23 82
REMARK SMILES IDX 21 83 17 84 45 85 22 86 20 87 18 88 19 89 24 90 25 91 43 92
REMARK SMILES IDX 26 93 41 94 44 95 27 96 42 97 28 98 29 99 40 100 30 101
REMARK SMILES IDX 39 102 31 103 32 104 33 105 38 106 34 107 37 108 35 109
REMARK SMILES IDX 36 110
REMARK H PARENT 102 25 70 36
REMARK Flexibility Score: inf
ROOT
ATOM      1  C   UNL     1       2.566  -0.488   1.303  1.00  0.00     0.188 C 
ENDROOT
BRANCH   1   2
ATOM      2  O   UNL     1       3.777  -0.822   0.625  1.00  0.00    -0.376 OA
BRANCH   2   3
ATOM      3  C   UNL     1       4.875   0.059   0.870  1.00  0.00     0.202 C 
BRANCH   3   4
ATOM      4  C   UNL     1       4.628   1.548   0.567  1.00  0.00     0.261 C 
BRANCH   4   5
ATOM      5  O   UNL     1       4.359   1.776  -0.824  1.00  0.00    -0.460 OA
BRANCH   5   6
ATOM      6  C   UNL     1       3.142   1.426  -1.299  1.00  0.00     0.338 C 
ATOM      7  O   UNL     1       2.060   1.778  -0.839  1.00  0.00    -0.246 OA
BRANCH   6   8
ATOM      8  C   UNL     1       3.339   0.515  -2.460  1.00  0.00     0.060 A 
ATOM      9  C   UNL     1       2.299   0.210  -3.350  1.00  0.00     0.016 A 
ATOM     10  C   UNL     1       4.594  -0.066  -2.653  1.00  0.00     0.016 A 
ATOM     11  C   UNL     1       2.534  -0.631  -4.458  1.00  0.00     0.010 A 
ATOM     12  C   UNL     1       4.820  -0.905  -3.731  1.00  0.00     0.010 A 
ATOM     13  C   UNL     1       3.799  -1.196  -4.661  1.00  0.00    -0.014 A 
BRANCH  13  14
ATOM     14  C   UNL     1       4.234  -1.893  -5.903  1.00  0.00     0.031 A 
ATOM     15  C   UNL     1       4.014  -3.348  -6.210  1.00  0.00     0.074 A 
ATOM     16  C   UNL     1       5.054  -1.171  -6.681  1.00  0.00     0.049 A 
ATOM     17  N   UNL     1       4.808  -4.197  -6.815  1.00  0.00    -0.248 NA
ATOM     18  C   UNL     1       2.757  -3.945  -5.761  1.00  0.00     0.031 C 
ATOM     19  C   UNL     1       5.291   0.265  -6.523  1.00  0.00     0.029 A 
ATOM     20  N   UNL     1       5.859  -1.543  -7.716  1.00  0.00    -0.354 N 
ATOM     21  C   UNL     1       4.253  -5.471  -6.619  1.00  0.00     0.074 A 
ATOM     22  C   UNL     1       2.981  -5.242  -5.969  1.00  0.00     0.031 C 
ATOM     23  C   UNL     1       6.192   0.655  -7.428  1.00  0.00     0.029 A 
ATOM     24  C   UNL     1       6.614  -0.508  -8.203  1.00  0.00     0.049 A 
ATOM     25  H   UNL     1       5.895  -2.459  -8.076  1.00  0.00     0.167 HD
ATOM     26  C   UNL     1       4.858  -6.667  -6.883  1.00  0.00     0.034 A 
ATOM     27  C   UNL     1       7.540  -0.502  -9.178  1.00  0.00     0.034 A 
ATOM     28  C   UNL     1       5.906  -6.740  -7.888  1.00  0.00     0.049 A 
ATOM     29  C   UNL     1       7.816  -1.796  -9.880  1.00  0.00     0.074 A 
ATOM     30  C   UNL     1       6.437  -7.864  -8.501  1.00  0.00     0.029 A 
ATOM     31  N   UNL     1       6.474  -5.643  -8.523  1.00  0.00    -0.354 N 
ATOM     32  N   UNL     1       7.462  -3.007  -9.518  1.00  0.00    -0.248 NA
ATOM     33  C   UNL     1       8.569  -1.737 -11.135  1.00  0.00     0.031 C 
ATOM     34  C   UNL     1       7.305  -7.447  -9.510  1.00  0.00     0.029 A 
ATOM     35  C   UNL     1       7.266  -6.063  -9.575  1.00  0.00     0.049 A 
ATOM     36  H   UNL     1       6.333  -4.704  -8.262  1.00  0.00     0.167 HD
ATOM     37  C   UNL     1       7.942  -3.857 -10.503  1.00  0.00     0.074 A 
ATOM     38  C   UNL     1       8.581  -3.016 -11.496  1.00  0.00     0.031 C 
ATOM     39  C   UNL     1       7.872  -5.209 -10.567  1.00  0.00     0.034 A 
BRANCH  26  40
ATOM     40  C   UNL     1       4.465  -7.995  -6.215  1.00  0.00     0.023 A 
ATOM     41  C   UNL     1       5.499  -8.844  -5.720  1.00  0.00     0.031 A 
ATOM     42  C   UNL     1       3.170  -8.533  -6.205  1.00  0.00     0.131 A 
ATOM     43  C   UNL     1       5.230 -10.165  -5.313  1.00  0.00     0.055 A 
ATOM     44  C   UNL     1       2.893  -9.817  -5.707  1.00  0.00     0.041 A 
ATOM     45  F   UNL     1       2.136  -7.867  -6.740  1.00  0.00    -0.206 F 
ATOM     46  C   UNL     1       3.924 -10.645  -5.279  1.00  0.00     0.022 A 
BRANCH  43  47
ATOM     47  S   UNL     1       6.552 -11.366  -4.956  1.00  0.00     0.124 S 
ATOM     48  O   UNL     1       6.255 -11.737  -3.573  1.00  0.00    -0.237 OA
ATOM     49  O   UNL     1       6.289 -12.412  -5.941  1.00  0.00    -0.237 OA
ATOM     50  O   UNL     1       7.783 -10.610  -5.152  1.00  0.00    -0.744 OA
ENDBRANCH  43  47
ENDBRANCH  26  40
BRANCH  27  51
ATOM     51  C   UNL     1       8.041   0.826  -9.612  1.00  0.00     0.023 A 
ATOM     52  C   UNL     1       8.812   1.621  -8.743  1.00  0.00     0.031 A 
ATOM     53  C   UNL     1       7.464   1.429 -10.742  1.00  0.00     0.131 A 
ATOM     54  C   UNL     1       8.880   3.004  -8.961  1.00  0.00     0.055 A 
ATOM     55  C   UNL     1       7.603   2.792 -10.996  1.00  0.00     0.041 A 
ATOM     56  F   UNL     1       6.682   0.712 -11.564  1.00  0.00    -0.206 F 
ATOM     57  C   UNL     1       8.289   3.591 -10.086  1.00  0.00     0.022 A 
BRANCH  54  58
ATOM     58  S   UNL     1       9.513   4.113  -7.668  1.00  0.00     0.124 S 
ATOM     59  O   UNL     1      10.656   4.730  -8.332  1.00  0.00    -0.237 OA
ATOM     60  O   UNL     1       8.367   4.990  -7.438  1.00  0.00    -0.237 OA
ATOM     61  O   UNL     1       9.831   3.212  -6.565  1.00  0.00    -0.744 OA
ENDBRANCH  54  58
ENDBRANCH  27  51
BRANCH  39  62
ATOM     62  C   UNL     1       8.497  -5.913 -11.742  1.00  0.00     0.023 A 
ATOM     63  C   UNL     1       7.689  -6.671 -12.611  1.00  0.00     0.031 A 
ATOM     64  C   UNL     1       9.893  -6.015 -11.857  1.00  0.00     0.131 A 
ATOM     65  C   UNL     1       8.289  -7.545 -13.524  1.00  0.00     0.055 A 
ATOM     66  C   UNL     1      10.485  -6.854 -12.800  1.00  0.00     0.041 A 
ATOM     67  F   UNL     1      10.697  -5.325 -11.032  1.00  0.00    -0.206 F 
ATOM     68  C   UNL     1       9.682  -7.636 -13.626  1.00  0.00     0.022 A 
BRANCH  65  69
ATOM     69  S   UNL     1       7.290  -8.670 -14.537  1.00  0.00     0.124 S 
ATOM     70  O   UNL     1       7.698  -8.301 -15.891  1.00  0.00    -0.237 OA
ATOM     71  O   UNL     1       7.748  -9.979 -14.083  1.00  0.00    -0.237 OA
ATOM     72  O   UNL     1       5.914  -8.329 -14.192  1.00  0.00    -0.744 OA
ENDBRANCH  65  69
ENDBRANCH  39  62
ENDBRANCH  13  14
ENDBRANCH   6   8
ENDBRANCH   5   6
ENDBRANCH   4   5
ENDBRANCH   3   4
ENDBRANCH   2   3
ENDBRANCH   1   2
BRANCH   1  73
ATOM     73  C   UNL     1       1.889  -1.722   1.892  1.00  0.00     0.188 C 
BRANCH  73  74
ATOM     74  O   UNL     1       2.386  -2.092   3.177  1.00  0.00    -0.376 OA
BRANCH  74  75
ATOM     75  C   UNL     1       3.662  -2.729   3.196  1.00  0.00     0.202 C 
BRANCH  75  76
ATOM     76  C   UNL     1       3.632  -4.230   2.889  1.00  0.00     0.261 C 
BRANCH  76  77
ATOM     77  O   UNL     1       3.627  -4.488   1.481  1.00  0.00    -0.463 OA
BRANCH  77  78
ATOM     78  C   UNL     1       2.512  -4.856   0.809  1.00  0.00     0.311 C 
ATOM     79  O   UNL     1       1.395  -4.962   1.301  1.00  0.00    -0.252 OA
BRANCH  78  80
ATOM     80  C   UNL     1       2.812  -5.014  -0.685  1.00  0.00     0.130 C 
ATOM     81  C   UNL     1       3.628  -3.792  -1.197  1.00  0.00     0.006 C 
ATOM     82  C   UNL     1       3.535  -6.332  -1.097  1.00  0.00     0.081 C 
ATOM     83  C   UNL     1       5.074  -3.736  -0.663  1.00  0.00     0.008 C 
ATOM     84  C   UNL     1       3.762  -3.918  -2.708  1.00  0.00     0.008 C 
ATOM     85  C   UNL     1       3.803  -6.318  -2.655  1.00  0.00     0.035 C 
ATOM     86  C   UNL     1       4.950  -6.325  -0.449  1.00  0.00     0.035 C 
ATOM     87  C   UNL     1       5.778  -5.083  -0.909  1.00  0.00    -0.008 C 
ATOM     88  C   UNL     1       4.606  -5.127  -3.088  1.00  0.00    -0.008 C 
ATOM     89  C   UNL     1       5.976  -5.160  -2.421  1.00  0.00     0.007 C 
BRANCH  82  90
ATOM     90  N   UNL     1       2.716  -7.571  -0.841  1.00  0.00    -0.222 N 
ATOM     91  N   UNL     1       2.401  -8.253  -1.993  1.00  0.00    -0.175 NA
ATOM     92  C   UNL     1       2.341  -8.053   0.407  1.00  0.00     0.288 A 
ATOM     93  C   UNL     1       1.899  -9.425  -1.913  1.00  0.00     0.161 A 
ATOM     94  C   UNL     1       1.562  -9.345   0.410  1.00  0.00     0.132 A 
ATOM     95  O   UNL     1       2.663  -7.519   1.468  1.00  0.00    -0.266 OA
ATOM     96  C   UNL     1       1.494 -10.118  -0.684  1.00  0.00     0.082 A 
ATOM     97  Cl  UNL     1       0.982  -9.883   1.949  1.00  0.00    -0.076 Cl
BRANCH  96  98
ATOM     98  N   UNL     1       1.120 -11.437  -0.886  1.00  0.00    -0.365 N 
ATOM     99  C   UNL     1       2.151 -12.411  -1.338  1.00  0.00     0.138 C 
ATOM    100  C   UNL     1      -0.150 -12.054  -0.496  1.00  0.00     0.138 C 
ATOM    101  C   UNL     1       2.429 -13.421  -0.208  1.00  0.00     0.138 C 
ATOM    102  C   UNL     1       0.059 -13.159   0.559  1.00  0.00     0.138 C 
ATOM    103  N   UNL     1       1.167 -14.062   0.209  1.00  0.00    -0.368 N 
BRANCH 103 104
ATOM    104  C   UNL     1       0.977 -15.396  -0.070  1.00  0.00     0.037 A 
ATOM    105  C   UNL     1      -0.078 -15.850  -0.870  1.00  0.00     0.029 A 
ATOM    106  C   UNL     1       1.865 -16.348   0.456  1.00  0.00     0.029 A 
ATOM    107  C   UNL     1      -0.252 -17.212  -1.124  1.00  0.00     0.041 A 
ATOM    108  C   UNL     1       1.688 -17.711   0.221  1.00  0.00     0.041 A 
ATOM    109  C   UNL     1       0.627 -18.131  -0.566  1.00  0.00     0.123 A 
ATOM    110  F   UNL     1       0.445 -19.439  -0.787  1.00  0.00    -0.207 F 
ENDBRANCH 103 104
ENDBRANCH  96  98
ENDBRANCH  82  90
ENDBRANCH  78  80
ENDBRANCH  77  78
ENDBRANCH  76  77
ENDBRANCH  75  76
ENDBRANCH  74  75
ENDBRANCH  73  74
ENDBRANCH   1  73
TORSDOF 23
