REMARK SMILES C[C@H](NC(=O)N(CC(=O)OCCOCCOCCOC(=O)c1ccc(-c2c3nc(c(-c4cc(S(=O)(=O)[O-])ccc4F)c4ccc([nH]4)c(-c4cc(S(=O)(=O)[O-])ccc4F)c4nc(c(-c5cc(S(=O)(=O)[O-])ccc5F)c5ccc2[nH]5)C=C4)C=C3)cc1)CC(F)(F)F)[C@@H]1CCCO1
REMARK SMILES IDX 14 1 13 2 12 3 11 4 10 5 8 6 9 7 7 8 6 9 4 10 3 11 5 13 2 14
REMARK SMILES IDX 1 15 90 16 91 17 94 18 92 19 93 20 85 21 86 22 87 23 88 24
REMARK SMILES IDX 89 25 15 26 16 27 17 28 18 29 19 30 20 31 21 32 22 33 23 34
REMARK SMILES IDX 84 35 24 36 83 37 25 38 26 39 27 40 77 41 28 42 82 43 76 44
REMARK SMILES IDX 78 45 29 46 81 47 75 48 74 49 30 51 62 52 42 53 61 54 43 55
REMARK SMILES IDX 46 56 60 57 79 58 44 59 45 60 59 62 80 63 47 64 31 65 32 66
REMARK SMILES IDX 40 67 33 68 39 69 41 70 38 71 34 72 35 73 36 74 37 75 63 76
REMARK SMILES IDX 64 77 72 78 65 79 71 80 73 81 70 82 66 83 67 84 68 85 69 86
REMARK SMILES IDX 48 87 49 88 57 89 50 90 56 91 58 92 55 93 51 94 52 95 53 96
REMARK SMILES IDX 54 97
REMARK H PARENT 3 12 78 50 46 61
REMARK Flexibility Score: inf
ROOT
ATOM      1  C   UNL     1       3.360   4.842   3.649  1.00  0.00     0.188 C 
ENDROOT
BRANCH   1   2
ATOM      2  O   UNL     1       2.205   5.093   4.447  1.00  0.00    -0.376 OA
BRANCH   2   3
ATOM      3  C   UNL     1       1.537   3.999   5.057  1.00  0.00     0.202 C 
BRANCH   3   4
ATOM      4  C   UNL     1       0.548   3.255   4.148  1.00  0.00     0.261 C 
BRANCH   4   5
ATOM      5  O   UNL     1       1.171   2.661   2.989  1.00  0.00    -0.462 OA
BRANCH   5   6
ATOM      6  C   UNL     1       1.092   3.392   1.846  1.00  0.00     0.325 C 
ATOM      7  O   UNL     1       0.452   4.433   1.732  1.00  0.00    -0.250 OA
BRANCH   6   8
ATOM      8  C   UNL     1       2.043   2.912   0.735  1.00  0.00     0.244 C 
BRANCH   8   9
ATOM      9  N   UNL     1       2.548   1.526   0.674  1.00  0.00    -0.305 N 
BRANCH   9  10
ATOM     10  C   UNL     1       1.845   0.398   0.350  1.00  0.00     0.318 C 
ATOM     11  N   UNL     1       0.556   0.403  -0.029  1.00  0.00    -0.333 N 
ATOM     12  H   UNL     1       0.145  -0.492  -0.014  1.00  0.00     0.165 HD
ATOM     13  O   UNL     1       2.381  -0.713   0.346  1.00  0.00    -0.249 OA
BRANCH  11  14
ATOM     14  C   UNL     1      -0.363   1.447  -0.456  1.00  0.00     0.109 C 
ATOM     15  C   UNL     1      -0.012   1.928  -1.869  1.00  0.00     0.034 C 
BRANCH  14  16
ATOM     16  C   UNL     1      -1.843   1.057  -0.242  1.00  0.00     0.140 C 
ATOM     17  C   UNL     1      -2.463   0.108  -1.264  1.00  0.00     0.036 C 
ATOM     18  O   UNL     1      -2.631   2.266  -0.255  1.00  0.00    -0.376 OA
ATOM     19  C   UNL     1      -3.732   0.814  -1.692  1.00  0.00     0.031 C 
ATOM     20  C   UNL     1      -3.415   2.267  -1.446  1.00  0.00     0.160 C 
ENDBRANCH  14  16
ENDBRANCH  11  14
ENDBRANCH   9  10
BRANCH   9  21
ATOM     21  C   UNL     1       4.025   1.365   0.613  1.00  0.00     0.237 C 
BRANCH  21  22
ATOM     22  C   UNL     1       4.695   0.301   1.500  1.00  0.00     0.406 C 
ATOM     23  F   UNL     1       4.951  -0.850   0.845  1.00  0.00    -0.169 F 
ATOM     24  F   UNL     1       5.894   0.769   1.927  1.00  0.00    -0.169 F 
ATOM     25  F   UNL     1       3.978   0.027   2.613  1.00  0.00    -0.169 F 
ENDBRANCH  21  22
ENDBRANCH   9  21
ENDBRANCH   8   9
ENDBRANCH   6   8
ENDBRANCH   5   6
ENDBRANCH   4   5
ENDBRANCH   3   4
ENDBRANCH   2   3
ENDBRANCH   1   2
BRANCH   1  26
ATOM     26  C   UNL     1       4.028   3.466   3.706  1.00  0.00     0.188 C 
BRANCH  26  27
ATOM     27  O   UNL     1       4.528   3.197   5.013  1.00  0.00    -0.376 OA
BRANCH  27  28
ATOM     28  C   UNL     1       5.739   2.445   4.988  1.00  0.00     0.202 C 
BRANCH  28  29
ATOM     29  C   UNL     1       6.924   3.399   5.147  1.00  0.00     0.261 C 
BRANCH  29  30
ATOM     30  O   UNL     1       6.932   4.478   4.188  1.00  0.00    -0.460 OA
BRANCH  30  31
ATOM     31  C   UNL     1       7.215   4.145   2.912  1.00  0.00     0.338 C 
ATOM     32  O   UNL     1       7.478   3.020   2.495  1.00  0.00    -0.246 OA
BRANCH  31  33
ATOM     33  C   UNL     1       6.981   5.306   2.032  1.00  0.00     0.060 A 
ATOM     34  C   UNL     1       6.279   5.122   0.831  1.00  0.00     0.016 A 
ATOM     35  C   UNL     1       7.500   6.561   2.356  1.00  0.00     0.016 A 
ATOM     36  C   UNL     1       6.136   6.179  -0.071  1.00  0.00     0.010 A 
ATOM     37  C   UNL     1       7.371   7.612   1.446  1.00  0.00     0.010 A 
ATOM     38  C   UNL     1       6.723   7.418   0.212  1.00  0.00    -0.014 A 
BRANCH  38  39
ATOM     39  C   UNL     1       6.871   8.454  -0.841  1.00  0.00     0.031 A 
ATOM     40  C   UNL     1       8.205   8.571  -1.529  1.00  0.00     0.074 A 
ATOM     41  C   UNL     1       5.872   9.296  -1.155  1.00  0.00     0.049 A 
ATOM     42  N   UNL     1       8.665   9.517  -2.303  1.00  0.00    -0.248 NA
ATOM     43  C   UNL     1       9.151   7.469  -1.292  1.00  0.00     0.031 C 
ATOM     44  C   UNL     1       4.516   9.239  -0.615  1.00  0.00     0.029 A 
ATOM     45  N   UNL     1       5.859  10.389  -1.987  1.00  0.00    -0.354 N 
ATOM     46  C   UNL     1       9.964   9.139  -2.629  1.00  0.00     0.074 A 
ATOM     47  C   UNL     1      10.222   7.888  -1.946  1.00  0.00     0.031 C 
ATOM     48  C   UNL     1       3.811  10.276  -1.102  1.00  0.00     0.029 A 
ATOM     49  C   UNL     1       4.681  11.100  -1.940  1.00  0.00     0.049 A 
ATOM     50  H   UNL     1       6.618  10.639  -2.562  1.00  0.00     0.167 HD
ATOM     51  C   UNL     1      10.858   9.778  -3.423  1.00  0.00     0.034 A 
ATOM     52  C   UNL     1       4.365  12.302  -2.466  1.00  0.00     0.034 A 
ATOM     53  C   UNL     1      10.587  11.031  -4.082  1.00  0.00     0.049 A 
ATOM     54  C   UNL     1       5.407  13.050  -3.269  1.00  0.00     0.074 A 
ATOM     55  C   UNL     1      11.422  11.779  -4.893  1.00  0.00     0.029 A 
ATOM     56  N   UNL     1       9.386  11.725  -4.001  1.00  0.00    -0.354 N 
ATOM     57  N   UNL     1       6.646  12.707  -3.542  1.00  0.00    -0.248 NA
ATOM     58  C   UNL     1       5.008  14.346  -3.836  1.00  0.00     0.031 C 
ATOM     59  C   UNL     1      10.750  12.954  -5.249  1.00  0.00     0.029 A 
ATOM     60  C   UNL     1       9.466  12.900  -4.730  1.00  0.00     0.049 A 
ATOM     61  H   UNL     1       8.594  11.425  -3.499  1.00  0.00     0.167 HD
ATOM     62  C   UNL     1       7.157  13.726  -4.343  1.00  0.00     0.074 A 
ATOM     63  C   UNL     1       6.093  14.693  -4.513  1.00  0.00     0.031 C 
ATOM     64  C   UNL     1       8.391  13.850  -4.897  1.00  0.00     0.034 A 
BRANCH  51  65
ATOM     65  C   UNL     1      12.226   9.156  -3.564  1.00  0.00     0.023 A 
ATOM     66  C   UNL     1      12.408   7.898  -4.165  1.00  0.00     0.031 A 
ATOM     67  C   UNL     1      13.361   9.813  -3.057  1.00  0.00     0.131 A 
ATOM     68  C   UNL     1      13.679   7.305  -4.176  1.00  0.00     0.055 A 
ATOM     69  C   UNL     1      14.637   9.254  -3.146  1.00  0.00     0.041 A 
ATOM     70  F   UNL     1      13.247  11.004  -2.449  1.00  0.00    -0.206 F 
ATOM     71  C   UNL     1      14.800   7.985  -3.695  1.00  0.00     0.022 A 
BRANCH  68  72
ATOM     72  S   UNL     1      13.822   5.573  -4.696  1.00  0.00     0.124 S 
ATOM     73  O   UNL     1      12.945   4.905  -3.736  1.00  0.00    -0.237 OA
ATOM     74  O   UNL     1      13.345   5.616  -6.073  1.00  0.00    -0.237 OA
ATOM     75  O   UNL     1      15.245   5.283  -4.535  1.00  0.00    -0.744 OA
ENDBRANCH  68  72
ENDBRANCH  51  65
BRANCH  52  76
ATOM     76  C   UNL     1       3.032  12.919  -2.200  1.00  0.00     0.023 A 
ATOM     77  C   UNL     1       2.137  13.198  -3.244  1.00  0.00     0.031 A 
ATOM     78  C   UNL     1       2.661  13.300  -0.897  1.00  0.00     0.131 A 
ATOM     79  C   UNL     1       0.940  13.882  -2.977  1.00  0.00     0.055 A 
ATOM     80  C   UNL     1       1.443  13.927  -0.628  1.00  0.00     0.041 A 
ATOM     81  F   UNL     1       3.482  13.064   0.140  1.00  0.00    -0.206 F 
ATOM     82  C   UNL     1       0.580  14.235  -1.674  1.00  0.00     0.022 A 
BRANCH  79  83
ATOM     83  S   UNL     1      -0.098  14.395  -4.374  1.00  0.00     0.124 S 
ATOM     84  O   UNL     1       0.831  15.211  -5.148  1.00  0.00    -0.237 OA
ATOM     85  O   UNL     1      -0.468  13.112  -4.963  1.00  0.00    -0.237 OA
ATOM     86  O   UNL     1      -1.191  15.126  -3.737  1.00  0.00    -0.744 OA
ENDBRANCH  79  83
ENDBRANCH  52  76
BRANCH  64  87
ATOM     87  C   UNL     1       8.631  15.032  -5.804  1.00  0.00     0.023 A 
ATOM     88  C   UNL     1       8.682  16.351  -5.320  1.00  0.00     0.031 A 
ATOM     89  C   UNL     1       8.831  14.825  -7.182  1.00  0.00     0.131 A 
ATOM     90  C   UNL     1       8.882  17.415  -6.213  1.00  0.00     0.055 A 
ATOM     91  C   UNL     1       9.085  15.882  -8.056  1.00  0.00     0.041 A 
ATOM     92  F   UNL     1       8.792  13.586  -7.699  1.00  0.00    -0.206 F 
ATOM     93  C   UNL     1       9.102  17.187  -7.575  1.00  0.00     0.022 A 
BRANCH  90  94
ATOM     94  S   UNL     1       8.782  19.114  -5.586  1.00  0.00     0.124 S 
ATOM     95  O   UNL     1       7.426  19.160  -5.048  1.00  0.00    -0.237 OA
ATOM     96  O   UNL     1       9.860  19.149  -4.603  1.00  0.00    -0.237 OA
ATOM     97  O   UNL     1       9.004  19.933  -6.776  1.00  0.00    -0.744 OA
ENDBRANCH  90  94
ENDBRANCH  64  87
ENDBRANCH  38  39
ENDBRANCH  31  33
ENDBRANCH  30  31
ENDBRANCH  29  30
ENDBRANCH  28  29
ENDBRANCH  27  28
ENDBRANCH  26  27
ENDBRANCH   1  26
TORSDOF 26
