REMARK SMILES Cc1ccccc1S(=O)(=O)Nc1ccc(N2CCOCC2)cc1C(=O)OCCOCCOCCOC(=O)c1ccc(-c2c3nc(c(-c4cc(S(=O)(=O)[O-])ccc4F)c4ccc([nH]4)c(-c4cc(S(=O)(=O)[O-])ccc4F)c4nc(c(-c5cc(S(=O)(=O)[O-])ccc5F)c5ccc2[nH]5)C=C4)C=C3)cc1
REMARK SMILES IDX 30 1 29 2 28 3 27 4 26 5 24 6 25 7 23 8 12 9 13 10 14 11
REMARK SMILES IDX 22 12 15 13 11 14 8 16 9 17 10 18 7 19 1 20 2 21 3 22 4 23
REMARK SMILES IDX 6 24 5 25 16 26 17 27 21 28 18 29 20 30 19 31 31 32 32 33
REMARK SMILES IDX 33 34 34 35 35 36 36 37 37 38 38 39 39 40 100 41 40 42 99 43
REMARK SMILES IDX 41 44 42 45 43 46 93 47 44 48 98 49 92 50 94 51 45 52 97 53
REMARK SMILES IDX 91 54 90 55 46 57 78 58 58 59 77 60 59 61 62 62 76 63 95 64
REMARK SMILES IDX 60 65 61 66 75 68 96 69 63 70 47 71 48 72 56 73 49 74 55 75
REMARK SMILES IDX 57 76 54 77 50 78 51 79 52 80 53 81 79 82 80 83 88 84 81 85
REMARK SMILES IDX 87 86 89 87 86 88 82 89 83 90 84 91 85 92 64 93 65 94 73 95
REMARK SMILES IDX 66 96 72 97 74 98 71 99 67 100 68 101 69 102 70 103
REMARK H PARENT 11 15 94 56 62 67
REMARK Flexibility Score: inf
ROOT
ATOM      1  C   UNL     1      -2.403   1.151  -2.812  1.00  0.00     0.188 C 
ENDROOT
BRANCH   1   2
ATOM      2  O   UNL     1      -1.170   0.400  -2.961  1.00  0.00    -0.376 OA
BRANCH   2   3
ATOM      3  C   UNL     1      -0.805  -0.949  -3.282  1.00  0.00     0.202 C 
BRANCH   3   4
ATOM      4  C   UNL     1       0.735  -1.828  -2.739  1.00  0.00     0.261 C 
BRANCH   4   5
ATOM      5  O   UNL     1       2.531  -1.507  -2.357  1.00  0.00    -0.460 OA
BRANCH   5   6
ATOM      6  C   UNL     1       3.557  -0.214  -2.019  1.00  0.00     0.340 C 
ATOM      7  O   UNL     1       3.758   0.852  -2.611  1.00  0.00    -0.246 OA
BRANCH   6   8
ATOM      8  C   UNL     1       4.193  -0.094  -0.713  1.00  0.00     0.086 A 
ATOM      9  C   UNL     1       4.063   0.884   0.372  1.00  0.00     0.064 A 
ATOM     10  C   UNL     1       4.991   0.620   1.383  1.00  0.00     0.030 A 
ATOM     11  C   UNL     1       5.723  -0.628   1.421  1.00  0.00     0.028 A 
ATOM     12  C   UNL     1       5.065  -1.176  -0.741  1.00  0.00     0.043 A 
ATOM     13  C   UNL     1       5.700  -1.585   0.385  1.00  0.00     0.038 A 
BRANCH   9  14
ATOM     14  N   UNL     1       3.084   2.118   0.517  1.00  0.00    -0.279 N 
ATOM     15  H   UNL     1       3.123   2.749  -0.237  1.00  0.00     0.180 HD
BRANCH  14  16
ATOM     16  S   UNL     1       1.768   2.643   1.960  1.00  0.00     0.262 S 
ATOM     17  O   UNL     1       1.256   3.962   1.670  1.00  0.00    -0.201 OA
ATOM     18  O   UNL     1       2.396   2.422   3.249  1.00  0.00    -0.201 OA
BRANCH  16  19
ATOM     19  C   UNL     1       0.303   1.445   1.855  1.00  0.00     0.090 A 
ATOM     20  C   UNL     1       2.180  -0.259   2.112  1.00  0.00     0.046 C 
ATOM     21  C   UNL     1       1.004   0.202   0.886  1.00  0.00    -0.031 A 
ATOM     22  C   UNL     1      -0.173  -0.947  -0.309  1.00  0.00     0.005 A 
ATOM     23  C   UNL     1      -1.754  -0.881  -0.372  1.00  0.00     0.000 A 
ATOM     24  C   UNL     1      -1.488   1.484   1.812  1.00  0.00     0.022 A 
ATOM     25  C   UNL     1      -2.406   0.343   0.666  1.00  0.00     0.001 A 
ENDBRANCH  16  19
ENDBRANCH  14  16
ENDBRANCH   9  14
BRANCH  13  26
ATOM     26  N   UNL     1       6.176  -2.884   0.424  1.00  0.00    -0.367 N 
ATOM     27  C   UNL     1       6.467  -3.671  -0.815  1.00  0.00     0.145 C 
ATOM     28  C   UNL     1       5.869  -3.710   1.600  1.00  0.00     0.145 C 
ATOM     29  C   UNL     1       5.442  -4.797  -1.037  1.00  0.00     0.181 C 
ATOM     30  C   UNL     1       4.970  -4.923   1.254  1.00  0.00     0.181 C 
ATOM     31  O   UNL     1       5.414  -5.663   0.108  1.00  0.00    -0.378 OA
ENDBRANCH  13  26
ENDBRANCH   6   8
ENDBRANCH   5   6
ENDBRANCH   4   5
ENDBRANCH   3   4
ENDBRANCH   2   3
ENDBRANCH   1   2
BRANCH   1  32
ATOM     32  C   UNL     1      -3.754   0.937  -1.948  1.00  0.00     0.188 C 
BRANCH  32  33
ATOM     33  O   UNL     1      -4.011  -0.286  -1.237  1.00  0.00    -0.376 OA
BRANCH  33  34
ATOM     34  C   UNL     1      -4.966  -0.334  -0.095  1.00  0.00     0.202 C 
BRANCH  34  35
ATOM     35  C   UNL     1      -4.676   0.185   1.582  1.00  0.00     0.261 C 
BRANCH  35  36
ATOM     36  O   UNL     1      -3.440  -0.602   2.582  1.00  0.00    -0.460 OA
BRANCH  36  37
ATOM     37  C   UNL     1      -1.955  -0.916   2.656  1.00  0.00     0.338 C 
ATOM     38  O   UNL     1      -1.580  -1.512   3.673  1.00  0.00    -0.246 OA
BRANCH  37  39
ATOM     39  C   UNL     1      -0.654  -0.564   1.488  1.00  0.00     0.060 A 
ATOM     40  C   UNL     1       0.702  -1.798   1.263  1.00  0.00     0.016 A 
ATOM     41  C   UNL     1      -0.589   0.880   0.064  1.00  0.00     0.016 A 
ATOM     42  C   UNL     1       1.780  -1.379  -0.220  1.00  0.00     0.010 A 
ATOM     43  C   UNL     1       0.413   1.102  -1.133  1.00  0.00     0.010 A 
ATOM     44  C   UNL     1       1.422   0.051  -1.435  1.00  0.00    -0.014 A 
BRANCH  44  45
ATOM     45  C   UNL     1       1.603   0.323  -3.318  1.00  0.00     0.031 A 
ATOM     46  C   UNL     1       2.610  -0.692  -4.407  1.00  0.00     0.074 A 
ATOM     47  C   UNL     1       1.192   1.426  -4.037  1.00  0.00     0.049 A 
ATOM     48  N   UNL     1       3.828  -0.326  -4.758  1.00  0.00    -0.248 NA
ATOM     49  C   UNL     1       2.524  -2.201  -4.706  1.00  0.00     0.031 C 
ATOM     50  C   UNL     1       1.194   1.560  -5.495  1.00  0.00     0.029 A 
ATOM     51  N   UNL     1       0.615   2.644  -3.651  1.00  0.00    -0.354 N 
ATOM     52  C   UNL     1       4.440  -1.439  -5.315  1.00  0.00     0.074 A 
ATOM     53  C   UNL     1       3.803  -2.555  -4.736  1.00  0.00     0.031 C 
ATOM     54  C   UNL     1       0.843   2.812  -5.847  1.00  0.00     0.029 A 
ATOM     55  C   UNL     1       0.703   3.617  -4.653  1.00  0.00     0.049 A 
ATOM     56  H   UNL     1       0.195   2.798  -2.774  1.00  0.00     0.167 HD
ATOM     57  C   UNL     1       4.874  -1.464  -6.606  1.00  0.00     0.034 A 
ATOM     58  C   UNL     1       1.203   4.867  -4.409  1.00  0.00     0.034 A 
ATOM     59  C   UNL     1       4.565  -0.182  -7.209  1.00  0.00     0.049 A 
ATOM     60  C   UNL     1       2.625   4.916  -4.975  1.00  0.00     0.074 A 
ATOM     61  C   UNL     1       3.540   0.292  -8.011  1.00  0.00     0.029 A 
ATOM     62  N   UNL     1       5.093   0.932  -6.595  1.00  0.00    -0.354 N 
ATOM     63  N   UNL     1       3.108   4.046  -5.824  1.00  0.00    -0.248 NA
ATOM     64  C   UNL     1       3.632   5.889  -4.560  1.00  0.00     0.031 C 
ATOM     65  C   UNL     1       3.552   1.722  -7.931  1.00  0.00     0.029 A 
ATOM     66  C   UNL     1       4.598   2.103  -7.113  1.00  0.00     0.049 A 
ATOM     67  H   UNL     1       5.753   0.893  -5.866  1.00  0.00     0.167 HD
ATOM     68  C   UNL     1       4.464   4.206  -5.947  1.00  0.00     0.074 A 
ATOM     69  C   UNL     1       4.736   5.400  -5.154  1.00  0.00     0.031 C 
ATOM     70  C   UNL     1       5.245   3.317  -6.646  1.00  0.00     0.034 A 
BRANCH  57  71
ATOM     71  C   UNL     1       5.093  -2.779  -7.343  1.00  0.00     0.023 A 
ATOM     72  C   UNL     1       4.877  -2.821  -8.724  1.00  0.00     0.031 A 
ATOM     73  C   UNL     1       5.478  -4.014  -6.754  1.00  0.00     0.131 A 
ATOM     74  C   UNL     1       4.945  -4.032  -9.437  1.00  0.00     0.055 A 
ATOM     75  C   UNL     1       5.447  -5.237  -7.442  1.00  0.00     0.041 A 
ATOM     76  F   UNL     1       5.915  -4.085  -5.484  1.00  0.00    -0.206 F 
ATOM     77  C   UNL     1       5.176  -5.249  -8.800  1.00  0.00     0.022 A 
BRANCH  74  78
ATOM     78  S   UNL     1       4.817  -3.968 -11.239  1.00  0.00     0.124 S 
ATOM     79  O   UNL     1       3.427  -3.567 -11.429  1.00  0.00    -0.237 OA
ATOM     80  O   UNL     1       5.831  -2.977 -11.582  1.00  0.00    -0.237 OA
ATOM     81  O   UNL     1       5.131  -5.336 -11.649  1.00  0.00    -0.744 OA
ENDBRANCH  74  78
ENDBRANCH  57  71
BRANCH  58  82
ATOM     82  C   UNL     1       0.793   5.380  -3.039  1.00  0.00     0.023 A 
ATOM     83  C   UNL     1      -0.577   5.731  -2.787  1.00  0.00     0.031 A 
ATOM     84  C   UNL     1       1.514   4.829  -1.992  1.00  0.00     0.131 A 
ATOM     85  C   UNL     1      -1.234   5.274  -1.620  1.00  0.00     0.055 A 
ATOM     86  C   UNL     1       0.797   4.254  -0.968  1.00  0.00     0.041 A 
ATOM     87  F   UNL     1       2.805   4.484  -2.105  1.00  0.00    -0.206 F 
ATOM     88  C   UNL     1      -0.554   4.457  -0.749  1.00  0.00     0.022 A 
BRANCH  85  89
ATOM     89  S   UNL     1      -3.023   5.444  -1.348  1.00  0.00     0.124 S 
ATOM     90  O   UNL     1      -3.166   6.868  -1.069  1.00  0.00    -0.237 OA
ATOM     91  O   UNL     1      -3.575   4.967  -2.612  1.00  0.00    -0.237 OA
ATOM     92  O   UNL     1      -3.300   4.558  -0.214  1.00  0.00    -0.744 OA
ENDBRANCH  85  89
ENDBRANCH  58  82
BRANCH  70  93
ATOM     93  C   UNL     1       6.747   3.437  -6.897  1.00  0.00     0.023 A 
ATOM     94  C   UNL     1       7.410   4.651  -6.751  1.00  0.00     0.031 A 
ATOM     95  C   UNL     1       7.567   2.373  -7.380  1.00  0.00     0.131 A 
ATOM     96  C   UNL     1       8.798   4.756  -6.932  1.00  0.00     0.055 A 
ATOM     97  C   UNL     1       8.943   2.478  -7.580  1.00  0.00     0.041 A 
ATOM     98  F   UNL     1       7.095   1.171  -7.727  1.00  0.00    -0.206 F 
ATOM     99  C   UNL     1       9.575   3.677  -7.338  1.00  0.00     0.022 A 
BRANCH  96 100
ATOM    100  S   UNL     1       9.550   6.367  -6.638  1.00  0.00     0.124 S 
ATOM    101  O   UNL     1       8.711   7.254  -7.438  1.00  0.00    -0.237 OA
ATOM    102  O   UNL     1       9.411   6.498  -5.191  1.00  0.00    -0.237 OA
ATOM    103  O   UNL     1      10.917   6.199  -7.123  1.00  0.00    -0.744 OA
ENDBRANCH  96 100
ENDBRANCH  70  93
ENDBRANCH  44  45
ENDBRANCH  37  39
ENDBRANCH  36  37
ENDBRANCH  35  36
ENDBRANCH  34  35
ENDBRANCH  33  34
ENDBRANCH  32  33
ENDBRANCH   1  32
TORSDOF 24
