REMARK SMILES Cc1cccc(CNC(=O)N[C@@H](CC2=c3ccccc3=NC2)C(=O)OCCOCCOCCOC(=O)c2ccc(-c3c4nc(c(-c5cc(S(=O)(=O)[O-])ccc5F)c5ccc([nH]5)c(-c5cc(S(=O)(=O)[O-])ccc5F)c5nc(c(-c6cc(S(=O)(=O)[O-])ccc6F)c6ccc3[nH]6)C=C5)C=C4)cc2)c1
REMARK SMILES IDX 29 1 28 2 27 3 26 4 25 5 23 6 24 7 12 8 11 9 8 10 9 11 10 13
REMARK SMILES IDX 7 15 6 16 1 17 2 18 3 19 100 20 4 21 5 22 13 23 14 24 15 25
REMARK SMILES IDX 22 26 16 27 20 28 21 29 17 30 19 31 18 32 30 33 31 34 32 35
REMARK SMILES IDX 33 36 34 37 35 38 36 39 37 40 38 41 99 42 39 43 98 44 40 45
REMARK SMILES IDX 41 46 42 47 92 48 43 49 97 50 91 51 93 52 44 53 96 54 90 55
REMARK SMILES IDX 89 56 45 58 77 59 57 60 76 61 58 62 61 63 75 64 94 65 59 66
REMARK SMILES IDX 60 67 74 69 95 70 62 71 46 72 47 73 55 74 48 75 54 76 56 77
REMARK SMILES IDX 53 78 49 79 50 80 51 81 52 82 78 83 79 84 87 85 80 86 86 87
REMARK SMILES IDX 88 88 85 89 81 90 82 91 83 92 84 93 63 94 64 95 72 96 65 97
REMARK SMILES IDX 71 98 73 99 70 100 66 101 67 102 68 103 69 104
REMARK H PARENT 8 12 11 14 93 57 61 68
REMARK Flexibility Score: inf
ROOT
ATOM      1  C   UNL     1      -4.863  -3.425   0.400  1.00  0.00     0.188 C 
ENDROOT
BRANCH   1   2
ATOM      2  O   UNL     1      -5.540  -3.572   1.634  1.00  0.00    -0.376 OA
BRANCH   2   3
ATOM      3  C   UNL     1      -5.046  -2.652   2.590  1.00  0.00     0.202 C 
BRANCH   3   4
ATOM      4  C   UNL     1      -5.162  -1.182   2.175  1.00  0.00     0.261 C 
BRANCH   4   5
ATOM      5  O   UNL     1      -3.804  -0.402   1.596  1.00  0.00    -0.462 OA
BRANCH   5   6
ATOM      6  C   UNL     1      -2.920   0.717   1.577  1.00  0.00     0.329 C 
ATOM      7  O   UNL     1      -1.898   0.499   0.919  1.00  0.00    -0.250 OA
BRANCH   6   8
ATOM      8  C   UNL     1      -3.040   2.331   2.154  1.00  0.00     0.198 C 
BRANCH   8   9
ATOM      9  N   UNL     1      -3.413   3.326   1.055  1.00  0.00    -0.324 N 
ATOM     10  N   UNL     1      -2.092   3.081  -0.898  1.00  0.00    -0.334 N 
ATOM     11  C   UNL     1      -3.071   3.660  -0.199  1.00  0.00     0.315 C 
ATOM     12  H   UNL     1      -2.321   2.791  -1.810  1.00  0.00     0.165 HD
ATOM     13  O   UNL     1      -3.822   4.437  -0.797  1.00  0.00    -0.249 OA
ATOM     14  H   UNL     1      -4.139   3.912   1.369  1.00  0.00     0.166 HD
BRANCH  10  15
ATOM     15  C   UNL     1      -0.744   2.834  -0.472  1.00  0.00     0.153 C 
BRANCH  15  16
ATOM     16  C   UNL     1      -0.098   1.568  -0.983  1.00  0.00    -0.028 A 
ATOM     17  C   UNL     1       3.175  -0.136  -0.085  1.00  0.00     0.044 C 
ATOM     18  C   UNL     1       1.855   0.115  -0.750  1.00  0.00    -0.051 A 
ATOM     19  C   UNL     1       1.149  -0.925  -1.362  1.00  0.00     0.003 A 
ATOM     20  C   UNL     1       1.231   1.356  -0.586  1.00  0.00     0.009 A 
ATOM     21  C   UNL     1      -0.158  -0.717  -1.811  1.00  0.00     0.001 A 
ATOM     22  C   UNL     1      -0.776   0.526  -1.635  1.00  0.00     0.005 A 
ENDBRANCH  15  16
ENDBRANCH  10  15
ENDBRANCH   8   9
BRANCH   8  23
ATOM     23  C   UNL     1      -3.539   2.931   3.685  1.00  0.00     0.070 C 
BRANCH  23  24
ATOM     24  C   UNL     1      -5.153   3.101   4.323  1.00  0.00    -0.037 C 
ATOM     25  C   UNL     1      -6.695   2.311   4.640  1.00  0.00     0.001 A 
ATOM     26  C   UNL     1      -5.557   4.816   3.398  1.00  0.00     0.174 C 
ATOM     27  C   UNL     1      -7.358   0.928   4.708  1.00  0.00     0.010 A 
ATOM     28  C   UNL     1      -8.169   3.329   4.029  1.00  0.00     0.065 A 
ATOM     29  N   UNL     1      -7.747   4.541   3.307  1.00  0.00    -0.280 NA
ATOM     30  C   UNL     1      -8.668   0.656   4.627  1.00  0.00     0.001 A 
ATOM     31  C   UNL     1      -9.539   2.893   4.253  1.00  0.00     0.028 A 
ATOM     32  C   UNL     1      -9.730   1.614   4.564  1.00  0.00     0.002 A 
ENDBRANCH  23  24
ENDBRANCH   8  23
ENDBRANCH   6   8
ENDBRANCH   5   6
ENDBRANCH   4   5
ENDBRANCH   3   4
ENDBRANCH   2   3
ENDBRANCH   1   2
BRANCH   1  33
ATOM     33  C   UNL     1      -5.450  -2.297  -0.418  1.00  0.00     0.188 C 
BRANCH  33  34
ATOM     34  O   UNL     1      -6.731  -1.853   0.025  1.00  0.00    -0.376 OA
BRANCH  34  35
ATOM     35  C   UNL     1      -7.865  -2.636  -0.255  1.00  0.00     0.202 C 
BRANCH  35  36
ATOM     36  C   UNL     1      -8.069  -2.645  -1.761  1.00  0.00     0.261 C 
BRANCH  36  37
ATOM     37  O   UNL     1      -8.278  -1.272  -2.199  1.00  0.00    -0.460 OA
BRANCH  37  38
ATOM     38  C   UNL     1      -7.146  -0.597  -2.553  1.00  0.00     0.338 C 
ATOM     39  O   UNL     1      -6.367  -0.967  -3.420  1.00  0.00    -0.246 OA
BRANCH  38  40
ATOM     40  C   UNL     1      -6.849   0.494  -1.562  1.00  0.00     0.060 A 
ATOM     41  C   UNL     1      -5.524   0.828  -1.374  1.00  0.00     0.016 A 
ATOM     42  C   UNL     1      -7.762   0.920  -0.594  1.00  0.00     0.016 A 
ATOM     43  C   UNL     1      -5.118   1.317  -0.117  1.00  0.00     0.010 A 
ATOM     44  C   UNL     1      -7.321   1.425   0.660  1.00  0.00     0.010 A 
ATOM     45  C   UNL     1      -5.961   1.514   1.001  1.00  0.00    -0.014 A 
BRANCH  45  46
ATOM     46  C   UNL     1      -5.645   1.750   2.557  1.00  0.00     0.031 A 
ATOM     47  C   UNL     1      -6.489   3.442   2.874  1.00  0.00     0.074 A 
ATOM     48  C   UNL     1      -4.811   0.891   3.699  1.00  0.00     0.049 A 
ATOM     49  N   UNL     1      -6.617   4.227   4.545  1.00  0.00    -0.248 NA
ATOM     50  C   UNL     1      -6.771   5.063   1.740  1.00  0.00     0.031 C 
ATOM     51  C   UNL     1      -4.892   0.838   5.341  1.00  0.00     0.029 A 
ATOM     52  N   UNL     1      -3.720  -0.076   3.795  1.00  0.00    -0.354 N 
ATOM     53  C   UNL     1      -6.933   5.877   4.537  1.00  0.00     0.074 A 
ATOM     54  C   UNL     1      -7.010   6.303   2.733  1.00  0.00     0.031 C 
ATOM     55  C   UNL     1      -4.235  -0.146   5.952  1.00  0.00     0.029 A 
ATOM     56  C   UNL     1      -3.260  -0.545   5.023  1.00  0.00     0.049 A 
ATOM     57  H   UNL     1      -3.298  -0.406   2.969  1.00  0.00     0.167 HD
ATOM     58  C   UNL     1      -7.010   6.237   5.861  1.00  0.00     0.034 A 
ATOM     59  C   UNL     1      -1.942  -0.624   5.337  1.00  0.00     0.034 A 
ATOM     60  C   UNL     1      -6.104   5.278   6.740  1.00  0.00     0.049 A 
ATOM     61  C   UNL     1      -1.625   0.666   6.162  1.00  0.00     0.074 A 
ATOM     62  C   UNL     1      -6.400   4.155   7.521  1.00  0.00     0.029 A 
ATOM     63  N   UNL     1      -4.682   5.205   6.614  1.00  0.00    -0.354 N 
ATOM     64  N   UNL     1      -2.492   1.642   6.372  1.00  0.00    -0.248 NA
ATOM     65  C   UNL     1      -0.385   0.916   6.877  1.00  0.00     0.031 C 
ATOM     66  C   UNL     1      -5.199   3.418   7.807  1.00  0.00     0.029 A 
ATOM     67  C   UNL     1      -4.107   4.055   7.233  1.00  0.00     0.049 A 
ATOM     68  H   UNL     1      -4.148   5.886   6.144  1.00  0.00     0.167 HD
ATOM     69  C   UNL     1      -1.984   2.644   7.142  1.00  0.00     0.074 A 
ATOM     70  C   UNL     1      -0.664   2.087   7.488  1.00  0.00     0.031 C 
ATOM     71  C   UNL     1      -2.627   3.846   7.425  1.00  0.00     0.034 A 
BRANCH  58  72
ATOM     72  C   UNL     1      -8.401   6.645   6.347  1.00  0.00     0.023 A 
ATOM     73  C   UNL     1      -8.770   6.418   7.695  1.00  0.00     0.031 A 
ATOM     74  C   UNL     1      -9.434   7.100   5.502  1.00  0.00     0.131 A 
ATOM     75  C   UNL     1     -10.101   6.568   8.134  1.00  0.00     0.055 A 
ATOM     76  C   UNL     1     -10.757   7.268   5.945  1.00  0.00     0.041 A 
ATOM     77  F   UNL     1      -9.207   7.389   4.212  1.00  0.00    -0.206 F 
ATOM     78  C   UNL     1     -11.098   6.996   7.263  1.00  0.00     0.022 A 
BRANCH  75  79
ATOM     79  S   UNL     1     -10.533   6.203   9.863  1.00  0.00     0.124 S 
ATOM     80  O   UNL     1     -10.623   4.747   9.858  1.00  0.00    -0.237 OA
ATOM     81  O   UNL     1      -9.416   6.777  10.606  1.00  0.00    -0.237 OA
ATOM     82  O   UNL     1     -11.806   6.900  10.044  1.00  0.00    -0.744 OA
ENDBRANCH  75  79
ENDBRANCH  58  72
BRANCH  59  83
ATOM     83  C   UNL     1      -1.163  -1.354   4.272  1.00  0.00     0.023 A 
ATOM     84  C   UNL     1      -1.552  -2.687   3.894  1.00  0.00     0.031 A 
ATOM     85  C   UNL     1      -0.316  -0.686   3.394  1.00  0.00     0.131 A 
ATOM     86  C   UNL     1      -1.230  -3.223   2.623  1.00  0.00     0.055 A 
ATOM     87  C   UNL     1      -0.024  -1.219   2.131  1.00  0.00     0.041 A 
ATOM     88  F   UNL     1       0.118   0.550   3.673  1.00  0.00    -0.206 F 
ATOM     89  C   UNL     1      -0.534  -2.447   1.709  1.00  0.00     0.022 A 
BRANCH  86  90
ATOM     90  S   UNL     1      -1.783  -4.883   2.068  1.00  0.00     0.124 S 
ATOM     91  O   UNL     1      -0.585  -5.687   2.279  1.00  0.00    -0.237 OA
ATOM     92  O   UNL     1      -2.903  -5.176   2.954  1.00  0.00    -0.237 OA
ATOM     93  O   UNL     1      -2.133  -4.680   0.663  1.00  0.00    -0.744 OA
ENDBRANCH  86  90
ENDBRANCH  59  83
BRANCH  71  94
ATOM     94  C   UNL     1      -1.861   4.934   8.141  1.00  0.00     0.023 A 
ATOM     95  C   UNL     1      -0.470   5.060   8.037  1.00  0.00     0.031 A 
ATOM     96  C   UNL     1      -2.510   5.885   8.956  1.00  0.00     0.131 A 
ATOM     97  C   UNL     1       0.232   5.944   8.863  1.00  0.00     0.055 A 
ATOM     98  C   UNL     1      -1.819   6.877   9.650  1.00  0.00     0.041 A 
ATOM     99  F   UNL     1      -3.839   5.881   9.128  1.00  0.00    -0.206 F 
ATOM    100  C   UNL     1      -0.432   6.885   9.641  1.00  0.00     0.022 A 
BRANCH  97 101
ATOM    101  S   UNL     1       2.018   5.700   9.023  1.00  0.00     0.124 S 
ATOM    102  O   UNL     1       2.076   4.396   9.680  1.00  0.00    -0.237 OA
ATOM    103  O   UNL     1       2.466   5.727   7.635  1.00  0.00    -0.237 OA
ATOM    104  O   UNL     1       2.444   6.832   9.841  1.00  0.00    -0.744 OA
ENDBRANCH  97 101
ENDBRANCH  71  94
ENDBRANCH  45  46
ENDBRANCH  38  40
ENDBRANCH  37  38
ENDBRANCH  36  37
ENDBRANCH  35  36
ENDBRANCH  34  35
ENDBRANCH  33  34
ENDBRANCH   1  33
TORSDOF 25
