REMARK SMILES C[C@@](NC(=O)[C@H]1COc2ccccc21)(C(=O)OCCOCCOCCOC(=O)c1ccc(-c2c3nc(c(-c4cc(S(=O)(=O)[O-])ccc4F)c4ccc([nH]4)c(-c4cc(S(=O)(=O)[O-])ccc4F)c4nc(c(-c5cc(S(=O)(=O)[O-])ccc5F)c5ccc2[nH]5)C=C4)C=C3)cc1)C(F)(F)F
REMARK SMILES IDX 22 1 21 2 20 3 19 4 18 5 17 6 15 7 16 8 2 9 1 10 3 11 4 12
REMARK SMILES IDX 5 14 6 15 7 16 14 17 8 18 9 19 13 20 10 21 12 22 11 23 92 24
REMARK SMILES IDX 93 25 94 26 95 27 23 28 24 29 25 30 26 31 27 32 28 33 29 34
REMARK SMILES IDX 30 35 91 36 31 37 90 38 32 39 33 40 34 41 84 42 35 43 89 44
REMARK SMILES IDX 83 45 85 46 36 47 88 48 82 49 81 50 37 52 69 53 49 54 68 55
REMARK SMILES IDX 50 56 53 57 67 58 86 59 51 60 52 61 66 63 87 64 54 65 38 66
REMARK SMILES IDX 39 67 47 68 40 69 46 70 48 71 45 72 41 73 42 74 43 75 44 76
REMARK SMILES IDX 70 77 71 78 79 79 72 80 78 81 80 82 77 83 73 84 74 85 75 86
REMARK SMILES IDX 76 87 55 88 56 89 64 90 57 91 63 92 65 93 62 94 58 95 59 96
REMARK SMILES IDX 60 97 61 98
REMARK H PARENT 3 13 85 51 53 62
REMARK Flexibility Score: inf
ROOT
ATOM      1  C   UNL     1      -1.874  -1.246   1.111  1.00  0.00     0.188 C 
ENDROOT
BRANCH   1   2
ATOM      2  C   UNL     1      -2.916  -0.174   1.586  1.00  0.00     0.188 C 
BRANCH   2   3
ATOM      3  O   UNL     1      -4.094   0.223   0.832  1.00  0.00    -0.376 OA
BRANCH   3   4
ATOM      4  C   UNL     1      -4.163   0.577  -0.574  1.00  0.00     0.202 C 
BRANCH   4   5
ATOM      5  C   UNL     1      -3.198   1.809  -1.456  1.00  0.00     0.261 C 
BRANCH   5   6
ATOM      6  O   UNL     1      -1.193   2.109  -1.010  1.00  0.00    -0.461 OA
BRANCH   6   7
ATOM      7  C   UNL     1      -0.121   2.084  -0.075  1.00  0.00     0.341 C 
ATOM      8  O   UNL     1      -0.192   1.878   1.132  1.00  0.00    -0.249 OA
BRANCH   7   9
ATOM      9  C   UNL     1       1.159   2.059  -0.846  1.00  0.00     0.231 C 
ATOM     10  C   UNL     1       1.671   0.598  -0.795  1.00  0.00     0.058 C 
BRANCH   9  11
ATOM     11  N   UNL     1       1.017   2.578  -2.268  1.00  0.00    -0.332 N 
ATOM     12  C   UNL     1      -0.054   2.923  -3.058  1.00  0.00     0.232 C 
ATOM     13  H   UNL     1       1.882   2.692  -2.723  1.00  0.00     0.164 HD
ATOM     14  O   UNL     1       0.212   3.427  -4.156  1.00  0.00    -0.274 OA
BRANCH  12  15
ATOM     15  C   UNL     1      -1.544   2.668  -2.696  1.00  0.00     0.150 C 
ATOM     16  C   UNL     1      -1.586   0.749  -2.094  1.00  0.00     0.248 C 
ATOM     17  C   UNL     1      -2.130   3.736  -1.190  1.00  0.00     0.010 A 
ATOM     18  O   UNL     1      -2.099   0.915  -0.226  1.00  0.00    -0.492 OA
ATOM     19  C   UNL     1      -2.488   2.704   0.207  1.00  0.00     0.123 A 
ATOM     20  C   UNL     1      -2.244   5.069  -1.022  1.00  0.00     0.008 A 
ATOM     21  C   UNL     1      -2.961   3.087   1.413  1.00  0.00     0.047 A 
ATOM     22  C   UNL     1      -2.692   5.401   0.296  1.00  0.00     0.001 A 
ATOM     23  C   UNL     1      -3.044   4.484   1.419  1.00  0.00     0.004 A 
ENDBRANCH  12  15
ENDBRANCH   9  11
BRANCH   9  24
ATOM     24  C   UNL     1       2.125   2.904   0.002  1.00  0.00     0.422 C 
ATOM     25  F   UNL     1       2.311   2.432   1.252  1.00  0.00    -0.168 F 
ATOM     26  F   UNL     1       3.351   2.892  -0.593  1.00  0.00    -0.168 F 
ATOM     27  F   UNL     1       1.741   4.194   0.080  1.00  0.00    -0.168 F 
ENDBRANCH   9  24
ENDBRANCH   7   9
ENDBRANCH   6   7
ENDBRANCH   5   6
ENDBRANCH   4   5
ENDBRANCH   3   4
ENDBRANCH   2   3
ENDBRANCH   1   2
BRANCH   1  28
ATOM     28  O   UNL     1      -2.340  -2.468   0.575  1.00  0.00    -0.376 OA
BRANCH  28  29
ATOM     29  C   UNL     1      -3.563  -2.928   1.113  1.00  0.00     0.202 C 
BRANCH  29  30
ATOM     30  C   UNL     1      -3.608  -3.280   2.619  1.00  0.00     0.261 C 
BRANCH  30  31
ATOM     31  O   UNL     1      -3.241  -2.239   3.564  1.00  0.00    -0.460 OA
BRANCH  31  32
ATOM     32  C   UNL     1      -1.995  -2.296   4.109  1.00  0.00     0.338 C 
ATOM     33  O   UNL     1      -1.202  -3.210   3.946  1.00  0.00    -0.246 OA
BRANCH  32  34
ATOM     34  C   UNL     1      -1.601  -1.020   4.797  1.00  0.00     0.060 A 
ATOM     35  C   UNL     1      -0.363  -0.439   4.468  1.00  0.00     0.016 A 
ATOM     36  C   UNL     1      -2.340  -0.471   5.847  1.00  0.00     0.016 A 
ATOM     37  C   UNL     1       0.183   0.601   5.241  1.00  0.00     0.010 A 
ATOM     38  C   UNL     1      -1.783   0.565   6.632  1.00  0.00     0.010 A 
ATOM     39  C   UNL     1      -0.485   1.061   6.381  1.00  0.00    -0.014 A 
BRANCH  39  40
ATOM     40  C   UNL     1       0.272   1.813   7.441  1.00  0.00     0.031 A 
ATOM     41  C   UNL     1       0.745   1.042   8.660  1.00  0.00     0.074 A 
ATOM     42  C   UNL     1       0.601   3.118   7.340  1.00  0.00     0.049 A 
ATOM     43  N   UNL     1       1.380   1.459   9.728  1.00  0.00    -0.248 NA
ATOM     44  C   UNL     1       0.447  -0.398   8.668  1.00  0.00     0.031 C 
ATOM     45  C   UNL     1       0.292   3.985   6.206  1.00  0.00     0.029 A 
ATOM     46  N   UNL     1       1.273   3.946   8.216  1.00  0.00    -0.354 N 
ATOM     47  C   UNL     1       1.540   0.337  10.540  1.00  0.00     0.074 A 
ATOM     48  C   UNL     1       0.897  -0.764   9.858  1.00  0.00     0.031 C 
ATOM     49  C   UNL     1       0.768   5.219   6.456  1.00  0.00     0.029 A 
ATOM     50  C   UNL     1       1.386   5.249   7.783  1.00  0.00     0.049 A 
ATOM     51  H   UNL     1       1.639   3.632   9.075  1.00  0.00     0.167 HD
ATOM     52  C   UNL     1       2.171   0.224  11.738  1.00  0.00     0.034 A 
ATOM     53  C   UNL     1       1.909   6.342   8.386  1.00  0.00     0.034 A 
ATOM     54  C   UNL     1       2.815   1.320  12.422  1.00  0.00     0.049 A 
ATOM     55  C   UNL     1       2.521   6.215   9.768  1.00  0.00     0.074 A 
ATOM     56  C   UNL     1       3.497   1.299  13.628  1.00  0.00     0.029 A 
ATOM     57  N   UNL     1       2.848   2.634  11.975  1.00  0.00    -0.354 N 
ATOM     58  N   UNL     1       2.664   5.148  10.520  1.00  0.00    -0.248 NA
ATOM     59  C   UNL     1       3.053   7.445  10.374  1.00  0.00     0.031 C 
ATOM     60  C   UNL     1       3.856   2.611  13.954  1.00  0.00     0.029 A 
ATOM     61  C   UNL     1       3.500   3.437  12.901  1.00  0.00     0.049 A 
ATOM     62  H   UNL     1       2.466   2.950  11.125  1.00  0.00     0.167 HD
ATOM     63  C   UNL     1       3.348   5.573  11.661  1.00  0.00     0.074 A 
ATOM     64  C   UNL     1       3.595   6.988  11.493  1.00  0.00     0.031 C 
ATOM     65  C   UNL     1       3.746   4.852  12.742  1.00  0.00     0.034 A 
BRANCH  52  66
ATOM     66  C   UNL     1       2.135  -1.128  12.420  1.00  0.00     0.023 A 
ATOM     67  C   UNL     1       2.722  -2.272  11.849  1.00  0.00     0.031 A 
ATOM     68  C   UNL     1       1.476  -1.278  13.654  1.00  0.00     0.131 A 
ATOM     69  C   UNL     1       2.568  -3.522  12.469  1.00  0.00     0.055 A 
ATOM     70  C   UNL     1       1.407  -2.507  14.312  1.00  0.00     0.041 A 
ATOM     71  F   UNL     1       0.875  -0.230  14.240  1.00  0.00    -0.206 F 
ATOM     72  C   UNL     1       1.940  -3.643  13.711  1.00  0.00     0.022 A 
BRANCH  69  73
ATOM     73  S   UNL     1       3.054  -5.012  11.554  1.00  0.00     0.124 S 
ATOM     74  O   UNL     1       2.249  -4.888  10.341  1.00  0.00    -0.237 OA
ATOM     75  O   UNL     1       4.491  -4.827  11.390  1.00  0.00    -0.237 OA
ATOM     76  O   UNL     1       2.661  -6.104  12.443  1.00  0.00    -0.744 OA
ENDBRANCH  69  73
ENDBRANCH  52  66
BRANCH  53  77
ATOM     77  C   UNL     1       1.861   7.684   7.720  1.00  0.00     0.023 A 
ATOM     78  C   UNL     1       3.037   8.393   7.417  1.00  0.00     0.031 A 
ATOM     79  C   UNL     1       0.632   8.318   7.463  1.00  0.00     0.131 A 
ATOM     80  C   UNL     1       2.959   9.708   6.925  1.00  0.00     0.055 A 
ATOM     81  C   UNL     1       0.560   9.600   6.912  1.00  0.00     0.041 A 
ATOM     82  F   UNL     1      -0.525   7.700   7.750  1.00  0.00    -0.206 F 
ATOM     83  C   UNL     1       1.728  10.308   6.653  1.00  0.00     0.022 A 
BRANCH  80  84
ATOM     84  S   UNL     1       4.490  10.669   6.747  1.00  0.00     0.124 S 
ATOM     85  O   UNL     1       5.004  10.662   8.111  1.00  0.00    -0.237 OA
ATOM     86  O   UNL     1       5.236   9.877   5.775  1.00  0.00    -0.237 OA
ATOM     87  O   UNL     1       4.023  11.966   6.262  1.00  0.00    -0.744 OA
ENDBRANCH  80  84
ENDBRANCH  53  77
BRANCH  65  88
ATOM     88  C   UNL     1       4.562   5.566  13.801  1.00  0.00     0.023 A 
ATOM     89  C   UNL     1       4.050   6.641  14.548  1.00  0.00     0.031 A 
ATOM     90  C   UNL     1       5.892   5.173  14.048  1.00  0.00     0.131 A 
ATOM     91  C   UNL     1       4.882   7.333  15.445  1.00  0.00     0.055 A 
ATOM     92  C   UNL     1       6.689   5.813  14.999  1.00  0.00     0.041 A 
ATOM     93  F   UNL     1       6.444   4.157  13.366  1.00  0.00    -0.206 F 
ATOM     94  C   UNL     1       6.191   6.912  15.691  1.00  0.00     0.022 A 
BRANCH  91  95
ATOM     95  S   UNL     1       4.275   8.874  16.187  1.00  0.00     0.124 S 
ATOM     96  O   UNL     1       3.915   9.656  15.009  1.00  0.00    -0.237 OA
ATOM     97  O   UNL     1       3.162   8.409  17.008  1.00  0.00    -0.237 OA
ATOM     98  O   UNL     1       5.429   9.374  16.934  1.00  0.00    -0.744 OA
ENDBRANCH  91  95
ENDBRANCH  65  88
ENDBRANCH  39  40
ENDBRANCH  32  34
ENDBRANCH  31  32
ENDBRANCH  30  31
ENDBRANCH  29  30
ENDBRANCH  28  29
ENDBRANCH   1  28
TORSDOF 23
