REMARK SMILES O=C(OCCOCCOCCOC(=O)c1ccc(-c2c3nc(c(-c4cc(S(=O)(=O)[O-])ccc4F)c4ccc([nH]4)c(-c4cc(S(=O)(=O)[O-])ccc4F)c4nc(c(-c5cc(S(=O)(=O)[O-])ccc5F)c5ccc2[nH]5)C=C4)C=C3)cc1)c1ccc(NC(=O)[C@@H]2CC=CC[C@H]2C(=O)Nc2cccc([N+](=O)[O-])c2)cc1
REMARK SMILES IDX 7 1 6 2 5 3 4 4 3 5 2 6 1 7 78 8 79 9 104 10 80 11 103 12
REMARK SMILES IDX 81 13 82 14 83 15 84 17 85 18 86 19 90 20 87 21 89 22 88 23
REMARK SMILES IDX 91 24 92 25 93 26 94 28 95 29 102 30 96 31 98 32 97 33 99 34
REMARK SMILES IDX 100 35 101 36 8 37 9 38 10 39 11 40 12 41 13 42 14 43 15 44
REMARK SMILES IDX 16 45 77 46 17 47 76 48 18 49 19 50 20 51 70 52 21 53 75 54
REMARK SMILES IDX 69 55 71 56 22 57 74 58 68 59 67 60 23 62 55 63 35 64 54 65
REMARK SMILES IDX 36 66 39 67 53 68 72 69 37 70 38 71 52 73 73 74 40 75 24 76
REMARK SMILES IDX 25 77 33 78 26 79 32 80 34 81 31 82 27 83 28 84 29 85 30 86
REMARK SMILES IDX 56 87 57 88 65 89 58 90 64 91 66 92 63 93 59 94 60 95 61 96
REMARK SMILES IDX 62 97 41 98 42 99 50 100 43 101 49 102 51 103 48 104 44 105
REMARK SMILES IDX 45 106 46 107 47 108
REMARK H PARENT 82 16 93 27 71 61 39 72
REMARK Flexibility Score: inf
ROOT
ATOM      1  C   UNL     1       0.489  -1.300   3.022  1.00  0.00     0.188 C 
ENDROOT
BRANCH   1   2
ATOM      2  O   UNL     1       1.639  -1.950   2.476  1.00  0.00    -0.376 OA
BRANCH   2   3
ATOM      3  C   UNL     1       2.330  -2.819   3.362  1.00  0.00     0.202 C 
BRANCH   3   4
ATOM      4  C   UNL     1       3.116  -2.147   4.492  1.00  0.00     0.261 C 
BRANCH   4   5
ATOM      5  O   UNL     1       2.970  -0.718   4.559  1.00  0.00    -0.460 OA
BRANCH   5   6
ATOM      6  C   UNL     1       3.804   0.177   3.973  1.00  0.00     0.338 C 
ATOM      7  O   UNL     1       3.773   1.365   4.261  1.00  0.00    -0.246 OA
BRANCH   6   8
ATOM      8  C   UNL     1       4.793  -0.317   2.996  1.00  0.00     0.060 A 
ATOM      9  C   UNL     1       4.383  -0.798   1.753  1.00  0.00     0.018 A 
ATOM     10  C   UNL     1       6.155  -0.212   3.290  1.00  0.00     0.018 A 
ATOM     11  C   UNL     1       5.323  -1.300   0.857  1.00  0.00     0.027 A 
ATOM     12  C   UNL     1       7.100  -0.674   2.370  1.00  0.00     0.027 A 
ATOM     13  C   UNL     1       6.681  -1.275   1.180  1.00  0.00     0.041 A 
BRANCH  13  14
ATOM     14  N   UNL     1       7.655  -1.768   0.296  1.00  0.00    -0.326 N 
ATOM     15  C   UNL     1       7.423  -2.604  -0.756  1.00  0.00     0.228 C 
ATOM     16  H   UNL     1       8.586  -1.485   0.449  1.00  0.00     0.169 HD
ATOM     17  O   UNL     1       7.753  -2.259  -1.891  1.00  0.00    -0.274 OA
BRANCH  15  18
ATOM     18  C   UNL     1       6.959  -4.048  -0.502  1.00  0.00     0.095 C 
ATOM     19  C   UNL     1       6.260  -4.380   0.826  1.00  0.00     0.041 C 
ATOM     20  C   UNL     1       8.161  -4.997  -0.710  1.00  0.00     0.095 C 
ATOM     21  C   UNL     1       6.005  -5.853   1.000  1.00  0.00    -0.030 C 
ATOM     22  C   UNL     1       7.792  -6.489  -0.625  1.00  0.00     0.041 C 
ATOM     23  C   UNL     1       6.683  -6.796   0.336  1.00  0.00    -0.030 C 
BRANCH  20  24
ATOM     24  C   UNL     1       9.111  -4.730  -1.891  1.00  0.00     0.228 C 
ATOM     25  O   UNL     1      10.262  -4.346  -1.640  1.00  0.00    -0.274 OA
ATOM     26  N   UNL     1       8.837  -5.050  -3.193  1.00  0.00    -0.326 N 
ATOM     27  H   UNL     1       9.594  -4.917  -3.809  1.00  0.00     0.169 HD
BRANCH  26  28
ATOM     28  C   UNL     1       7.676  -5.530  -3.804  1.00  0.00     0.048 A 
ATOM     29  C   UNL     1       7.785  -6.651  -4.632  1.00  0.00     0.026 A 
ATOM     30  C   UNL     1       6.432  -4.939  -3.623  1.00  0.00     0.111 A 
ATOM     31  C   UNL     1       6.638  -7.264  -5.148  1.00  0.00     0.009 A 
ATOM     32  C   UNL     1       5.281  -5.577  -4.098  1.00  0.00     0.271 A 
ATOM     33  C   UNL     1       5.377  -6.748  -4.855  1.00  0.00     0.086 A 
BRANCH  32  34
ATOM     34  N   UNL     1       3.963  -5.048  -3.736  1.00  0.00     0.062 N 
ATOM     35  O   UNL     1       2.970  -5.541  -4.290  1.00  0.00    -0.258 OA
ATOM     36  O   UNL     1       3.913  -4.177  -2.855  1.00  0.00    -0.258 OA
ENDBRANCH  32  34
ENDBRANCH  26  28
ENDBRANCH  20  24
ENDBRANCH  15  18
ENDBRANCH  13  14
ENDBRANCH   6   8
ENDBRANCH   5   6
ENDBRANCH   4   5
ENDBRANCH   3   4
ENDBRANCH   2   3
ENDBRANCH   1   2
BRANCH   1  37
ATOM     37  C   UNL     1      -0.438  -0.899   1.871  1.00  0.00     0.188 C 
BRANCH  37  38
ATOM     38  O   UNL     1      -1.299  -1.952   1.426  1.00  0.00    -0.376 OA
BRANCH  38  39
ATOM     39  C   UNL     1      -0.668  -3.139   0.949  1.00  0.00     0.202 C 
BRANCH  39  40
ATOM     40  C   UNL     1      -0.122  -3.087  -0.481  1.00  0.00     0.261 C 
BRANCH  40  41
ATOM     41  O   UNL     1       1.021  -2.232  -0.654  1.00  0.00    -0.460 OA
BRANCH  41  42
ATOM     42  C   UNL     1       0.787  -1.122  -1.395  1.00  0.00     0.338 C 
ATOM     43  O   UNL     1      -0.291  -0.703  -1.778  1.00  0.00    -0.246 OA
BRANCH  42  44
ATOM     44  C   UNL     1       2.054  -0.448  -1.725  1.00  0.00     0.060 A 
ATOM     45  C   UNL     1       2.344   0.799  -1.165  1.00  0.00     0.016 A 
ATOM     46  C   UNL     1       2.854  -0.972  -2.742  1.00  0.00     0.016 A 
ATOM     47  C   UNL     1       3.419   1.549  -1.656  1.00  0.00     0.010 A 
ATOM     48  C   UNL     1       3.932  -0.227  -3.225  1.00  0.00     0.010 A 
ATOM     49  C   UNL     1       4.196   1.058  -2.716  1.00  0.00    -0.014 A 
BRANCH  49  50
ATOM     50  C   UNL     1       5.191   1.913  -3.416  1.00  0.00     0.031 A 
ATOM     51  C   UNL     1       4.845   2.482  -4.767  1.00  0.00     0.074 A 
ATOM     52  C   UNL     1       6.413   2.125  -2.897  1.00  0.00     0.049 A 
ATOM     53  N   UNL     1       5.612   3.077  -5.645  1.00  0.00    -0.248 NA
ATOM     54  C   UNL     1       3.442   2.345  -5.184  1.00  0.00     0.031 C 
ATOM     55  C   UNL     1       6.864   1.663  -1.588  1.00  0.00     0.029 A 
ATOM     56  N   UNL     1       7.511   2.752  -3.434  1.00  0.00    -0.354 N 
ATOM     57  C   UNL     1       4.792   3.367  -6.731  1.00  0.00     0.074 A 
ATOM     58  C   UNL     1       3.475   2.857  -6.405  1.00  0.00     0.031 C 
ATOM     59  C   UNL     1       8.162   1.978  -1.441  1.00  0.00     0.029 A 
ATOM     60  C   UNL     1       8.641   2.622  -2.663  1.00  0.00     0.049 A 
ATOM     61  H   UNL     1       7.490   3.244  -4.287  1.00  0.00     0.167 HD
ATOM     62  C   UNL     1       5.107   4.000  -7.890  1.00  0.00     0.034 A 
ATOM     63  C   UNL     1       9.925   2.933  -2.932  1.00  0.00     0.034 A 
ATOM     64  C   UNL     1       6.426   4.495  -8.204  1.00  0.00     0.049 A 
ATOM     65  C   UNL     1      10.280   3.561  -4.256  1.00  0.00     0.074 A 
ATOM     66  C   UNL     1       6.845   5.183  -9.331  1.00  0.00     0.029 A 
ATOM     67  N   UNL     1       7.547   4.340  -7.399  1.00  0.00    -0.354 N 
ATOM     68  N   UNL     1       9.501   3.837  -5.276  1.00  0.00    -0.248 NA
ATOM     69  C   UNL     1      11.690   3.922  -4.462  1.00  0.00     0.031 C 
ATOM     70  C   UNL     1       8.228   5.382  -9.238  1.00  0.00     0.029 A 
ATOM     71  C   UNL     1       8.662   4.886  -8.019  1.00  0.00     0.049 A 
ATOM     72  H   UNL     1       7.550   3.906  -6.515  1.00  0.00     0.167 HD
ATOM     73  C   UNL     1      10.322   4.429  -6.233  1.00  0.00     0.074 A 
ATOM     74  C   UNL     1      11.656   4.469  -5.670  1.00  0.00     0.031 C 
ATOM     75  C   UNL     1       9.994   4.910  -7.459  1.00  0.00     0.034 A 
BRANCH  62  76
ATOM     76  C   UNL     1       4.012   4.128  -8.924  1.00  0.00     0.023 A 
ATOM     77  C   UNL     1       2.843   4.870  -8.680  1.00  0.00     0.031 A 
ATOM     78  C   UNL     1       4.117   3.453 -10.153  1.00  0.00     0.131 A 
ATOM     79  C   UNL     1       1.792   4.848  -9.610  1.00  0.00     0.055 A 
ATOM     80  C   UNL     1       3.102   3.502 -11.110  1.00  0.00     0.041 A 
ATOM     81  F   UNL     1       5.201   2.713 -10.437  1.00  0.00    -0.206 F 
ATOM     82  C   UNL     1       1.922   4.187 -10.833  1.00  0.00     0.022 A 
BRANCH  79  83
ATOM     83  S   UNL     1       0.192   5.553  -9.127  1.00  0.00     0.124 S 
ATOM     84  O   UNL     1      -0.085   4.839  -7.883  1.00  0.00    -0.237 OA
ATOM     85  O   UNL     1       0.500   6.972  -8.996  1.00  0.00    -0.237 OA
ATOM     86  O   UNL     1      -0.686   5.206 -10.243  1.00  0.00    -0.744 OA
ENDBRANCH  79  83
ENDBRANCH  62  76
BRANCH  63  87
ATOM     87  C   UNL     1      10.985   2.587  -1.946  1.00  0.00     0.023 A 
ATOM     88  C   UNL     1      11.667   3.578  -1.226  1.00  0.00     0.031 A 
ATOM     89  C   UNL     1      11.331   1.242  -1.719  1.00  0.00     0.131 A 
ATOM     90  C   UNL     1      12.679   3.211  -0.326  1.00  0.00     0.055 A 
ATOM     91  C   UNL     1      12.312   0.880  -0.796  1.00  0.00     0.041 A 
ATOM     92  F   UNL     1      10.698   0.259  -2.377  1.00  0.00    -0.206 F 
ATOM     93  C   UNL     1      12.998   1.869  -0.098  1.00  0.00     0.022 A 
BRANCH  90  94
ATOM     94  S   UNL     1      13.601   4.518   0.529  1.00  0.00     0.124 S 
ATOM     95  O   UNL     1      14.263   5.191  -0.582  1.00  0.00    -0.237 OA
ATOM     96  O   UNL     1      12.532   5.262   1.188  1.00  0.00    -0.237 OA
ATOM     97  O   UNL     1      14.483   3.778   1.429  1.00  0.00    -0.744 OA
ENDBRANCH  90  94
ENDBRANCH  63  87
BRANCH  75  98
ATOM     98  C   UNL     1      11.088   5.579  -8.257  1.00  0.00     0.023 A 
ATOM     99  C   UNL     1      12.148   4.852  -8.828  1.00  0.00     0.031 A 
ATOM    100  C   UNL     1      11.055   6.971  -8.457  1.00  0.00     0.131 A 
ATOM    101  C   UNL     1      13.151   5.527  -9.544  1.00  0.00     0.055 A 
ATOM    102  C   UNL     1      12.030   7.630  -9.209  1.00  0.00     0.041 A 
ATOM    103  F   UNL     1      10.067   7.713  -7.933  1.00  0.00    -0.206 F 
ATOM    104  C   UNL     1      13.089   6.908  -9.750  1.00  0.00     0.022 A 
BRANCH 101 105
ATOM    105  S   UNL     1      14.575   4.586 -10.161  1.00  0.00     0.124 S 
ATOM    106  O   UNL     1      15.152   4.064  -8.926  1.00  0.00    -0.237 OA
ATOM    107  O   UNL     1      13.946   3.603 -11.037  1.00  0.00    -0.237 OA
ATOM    108  O   UNL     1      15.383   5.594 -10.844  1.00  0.00    -0.744 OA
ENDBRANCH 101 105
ENDBRANCH  75  98
ENDBRANCH  49  50
ENDBRANCH  42  44
ENDBRANCH  41  42
ENDBRANCH  40  41
ENDBRANCH  39  40
ENDBRANCH  38  39
ENDBRANCH  37  38
ENDBRANCH   1  37
TORSDOF 25
