REMARK SMILES C/C(=N\O)[C@@H]1C[C@@H](CC(=O)OCCOCCOCCOC(=O)c2ccc(-c3c4nc(c(-c5cc(S(=O)(=O)[O-])ccc5F)c5ccc([nH]5)c(-c5cc(S(=O)(=O)[O-])ccc5F)c5nc(c(-c6cc(S(=O)(=O)[O-])ccc6F)c6ccc3[nH]6)C=C5)C=C4)cc2)C1(C)C
REMARK SMILES IDX 15 1 14 2 13 3 12 4 11 5 9 6 10 7 8 8 7 9 5 10 6 11 86 12
REMARK SMILES IDX 87 13 88 14 2 15 1 16 3 17 4 18 16 20 17 21 18 22 19 23
REMARK SMILES IDX 20 24 21 25 22 26 23 27 24 28 85 29 25 30 84 31 26 32 27 33
REMARK SMILES IDX 28 34 78 35 29 36 83 37 77 38 79 39 30 40 82 41 76 42 75 43
REMARK SMILES IDX 31 45 63 46 43 47 62 48 44 49 47 50 61 51 80 52 45 53 46 54
REMARK SMILES IDX 60 56 81 57 48 58 32 59 33 60 41 61 34 62 40 63 42 64 39 65
REMARK SMILES IDX 35 66 36 67 37 68 38 69 64 70 65 71 73 72 66 73 72 74 74 75
REMARK SMILES IDX 71 76 67 77 68 78 69 79 70 80 49 81 50 82 58 83 51 84 57 85
REMARK SMILES IDX 59 86 56 87 52 88 53 89 54 90 55 91
REMARK H PARENT 4 19 79 44 47 55
REMARK Flexibility Score: inf
ROOT
ATOM      1  C   UNL     1      -0.304  -1.147   8.463  1.00  0.00     0.188 C 
ENDROOT
BRANCH   1   2
ATOM      2  O   UNL     1      -1.530  -1.057   9.183  1.00  0.00    -0.376 OA
BRANCH   2   3
ATOM      3  C   UNL     1      -2.727  -1.182   8.420  1.00  0.00     0.202 C 
BRANCH   3   4
ATOM      4  C   UNL     1      -2.978  -0.114   7.343  1.00  0.00     0.261 C 
BRANCH   4   5
ATOM      5  O   UNL     1      -1.888   0.068   6.412  1.00  0.00    -0.463 OA
BRANCH   5   6
ATOM      6  C   UNL     1      -1.365   1.320   6.363  1.00  0.00     0.306 C 
ATOM      7  O   UNL     1      -1.828   2.291   6.955  1.00  0.00    -0.252 OA
BRANCH   6   8
ATOM      8  C   UNL     1      -0.082   1.431   5.583  1.00  0.00     0.127 C 
BRANCH   8   9
ATOM      9  C   UNL     1       0.329   0.331   4.602  1.00  0.00     0.007 C 
ATOM     10  C   UNL     1       0.870   0.087   2.489  1.00  0.00     0.043 C 
ATOM     11  C   UNL     1       1.481   0.838   3.691  1.00  0.00     0.015 C 
ATOM     12  C   UNL     1      -0.478  -0.020   3.299  1.00  0.00    -0.024 C 
ATOM     13  C   UNL     1      -1.522   1.022   2.893  1.00  0.00     0.012 C 
ATOM     14  C   UNL     1      -1.102  -1.414   3.297  1.00  0.00     0.012 C 
BRANCH  10  15
ATOM     15  C   UNL     1       1.616  -1.225   2.025  1.00  0.00     0.058 C 
ATOM     16  C   UNL     1       1.624  -1.530   0.544  1.00  0.00     0.066 C 
ATOM     17  N   UNL     1       2.171  -1.959   2.942  1.00  0.00    -0.099 NA
BRANCH  17  18
ATOM     18  O   UNL     1       2.771  -3.107   2.420  1.00  0.00    -0.411 OA
ATOM     19  H   UNL     1       3.203  -3.711   2.991  1.00  0.00     0.330 HD
ENDBRANCH  17  18
ENDBRANCH  10  15
ENDBRANCH   8   9
ENDBRANCH   6   8
ENDBRANCH   5   6
ENDBRANCH   4   5
ENDBRANCH   3   4
ENDBRANCH   2   3
ENDBRANCH   1   2
BRANCH   1  20
ATOM     20  C   UNL     1      -0.098  -2.411   7.624  1.00  0.00     0.188 C 
BRANCH  20  21
ATOM     21  O   UNL     1      -1.181  -2.779   6.778  1.00  0.00    -0.376 OA
BRANCH  21  22
ATOM     22  C   UNL     1      -0.994  -3.945   5.972  1.00  0.00     0.202 C 
BRANCH  22  23
ATOM     23  C   UNL     1      -0.481  -5.218   6.669  1.00  0.00     0.261 C 
BRANCH  23  24
ATOM     24  O   UNL     1       0.798  -5.097   7.322  1.00  0.00    -0.460 OA
BRANCH  24  25
ATOM     25  C   UNL     1       1.848  -4.621   6.602  1.00  0.00     0.338 C 
ATOM     26  O   UNL     1       1.907  -4.508   5.398  1.00  0.00    -0.246 OA
BRANCH  25  27
ATOM     27  C   UNL     1       2.819  -4.021   7.567  1.00  0.00     0.060 A 
ATOM     28  C   UNL     1       3.454  -2.820   7.219  1.00  0.00     0.016 A 
ATOM     29  C   UNL     1       3.047  -4.584   8.827  1.00  0.00     0.016 A 
ATOM     30  C   UNL     1       4.351  -2.211   8.105  1.00  0.00     0.010 A 
ATOM     31  C   UNL     1       3.951  -3.979   9.709  1.00  0.00     0.010 A 
ATOM     32  C   UNL     1       4.640  -2.809   9.340  1.00  0.00    -0.014 A 
BRANCH  32  33
ATOM     33  C   UNL     1       5.813  -2.356  10.138  1.00  0.00     0.031 A 
ATOM     34  C   UNL     1       7.096  -3.139  10.011  1.00  0.00     0.074 A 
ATOM     35  C   UNL     1       5.774  -1.268  10.931  1.00  0.00     0.049 A 
ATOM     36  N   UNL     1       8.234  -2.991  10.639  1.00  0.00    -0.248 NA
ATOM     37  C   UNL     1       7.085  -4.245   9.039  1.00  0.00     0.031 C 
ATOM     38  C   UNL     1       4.625  -0.383  11.103  1.00  0.00     0.029 A 
ATOM     39  N   UNL     1       6.740  -0.723  11.747  1.00  0.00    -0.354 N 
ATOM     40  C   UNL     1       9.076  -3.975  10.132  1.00  0.00     0.074 A 
ATOM     41  C   UNL     1       8.299  -4.749   9.188  1.00  0.00     0.031 C 
ATOM     42  C   UNL     1       4.952   0.594  11.970  1.00  0.00     0.029 A 
ATOM     43  C   UNL     1       6.317   0.382  12.451  1.00  0.00     0.049 A 
ATOM     44  H   UNL     1       7.650  -1.090  11.820  1.00  0.00     0.167 HD
ATOM     45  C   UNL     1      10.383  -4.206  10.411  1.00  0.00     0.034 A 
ATOM     46  C   UNL     1       6.950   1.119  13.391  1.00  0.00     0.034 A 
ATOM     47  C   UNL     1      11.150  -3.448  11.367  1.00  0.00     0.049 A 
ATOM     48  C   UNL     1       8.368   0.755  13.786  1.00  0.00     0.074 A 
ATOM     49  C   UNL     1      12.473  -3.618  11.739  1.00  0.00     0.029 A 
ATOM     50  N   UNL     1      10.665  -2.380  12.110  1.00  0.00    -0.354 N 
ATOM     51  N   UNL     1       9.149  -0.187  13.308  1.00  0.00    -0.248 NA
ATOM     52  C   UNL     1       8.992   1.563  14.845  1.00  0.00     0.031 C 
ATOM     53  C   UNL     1      12.765  -2.704  12.755  1.00  0.00     0.029 A 
ATOM     54  C   UNL     1      11.654  -1.902  12.956  1.00  0.00     0.049 A 
ATOM     55  H   UNL     1       9.753  -2.016  12.045  1.00  0.00     0.167 HD
ATOM     56  C   UNL     1      10.367  -0.048  13.974  1.00  0.00     0.074 A 
ATOM     57  C   UNL     1      10.222   1.073  14.876  1.00  0.00     0.031 C 
ATOM     58  C   UNL     1      11.506  -0.777  13.848  1.00  0.00     0.034 A 
BRANCH  45  59
ATOM     59  C   UNL     1      11.049  -5.355   9.694  1.00  0.00     0.023 A 
ATOM     60  C   UNL     1      11.217  -5.352   8.298  1.00  0.00     0.031 A 
ATOM     61  C   UNL     1      11.502  -6.476  10.410  1.00  0.00     0.131 A 
ATOM     62  C   UNL     1      11.760  -6.475   7.656  1.00  0.00     0.055 A 
ATOM     63  C   UNL     1      12.120  -7.555   9.774  1.00  0.00     0.041 A 
ATOM     64  F   UNL     1      11.345  -6.547  11.741  1.00  0.00    -0.206 F 
ATOM     65  C   UNL     1      12.239  -7.564   8.387  1.00  0.00     0.022 A 
BRANCH  62  66
ATOM     66  S   UNL     1      11.699  -6.551   5.846  1.00  0.00     0.124 S 
ATOM     67  O   UNL     1      10.262  -6.454   5.595  1.00  0.00    -0.237 OA
ATOM     68  O   UNL     1      12.496  -5.395   5.453  1.00  0.00    -0.237 OA
ATOM     69  O   UNL     1      12.290  -7.851   5.537  1.00  0.00    -0.744 OA
ENDBRANCH  62  66
ENDBRANCH  45  59
BRANCH  46  70
ATOM     70  C   UNL     1       6.260   2.255  14.078  1.00  0.00     0.023 A 
ATOM     71  C   UNL     1       6.785   3.558  14.029  1.00  0.00     0.031 A 
ATOM     72  C   UNL     1       5.133   2.034  14.890  1.00  0.00     0.131 A 
ATOM     73  C   UNL     1       6.231   4.569  14.832  1.00  0.00     0.055 A 
ATOM     74  C   UNL     1       4.542   3.060  15.631  1.00  0.00     0.041 A 
ATOM     75  F   UNL     1       4.596   0.808  14.989  1.00  0.00    -0.206 F 
ATOM     76  C   UNL     1       5.104   4.333  15.620  1.00  0.00     0.022 A 
BRANCH  73  77
ATOM     77  S   UNL     1       7.095   6.163  14.940  1.00  0.00     0.124 S 
ATOM     78  O   UNL     1       8.417   5.751  15.397  1.00  0.00    -0.237 OA
ATOM     79  O   UNL     1       7.012   6.646  13.566  1.00  0.00    -0.237 OA
ATOM     80  O   UNL     1       6.303   6.913  15.912  1.00  0.00    -0.744 OA
ENDBRANCH  73  77
ENDBRANCH  46  70
BRANCH  58  81
ATOM     81  C   UNL     1      12.710  -0.339  14.652  1.00  0.00     0.023 A 
ATOM     82  C   UNL     1      12.729  -0.384  16.057  1.00  0.00     0.031 A 
ATOM     83  C   UNL     1      13.859   0.139  13.994  1.00  0.00     0.131 A 
ATOM     84  C   UNL     1      13.847   0.096  16.758  1.00  0.00     0.055 A 
ATOM     85  C   UNL     1      14.993   0.551  14.694  1.00  0.00     0.041 A 
ATOM     86  F   UNL     1      13.900   0.207  12.653  1.00  0.00    -0.206 F 
ATOM     87  C   UNL     1      14.986   0.545  16.085  1.00  0.00     0.022 A 
BRANCH  84  88
ATOM     88  S   UNL     1      13.757   0.221  18.566  1.00  0.00     0.124 S 
ATOM     89  O   UNL     1      12.596   1.084  18.754  1.00  0.00    -0.237 OA
ATOM     90  O   UNL     1      13.587  -1.172  18.967  1.00  0.00    -0.237 OA
ATOM     91  O   UNL     1      15.040   0.817  18.934  1.00  0.00    -0.744 OA
ENDBRANCH  84  88
ENDBRANCH  58  81
ENDBRANCH  32  33
ENDBRANCH  25  27
ENDBRANCH  24  25
ENDBRANCH  23  24
ENDBRANCH  22  23
ENDBRANCH  21  22
ENDBRANCH  20  21
ENDBRANCH   1  20
TORSDOF 23
