REMARK SMILES Cc1cccc2nc([C@@H]3CCCC[C@@H]3C(=O)OCCOCCOCCOC(=O)c3ccc(-c4c5nc(c(-c6cc(S(=O)(=O)[O-])ccc6F)c6ccc([nH]6)c(-c6cc(S(=O)(=O)[O-])ccc6F)c6nc(c(-c7cc(S(=O)(=O)[O-])ccc7F)c7ccc4[nH]7)C=C6)C=C5)cc3)oc12
REMARK SMILES IDX 22 1 21 2 20 3 19 4 18 5 17 6 15 7 16 8 14 9 9 10 10 11
REMARK SMILES IDX 11 12 13 13 12 14 8 15 1 16 2 17 3 18 93 19 4 20 6 21 92 22
REMARK SMILES IDX 5 23 7 24 23 25 24 26 25 27 26 28 27 29 28 30 29 31 30 32
REMARK SMILES IDX 91 33 31 34 90 35 32 36 33 37 34 38 84 39 35 40 89 41 83 42
REMARK SMILES IDX 85 43 36 44 88 45 82 46 81 47 37 49 69 50 49 51 68 52 50 53
REMARK SMILES IDX 53 54 67 55 86 56 51 57 52 58 66 60 87 61 54 62 38 63 39 64
REMARK SMILES IDX 47 65 40 66 46 67 48 68 45 69 41 70 42 71 43 72 44 73 70 74
REMARK SMILES IDX 71 75 79 76 72 77 78 78 80 79 77 80 73 81 74 82 75 83 76 84
REMARK SMILES IDX 55 85 56 86 64 87 57 88 63 89 65 90 62 91 58 92 59 93 60 94
REMARK SMILES IDX 61 95
REMARK H PARENT 85 48 53 59
REMARK Flexibility Score: inf
ROOT
ATOM      1  C   UNL     1       0.614   1.015  -8.735  1.00  0.00     0.188 C 
ENDROOT
BRANCH   1   2
ATOM      2  C   UNL     1       0.968  -0.427  -8.327  1.00  0.00     0.188 C 
BRANCH   2   3
ATOM      3  O   UNL     1       0.439  -1.440  -9.164  1.00  0.00    -0.376 OA
BRANCH   3   4
ATOM      4  C   UNL     1      -0.629  -2.186  -8.588  1.00  0.00     0.202 C 
BRANCH   4   5
ATOM      5  C   UNL     1      -1.981  -1.446  -8.555  1.00  0.00     0.261 C 
BRANCH   5   6
ATOM      6  O   UNL     1      -1.987  -0.189  -7.850  1.00  0.00    -0.463 OA
BRANCH   6   7
ATOM      7  C   UNL     1      -1.750  -0.277  -6.513  1.00  0.00     0.309 C 
ATOM      8  O   UNL     1      -1.536  -1.338  -5.978  1.00  0.00    -0.252 OA
BRANCH   7   9
ATOM      9  C   UNL     1      -1.627   1.106  -5.833  1.00  0.00     0.111 C 
ATOM     10  C   UNL     1      -2.316   1.184  -4.448  1.00  0.00     0.090 C 
ATOM     11  C   UNL     1      -3.841   1.148  -4.604  1.00  0.00     0.014 C 
ATOM     12  C   UNL     1      -4.338   2.290  -5.492  1.00  0.00     0.001 C 
ATOM     13  C   UNL     1      -2.126   2.287  -6.698  1.00  0.00     0.016 C 
ATOM     14  C   UNL     1      -3.642   2.318  -6.845  1.00  0.00     0.001 C 
BRANCH  10  15
ATOM     15  C   UNL     1      -1.820   0.147  -3.489  1.00  0.00     0.199 A 
ATOM     16  C   UNL     1       1.135   0.269  -0.219  1.00  0.00     0.048 C 
ATOM     17  C   UNL     1       0.542  -0.823  -1.048  1.00  0.00    -0.006 A 
ATOM     18  C   UNL     1       0.940  -2.164  -0.867  1.00  0.00     0.007 A 
ATOM     19  C   UNL     1      -0.439  -0.635  -2.024  1.00  0.00     0.157 A 
ATOM     20  C   UNL     1       0.373  -3.217  -1.597  1.00  0.00     0.003 A 
ATOM     21  C   UNL     1      -1.082  -1.661  -2.697  1.00  0.00     0.110 A 
ATOM     22  O   UNL     1      -0.917   0.547  -2.532  1.00  0.00    -0.440 OA
ATOM     23  C   UNL     1      -0.666  -2.982  -2.504  1.00  0.00     0.032 A 
ATOM     24  N   UNL     1      -2.062  -1.146  -3.496  1.00  0.00    -0.213 NA
ENDBRANCH  10  15
ENDBRANCH   7   9
ENDBRANCH   6   7
ENDBRANCH   5   6
ENDBRANCH   4   5
ENDBRANCH   3   4
ENDBRANCH   2   3
ENDBRANCH   1   2
BRANCH   1  25
ATOM     25  O   UNL     1      -0.241   1.333  -9.830  1.00  0.00    -0.376 OA
BRANCH  25  26
ATOM     26  C   UNL     1      -0.308   0.538 -11.009  1.00  0.00     0.202 C 
BRANCH  26  27
ATOM     27  C   UNL     1       0.925   0.319 -11.883  1.00  0.00     0.261 C 
BRANCH  27  28
ATOM     28  O   UNL     1       2.089   0.099 -11.118  1.00  0.00    -0.460 OA
BRANCH  28  29
ATOM     29  C   UNL     1       2.689   1.252 -10.774  1.00  0.00     0.338 C 
ATOM     30  O   UNL     1       2.361   2.389 -11.091  1.00  0.00    -0.246 OA
BRANCH  29  31
ATOM     31  C   UNL     1       3.819   0.953  -9.895  1.00  0.00     0.060 A 
ATOM     32  C   UNL     1       4.405   2.065  -9.287  1.00  0.00     0.016 A 
ATOM     33  C   UNL     1       4.475  -0.271 -10.057  1.00  0.00     0.016 A 
ATOM     34  C   UNL     1       5.769   2.086  -9.233  1.00  0.00     0.010 A 
ATOM     35  C   UNL     1       5.840  -0.239 -10.035  1.00  0.00     0.010 A 
ATOM     36  C   UNL     1       6.444   0.988  -9.769  1.00  0.00    -0.014 A 
BRANCH  36  37
ATOM     37  C   UNL     1       7.775   1.240 -10.254  1.00  0.00     0.031 A 
ATOM     38  C   UNL     1       8.831   0.958  -9.283  1.00  0.00     0.074 A 
ATOM     39  C   UNL     1       7.984   1.622 -11.525  1.00  0.00     0.049 A 
ATOM     40  N   UNL     1       9.548   1.801  -8.620  1.00  0.00    -0.248 NA
ATOM     41  C   UNL     1       8.967  -0.443  -8.867  1.00  0.00     0.031 C 
ATOM     42  C   UNL     1       7.050   1.562 -12.655  1.00  0.00     0.029 A 
ATOM     43  N   UNL     1       9.142   2.031 -12.095  1.00  0.00    -0.354 N 
ATOM     44  C   UNL     1      10.375   1.009  -7.837  1.00  0.00     0.074 A 
ATOM     45  C   UNL     1       9.805  -0.315  -7.843  1.00  0.00     0.031 C 
ATOM     46  C   UNL     1       7.751   1.694 -13.805  1.00  0.00     0.029 A 
ATOM     47  C   UNL     1       9.140   1.975 -13.476  1.00  0.00     0.049 A 
ATOM     48  H   UNL     1       9.917   2.341 -11.572  1.00  0.00     0.167 HD
ATOM     49  C   UNL     1      11.620   1.410  -7.465  1.00  0.00     0.034 A 
ATOM     50  C   UNL     1      10.242   2.022 -14.261  1.00  0.00     0.034 A 
ATOM     51  C   UNL     1      11.824   2.814  -7.678  1.00  0.00     0.049 A 
ATOM     52  C   UNL     1      11.366   2.556 -13.444  1.00  0.00     0.074 A 
ATOM     53  C   UNL     1      11.256   3.966  -7.176  1.00  0.00     0.029 A 
ATOM     54  N   UNL     1      12.507   3.181  -8.813  1.00  0.00    -0.354 N 
ATOM     55  N   UNL     1      11.457   3.782 -13.007  1.00  0.00    -0.248 NA
ATOM     56  C   UNL     1      12.225   1.595 -12.764  1.00  0.00     0.031 C 
ATOM     57  C   UNL     1      11.301   4.909  -8.242  1.00  0.00     0.029 A 
ATOM     58  C   UNL     1      11.897   4.289  -9.344  1.00  0.00     0.049 A 
ATOM     59  H   UNL     1      13.298   2.726  -9.182  1.00  0.00     0.167 HD
ATOM     60  C   UNL     1      12.059   3.677 -11.758  1.00  0.00     0.074 A 
ATOM     61  C   UNL     1      12.622   2.333 -11.725  1.00  0.00     0.031 C 
ATOM     62  C   UNL     1      11.805   4.580 -10.764  1.00  0.00     0.034 A 
BRANCH  49  63
ATOM     63  C   UNL     1      12.740   0.433  -7.242  1.00  0.00     0.023 A 
ATOM     64  C   UNL     1      12.722  -0.868  -7.781  1.00  0.00     0.031 A 
ATOM     65  C   UNL     1      13.940   0.834  -6.638  1.00  0.00     0.131 A 
ATOM     66  C   UNL     1      13.796  -1.746  -7.632  1.00  0.00     0.055 A 
ATOM     67  C   UNL     1      15.055  -0.012  -6.568  1.00  0.00     0.041 A 
ATOM     68  F   UNL     1      14.078   2.071  -6.136  1.00  0.00    -0.206 F 
ATOM     69  C   UNL     1      14.980  -1.316  -7.049  1.00  0.00     0.022 A 
BRANCH  66  70
ATOM     70  S   UNL     1      13.633  -3.471  -8.165  1.00  0.00     0.124 S 
ATOM     71  O   UNL     1      14.589  -3.535  -9.264  1.00  0.00    -0.237 OA
ATOM     72  O   UNL     1      14.007  -4.195  -6.952  1.00  0.00    -0.237 OA
ATOM     73  O   UNL     1      12.224  -3.581  -8.535  1.00  0.00    -0.744 OA
ENDBRANCH  66  70
ENDBRANCH  49  63
BRANCH  50  74
ATOM     74  C   UNL     1      10.459   1.232 -15.495  1.00  0.00     0.023 A 
ATOM     75  C   UNL     1       9.784   0.011 -15.693  1.00  0.00     0.031 A 
ATOM     76  C   UNL     1      11.518   1.530 -16.365  1.00  0.00     0.131 A 
ATOM     77  C   UNL     1      10.185  -0.875 -16.702  1.00  0.00     0.055 A 
ATOM     78  C   UNL     1      11.917   0.645 -17.374  1.00  0.00     0.041 A 
ATOM     79  F   UNL     1      12.224   2.661 -16.215  1.00  0.00    -0.206 F 
ATOM     80  C   UNL     1      11.254  -0.568 -17.542  1.00  0.00     0.022 A 
BRANCH  77  81
ATOM     81  S   UNL     1       9.323  -2.458 -16.912  1.00  0.00     0.124 S 
ATOM     82  O   UNL     1       9.316  -2.627 -18.363  1.00  0.00    -0.237 OA
ATOM     83  O   UNL     1      10.191  -3.371 -16.177  1.00  0.00    -0.237 OA
ATOM     84  O   UNL     1       8.012  -2.209 -16.318  1.00  0.00    -0.744 OA
ENDBRANCH  77  81
ENDBRANCH  50  74
BRANCH  62  85
ATOM     85  C   UNL     1      11.119   5.878 -11.126  1.00  0.00     0.023 A 
ATOM     86  C   UNL     1      11.723   7.078 -10.707  1.00  0.00     0.031 A 
ATOM     87  C   UNL     1       9.818   5.951 -11.656  1.00  0.00     0.131 A 
ATOM     88  C   UNL     1      11.027   8.289 -10.802  1.00  0.00     0.055 A 
ATOM     89  C   UNL     1       9.151   7.171 -11.807  1.00  0.00     0.041 A 
ATOM     90  F   UNL     1       9.126   4.844 -11.958  1.00  0.00    -0.206 F 
ATOM     91  C   UNL     1       9.750   8.346 -11.368  1.00  0.00     0.022 A 
BRANCH  88  92
ATOM     92  S   UNL     1      11.704   9.802 -10.071  1.00  0.00     0.124 S 
ATOM     93  O   UNL     1      11.792  10.693 -11.224  1.00  0.00    -0.237 OA
ATOM     94  O   UNL     1      10.682  10.153  -9.086  1.00  0.00    -0.237 OA
ATOM     95  O   UNL     1      12.985   9.383  -9.509  1.00  0.00    -0.744 OA
ENDBRANCH  88  92
ENDBRANCH  62  85
ENDBRANCH  36  37
ENDBRANCH  29  31
ENDBRANCH  28  29
ENDBRANCH  27  28
ENDBRANCH  26  27
ENDBRANCH  25  26
ENDBRANCH   1  25
TORSDOF 21
