REMARK SMILES O=C(OCCOCCOCCOC(=O)c1cc([C@@H]2C=NN=C2c2ccc(F)cc2)c2c(ccc3ccccc32)n1)c1ccc(-c2c3nc(c(-c4cc(S(=O)(=O)[O-])ccc4F)c4ccc([nH]4)c(-c4cc(S(=O)(=O)[O-])ccc4F)c4nc(c(-c5cc(S(=O)(=O)[O-])ccc5F)c5ccc2[nH]5)C=C4)C=C3)cc1
REMARK SMILES IDX 7 1 6 2 5 3 4 4 3 5 2 6 1 7 41 8 42 9 103 10 43 11 102 12
REMARK SMILES IDX 44 13 45 14 46 15 96 16 47 17 101 18 95 19 97 20 48 21
REMARK SMILES IDX 100 22 94 23 93 24 49 26 81 27 61 28 80 29 62 30 65 31 79 32
REMARK SMILES IDX 98 33 63 34 64 35 78 37 99 38 66 39 50 40 51 41 59 42 52 43
REMARK SMILES IDX 58 44 60 45 57 46 53 47 54 48 55 49 56 50 82 51 83 52 91 53
REMARK SMILES IDX 84 54 90 55 92 56 89 57 85 58 86 59 87 60 88 61 67 62 68 63
REMARK SMILES IDX 76 64 69 65 75 66 77 67 74 68 70 69 71 70 72 71 73 72 8 73
REMARK SMILES IDX 9 74 10 75 11 76 12 77 13 78 14 79 15 80 16 81 40 82 17 83
REMARK SMILES IDX 31 84 30 85 32 86 39 87 33 88 34 89 38 90 35 91 37 92 36 93
REMARK SMILES IDX 18 94 19 95 22 96 20 97 21 98 23 99 24 100 29 101 25 102
REMARK SMILES IDX 28 103 26 104 27 105
REMARK H PARENT 97 25 65 36
REMARK Flexibility Score: inf
ROOT
ATOM      1  C   UNL     1       3.362  -1.283   1.192  1.00  0.00     0.188 C 
ENDROOT
BRANCH   1   2
ATOM      2  O   UNL     1       4.663  -0.716   1.296  1.00  0.00    -0.376 OA
BRANCH   2   3
ATOM      3  C   UNL     1       5.150  -0.101   0.112  1.00  0.00     0.202 C 
BRANCH   3   4
ATOM      4  C   UNL     1       4.723   1.363   0.012  1.00  0.00     0.261 C 
BRANCH   4   5
ATOM      5  O   UNL     1       3.313   1.609   0.185  1.00  0.00    -0.460 OA
BRANCH   5   6
ATOM      6  C   UNL     1       2.243   1.410  -0.609  1.00  0.00     0.338 C 
ATOM      7  O   UNL     1       1.147   1.815  -0.221  1.00  0.00    -0.246 OA
BRANCH   6   8
ATOM      8  C   UNL     1       2.282   0.606  -1.860  1.00  0.00     0.060 A 
ATOM      9  C   UNL     1       3.397   0.445  -2.682  1.00  0.00     0.016 A 
ATOM     10  C   UNL     1       1.058   0.031  -2.262  1.00  0.00     0.016 A 
ATOM     11  C   UNL     1       3.290  -0.247  -3.885  1.00  0.00     0.010 A 
ATOM     12  C   UNL     1       0.941  -0.640  -3.477  1.00  0.00     0.010 A 
ATOM     13  C   UNL     1       2.054  -0.742  -4.307  1.00  0.00    -0.014 A 
BRANCH  13  14
ATOM     14  C   UNL     1       1.964  -1.222  -5.683  1.00  0.00     0.031 A 
ATOM     15  C   UNL     1       2.670  -2.478  -6.053  1.00  0.00     0.074 A 
ATOM     16  C   UNL     1       1.264  -0.559  -6.624  1.00  0.00     0.049 A 
ATOM     17  N   UNL     1       3.657  -2.623  -6.877  1.00  0.00    -0.248 NA
ATOM     18  C   UNL     1       2.239  -3.726  -5.413  1.00  0.00     0.031 C 
ATOM     19  C   UNL     1       0.315   0.541  -6.435  1.00  0.00     0.029 A 
ATOM     20  N   UNL     1       1.206  -0.801  -7.965  1.00  0.00    -0.354 N 
ATOM     21  C   UNL     1       3.869  -3.995  -7.007  1.00  0.00     0.074 A 
ATOM     22  C   UNL     1       3.034  -4.618  -6.011  1.00  0.00     0.031 C 
ATOM     23  C   UNL     1      -0.373   0.733  -7.581  1.00  0.00     0.029 A 
ATOM     24  C   UNL     1       0.184  -0.126  -8.612  1.00  0.00     0.049 A 
ATOM     25  H   UNL     1       1.833  -1.400  -8.430  1.00  0.00     0.167 HD
ATOM     26  C   UNL     1       4.614  -4.524  -8.020  1.00  0.00     0.034 A 
ATOM     27  C   UNL     1      -0.214  -0.291  -9.896  1.00  0.00     0.034 A 
ATOM     28  C   UNL     1       5.451  -3.531  -8.644  1.00  0.00     0.049 A 
ATOM     29  C   UNL     1       0.953  -0.800 -10.655  1.00  0.00     0.074 A 
ATOM     30  C   UNL     1       6.476  -2.710  -8.215  1.00  0.00     0.029 A 
ATOM     31  N   UNL     1       5.090  -3.049  -9.879  1.00  0.00    -0.354 N 
ATOM     32  N   UNL     1       2.050  -0.117 -10.841  1.00  0.00    -0.248 NA
ATOM     33  C   UNL     1       1.065  -2.228 -10.904  1.00  0.00     0.031 C 
ATOM     34  C   UNL     1       6.336  -1.512  -8.975  1.00  0.00     0.029 A 
ATOM     35  C   UNL     1       5.248  -1.687  -9.832  1.00  0.00     0.049 A 
ATOM     36  H   UNL     1       4.779  -3.578 -10.648  1.00  0.00     0.167 HD
ATOM     37  C   UNL     1       3.066  -1.058 -10.833  1.00  0.00     0.074 A 
ATOM     38  C   UNL     1       2.392  -2.341 -10.996  1.00  0.00     0.031 C 
ATOM     39  C   UNL     1       4.329  -0.737 -10.425  1.00  0.00     0.034 A 
BRANCH  26  40
ATOM     40  C   UNL     1       4.437  -5.899  -8.626  1.00  0.00     0.023 A 
ATOM     41  C   UNL     1       5.376  -6.334  -9.586  1.00  0.00     0.031 A 
ATOM     42  C   UNL     1       3.270  -6.685  -8.511  1.00  0.00     0.131 A 
ATOM     43  C   UNL     1       5.119  -7.450 -10.405  1.00  0.00     0.055 A 
ATOM     44  C   UNL     1       3.049  -7.835  -9.279  1.00  0.00     0.041 A 
ATOM     45  F   UNL     1       2.247  -6.331  -7.724  1.00  0.00    -0.206 F 
ATOM     46  C   UNL     1       3.964  -8.210 -10.249  1.00  0.00     0.022 A 
BRANCH  43  47
ATOM     47  S   UNL     1       6.235  -7.787 -11.795  1.00  0.00     0.124 S 
ATOM     48  O   UNL     1       6.294  -6.487 -12.455  1.00  0.00    -0.237 OA
ATOM     49  O   UNL     1       7.449  -8.216 -11.110  1.00  0.00    -0.237 OA
ATOM     50  O   UNL     1       5.539  -8.831 -12.544  1.00  0.00    -0.744 OA
ENDBRANCH  43  47
ENDBRANCH  26  40
BRANCH  27  51
ATOM     51  C   UNL     1      -1.613  -0.298 -10.393  1.00  0.00     0.023 A 
ATOM     52  C   UNL     1      -1.912  -0.224 -11.766  1.00  0.00     0.031 A 
ATOM     53  C   UNL     1      -2.684  -0.618  -9.526  1.00  0.00     0.131 A 
ATOM     54  C   UNL     1      -3.228  -0.460 -12.220  1.00  0.00     0.055 A 
ATOM     55  C   UNL     1      -3.987  -0.830  -9.977  1.00  0.00     0.041 A 
ATOM     56  F   UNL     1      -2.486  -0.826  -8.215  1.00  0.00    -0.206 F 
ATOM     57  C   UNL     1      -4.263  -0.762 -11.331  1.00  0.00     0.022 A 
BRANCH  54  58
ATOM     58  S   UNL     1      -3.586  -0.522 -14.002  1.00  0.00     0.124 S 
ATOM     59  O   UNL     1      -3.756   0.890 -14.326  1.00  0.00    -0.237 OA
ATOM     60  O   UNL     1      -2.400  -1.173 -14.545  1.00  0.00    -0.237 OA
ATOM     61  O   UNL     1      -4.808  -1.325 -14.068  1.00  0.00    -0.744 OA
ENDBRANCH  54  58
ENDBRANCH  27  51
BRANCH  39  62
ATOM     62  C   UNL     1       4.701   0.723 -10.310  1.00  0.00     0.023 A 
ATOM     63  C   UNL     1       4.110   1.614  -9.389  1.00  0.00     0.031 A 
ATOM     64  C   UNL     1       5.806   1.177 -11.050  1.00  0.00     0.131 A 
ATOM     65  C   UNL     1       4.627   2.915  -9.241  1.00  0.00     0.055 A 
ATOM     66  C   UNL     1       6.322   2.464 -10.893  1.00  0.00     0.041 A 
ATOM     67  F   UNL     1       6.436   0.355 -11.906  1.00  0.00    -0.206 F 
ATOM     68  C   UNL     1       5.731   3.339  -9.988  1.00  0.00     0.022 A 
BRANCH  65  69
ATOM     69  S   UNL     1       3.894   4.056  -8.025  1.00  0.00     0.124 S 
ATOM     70  O   UNL     1       2.516   4.188  -8.482  1.00  0.00    -0.237 OA
ATOM     71  O   UNL     1       4.090   3.349  -6.762  1.00  0.00    -0.237 OA
ATOM     72  O   UNL     1       4.701   5.270  -8.167  1.00  0.00    -0.744 OA
ENDBRANCH  65  69
ENDBRANCH  39  62
ENDBRANCH  13  14
ENDBRANCH   6   8
ENDBRANCH   5   6
ENDBRANCH   4   5
ENDBRANCH   3   4
ENDBRANCH   2   3
ENDBRANCH   1   2
BRANCH   1  73
ATOM     73  C   UNL     1       2.364  -0.784   2.261  1.00  0.00     0.188 C 
BRANCH  73  74
ATOM     74  O   UNL     1       2.721  -0.546   3.623  1.00  0.00    -0.376 OA
BRANCH  74  75
ATOM     75  C   UNL     1       4.068  -0.665   4.037  1.00  0.00     0.202 C 
BRANCH  75  76
ATOM     76  C   UNL     1       4.470  -2.098   4.396  1.00  0.00     0.261 C 
BRANCH  76  77
ATOM     77  O   UNL     1       4.026  -3.081   3.446  1.00  0.00    -0.459 OA
BRANCH  77  78
ATOM     78  C   UNL     1       2.896  -3.751   3.773  1.00  0.00     0.357 C 
ATOM     79  O   UNL     1       2.288  -3.715   4.841  1.00  0.00    -0.244 OA
BRANCH  78  80
ATOM     80  C   UNL     1       2.523  -4.653   2.663  1.00  0.00     0.149 A 
ATOM     81  C   UNL     1       3.179  -5.852   2.527  1.00  0.00     0.041 A 
ATOM     82  N   UNL     1       1.501  -4.289   1.870  1.00  0.00    -0.241 NA
ATOM     83  C   UNL     1       2.709  -6.800   1.588  1.00  0.00    -0.021 A 
ATOM     84  C   UNL     1       1.033  -5.179   0.985  1.00  0.00     0.072 A 
ATOM     85  C   UNL     1       1.496  -6.520   0.846  1.00  0.00     0.012 A 
ATOM     86  C   UNL     1       0.017  -4.700   0.183  1.00  0.00     0.029 A 
ATOM     87  C   UNL     1       0.679  -7.406   0.003  1.00  0.00    -0.009 A 
ATOM     88  C   UNL     1      -0.642  -5.505  -0.736  1.00  0.00     0.011 A 
ATOM     89  C   UNL     1      -0.354  -6.860  -0.806  1.00  0.00    -0.018 A 
ATOM     90  C   UNL     1       0.760  -8.818  -0.037  1.00  0.00     0.009 A 
ATOM     91  C   UNL     1      -1.136  -7.664  -1.657  1.00  0.00     0.009 A 
ATOM     92  C   UNL     1      -0.030  -9.622  -0.868  1.00  0.00     0.001 A 
ATOM     93  C   UNL     1      -0.969  -9.041  -1.696  1.00  0.00     0.001 A 
BRANCH  83  94
ATOM     94  C   UNL     1       3.626  -7.997   1.469  1.00  0.00     0.115 C 
ATOM     95  C   UNL     1       3.894  -8.572   0.125  1.00  0.00     0.123 C 
ATOM     96  C   UNL     1       3.315  -9.275   2.183  1.00  0.00     0.083 C 
ATOM     97  N   UNL     1       3.920  -9.868   0.133  1.00  0.00    -0.162 NA
ATOM     98  N   UNL     1       3.565 -10.320   1.448  1.00  0.00    -0.154 NA
BRANCH  96  99
ATOM     99  C   UNL     1       2.893  -9.364   3.590  1.00  0.00    -0.001 A 
ATOM    100  C   UNL     1       3.585 -10.242   4.432  1.00  0.00     0.013 A 
ATOM    101  C   UNL     1       1.796  -8.643   4.075  1.00  0.00     0.013 A 
ATOM    102  C   UNL     1       3.202 -10.367   5.768  1.00  0.00     0.040 A 
ATOM    103  C   UNL     1       1.419  -8.770   5.413  1.00  0.00     0.040 A 
ATOM    104  C   UNL     1       2.126  -9.627   6.247  1.00  0.00     0.123 A 
ATOM    105  F   UNL     1       1.757  -9.755   7.528  1.00  0.00    -0.207 F 
ENDBRANCH  96  99
ENDBRANCH  83  94
ENDBRANCH  78  80
ENDBRANCH  77  78
ENDBRANCH  76  77
ENDBRANCH  75  76
ENDBRANCH  74  75
ENDBRANCH  73  74
ENDBRANCH   1  73
TORSDOF 22
