REMARK SMILES C#CCN(CC(=O)OCCOCCOCCOC(=O)c1ccc(-c2c3nc(c(-c4cc(S(=O)(=O)[O-])ccc4F)c4ccc([nH]4)c(-c4cc(S(=O)(=O)[O-])ccc4F)c4nc(c(-c5cc(S(=O)(=O)[O-])ccc5F)c5ccc2[nH]5)C=C4)C=C3)cc1)c1nnc(C)c2ccccc12
REMARK SMILES IDX 12 1 11 2 10 3 9 4 8 5 6 6 7 7 5 8 4 9 3 10 2 11 1 12 83 13
REMARK SMILES IDX 84 14 93 15 85 16 88 17 92 18 86 19 89 20 91 21 87 22 90 23
REMARK SMILES IDX 13 24 14 25 15 26 16 27 17 28 18 29 19 30 20 31 21 32 82 33
REMARK SMILES IDX 22 34 81 35 23 36 24 37 25 38 75 39 26 40 80 41 74 42 76 43
REMARK SMILES IDX 27 44 79 45 73 46 72 47 28 49 60 50 40 51 59 52 41 53 44 54
REMARK SMILES IDX 58 55 77 56 42 57 43 58 57 60 78 61 45 62 29 63 30 64 38 65
REMARK SMILES IDX 31 66 37 67 39 68 36 69 32 70 33 71 34 72 35 73 61 74 62 75
REMARK SMILES IDX 70 76 63 77 69 78 71 79 68 80 64 81 65 82 66 83 67 84 46 85
REMARK SMILES IDX 47 86 55 87 48 88 54 89 56 90 53 91 49 92 50 93 51 94 52 95
REMARK H PARENT 76 48 44 59
REMARK Flexibility Score: inf
ROOT
ATOM      1  C   UNL     1      -5.899   1.194   3.219  1.00  0.00     0.188 C 
ENDROOT
BRANCH   1   2
ATOM      2  O   UNL     1      -7.238   1.421   2.821  1.00  0.00    -0.376 OA
BRANCH   2   3
ATOM      3  C   UNL     1      -7.573   0.876   1.558  1.00  0.00     0.202 C 
BRANCH   3   4
ATOM      4  C   UNL     1      -6.668   1.311   0.384  1.00  0.00     0.261 C 
BRANCH   4   5
ATOM      5  O   UNL     1      -5.251   0.982   0.549  1.00  0.00    -0.462 OA
BRANCH   5   6
ATOM      6  C   UNL     1      -4.353   2.003   0.465  1.00  0.00     0.325 C 
ATOM      7  O   UNL     1      -4.645   3.086  -0.041  1.00  0.00    -0.250 OA
BRANCH   6   8
ATOM      8  C   UNL     1      -3.014   1.831   1.232  1.00  0.00     0.241 C 
BRANCH   8   9
ATOM      9  N   UNL     1      -2.424   0.440   1.546  1.00  0.00    -0.332 N 
BRANCH   9  10
ATOM     10  C   UNL     1      -1.879  -0.059   0.059  1.00  0.00     0.208 C 
BRANCH  10  11
ATOM     11  C   UNL     1      -0.359  -0.059   0.059  1.00  0.00    -0.085 C 
ATOM     12  C   UNL     1       0.945  -0.059   0.059  1.00  0.00     0.006 C 
ENDBRANCH  10  11
ENDBRANCH   9  10
BRANCH   9  13
ATOM     13  C   UNL     1      -1.638   0.632   2.803  1.00  0.00     0.160 A 
ATOM     14  N   UNL     1      -1.115   1.836   3.022  1.00  0.00    -0.132 NA
ATOM     15  C   UNL     1      -1.568  -0.143   4.104  1.00  0.00     0.028 A 
ATOM     16  N   UNL     1      -1.045   2.458   4.383  1.00  0.00    -0.153 NA
ATOM     17  C   UNL     1      -1.259   0.612   5.357  1.00  0.00     0.009 A 
ATOM     18  C   UNL     1      -1.733  -1.527   4.479  1.00  0.00     0.013 A 
ATOM     19  C   UNL     1      -1.613   1.992   5.574  1.00  0.00     0.068 A 
ATOM     20  C   UNL     1      -0.401   0.028   6.307  1.00  0.00     0.011 A 
ATOM     21  C   UNL     1      -1.299  -2.053   5.750  1.00  0.00     0.001 A 
ATOM     22  C   UNL     1      -3.056   2.995   6.768  1.00  0.00     0.069 C 
ATOM     23  C   UNL     1      -0.513  -1.301   6.603  1.00  0.00     0.001 A 
ENDBRANCH   9  13
ENDBRANCH   8   9
ENDBRANCH   6   8
ENDBRANCH   5   6
ENDBRANCH   4   5
ENDBRANCH   3   4
ENDBRANCH   2   3
ENDBRANCH   1   2
BRANCH   1  24
ATOM     24  C   UNL     1      -5.336  -0.241   3.067  1.00  0.00     0.188 C 
BRANCH  24  25
ATOM     25  O   UNL     1      -6.346  -1.227   3.236  1.00  0.00    -0.376 OA
BRANCH  25  26
ATOM     26  C   UNL     1      -6.274  -1.936   4.459  1.00  0.00     0.202 C 
BRANCH  26  27
ATOM     27  C   UNL     1      -6.591  -1.080   5.697  1.00  0.00     0.261 C 
BRANCH  27  28
ATOM     28  O   UNL     1      -5.838   0.155   5.786  1.00  0.00    -0.460 OA
BRANCH  28  29
ATOM     29  C   UNL     1      -4.522  -0.022   5.994  1.00  0.00     0.338 C 
ATOM     30  O   UNL     1      -4.055  -1.105   6.321  1.00  0.00    -0.246 OA
BRANCH  29  31
ATOM     31  C   UNL     1      -3.662   1.203   5.940  1.00  0.00     0.060 A 
ATOM     32  C   UNL     1      -3.480   2.660   4.840  1.00  0.00     0.016 A 
ATOM     33  C   UNL     1      -2.624   1.089   7.411  1.00  0.00     0.016 A 
ATOM     34  C   UNL     1      -2.233   3.992   5.245  1.00  0.00     0.010 A 
ATOM     35  C   UNL     1      -1.401   2.331   7.773  1.00  0.00     0.010 A 
ATOM     36  C   UNL     1      -1.139   3.785   6.715  1.00  0.00    -0.014 A 
BRANCH  36  37
ATOM     37  C   UNL     1      -0.248   4.846   7.344  1.00  0.00     0.031 A 
ATOM     38  C   UNL     1       0.852   4.502   8.374  1.00  0.00     0.074 A 
ATOM     39  C   UNL     1      -0.541   6.148   7.167  1.00  0.00     0.049 A 
ATOM     40  N   UNL     1       1.480   5.275   9.235  1.00  0.00    -0.248 NA
ATOM     41  C   UNL     1       1.217   3.091   8.544  1.00  0.00     0.031 C 
ATOM     42  C   UNL     1      -1.641   6.680   6.373  1.00  0.00     0.029 A 
ATOM     43  N   UNL     1       0.067   7.280   7.653  1.00  0.00    -0.354 N 
ATOM     44  C   UNL     1       2.209   4.420  10.075  1.00  0.00     0.074 A 
ATOM     45  C   UNL     1       1.819   3.081   9.722  1.00  0.00     0.031 C 
ATOM     46  C   UNL     1      -1.540   8.007   6.282  1.00  0.00     0.029 A 
ATOM     47  C   UNL     1      -0.464   8.444   7.148  1.00  0.00     0.049 A 
ATOM     48  H   UNL     1       0.809   7.259   8.299  1.00  0.00     0.167 HD
ATOM     49  C   UNL     1       3.171   4.696  10.998  1.00  0.00     0.034 A 
ATOM     50  C   UNL     1      -0.153   9.733   7.367  1.00  0.00     0.034 A 
ATOM     51  C   UNL     1       3.633   6.038  11.254  1.00  0.00     0.049 A 
ATOM     52  C   UNL     1       0.943  10.041   8.338  1.00  0.00     0.074 A 
ATOM     53  C   UNL     1       4.660   6.466  12.075  1.00  0.00     0.029 A 
ATOM     54  N   UNL     1       3.097   7.175  10.662  1.00  0.00    -0.354 N 
ATOM     55  N   UNL     1       1.639   9.217   9.087  1.00  0.00    -0.248 NA
ATOM     56  C   UNL     1       1.300  11.453   8.484  1.00  0.00     0.031 C 
ATOM     57  C   UNL     1       4.695   7.865  12.037  1.00  0.00     0.029 A 
ATOM     58  C   UNL     1       3.755   8.304  11.118  1.00  0.00     0.049 A 
ATOM     59  H   UNL     1       2.358   7.177  10.012  1.00  0.00     0.167 HD
ATOM     60  C   UNL     1       2.550  10.013   9.770  1.00  0.00     0.074 A 
ATOM     61  C   UNL     1       2.317  11.376   9.329  1.00  0.00     0.031 C 
ATOM     62  C   UNL     1       3.496   9.652  10.674  1.00  0.00     0.034 A 
BRANCH  49  63
ATOM     63  C   UNL     1       3.797   3.536  11.773  1.00  0.00     0.023 A 
ATOM     64  C   UNL     1       4.400   2.437  11.129  1.00  0.00     0.031 A 
ATOM     65  C   UNL     1       3.759   3.504  13.181  1.00  0.00     0.131 A 
ATOM     66  C   UNL     1       4.817   1.316  11.869  1.00  0.00     0.055 A 
ATOM     67  C   UNL     1       4.281   2.434  13.919  1.00  0.00     0.041 A 
ATOM     68  F   UNL     1       3.194   4.505  13.874  1.00  0.00    -0.206 F 
ATOM     69  C   UNL     1       4.790   1.319  13.262  1.00  0.00     0.022 A 
BRANCH  66  70
ATOM     70  S   UNL     1       5.199  -0.219  10.975  1.00  0.00     0.124 S 
ATOM     71  O   UNL     1       3.954  -0.452  10.245  1.00  0.00    -0.237 OA
ATOM     72  O   UNL     1       6.351   0.164  10.168  1.00  0.00    -0.237 OA
ATOM     73  O   UNL     1       5.474  -1.180  12.042  1.00  0.00    -0.744 OA
ENDBRANCH  66  70
ENDBRANCH  49  63
BRANCH  50  74
ATOM     74  C   UNL     1      -0.855  10.799   6.598  1.00  0.00     0.023 A 
ATOM     75  C   UNL     1      -0.156  11.549   5.641  1.00  0.00     0.031 A 
ATOM     76  C   UNL     1      -2.232  11.042   6.752  1.00  0.00     0.131 A 
ATOM     77  C   UNL     1      -0.827  12.526   4.893  1.00  0.00     0.055 A 
ATOM     78  C   UNL     1      -2.908  11.971   5.959  1.00  0.00     0.041 A 
ATOM     79  F   UNL     1      -2.953  10.333   7.636  1.00  0.00    -0.206 F 
ATOM     80  C   UNL     1      -2.202  12.727   5.029  1.00  0.00     0.022 A 
BRANCH  77  81
ATOM     81  S   UNL     1       0.144  13.578   3.782  1.00  0.00     0.124 S 
ATOM     82  O   UNL     1       1.122  14.155   4.697  1.00  0.00    -0.237 OA
ATOM     83  O   UNL     1       0.659  12.611   2.819  1.00  0.00    -0.237 OA
ATOM     84  O   UNL     1      -0.845  14.516   3.253  1.00  0.00    -0.744 OA
ENDBRANCH  77  81
ENDBRANCH  50  74
BRANCH  62  85
ATOM     85  C   UNL     1       4.383  10.753  11.191  1.00  0.00     0.023 A 
ATOM     86  C   UNL     1       3.870  11.813  11.956  1.00  0.00     0.031 A 
ATOM     87  C   UNL     1       5.751  10.763  10.868  1.00  0.00     0.131 A 
ATOM     88  C   UNL     1       4.702  12.886  12.296  1.00  0.00     0.055 A 
ATOM     89  C   UNL     1       6.592  11.793  11.283  1.00  0.00     0.041 A 
ATOM     90  F   UNL     1       6.289   9.775  10.135  1.00  0.00    -0.206 F 
ATOM     91  C   UNL     1       6.064  12.873  11.984  1.00  0.00     0.022 A 
BRANCH  88  92
ATOM     92  S   UNL     1       3.945  14.364  13.022  1.00  0.00     0.124 S 
ATOM     93  O   UNL     1       2.959  14.726  12.009  1.00  0.00    -0.237 OA
ATOM     94  O   UNL     1       3.409  13.855  14.280  1.00  0.00    -0.237 OA
ATOM     95  O   UNL     1       5.067  15.292  13.156  1.00  0.00    -0.744 OA
ENDBRANCH  88  92
ENDBRANCH  62  85
ENDBRANCH  36  37
ENDBRANCH  29  31
ENDBRANCH  28  29
ENDBRANCH  27  28
ENDBRANCH  26  27
ENDBRANCH  25  26
ENDBRANCH  24  25
ENDBRANCH   1  24
TORSDOF 24
