REMARK SMILES Cc1c(NC(=S)NC(=O)CSc2ccc(Cl)cc2)cccc1C(=O)OCCOCCOCCOC(=O)c1ccc(-c2c3nc(c(-c4cc(S(=O)(=O)[O-])ccc4F)c4ccc([nH]4)c(-c4cc(S(=O)(=O)[O-])ccc4F)c4nc(c(-c5cc(S(=O)(=O)[O-])ccc5F)c5ccc2[nH]5)C=C4)C=C3)cc1
REMARK SMILES IDX 28 1 27 2 26 3 25 4 23 5 24 6 22 7 1 8 2 9 3 10 19 11 21 12
REMARK SMILES IDX 20 13 4 14 5 16 6 17 7 18 8 19 9 21 10 22 11 23 12 24 13 25
REMARK SMILES IDX 18 26 14 27 17 28 15 29 16 30 29 31 30 32 31 33 32 34 33 35
REMARK SMILES IDX 34 36 35 37 36 38 37 39 38 40 99 41 39 42 98 43 40 44 41 45
REMARK SMILES IDX 42 46 92 47 43 48 97 49 91 50 93 51 44 52 96 53 90 54 89 55
REMARK SMILES IDX 45 57 77 58 57 59 76 60 58 61 61 62 75 63 94 64 59 65 60 66
REMARK SMILES IDX 74 68 95 69 62 70 46 71 47 72 55 73 48 74 54 75 56 76 53 77
REMARK SMILES IDX 49 78 50 79 51 80 52 81 78 82 79 83 87 84 80 85 86 86 88 87
REMARK SMILES IDX 85 88 81 89 82 90 83 91 84 92 63 93 64 94 72 95 65 96 71 97
REMARK SMILES IDX 73 98 70 99 66 100 67 101 68 102 69 103
REMARK H PARENT 4 15 7 20 93 56 61 67
REMARK Flexibility Score: inf
ROOT
ATOM      1  O   UNL     1       3.437   5.219  -0.993  1.00  0.00    -0.376 OA
ENDROOT
BRANCH   1   2
ATOM      2  C   UNL     1       4.401   4.160  -1.164  1.00  0.00     0.202 C 
BRANCH   2   3
ATOM      3  C   UNL     1       4.294   2.578  -0.532  1.00  0.00     0.261 C 
BRANCH   3   4
ATOM      4  O   UNL     1       3.232   1.294  -0.989  1.00  0.00    -0.460 OA
BRANCH   4   5
ATOM      5  C   UNL     1       2.003   0.680  -0.535  1.00  0.00     0.338 C 
ATOM      6  O   UNL     1       1.411   0.749   0.544  1.00  0.00    -0.246 OA
BRANCH   5   7
ATOM      7  C   UNL     1       1.126  -0.164  -1.357  1.00  0.00     0.065 A 
ATOM      8  C   UNL     1       2.936  -1.849  -1.269  1.00  0.00     0.047 C 
ATOM      9  C   UNL     1       1.491  -1.492  -1.465  1.00  0.00    -0.013 A 
ATOM     10  C   UNL     1       0.438  -2.432  -1.470  1.00  0.00     0.044 A 
ATOM     11  C   UNL     1      -0.870  -2.068  -1.804  1.00  0.00     0.026 A 
ATOM     12  C   UNL     1      -0.264   0.157  -1.349  1.00  0.00     0.016 A 
ATOM     13  C   UNL     1      -1.242  -0.744  -1.723  1.00  0.00     0.003 A 
BRANCH  10  14
ATOM     14  N   UNL     1       0.732  -3.705  -0.975  1.00  0.00    -0.332 N 
ATOM     15  H   UNL     1       1.695  -3.907  -0.986  1.00  0.00     0.169 HD
BRANCH  14  16
ATOM     16  C   UNL     1      -0.004  -4.712  -0.490  1.00  0.00     0.177 C 
ATOM     17  S   UNL     1       0.766  -6.202  -0.381  1.00  0.00    -0.040 S 
BRANCH  16  18
ATOM     18  N   UNL     1      -1.316  -4.670  -0.109  1.00  0.00    -0.302 N 
ATOM     19  C   UNL     1      -2.372  -3.858   0.284  1.00  0.00     0.236 C 
ATOM     20  H   UNL     1      -1.650  -5.596  -0.117  1.00  0.00     0.172 HD
ATOM     21  O   UNL     1      -3.498  -4.269  -0.047  1.00  0.00    -0.274 OA
BRANCH  19  22
ATOM     22  C   UNL     1      -2.272  -2.564   1.069  1.00  0.00     0.175 C 
BRANCH  22  23
ATOM     23  S   UNL     1      -0.799  -2.340   2.088  1.00  0.00    -0.116 SA
BRANCH  23  24
ATOM     24  C   UNL     1      -1.612  -1.851   3.608  1.00  0.00     0.008 A 
ATOM     25  C   UNL     1      -1.867  -0.513   3.935  1.00  0.00     0.016 A 
ATOM     26  C   UNL     1      -2.049  -2.865   4.467  1.00  0.00     0.016 A 
ATOM     27  C   UNL     1      -2.575  -0.199   5.106  1.00  0.00     0.021 A 
ATOM     28  C   UNL     1      -2.754  -2.553   5.629  1.00  0.00     0.021 A 
ATOM     29  C   UNL     1      -3.019  -1.222   5.943  1.00  0.00     0.041 A 
ATOM     30  Cl  UNL     1      -3.906  -0.870   7.372  1.00  0.00    -0.084 Cl
ENDBRANCH  23  24
ENDBRANCH  22  23
ENDBRANCH  19  22
ENDBRANCH  16  18
ENDBRANCH  14  16
ENDBRANCH  10  14
ENDBRANCH   5   7
ENDBRANCH   4   5
ENDBRANCH   3   4
ENDBRANCH   2   3
ENDBRANCH   1   2
BRANCH   1  31
ATOM     31  C   UNL     1       2.560   5.791  -1.994  1.00  0.00     0.188 C 
BRANCH  31  32
ATOM     32  C   UNL     1       2.767   5.699  -3.501  1.00  0.00     0.188 C 
BRANCH  32  33
ATOM     33  O   UNL     1       3.430   4.498  -3.838  1.00  0.00    -0.376 OA
BRANCH  33  34
ATOM     34  C   UNL     1       3.626   4.255  -5.214  1.00  0.00     0.202 C 
BRANCH  34  35
ATOM     35  C   UNL     1       2.341   4.093  -6.056  1.00  0.00     0.261 C 
BRANCH  35  36
ATOM     36  O   UNL     1       1.586   2.877  -5.790  1.00  0.00    -0.460 OA
BRANCH  36  37
ATOM     37  C   UNL     1       0.329   2.981  -5.220  1.00  0.00     0.338 C 
ATOM     38  O   UNL     1      -0.701   2.942  -5.883  1.00  0.00    -0.246 OA
BRANCH  37  39
ATOM     39  C   UNL     1       0.381   2.889  -3.727  1.00  0.00     0.060 A 
ATOM     40  C   UNL     1      -0.548   3.254  -2.741  1.00  0.00     0.016 A 
ATOM     41  C   UNL     1       1.573   2.497  -3.251  1.00  0.00     0.016 A 
ATOM     42  C   UNL     1      -0.184   3.344  -1.307  1.00  0.00     0.010 A 
ATOM     43  C   UNL     1       1.895   2.902  -1.966  1.00  0.00     0.010 A 
ATOM     44  C   UNL     1       1.118   3.168  -0.831  1.00  0.00    -0.014 A 
BRANCH  44  45
ATOM     45  C   UNL     1       1.744   3.380   0.685  1.00  0.00     0.031 A 
ATOM     46  C   UNL     1       2.537   2.361   1.834  1.00  0.00     0.074 A 
ATOM     47  C   UNL     1       1.638   4.661   1.097  1.00  0.00     0.049 A 
ATOM     48  N   UNL     1       2.445   2.488   3.143  1.00  0.00    -0.248 NA
ATOM     49  C   UNL     1       3.417   1.101   1.647  1.00  0.00     0.031 C 
ATOM     50  C   UNL     1       2.244   5.338   2.234  1.00  0.00     0.029 A 
ATOM     51  N   UNL     1       0.799   5.637   0.552  1.00  0.00    -0.354 N 
ATOM     52  C   UNL     1       3.299   1.517   3.712  1.00  0.00     0.074 A 
ATOM     53  C   UNL     1       3.384   0.465   2.803  1.00  0.00     0.031 C 
ATOM     54  C   UNL     1       1.524   6.447   2.497  1.00  0.00     0.029 A 
ATOM     55  C   UNL     1       0.362   6.419   1.619  1.00  0.00     0.049 A 
ATOM     56  H   UNL     1       0.564   5.750  -0.397  1.00  0.00     0.167 HD
ATOM     57  C   UNL     1       4.183   1.756   4.723  1.00  0.00     0.034 A 
ATOM     58  C   UNL     1      -0.950   6.328   1.972  1.00  0.00     0.034 A 
ATOM     59  C   UNL     1       3.727   2.935   5.399  1.00  0.00     0.049 A 
ATOM     60  C   UNL     1      -1.044   5.749   3.370  1.00  0.00     0.074 A 
ATOM     61  C   UNL     1       4.057   4.271   5.348  1.00  0.00     0.029 A 
ATOM     62  N   UNL     1       2.436   2.857   5.877  1.00  0.00    -0.354 N 
ATOM     63  N   UNL     1      -0.098   5.043   3.946  1.00  0.00    -0.248 NA
ATOM     64  C   UNL     1      -2.143   6.045   4.275  1.00  0.00     0.031 C 
ATOM     65  C   UNL     1       2.840   4.991   5.600  1.00  0.00     0.029 A 
ATOM     66  C   UNL     1       1.819   4.083   5.859  1.00  0.00     0.049 A 
ATOM     67  H   UNL     1       2.011   2.026   6.192  1.00  0.00     0.167 HD
ATOM     68  C   UNL     1      -0.409   4.825   5.260  1.00  0.00     0.074 A 
ATOM     69  C   UNL     1      -1.696   5.489   5.414  1.00  0.00     0.031 C 
ATOM     70  C   UNL     1       0.388   4.133   6.138  1.00  0.00     0.034 A 
BRANCH  57  71
ATOM     71  C   UNL     1       5.478   0.972   5.022  1.00  0.00     0.023 A 
ATOM     72  C   UNL     1       6.204   1.292   6.188  1.00  0.00     0.031 A 
ATOM     73  C   UNL     1       6.117  -0.006   4.201  1.00  0.00     0.131 A 
ATOM     74  C   UNL     1       7.435   0.659   6.499  1.00  0.00     0.055 A 
ATOM     75  C   UNL     1       7.294  -0.689   4.553  1.00  0.00     0.041 A 
ATOM     76  F   UNL     1       5.710  -0.314   2.964  1.00  0.00    -0.206 F 
ATOM     77  C   UNL     1       7.966  -0.354   5.707  1.00  0.00     0.022 A 
BRANCH  74  78
ATOM     78  S   UNL     1       8.396   1.232   7.927  1.00  0.00     0.124 S 
ATOM     79  O   UNL     1       8.681   2.616   7.564  1.00  0.00    -0.237 OA
ATOM     80  O   UNL     1       7.465   1.025   9.030  1.00  0.00    -0.237 OA
ATOM     81  O   UNL     1       9.562   0.349   7.932  1.00  0.00    -0.744 OA
ENDBRANCH  74  78
ENDBRANCH  57  71
BRANCH  58  82
ATOM     82  C   UNL     1      -1.881   6.186   0.783  1.00  0.00     0.023 A 
ATOM     83  C   UNL     1      -1.666   7.068  -0.319  1.00  0.00     0.031 A 
ATOM     84  C   UNL     1      -2.704   5.080   0.534  1.00  0.00     0.131 A 
ATOM     85  C   UNL     1      -2.103   6.754  -1.620  1.00  0.00     0.055 A 
ATOM     86  C   UNL     1      -3.215   4.811  -0.758  1.00  0.00     0.041 A 
ATOM     87  F   UNL     1      -2.910   4.153   1.480  1.00  0.00    -0.206 F 
ATOM     88  C   UNL     1      -2.884   5.625  -1.846  1.00  0.00     0.022 A 
BRANCH  85  89
ATOM     89  S   UNL     1      -1.419   7.659  -3.051  1.00  0.00     0.124 S 
ATOM     90  O   UNL     1      -2.490   8.602  -3.356  1.00  0.00    -0.237 OA
ATOM     91  O   UNL     1      -0.185   8.243  -2.530  1.00  0.00    -0.237 OA
ATOM     92  O   UNL     1      -1.202   6.607  -4.042  1.00  0.00    -0.744 OA
ENDBRANCH  85  89
ENDBRANCH  58  82
BRANCH  70  93
ATOM     93  C   UNL     1      -0.170   3.400   7.354  1.00  0.00     0.023 A 
ATOM     94  C   UNL     1      -1.544   3.305   7.573  1.00  0.00     0.031 A 
ATOM     95  C   UNL     1       0.626   2.688   8.289  1.00  0.00     0.131 A 
ATOM     96  C   UNL     1      -2.068   2.725   8.732  1.00  0.00     0.055 A 
ATOM     97  C   UNL     1       0.090   1.956   9.354  1.00  0.00     0.041 A 
ATOM     98  F   UNL     1       1.963   2.649   8.220  1.00  0.00    -0.206 F 
ATOM     99  C   UNL     1      -1.268   2.011   9.612  1.00  0.00     0.022 A 
BRANCH  96 100
ATOM    100  S   UNL     1      -3.781   3.132   9.130  1.00  0.00     0.124 S 
ATOM    101  O   UNL     1      -3.737   4.594   9.147  1.00  0.00    -0.237 OA
ATOM    102  O   UNL     1      -4.512   2.544   8.013  1.00  0.00    -0.237 OA
ATOM    103  O   UNL     1      -3.989   2.504  10.431  1.00  0.00    -0.744 OA
ENDBRANCH  96 100
ENDBRANCH  70  93
ENDBRANCH  44  45
ENDBRANCH  37  39
ENDBRANCH  36  37
ENDBRANCH  35  36
ENDBRANCH  34  35
ENDBRANCH  33  34
ENDBRANCH  32  33
ENDBRANCH  31  32
ENDBRANCH   1  31
TORSDOF 26
