REMARK SMILES Cc1cc(Br)cc2c1O[C@H](C(F)(F)F)C(C(=O)OCCOCCOCCOC(=O)c1ccc(-c3c4nc(c(-c5cc(S(=O)(=O)[O-])ccc5F)c5ccc([nH]5)c(-c5cc(S(=O)(=O)[O-])ccc5F)c5nc(c(-c6cc(S(=O)(=O)[O-])ccc6F)c6ccc3[nH]6)C=C5)C=C4)cc1)=C2
REMARK SMILES IDX 23 1 22 2 21 3 20 4 19 5 18 6 16 7 17 8 15 9 1 10 2 11 3 12
REMARK SMILES IDX 8 13 4 14 7 15 9 16 5 17 6 18 93 19 10 20 11 21 12 22 13 23
REMARK SMILES IDX 14 24 24 25 25 26 26 27 27 28 28 29 29 30 30 31 31 32 92 33
REMARK SMILES IDX 32 34 91 35 33 36 34 37 35 38 85 39 36 40 90 41 84 42 86 43
REMARK SMILES IDX 37 44 89 45 83 46 82 47 38 49 70 50 50 51 69 52 51 53 54 54
REMARK SMILES IDX 68 55 87 56 52 57 53 58 67 60 88 61 55 62 39 63 40 64 48 65
REMARK SMILES IDX 41 66 47 67 49 68 46 69 42 70 43 71 44 72 45 73 71 74 72 75
REMARK SMILES IDX 80 76 73 77 79 78 81 79 78 80 74 81 75 82 76 83 77 84 56 85
REMARK SMILES IDX 57 86 65 87 58 88 64 89 66 90 63 91 59 92 60 93 61 94 62 95
REMARK H PARENT 86 48 54 59
REMARK Flexibility Score: inf
ROOT
ATOM      1  C   UNL     1       1.963  -5.350   4.651  1.00  0.00     0.188 C 
ENDROOT
BRANCH   1   2
ATOM      2  C   UNL     1       0.868  -5.809   5.638  1.00  0.00     0.188 C 
BRANCH   2   3
ATOM      3  O   UNL     1       0.736  -7.210   5.711  1.00  0.00    -0.376 OA
BRANCH   3   4
ATOM      4  C   UNL     1      -0.288  -7.879   5.002  1.00  0.00     0.202 C 
BRANCH   4   5
ATOM      5  C   UNL     1      -0.818  -7.441   3.625  1.00  0.00     0.261 C 
BRANCH   5   6
ATOM      6  O   UNL     1      -0.486  -6.125   3.179  1.00  0.00    -0.460 OA
BRANCH   6   7
ATOM      7  C   UNL     1      -1.446  -5.182   3.316  1.00  0.00     0.338 C 
ATOM      8  O   UNL     1      -2.546  -5.333   3.820  1.00  0.00    -0.246 OA
BRANCH   7   9
ATOM      9  C   UNL     1      -0.913  -3.890   2.841  1.00  0.00     0.087 C 
ATOM     10  C   UNL     1       1.029  -0.028   0.060  1.00  0.00     0.048 C 
ATOM     11  C   UNL     1       0.402  -0.181   1.418  1.00  0.00    -0.007 A 
ATOM     12  C   UNL     1       0.222   0.956   2.220  1.00  0.00     0.023 A 
ATOM     13  C   UNL     1       0.019  -1.438   1.918  1.00  0.00     0.130 A 
ATOM     14  C   UNL     1      -0.354   0.840   3.483  1.00  0.00     0.019 A 
ATOM     15  C   UNL     1      -0.594  -1.543   3.174  1.00  0.00     0.019 A 
ATOM     16  O   UNL     1       0.274  -2.519   1.122  1.00  0.00    -0.475 OA
ATOM     17  Br  UNL     1      -0.596   2.385   4.544  1.00  0.00    -0.051 Br
ATOM     18  C   UNL     1      -0.767  -0.401   3.963  1.00  0.00     0.027 A 
ATOM     19  C   UNL     1      -1.091  -2.829   3.637  1.00  0.00     0.027 C 
ATOM     20  C   UNL     1      -0.187  -3.835   1.524  1.00  0.00     0.316 C 
BRANCH  20  21
ATOM     21  C   UNL     1      -1.014  -4.417   0.368  1.00  0.00     0.430 C 
ATOM     22  F   UNL     1      -0.338  -4.341  -0.806  1.00  0.00    -0.167 F 
ATOM     23  F   UNL     1      -1.299  -5.727   0.558  1.00  0.00    -0.167 F 
ATOM     24  F   UNL     1      -2.187  -3.768   0.199  1.00  0.00    -0.167 F 
ENDBRANCH  20  21
ENDBRANCH   7   9
ENDBRANCH   6   7
ENDBRANCH   5   6
ENDBRANCH   4   5
ENDBRANCH   3   4
ENDBRANCH   2   3
ENDBRANCH   1   2
BRANCH   1  25
ATOM     25  O   UNL     1       2.748  -6.327   3.974  1.00  0.00    -0.376 OA
BRANCH  25  26
ATOM     26  C   UNL     1       3.359  -7.366   4.735  1.00  0.00     0.202 C 
BRANCH  26  27
ATOM     27  C   UNL     1       4.274  -6.993   5.910  1.00  0.00     0.261 C 
BRANCH  27  28
ATOM     28  O   UNL     1       3.653  -6.160   6.903  1.00  0.00    -0.460 OA
BRANCH  28  29
ATOM     29  C   UNL     1       4.215  -4.935   7.069  1.00  0.00     0.338 C 
ATOM     30  O   UNL     1       5.200  -4.494   6.503  1.00  0.00    -0.246 OA
BRANCH  29  31
ATOM     31  C   UNL     1       3.335  -4.110   7.919  1.00  0.00     0.060 A 
ATOM     32  C   UNL     1       2.782  -2.946   7.368  1.00  0.00     0.016 A 
ATOM     33  C   UNL     1       3.072  -4.461   9.245  1.00  0.00     0.016 A 
ATOM     34  C   UNL     1       1.960  -2.130   8.143  1.00  0.00     0.010 A 
ATOM     35  C   UNL     1       2.269  -3.625  10.029  1.00  0.00     0.010 A 
ATOM     36  C   UNL     1       1.722  -2.449   9.486  1.00  0.00    -0.014 A 
BRANCH  36  37
ATOM     37  C   UNL     1       1.013  -1.474  10.350  1.00  0.00     0.031 A 
ATOM     38  C   UNL     1       1.823  -0.476  11.130  1.00  0.00     0.074 A 
ATOM     39  C   UNL     1      -0.331  -1.445  10.399  1.00  0.00     0.049 A 
ATOM     40  N   UNL     1       1.415   0.479  11.923  1.00  0.00    -0.248 NA
ATOM     41  C   UNL     1       3.285  -0.566  10.992  1.00  0.00     0.031 C 
ATOM     42  C   UNL     1      -1.222  -2.331   9.651  1.00  0.00     0.029 A 
ATOM     43  N   UNL     1      -1.182  -0.630  11.104  1.00  0.00    -0.354 N 
ATOM     44  C   UNL     1       2.567   1.121  12.361  1.00  0.00     0.074 A 
ATOM     45  C   UNL     1       3.691   0.417  11.781  1.00  0.00     0.031 C 
ATOM     46  C   UNL     1      -2.497  -2.003   9.931  1.00  0.00     0.029 A 
ATOM     47  C   UNL     1      -2.513  -0.905  10.897  1.00  0.00     0.049 A 
ATOM     48  H   UNL     1      -0.868   0.086  11.702  1.00  0.00     0.167 HD
ATOM     49  C   UNL     1       2.677   2.208  13.161  1.00  0.00     0.034 A 
ATOM     50  C   UNL     1      -3.616  -0.341  11.431  1.00  0.00     0.034 A 
ATOM     51  C   UNL     1       1.557   2.890  13.753  1.00  0.00     0.049 A 
ATOM     52  C   UNL     1      -3.465   0.796  12.411  1.00  0.00     0.074 A 
ATOM     53  C   UNL     1       1.565   3.996  14.585  1.00  0.00     0.029 A 
ATOM     54  N   UNL     1       0.229   2.527  13.585  1.00  0.00    -0.354 N 
ATOM     55  N   UNL     1      -2.367   1.381  12.829  1.00  0.00    -0.248 NA
ATOM     56  C   UNL     1      -4.697   1.349  12.993  1.00  0.00     0.031 C 
ATOM     57  C   UNL     1       0.248   4.264  14.969  1.00  0.00     0.029 A 
ATOM     58  C   UNL     1      -0.587   3.368  14.322  1.00  0.00     0.049 A 
ATOM     59  H   UNL     1      -0.087   1.781  13.025  1.00  0.00     0.167 HD
ATOM     60  C   UNL     1      -2.779   2.390  13.696  1.00  0.00     0.074 A 
ATOM     61  C   UNL     1      -4.224   2.330  13.752  1.00  0.00     0.031 C 
ATOM     62  C   UNL     1      -2.027   3.293  14.372  1.00  0.00     0.034 A 
BRANCH  49  63
ATOM     63  C   UNL     1       4.063   2.709  13.464  1.00  0.00     0.023 A 
ATOM     64  C   UNL     1       4.851   3.316  12.473  1.00  0.00     0.031 A 
ATOM     65  C   UNL     1       4.593   2.595  14.760  1.00  0.00     0.131 A 
ATOM     66  C   UNL     1       6.147   3.752  12.784  1.00  0.00     0.055 A 
ATOM     67  C   UNL     1       5.860   3.086  15.078  1.00  0.00     0.041 A 
ATOM     68  F   UNL     1       3.887   2.006  15.738  1.00  0.00    -0.206 F 
ATOM     69  C   UNL     1       6.648   3.662  14.085  1.00  0.00     0.022 A 
BRANCH  66  70
ATOM     70  S   UNL     1       7.202   4.368  11.444  1.00  0.00     0.124 S 
ATOM     71  O   UNL     1       7.356   3.173  10.618  1.00  0.00    -0.237 OA
ATOM     72  O   UNL     1       6.395   5.440  10.872  1.00  0.00    -0.237 OA
ATOM     73  O   UNL     1       8.414   4.802  12.135  1.00  0.00    -0.744 OA
ENDBRANCH  66  70
ENDBRANCH  49  63
BRANCH  50  74
ATOM     74  C   UNL     1      -4.967  -0.851  11.066  1.00  0.00     0.023 A 
ATOM     75  C   UNL     1      -5.855  -0.070  10.311  1.00  0.00     0.031 A 
ATOM     76  C   UNL     1      -5.393  -2.125  11.482  1.00  0.00     0.131 A 
ATOM     77  C   UNL     1      -7.136  -0.561  10.014  1.00  0.00     0.055 A 
ATOM     78  C   UNL     1      -6.654  -2.624  11.153  1.00  0.00     0.041 A 
ATOM     79  F   UNL     1      -4.578  -2.910  12.205  1.00  0.00    -0.206 F 
ATOM     80  C   UNL     1      -7.537  -1.837  10.419  1.00  0.00     0.022 A 
BRANCH  77  81
ATOM     81  S   UNL     1      -8.293   0.507   9.114  1.00  0.00     0.124 S 
ATOM     82  O   UNL     1      -8.488   1.597  10.063  1.00  0.00    -0.237 OA
ATOM     83  O   UNL     1      -7.534   0.831   7.910  1.00  0.00    -0.237 OA
ATOM     84  O   UNL     1      -9.455  -0.353   8.901  1.00  0.00    -0.744 OA
ENDBRANCH  77  81
ENDBRANCH  50  74
BRANCH  62  85
ATOM     85  C   UNL     1      -2.737   4.326  15.205  1.00  0.00     0.023 A 
ATOM     86  C   UNL     1      -3.294   4.008  16.454  1.00  0.00     0.031 A 
ATOM     87  C   UNL     1      -2.763   5.667  14.782  1.00  0.00     0.131 A 
ATOM     88  C   UNL     1      -3.861   5.024  17.239  1.00  0.00     0.055 A 
ATOM     89  C   UNL     1      -3.295   6.678  15.583  1.00  0.00     0.041 A 
ATOM     90  F   UNL     1      -2.234   6.019  13.599  1.00  0.00    -0.206 F 
ATOM     91  C   UNL     1      -3.848   6.358  16.820  1.00  0.00     0.022 A 
BRANCH  88  92
ATOM     92  S   UNL     1      -4.610   4.586  18.833  1.00  0.00     0.124 S 
ATOM     93  O   UNL     1      -5.785   3.828  18.416  1.00  0.00    -0.237 OA
ATOM     94  O   UNL     1      -3.553   3.817  19.482  1.00  0.00    -0.237 OA
ATOM     95  O   UNL     1      -4.893   5.883  19.446  1.00  0.00    -0.744 OA
ENDBRANCH  88  92
ENDBRANCH  62  85
ENDBRANCH  36  37
ENDBRANCH  29  31
ENDBRANCH  28  29
ENDBRANCH  27  28
ENDBRANCH  26  27
ENDBRANCH  25  26
ENDBRANCH   1  25
TORSDOF 21
