REMARK SMILES COCC[C@@H](C)NC(=O)N[C@@H]1C=C[C@@H](C(=O)OCCOCCOCCOC(=O)c2ccc(-c3c4nc(c(-c5cc(S(=O)(=O)[O-])ccc5F)c5ccc([nH]5)c(-c5cc(S(=O)(=O)[O-])ccc5F)c5nc(c(-c6cc(S(=O)(=O)[O-])ccc6F)c6ccc3[nH]6)C=C5)C=C4)cc2)C1
REMARK SMILES IDX 21 1 20 2 19 3 18 4 17 5 15 6 16 7 14 8 11 9 12 10 92 11
REMARK SMILES IDX 13 12 10 13 7 14 8 15 9 17 5 19 6 20 4 21 3 22 2 23 1 24
REMARK SMILES IDX 22 25 23 26 24 27 25 28 26 29 27 30 28 31 29 32 30 33 91 34
REMARK SMILES IDX 31 35 90 36 32 37 33 38 34 39 84 40 35 41 89 42 83 43 85 44
REMARK SMILES IDX 36 45 88 46 82 47 81 48 37 50 69 51 49 52 68 53 50 54 53 55
REMARK SMILES IDX 67 56 86 57 51 58 52 59 66 61 87 62 54 63 38 64 39 65 47 66
REMARK SMILES IDX 40 67 46 68 48 69 45 70 41 71 42 72 43 73 44 74 70 75 71 76
REMARK SMILES IDX 79 77 72 78 78 79 80 80 77 81 73 82 74 83 75 84 76 85 55 86
REMARK SMILES IDX 56 87 64 88 57 89 63 90 65 91 62 92 58 93 59 94 60 95 61 96
REMARK H PARENT 7 16 10 18 85 49 53 60
REMARK Flexibility Score: inf
ROOT
ATOM      1  C   UNL     1      -5.204   1.316   1.270  1.00  0.00     0.188 C 
ENDROOT
BRANCH   1   2
ATOM      2  O   UNL     1      -5.987   2.252   0.550  1.00  0.00    -0.376 OA
BRANCH   2   3
ATOM      3  C   UNL     1      -5.594   2.501  -0.802  1.00  0.00     0.202 C 
BRANCH   3   4
ATOM      4  C   UNL     1      -4.405   3.471  -0.944  1.00  0.00     0.261 C 
BRANCH   4   5
ATOM      5  O   UNL     1      -3.148   2.793  -1.196  1.00  0.00    -0.463 OA
BRANCH   5   6
ATOM      6  C   UNL     1      -2.228   3.484  -1.958  1.00  0.00     0.312 C 
ATOM      7  O   UNL     1      -2.487   4.476  -2.626  1.00  0.00    -0.252 OA
BRANCH   6   8
ATOM      8  C   UNL     1      -0.811   2.945  -1.704  1.00  0.00     0.124 C 
ATOM      9  C   UNL     1       0.993   1.544  -2.664  1.00  0.00     0.107 C 
ATOM     10  C   UNL     1       1.363   2.982  -2.627  1.00  0.00    -0.006 C 
ATOM     11  C   UNL     1      -0.487   1.569  -2.314  1.00  0.00     0.048 C 
ATOM     12  C   UNL     1       0.353   3.756  -2.200  1.00  0.00    -0.014 C 
BRANCH   9  13
ATOM     13  N   UNL     1       1.933   0.672  -1.963  1.00  0.00    -0.332 N 
ATOM     14  N   UNL     1       1.778   0.390   0.405  1.00  0.00    -0.336 N 
ATOM     15  C   UNL     1       2.344   0.211  -0.785  1.00  0.00     0.315 C 
ATOM     16  H   UNL     1       2.341   0.080   1.151  1.00  0.00     0.165 HD
ATOM     17  O   UNL     1       3.374  -0.474  -0.811  1.00  0.00    -0.249 OA
ATOM     18  H   UNL     1       2.499   0.250  -2.649  1.00  0.00     0.165 HD
BRANCH  14  19
ATOM     19  C   UNL     1       0.517   0.941   0.836  1.00  0.00     0.083 C 
ATOM     20  C   UNL     1       0.719   1.932   1.982  1.00  0.00     0.031 C 
BRANCH  19  21
ATOM     21  C   UNL     1      -0.507  -0.162   1.179  1.00  0.00     0.053 C 
BRANCH  21  22
ATOM     22  C   UNL     1      -1.868   0.009   0.478  1.00  0.00     0.162 C 
BRANCH  22  23
ATOM     23  O   UNL     1      -1.980  -0.914  -0.610  1.00  0.00    -0.385 OA
ATOM     24  C   UNL     1      -2.867  -0.584  -1.674  1.00  0.00     0.194 C 
ENDBRANCH  22  23
ENDBRANCH  21  22
ENDBRANCH  19  21
ENDBRANCH  14  19
ENDBRANCH   9  13
ENDBRANCH   6   8
ENDBRANCH   5   6
ENDBRANCH   4   5
ENDBRANCH   3   4
ENDBRANCH   2   3
ENDBRANCH   1   2
BRANCH   1  25
ATOM     25  C   UNL     1      -5.345  -0.148   0.856  1.00  0.00     0.188 C 
BRANCH  25  26
ATOM     26  O   UNL     1      -6.476  -0.528   0.094  1.00  0.00    -0.376 OA
BRANCH  26  27
ATOM     27  C   UNL     1      -7.657  -0.772   0.856  1.00  0.00     0.202 C 
BRANCH  27  28
ATOM     28  C   UNL     1      -7.595  -2.036   1.734  1.00  0.00     0.261 C 
BRANCH  28  29
ATOM     29  O   UNL     1      -6.807  -1.809   2.929  1.00  0.00    -0.460 OA
BRANCH  29  30
ATOM     30  C   UNL     1      -5.765  -2.667   3.114  1.00  0.00     0.338 C 
ATOM     31  O   UNL     1      -5.522  -3.666   2.462  1.00  0.00    -0.246 OA
BRANCH  30  32
ATOM     32  C   UNL     1      -4.805  -2.097   4.091  1.00  0.00     0.060 A 
ATOM     33  C   UNL     1      -3.478  -1.895   3.680  1.00  0.00     0.016 A 
ATOM     34  C   UNL     1      -5.171  -1.845   5.412  1.00  0.00     0.016 A 
ATOM     35  C   UNL     1      -2.505  -1.477   4.595  1.00  0.00     0.010 A 
ATOM     36  C   UNL     1      -4.189  -1.453   6.334  1.00  0.00     0.010 A 
ATOM     37  C   UNL     1      -2.845  -1.296   5.941  1.00  0.00    -0.014 A 
BRANCH  37  38
ATOM     38  C   UNL     1      -1.791  -1.166   6.985  1.00  0.00     0.031 A 
ATOM     39  C   UNL     1      -1.379  -2.406   7.736  1.00  0.00     0.074 A 
ATOM     40  C   UNL     1      -1.212   0.011   7.288  1.00  0.00     0.049 A 
ATOM     41  N   UNL     1      -0.671  -2.525   8.829  1.00  0.00    -0.248 NA
ATOM     42  C   UNL     1      -1.840  -3.683   7.170  1.00  0.00     0.031 C 
ATOM     43  C   UNL     1      -1.427   1.270   6.580  1.00  0.00     0.029 A 
ATOM     44  N   UNL     1      -0.335   0.337   8.297  1.00  0.00    -0.354 N 
ATOM     45  C   UNL     1      -0.623  -3.889   9.100  1.00  0.00     0.074 A 
ATOM     46  C   UNL     1      -1.382  -4.550   8.058  1.00  0.00     0.031 C 
ATOM     47  C   UNL     1      -0.725   2.239   7.195  1.00  0.00     0.029 A 
ATOM     48  C   UNL     1      -0.063   1.684   8.377  1.00  0.00     0.049 A 
ATOM     49  H   UNL     1       0.060  -0.330   8.904  1.00  0.00     0.167 HD
ATOM     50  C   UNL     1      -0.014  -4.530  10.129  1.00  0.00     0.034 A 
ATOM     51  C   UNL     1       0.592   2.393   9.322  1.00  0.00     0.034 A 
ATOM     52  C   UNL     1       0.730  -3.863  11.169  1.00  0.00     0.049 A 
ATOM     53  C   UNL     1       1.157   1.677  10.530  1.00  0.00     0.074 A 
ATOM     54  C   UNL     1       1.361  -4.416  12.270  1.00  0.00     0.029 A 
ATOM     55  N   UNL     1       0.937  -2.492  11.242  1.00  0.00    -0.354 N 
ATOM     56  N   UNL     1       1.140   0.396  10.819  1.00  0.00    -0.248 NA
ATOM     57  C   UNL     1       1.820   2.508  11.547  1.00  0.00     0.031 C 
ATOM     58  C   UNL     1       1.892  -3.376  13.042  1.00  0.00     0.029 A 
ATOM     59  C   UNL     1       1.660  -2.179  12.384  1.00  0.00     0.049 A 
ATOM     60  H   UNL     1       0.618  -1.837  10.580  1.00  0.00     0.167 HD
ATOM     61  C   UNL     1       1.816   0.269  12.033  1.00  0.00     0.074 A 
ATOM     62  C   UNL     1       2.235   1.599  12.417  1.00  0.00     0.031 C 
ATOM     63  C   UNL     1       2.070  -0.848  12.763  1.00  0.00     0.034 A 
BRANCH  50  64
ATOM     64  C   UNL     1      -0.205  -6.025  10.214  1.00  0.00     0.023 A 
ATOM     65  C   UNL     1       0.311  -6.898   9.242  1.00  0.00     0.031 A 
ATOM     66  C   UNL     1      -0.960  -6.578  11.264  1.00  0.00     0.131 A 
ATOM     67  C   UNL     1       0.004  -8.266   9.299  1.00  0.00     0.055 A 
ATOM     68  C   UNL     1      -1.194  -7.950  11.359  1.00  0.00     0.041 A 
ATOM     69  F   UNL     1      -1.498  -5.790  12.208  1.00  0.00    -0.206 F 
ATOM     70  C   UNL     1      -0.725  -8.802  10.363  1.00  0.00     0.022 A 
BRANCH  67  71
ATOM     71  S   UNL     1       0.440  -9.313   7.883  1.00  0.00     0.124 S 
ATOM     72  O   UNL     1      -0.270  -8.646   6.794  1.00  0.00    -0.237 OA
ATOM     73  O   UNL     1       1.895  -9.213   7.854  1.00  0.00    -0.237 OA
ATOM     74  O   UNL     1      -0.088 -10.624   8.251  1.00  0.00    -0.744 OA
ENDBRANCH  67  71
ENDBRANCH  50  64
BRANCH  51  75
ATOM     75  C   UNL     1       0.682   3.881   9.232  1.00  0.00     0.023 A 
ATOM     76  C   UNL     1       1.923   4.532   9.139  1.00  0.00     0.031 A 
ATOM     77  C   UNL     1      -0.473   4.679   9.325  1.00  0.00     0.131 A 
ATOM     78  C   UNL     1       1.984   5.934   9.189  1.00  0.00     0.055 A 
ATOM     79  C   UNL     1      -0.411   6.074   9.318  1.00  0.00     0.041 A 
ATOM     80  F   UNL     1      -1.685   4.111   9.427  1.00  0.00    -0.206 F 
ATOM     81  C   UNL     1       0.825   6.709   9.264  1.00  0.00     0.022 A 
BRANCH  78  82
ATOM     82  S   UNL     1       3.612   6.733   9.249  1.00  0.00     0.124 S 
ATOM     83  O   UNL     1       4.177   6.162  10.466  1.00  0.00    -0.237 OA
ATOM     84  O   UNL     1       4.210   6.293   7.994  1.00  0.00    -0.237 OA
ATOM     85  O   UNL     1       3.289   8.157   9.318  1.00  0.00    -0.744 OA
ENDBRANCH  78  82
ENDBRANCH  51  75
BRANCH  63  86
ATOM     86  C   UNL     1       2.891  -0.684  14.021  1.00  0.00     0.023 A 
ATOM     87  C   UNL     1       2.398  -0.006  15.150  1.00  0.00     0.031 A 
ATOM     88  C   UNL     1       4.191  -1.219  14.088  1.00  0.00     0.131 A 
ATOM     89  C   UNL     1       3.217   0.160  16.279  1.00  0.00     0.055 A 
ATOM     90  C   UNL     1       4.980  -1.097  15.232  1.00  0.00     0.041 A 
ATOM     91  F   UNL     1       4.713  -1.875  13.039  1.00  0.00    -0.206 F 
ATOM     92  C   UNL     1       4.498  -0.395  16.333  1.00  0.00     0.022 A 
BRANCH  89  93
ATOM     93  S   UNL     1       2.616   1.180  17.655  1.00  0.00     0.124 S 
ATOM     94  O   UNL     1       2.377   2.462  17.001  1.00  0.00    -0.237 OA
ATOM     95  O   UNL     1       1.426   0.453  18.086  1.00  0.00    -0.237 OA
ATOM     96  O   UNL     1       3.727   1.166  18.605  1.00  0.00    -0.744 OA
ENDBRANCH  89  93
ENDBRANCH  63  86
ENDBRANCH  37  38
ENDBRANCH  30  32
ENDBRANCH  29  30
ENDBRANCH  28  29
ENDBRANCH  27  28
ENDBRANCH  26  27
ENDBRANCH  25  26
ENDBRANCH   1  25
TORSDOF 25
