REMARK SMILES CCc1ccccc1NC(=O)CCCC(=O)OCCOCCOCCOC(=O)c1ccc(-c2c3nc(c(-c4cc(S(=O)(=O)[O-])ccc4F)c4ccc([nH]4)c(-c4cc(S(=O)(=O)[O-])ccc4F)c4nc(c(-c5cc(S(=O)(=O)[O-])ccc5F)c5ccc2[nH]5)C=C4)C=C3)cc1
REMARK SMILES IDX 21 1 20 2 19 3 18 4 17 5 15 6 16 7 14 8 13 9 12 10 10 11
REMARK SMILES IDX 9 12 11 14 8 15 3 16 4 17 5 18 7 19 6 20 2 21 1 22 22 23
REMARK SMILES IDX 23 24 24 25 25 26 26 27 27 28 28 29 29 30 30 31 91 32 31 33
REMARK SMILES IDX 90 34 32 35 33 36 34 37 84 38 35 39 89 40 83 41 85 42 36 43
REMARK SMILES IDX 88 44 82 45 81 46 37 48 69 49 49 50 68 51 50 52 53 53 67 54
REMARK SMILES IDX 86 55 51 56 52 57 66 59 87 60 54 61 38 62 39 63 47 64 40 65
REMARK SMILES IDX 46 66 48 67 45 68 41 69 42 70 43 71 44 72 70 73 71 74 79 75
REMARK SMILES IDX 72 76 78 77 80 78 77 79 73 80 74 81 75 82 76 83 55 84 56 85
REMARK SMILES IDX 64 86 57 87 63 88 65 89 62 90 58 91 59 92 60 93 61 94
REMARK H PARENT 9 13 85 47 53 58
REMARK Flexibility Score: inf
ROOT
ATOM      1  C   UNL     1       2.191   4.083   6.846  1.00  0.00     0.188 C 
ENDROOT
BRANCH   1   2
ATOM      2  O   UNL     1       3.565   3.751   6.715  1.00  0.00    -0.376 OA
BRANCH   2   3
ATOM      3  C   UNL     1       3.817   2.589   5.942  1.00  0.00     0.202 C 
BRANCH   3   4
ATOM      4  C   UNL     1       3.533   2.777   4.462  1.00  0.00     0.261 C 
BRANCH   4   5
ATOM      5  O   UNL     1       2.159   2.929   4.045  1.00  0.00    -0.463 OA
BRANCH   5   6
ATOM      6  C   UNL     1       1.117   2.177   4.469  1.00  0.00     0.305 C 
ATOM      7  O   UNL     1       1.179   1.331   5.349  1.00  0.00    -0.252 OA
BRANCH   6   8
ATOM      8  C   UNL     1      -0.163   2.513   3.710  1.00  0.00     0.123 C 
BRANCH   8   9
ATOM      9  C   UNL     1      -0.124   3.673   2.701  1.00  0.00     0.022 C 
BRANCH   9  10
ATOM     10  C   UNL     1       0.929   3.640   1.585  1.00  0.00     0.101 C 
BRANCH  10  11
ATOM     11  C   UNL     1       0.552   2.780   0.406  1.00  0.00     0.224 C 
ATOM     12  N   UNL     1       0.589   1.422   0.417  1.00  0.00    -0.326 N 
ATOM     13  H   UNL     1       0.145   1.029  -0.369  1.00  0.00     0.169 HD
ATOM     14  O   UNL     1       0.100   3.317  -0.614  1.00  0.00    -0.275 OA
BRANCH  12  15
ATOM     15  C   UNL     1       1.110   0.442   1.281  1.00  0.00     0.044 A 
ATOM     16  C   UNL     1       0.540  -0.842   1.268  1.00  0.00    -0.025 A 
ATOM     17  C   UNL     1       0.748  -1.707   2.358  1.00  0.00     0.006 A 
ATOM     18  C   UNL     1       1.689  -1.400   3.326  1.00  0.00     0.000 A 
ATOM     19  C   UNL     1       2.181   0.649   2.134  1.00  0.00     0.026 A 
ATOM     20  C   UNL     1       2.479  -0.277   3.148  1.00  0.00     0.002 A 
BRANCH  16  21
ATOM     21  C   UNL     1      -0.181  -1.387   0.059  1.00  0.00     0.034 C 
ATOM     22  C   UNL     1       0.716  -1.287  -1.181  1.00  0.00     0.009 C 
ENDBRANCH  16  21
ENDBRANCH  12  15
ENDBRANCH  10  11
ENDBRANCH   9  10
ENDBRANCH   8   9
ENDBRANCH   6   8
ENDBRANCH   5   6
ENDBRANCH   4   5
ENDBRANCH   3   4
ENDBRANCH   2   3
ENDBRANCH   1   2
BRANCH   1  23
ATOM     23  C   UNL     1       1.653   5.068   5.786  1.00  0.00     0.188 C 
BRANCH  23  24
ATOM     24  O   UNL     1       2.540   5.814   4.971  1.00  0.00    -0.376 OA
BRANCH  24  25
ATOM     25  C   UNL     1       3.654   6.427   5.599  1.00  0.00     0.202 C 
BRANCH  25  26
ATOM     26  C   UNL     1       3.443   7.322   6.838  1.00  0.00     0.261 C 
BRANCH  26  27
ATOM     27  O   UNL     1       2.534   6.818   7.837  1.00  0.00    -0.460 OA
BRANCH  27  28
ATOM     28  C   UNL     1       1.291   7.376   7.857  1.00  0.00     0.338 C 
ATOM     29  O   UNL     1       0.922   8.331   7.192  1.00  0.00    -0.246 OA
BRANCH  28  30
ATOM     30  C   UNL     1       0.351   6.472   8.582  1.00  0.00     0.060 A 
ATOM     31  C   UNL     1      -0.818   6.052   7.917  1.00  0.00     0.016 A 
ATOM     32  C   UNL     1       0.626   5.992   9.863  1.00  0.00     0.016 A 
ATOM     33  C   UNL     1      -1.719   5.180   8.531  1.00  0.00     0.010 A 
ATOM     34  C   UNL     1      -0.306   5.161  10.502  1.00  0.00     0.010 A 
ATOM     35  C   UNL     1      -1.501   4.786   9.855  1.00  0.00    -0.014 A 
BRANCH  35  36
ATOM     36  C   UNL     1      -2.657   4.310  10.662  1.00  0.00     0.031 A 
ATOM     37  C   UNL     1      -3.445   5.364  11.400  1.00  0.00     0.074 A 
ATOM     38  C   UNL     1      -3.030   3.019  10.732  1.00  0.00     0.049 A 
ATOM     39  N   UNL     1      -4.429   5.235  12.251  1.00  0.00    -0.248 NA
ATOM     40  C   UNL     1      -3.051   6.759  11.142  1.00  0.00     0.031 C 
ATOM     41  C   UNL     1      -2.416   1.913  10.002  1.00  0.00     0.029 A 
ATOM     42  N   UNL     1      -4.027   2.423  11.468  1.00  0.00    -0.354 N 
ATOM     43  C   UNL     1      -4.760   6.530  12.639  1.00  0.00     0.074 A 
ATOM     44  C   UNL     1      -3.848   7.423  11.959  1.00  0.00     0.031 C 
ATOM     45  C   UNL     1      -3.040   0.769  10.341  1.00  0.00     0.029 A 
ATOM     46  C   UNL     1      -4.068   1.054  11.343  1.00  0.00     0.049 A 
ATOM     47  H   UNL     1      -4.654   2.930  12.033  1.00  0.00     0.167 HD
ATOM     48  C   UNL     1      -5.736   6.942  13.483  1.00  0.00     0.034 A 
ATOM     49  C   UNL     1      -4.826   0.141  11.987  1.00  0.00     0.034 A 
ATOM     50  C   UNL     1      -6.627   6.043  14.171  1.00  0.00     0.049 A 
ATOM     51  C   UNL     1      -5.829   0.612  13.020  1.00  0.00     0.074 A 
ATOM     52  C   UNL     1      -7.648   6.350  15.051  1.00  0.00     0.029 A 
ATOM     53  N   UNL     1      -6.592   4.659  14.068  1.00  0.00    -0.354 N 
ATOM     54  N   UNL     1      -6.126   1.837  13.393  1.00  0.00    -0.248 NA
ATOM     55  C   UNL     1      -6.600  -0.427  13.719  1.00  0.00     0.031 C 
ATOM     56  C   UNL     1      -8.177   5.151  15.540  1.00  0.00     0.029 A 
ATOM     57  C   UNL     1      -7.549   4.096  14.897  1.00  0.00     0.049 A 
ATOM     58  H   UNL     1      -5.977   4.151  13.490  1.00  0.00     0.167 HD
ATOM     59  C   UNL     1      -7.147   1.712  14.336  1.00  0.00     0.074 A 
ATOM     60  C   UNL     1      -7.417   0.297  14.469  1.00  0.00     0.031 C 
ATOM     61  C   UNL     1      -7.808   2.680  15.024  1.00  0.00     0.034 A 
BRANCH  48  62
ATOM     62  C   UNL     1      -5.826   8.425  13.755  1.00  0.00     0.023 A 
ATOM     63  C   UNL     1      -6.118   9.351  12.738  1.00  0.00     0.031 A 
ATOM     64  C   UNL     1      -5.551   8.924  15.040  1.00  0.00     0.131 A 
ATOM     65  C   UNL     1      -6.043  10.726  13.002  1.00  0.00     0.055 A 
ATOM     66  C   UNL     1      -5.568  10.292  15.318  1.00  0.00     0.041 A 
ATOM     67  F   UNL     1      -5.236   8.091  16.045  1.00  0.00    -0.206 F 
ATOM     68  C   UNL     1      -5.797  11.203  14.292  1.00  0.00     0.022 A 
BRANCH  65  69
ATOM     69  S   UNL     1      -6.101  11.881  11.604  1.00  0.00     0.124 S 
ATOM     70  O   UNL     1      -4.979  11.417  10.792  1.00  0.00    -0.237 OA
ATOM     71  O   UNL     1      -7.430  11.643  11.054  1.00  0.00    -0.237 OA
ATOM     72  O   UNL     1      -5.909  13.188  12.231  1.00  0.00    -0.744 OA
ENDBRANCH  65  69
ENDBRANCH  48  62
BRANCH  49  73
ATOM     73  C   UNL     1      -4.652  -1.321  11.729  1.00  0.00     0.023 A 
ATOM     74  C   UNL     1      -5.706  -2.100  11.222  1.00  0.00     0.031 A 
ATOM     75  C   UNL     1      -3.454  -1.978  12.064  1.00  0.00     0.131 A 
ATOM     76  C   UNL     1      -5.560  -3.493  11.112  1.00  0.00     0.055 A 
ATOM     77  C   UNL     1      -3.294  -3.355  11.899  1.00  0.00     0.041 A 
ATOM     78  F   UNL     1      -2.417  -1.287  12.564  1.00  0.00    -0.206 F 
ATOM     79  C   UNL     1      -4.356  -4.124  11.433  1.00  0.00     0.022 A 
BRANCH  76  80
ATOM     80  S   UNL     1      -7.001  -4.486  10.632  1.00  0.00     0.124 S 
ATOM     81  O   UNL     1      -7.952  -4.159  11.688  1.00  0.00    -0.237 OA
ATOM     82  O   UNL     1      -7.306  -3.956   9.307  1.00  0.00    -0.237 OA
ATOM     83  O   UNL     1      -6.493  -5.856  10.650  1.00  0.00    -0.744 OA
ENDBRANCH  76  80
ENDBRANCH  49  73
BRANCH  61  84
ATOM     84  C   UNL     1      -8.933   2.243  15.933  1.00  0.00     0.023 A 
ATOM     85  C   UNL     1      -8.707   1.468  17.084  1.00  0.00     0.031 A 
ATOM     86  C   UNL     1     -10.259   2.612  15.638  1.00  0.00     0.131 A 
ATOM     87  C   UNL     1      -9.793   1.039  17.863  1.00  0.00     0.055 A 
ATOM     88  C   UNL     1     -11.328   2.239  16.453  1.00  0.00     0.041 A 
ATOM     89  F   UNL     1     -10.537   3.351  14.551  1.00  0.00    -0.206 F 
ATOM     90  C   UNL     1     -11.100   1.435  17.566  1.00  0.00     0.022 A 
BRANCH  87  91
ATOM     91  S   UNL     1      -9.489  -0.128  19.218  1.00  0.00     0.124 S 
ATOM     92  O   UNL     1      -8.853  -1.242  18.522  1.00  0.00    -0.237 OA
ATOM     93  O   UNL     1      -8.627   0.643  20.108  1.00  0.00    -0.237 OA
ATOM     94  O   UNL     1     -10.826  -0.406  19.739  1.00  0.00    -0.744 OA
ENDBRANCH  87  91
ENDBRANCH  61  84
ENDBRANCH  35  36
ENDBRANCH  28  30
ENDBRANCH  27  28
ENDBRANCH  26  27
ENDBRANCH  25  26
ENDBRANCH  24  25
ENDBRANCH  23  24
ENDBRANCH   1  23
TORSDOF 25
