REMARK SMILES N#CCCn1cc(C(=O)OCCOCCOCCOC(=O)c2ccc(-c3c4nc(c(-c5cc(S(=O)(=O)[O-])ccc5F)c5ccc([nH]5)c(-c5cc(S(=O)(=O)[O-])ccc5F)c5nc(c(-c6cc(S(=O)(=O)[O-])ccc6F)c6ccc3[nH]6)C=C5)C=C4)cc2)c(-c2cccc([N+](=O)[O-])c2)n1
REMARK SMILES IDX 14 1 13 2 12 3 11 4 10 5 8 6 9 7 7 8 5 9 6 10 95 11 85 12
REMARK SMILES IDX 4 13 3 14 2 15 1 16 86 17 87 18 94 19 88 20 90 21 89 22
REMARK SMILES IDX 91 23 92 24 93 25 15 26 16 27 17 28 18 29 19 30 20 31 21 32
REMARK SMILES IDX 22 33 23 34 84 35 24 36 83 37 25 38 26 39 27 40 77 41 28 42
REMARK SMILES IDX 82 43 76 44 78 45 29 46 81 47 75 48 74 49 30 51 62 52 42 53
REMARK SMILES IDX 61 54 43 55 46 56 60 57 79 58 44 59 45 60 59 62 80 63 47 64
REMARK SMILES IDX 31 65 32 66 40 67 33 68 39 69 41 70 38 71 34 72 35 73 36 74
REMARK SMILES IDX 37 75 63 76 64 77 72 78 65 79 71 80 73 81 70 82 66 83 67 84
REMARK SMILES IDX 68 85 69 86 48 87 49 88 57 89 50 90 56 91 58 92 55 93 51 94
REMARK SMILES IDX 52 95 53 96 54 97
REMARK H PARENT 78 50 46 61
REMARK Flexibility Score: inf
ROOT
ATOM      1  C   UNL     1       0.885   2.100  -6.256  1.00  0.00     0.188 C 
ENDROOT
BRANCH   1   2
ATOM      2  O   UNL     1       0.423   1.673  -7.512  1.00  0.00    -0.376 OA
BRANCH   2   3
ATOM      3  C   UNL     1       1.211   0.800  -8.297  1.00  0.00     0.202 C 
BRANCH   3   4
ATOM      4  C   UNL     1       2.412  -0.042  -7.803  1.00  0.00     0.261 C 
BRANCH   4   5
ATOM      5  O   UNL     1       2.726  -0.075  -6.407  1.00  0.00    -0.460 OA
BRANCH   5   6
ATOM      6  C   UNL     1       3.767   0.705  -5.988  1.00  0.00     0.342 C 
ATOM      7  O   UNL     1       4.444   1.406  -6.730  1.00  0.00    -0.246 OA
BRANCH   6   8
ATOM      8  C   UNL     1       3.927   0.706  -4.542  1.00  0.00     0.106 A 
ATOM      9  N   UNL     1       4.107   0.127  -2.426  1.00  0.00    -0.270 N 
ATOM     10  C   UNL     1       3.828  -0.365  -3.670  1.00  0.00     0.125 A 
ATOM     11  N   UNL     1       4.321   1.453  -2.414  1.00  0.00    -0.172 NA
ATOM     12  C   UNL     1       4.158   1.828  -3.692  1.00  0.00     0.107 A 
BRANCH   9  13
ATOM     13  C   UNL     1       4.350  -0.652  -1.222  1.00  0.00     0.159 C 
BRANCH  13  14
ATOM     14  C   UNL     1       3.833  -0.037   0.077  1.00  0.00     0.144 C 
BRANCH  14  15
ATOM     15  C   UNL     1       2.313  -0.037   0.077  1.00  0.00     0.064 C 
ATOM     16  N   UNL     1       1.052  -0.037   0.077  1.00  0.00    -0.198 NA
ENDBRANCH  14  15
ENDBRANCH  13  14
ENDBRANCH   9  13
BRANCH  12  17
ATOM     17  C   UNL     1       4.204   3.234  -4.069  1.00  0.00     0.010 A 
ATOM     18  C   UNL     1       3.019   3.968  -4.233  1.00  0.00     0.011 A 
ATOM     19  C   UNL     1       5.435   3.848  -4.299  1.00  0.00     0.096 A 
ATOM     20  C   UNL     1       3.055   5.285  -4.700  1.00  0.00     0.008 A 
ATOM     21  C   UNL     1       5.467   5.179  -4.733  1.00  0.00     0.270 A 
ATOM     22  C   UNL     1       4.282   5.894  -4.959  1.00  0.00     0.085 A 
BRANCH  21  23
ATOM     23  N   UNL     1       6.762   5.831  -4.944  1.00  0.00     0.062 N 
ATOM     24  O   UNL     1       6.766   6.958  -5.460  1.00  0.00    -0.258 OA
ATOM     25  O   UNL     1       7.781   5.219  -4.591  1.00  0.00    -0.258 OA
ENDBRANCH  21  23
ENDBRANCH  12  17
ENDBRANCH   6   8
ENDBRANCH   5   6
ENDBRANCH   4   5
ENDBRANCH   3   4
ENDBRANCH   2   3
ENDBRANCH   1   2
BRANCH   1  26
ATOM     26  C   UNL     1       0.514   1.184  -5.073  1.00  0.00     0.188 C 
BRANCH  26  27
ATOM     27  O   UNL     1      -0.015  -0.111  -5.294  1.00  0.00    -0.376 OA
BRANCH  27  28
ATOM     28  C   UNL     1      -1.151  -0.341  -6.113  1.00  0.00     0.202 C 
BRANCH  28  29
ATOM     29  C   UNL     1      -2.327   0.625  -6.236  1.00  0.00     0.261 C 
BRANCH  29  30
ATOM     30  O   UNL     1      -2.030   1.976  -5.974  1.00  0.00    -0.460 OA
BRANCH  30  31
ATOM     31  C   UNL     1      -2.238   2.335  -4.688  1.00  0.00     0.338 C 
ATOM     32  O   UNL     1      -2.397   1.596  -3.738  1.00  0.00    -0.246 OA
BRANCH  31  33
ATOM     33  C   UNL     1      -2.361   3.796  -4.646  1.00  0.00     0.060 A 
ATOM     34  C   UNL     1      -2.642   4.338  -3.394  1.00  0.00     0.016 A 
ATOM     35  C   UNL     1      -2.643   4.468  -5.843  1.00  0.00     0.016 A 
ATOM     36  C   UNL     1      -3.508   5.403  -3.350  1.00  0.00     0.010 A 
ATOM     37  C   UNL     1      -3.542   5.498  -5.797  1.00  0.00     0.010 A 
ATOM     38  C   UNL     1      -4.040   5.878  -4.554  1.00  0.00    -0.014 A 
BRANCH  38  39
ATOM     39  C   UNL     1      -5.049   6.907  -4.497  1.00  0.00     0.031 A 
ATOM     40  C   UNL     1      -4.435   8.229  -4.289  1.00  0.00     0.074 A 
ATOM     41  C   UNL     1      -6.361   6.682  -4.695  1.00  0.00     0.049 A 
ATOM     42  N   UNL     1      -4.323   8.851  -3.165  1.00  0.00    -0.248 NA
ATOM     43  C   UNL     1      -3.600   8.782  -5.368  1.00  0.00     0.031 C 
ATOM     44  C   UNL     1      -7.027   5.462  -5.151  1.00  0.00     0.029 A 
ATOM     45  N   UNL     1      -7.387   7.566  -4.597  1.00  0.00    -0.354 N 
ATOM     46  C   UNL     1      -3.651  10.023  -3.474  1.00  0.00     0.074 A 
ATOM     47  C   UNL     1      -2.988   9.774  -4.722  1.00  0.00     0.031 C 
ATOM     48  C   UNL     1      -8.303   5.758  -5.504  1.00  0.00     0.029 A 
ATOM     49  C   UNL     1      -8.577   7.153  -5.189  1.00  0.00     0.049 A 
ATOM     50  H   UNL     1      -7.296   8.434  -4.141  1.00  0.00     0.167 HD
ATOM     51  C   UNL     1      -3.977  11.187  -2.852  1.00  0.00     0.034 A 
ATOM     52  C   UNL     1      -9.659   7.940  -5.454  1.00  0.00     0.034 A 
ATOM     53  C   UNL     1      -4.766  10.926  -1.664  1.00  0.00     0.049 A 
ATOM     54  C   UNL     1      -9.554   9.125  -4.557  1.00  0.00     0.074 A 
ATOM     55  C   UNL     1      -4.566  10.184  -0.514  1.00  0.00     0.029 A 
ATOM     56  N   UNL     1      -6.128  11.132  -1.738  1.00  0.00    -0.354 N 
ATOM     57  N   UNL     1      -9.671   9.047  -3.260  1.00  0.00    -0.248 NA
ATOM     58  C   UNL     1      -8.804  10.279  -5.036  1.00  0.00     0.031 C 
ATOM     59  C   UNL     1      -5.827   9.578  -0.237  1.00  0.00     0.029 A 
ATOM     60  C   UNL     1      -6.756  10.052  -1.166  1.00  0.00     0.049 A 
ATOM     61  H   UNL     1      -6.573  11.916  -2.133  1.00  0.00     0.167 HD
ATOM     62  C   UNL     1      -8.661   9.853  -2.755  1.00  0.00     0.074 A 
ATOM     63  C   UNL     1      -8.214  10.654  -3.896  1.00  0.00     0.031 C 
ATOM     64  C   UNL     1      -8.078   9.585  -1.548  1.00  0.00     0.034 A 
BRANCH  51  65
ATOM     65  C   UNL     1      -3.956  12.543  -3.524  1.00  0.00     0.023 A 
ATOM     66  C   UNL     1      -4.372  13.631  -2.738  1.00  0.00     0.031 A 
ATOM     67  C   UNL     1      -3.842  12.800  -4.911  1.00  0.00     0.131 A 
ATOM     68  C   UNL     1      -4.776  14.836  -3.331  1.00  0.00     0.055 A 
ATOM     69  C   UNL     1      -4.179  14.025  -5.489  1.00  0.00     0.041 A 
ATOM     70  F   UNL     1      -3.486  11.874  -5.807  1.00  0.00    -0.206 F 
ATOM     71  C   UNL     1      -4.686  15.042  -4.704  1.00  0.00     0.022 A 
BRANCH  68  72
ATOM     72  S   UNL     1      -5.597  16.060  -2.285  1.00  0.00     0.124 S 
ATOM     73  O   UNL     1      -6.707  15.281  -1.748  1.00  0.00    -0.237 OA
ATOM     74  O   UNL     1      -4.537  16.406  -1.344  1.00  0.00    -0.237 OA
ATOM     75  O   UNL     1      -5.966  17.114  -3.226  1.00  0.00    -0.744 OA
ENDBRANCH  68  72
ENDBRANCH  51  65
BRANCH  52  76
ATOM     76  C   UNL     1     -10.547   7.912  -6.657  1.00  0.00     0.023 A 
ATOM     77  C   UNL     1     -11.787   8.594  -6.715  1.00  0.00     0.031 A 
ATOM     78  C   UNL     1     -10.048   7.416  -7.882  1.00  0.00     0.131 A 
ATOM     79  C   UNL     1     -12.459   8.758  -7.953  1.00  0.00     0.055 A 
ATOM     80  C   UNL     1     -10.714   7.583  -9.100  1.00  0.00     0.041 A 
ATOM     81  F   UNL     1      -8.845   6.827  -7.959  1.00  0.00    -0.206 F 
ATOM     82  C   UNL     1     -11.917   8.267  -9.142  1.00  0.00     0.022 A 
BRANCH  79  83
ATOM     83  S   UNL     1     -14.015   9.708  -8.063  1.00  0.00     0.124 S 
ATOM     84  O   UNL     1     -14.973   8.810  -7.429  1.00  0.00    -0.237 OA
ATOM     85  O   UNL     1     -13.692  10.932  -7.339  1.00  0.00    -0.237 OA
ATOM     86  O   UNL     1     -14.204   9.887  -9.504  1.00  0.00    -0.744 OA
ENDBRANCH  79  83
ENDBRANCH  52  76
BRANCH  64  87
ATOM     87  C   UNL     1      -8.759   8.598  -0.617  1.00  0.00     0.023 A 
ATOM     88  C   UNL     1      -9.116   7.268  -0.946  1.00  0.00     0.031 A 
ATOM     89  C   UNL     1      -8.971   9.016   0.709  1.00  0.00     0.131 A 
ATOM     90  C   UNL     1      -9.677   6.425   0.036  1.00  0.00     0.055 A 
ATOM     91  C   UNL     1      -9.500   8.171   1.683  1.00  0.00     0.041 A 
ATOM     92  F   UNL     1      -8.637  10.259   1.093  1.00  0.00    -0.206 F 
ATOM     93  C   UNL     1      -9.864   6.874   1.348  1.00  0.00     0.022 A 
BRANCH  90  94
ATOM     94  S   UNL     1     -10.222   4.735  -0.377  1.00  0.00     0.124 S 
ATOM     95  O   UNL     1     -10.901   4.895  -1.657  1.00  0.00    -0.237 OA
ATOM     96  O   UNL     1      -8.961   4.000  -0.411  1.00  0.00    -0.237 OA
ATOM     97  O   UNL     1     -11.101   4.381   0.740  1.00  0.00    -0.744 OA
ENDBRANCH  90  94
ENDBRANCH  64  87
ENDBRANCH  38  39
ENDBRANCH  31  33
ENDBRANCH  30  31
ENDBRANCH  29  30
ENDBRANCH  28  29
ENDBRANCH  27  28
ENDBRANCH  26  27
ENDBRANCH   1  26
TORSDOF 25
