REMARK SMILES Cc1ccnc(C(=O)c2[nH]c3cc(F)ccc3c2CC(=O)OCCOCCOCCOC(=O)c2ccc(-c3c4nc(c(-c5cc(S(=O)(=O)[O-])ccc5F)c5ccc([nH]5)c(-c5cc(S(=O)(=O)[O-])ccc5F)c5nc(c(-c6cc(S(=O)(=O)[O-])ccc6F)c6ccc3[nH]6)C=C5)C=C4)cc2)c1
REMARK SMILES IDX 26 1 25 2 24 3 23 4 22 5 20 6 21 7 19 8 18 9 9 10 10 11
REMARK SMILES IDX 11 12 17 14 12 15 16 16 13 17 15 18 14 19 7 20 8 21 6 22
REMARK SMILES IDX 1 23 2 24 3 25 97 26 4 27 5 28 27 29 28 30 29 31 30 32 31 33
REMARK SMILES IDX 32 34 33 35 34 36 35 37 96 38 36 39 95 40 37 41 38 42 39 43
REMARK SMILES IDX 89 44 40 45 94 46 88 47 90 48 41 49 93 50 87 51 86 52 42 54
REMARK SMILES IDX 74 55 54 56 73 57 55 58 58 59 72 60 91 61 56 62 57 63 71 65
REMARK SMILES IDX 92 66 59 67 43 68 44 69 52 70 45 71 51 72 53 73 50 74 46 75
REMARK SMILES IDX 47 76 48 77 49 78 75 79 76 80 84 81 77 82 83 83 85 84 82 85
REMARK SMILES IDX 78 86 79 87 80 88 81 89 60 90 61 91 69 92 62 93 68 94 70 95
REMARK SMILES IDX 67 96 63 97 64 98 65 99 66 100
REMARK H PARENT 10 13 90 53 58 64
REMARK Flexibility Score: inf
ROOT
ATOM      1  C   UNL     1       4.774  -3.222   0.544  1.00  0.00     0.188 C 
ENDROOT
BRANCH   1   2
ATOM      2  O   UNL     1       6.008  -3.922   0.665  1.00  0.00    -0.376 OA
BRANCH   2   3
ATOM      3  C   UNL     1       5.979  -5.338   0.546  1.00  0.00     0.202 C 
BRANCH   3   4
ATOM      4  C   UNL     1       5.125  -6.078   1.576  1.00  0.00     0.261 C 
BRANCH   4   5
ATOM      5  O   UNL     1       3.714  -5.791   1.440  1.00  0.00    -0.463 OA
BRANCH   5   6
ATOM      6  C   UNL     1       3.022  -5.727   2.605  1.00  0.00     0.310 C 
ATOM      7  O   UNL     1       3.522  -6.008   3.694  1.00  0.00    -0.252 OA
BRANCH   6   8
ATOM      8  C   UNL     1       1.592  -5.225   2.521  1.00  0.00     0.161 C 
BRANCH   8   9
ATOM      9  C   UNL     1       0.842  -5.209   1.206  1.00  0.00     0.000 A 
ATOM     10  C   UNL     1       0.438  -4.088   0.467  1.00  0.00     0.093 A 
ATOM     11  N   UNL     1      -0.224  -4.551  -0.648  1.00  0.00    -0.351 N 
ATOM     12  C   UNL     1      -0.535  -5.878  -0.496  1.00  0.00     0.049 A 
ATOM     13  H   UNL     1      -0.443  -4.008  -1.440  1.00  0.00     0.167 HD
ATOM     14  C   UNL     1       0.143  -6.329   0.636  1.00  0.00     0.004 A 
ATOM     15  C   UNL     1      -1.385  -6.691  -1.253  1.00  0.00     0.066 A 
ATOM     16  C   UNL     1      -0.042  -7.670   1.038  1.00  0.00     0.013 A 
ATOM     17  C   UNL     1      -1.582  -7.993  -0.799  1.00  0.00     0.125 A 
ATOM     18  C   UNL     1      -0.928  -8.485   0.323  1.00  0.00     0.040 A 
ATOM     19  F   UNL     1      -2.445  -8.785  -1.452  1.00  0.00    -0.207 F 
BRANCH  10  20
ATOM     20  C   UNL     1       0.648  -2.680   0.761  1.00  0.00     0.227 C 
ATOM     21  O   UNL     1       1.445  -2.299   1.615  1.00  0.00    -0.285 OA
BRANCH  20  22
ATOM     22  C   UNL     1      -0.138  -1.644   0.026  1.00  0.00     0.113 A 
ATOM     23  C   UNL     1      -3.476   0.125   0.215  1.00  0.00     0.044 C 
ATOM     24  C   UNL     1      -2.074  -0.252  -0.165  1.00  0.00    -0.047 A 
ATOM     25  C   UNL     1      -1.327   0.589  -0.994  1.00  0.00     0.023 A 
ATOM     26  C   UNL     1      -1.458  -1.385   0.378  1.00  0.00     0.036 A 
ATOM     27  C   UNL     1      -0.035   0.217  -1.326  1.00  0.00     0.112 A 
ATOM     28  N   UNL     1       0.565  -0.904  -0.865  1.00  0.00    -0.253 NA
ENDBRANCH  20  22
ENDBRANCH  10  20
ENDBRANCH   8   9
ENDBRANCH   6   8
ENDBRANCH   5   6
ENDBRANCH   4   5
ENDBRANCH   3   4
ENDBRANCH   2   3
ENDBRANCH   1   2
BRANCH   1  29
ATOM     29  C   UNL     1       3.803  -3.616  -0.591  1.00  0.00     0.188 C 
BRANCH  29  30
ATOM     30  O   UNL     1       4.320  -4.221  -1.770  1.00  0.00    -0.376 OA
BRANCH  30  31
ATOM     31  C   UNL     1       5.359  -3.527  -2.447  1.00  0.00     0.202 C 
BRANCH  31  32
ATOM     32  C   UNL     1       4.992  -2.119  -2.908  1.00  0.00     0.261 C 
BRANCH  32  33
ATOM     33  O   UNL     1       4.835  -1.230  -1.787  1.00  0.00    -0.460 OA
BRANCH  33  34
ATOM     34  C   UNL     1       4.085  -0.136  -2.064  1.00  0.00     0.338 C 
ATOM     35  O   UNL     1       3.668   0.185  -3.165  1.00  0.00    -0.246 OA
BRANCH  34  36
ATOM     36  C   UNL     1       3.801   0.666  -0.853  1.00  0.00     0.060 A 
ATOM     37  C   UNL     1       3.135   0.108   0.232  1.00  0.00     0.016 A 
ATOM     38  C   UNL     1       3.960   2.049  -0.916  1.00  0.00     0.016 A 
ATOM     39  C   UNL     1       2.474   0.930   1.150  1.00  0.00     0.010 A 
ATOM     40  C   UNL     1       3.387   2.868   0.068  1.00  0.00     0.010 A 
ATOM     41  C   UNL     1       2.564   2.326   1.071  1.00  0.00    -0.014 A 
BRANCH  41  42
ATOM     42  C   UNL     1       1.722   3.205   1.945  1.00  0.00     0.031 A 
ATOM     43  C   UNL     1       0.777   4.216   1.324  1.00  0.00     0.074 A 
ATOM     44  C   UNL     1       1.735   3.074   3.289  1.00  0.00     0.049 A 
ATOM     45  N   UNL     1       0.088   5.173   1.896  1.00  0.00    -0.248 NA
ATOM     46  C   UNL     1       0.578   4.136  -0.133  1.00  0.00     0.031 C 
ATOM     47  C   UNL     1       2.507   2.080   4.037  1.00  0.00     0.029 A 
ATOM     48  N   UNL     1       1.069   3.774   4.269  1.00  0.00    -0.354 N 
ATOM     49  C   UNL     1      -0.596   5.825   0.872  1.00  0.00     0.074 A 
ATOM     50  C   UNL     1      -0.226   5.165  -0.361  1.00  0.00     0.031 C 
ATOM     51  C   UNL     1       2.244   2.209   5.345  1.00  0.00     0.029 A 
ATOM     52  C   UNL     1       1.382   3.367   5.548  1.00  0.00     0.049 A 
ATOM     53  H   UNL     1       0.430   4.497   4.076  1.00  0.00     0.167 HD
ATOM     54  C   UNL     1      -1.450   6.878   0.949  1.00  0.00     0.034 A 
ATOM     55  C   UNL     1       1.073   3.896   6.750  1.00  0.00     0.034 A 
ATOM     56  C   UNL     1      -1.817   7.536   2.181  1.00  0.00     0.049 A 
ATOM     57  C   UNL     1       0.234   5.149   6.798  1.00  0.00     0.074 A 
ATOM     58  C   UNL     1      -2.630   8.643   2.360  1.00  0.00     0.029 A 
ATOM     59  N   UNL     1      -1.399   7.148   3.447  1.00  0.00    -0.354 N 
ATOM     60  N   UNL     1      -0.329   5.809   5.812  1.00  0.00    -0.248 NA
ATOM     61  C   UNL     1       0.001   5.734   8.125  1.00  0.00     0.031 C 
ATOM     62  C   UNL     1      -2.646   8.966   3.722  1.00  0.00     0.029 A 
ATOM     63  C   UNL     1      -1.911   8.012   4.405  1.00  0.00     0.049 A 
ATOM     64  H   UNL     1      -0.823   6.373   3.638  1.00  0.00     0.167 HD
ATOM     65  C   UNL     1      -0.995   6.878   6.407  1.00  0.00     0.074 A 
ATOM     66  C   UNL     1      -0.800   6.746   7.835  1.00  0.00     0.031 C 
ATOM     67  C   UNL     1      -1.695   7.886   5.826  1.00  0.00     0.034 A 
BRANCH  54  68
ATOM     68  C   UNL     1      -1.999   7.432  -0.345  1.00  0.00     0.023 A 
ATOM     69  C   UNL     1      -2.907   6.712  -1.139  1.00  0.00     0.031 A 
ATOM     70  C   UNL     1      -1.614   8.713  -0.781  1.00  0.00     0.131 A 
ATOM     71  C   UNL     1      -3.367   7.260  -2.348  1.00  0.00     0.055 A 
ATOM     72  C   UNL     1      -2.126   9.280  -1.950  1.00  0.00     0.041 A 
ATOM     73  F   UNL     1      -0.733   9.439  -0.074  1.00  0.00    -0.206 F 
ATOM     74  C   UNL     1      -3.002   8.549  -2.746  1.00  0.00     0.022 A 
BRANCH  71  75
ATOM     75  S   UNL     1      -4.367   6.221  -3.450  1.00  0.00     0.124 S 
ATOM     76  O   UNL     1      -3.466   5.096  -3.694  1.00  0.00    -0.237 OA
ATOM     77  O   UNL     1      -5.539   5.931  -2.632  1.00  0.00    -0.237 OA
ATOM     78  O   UNL     1      -4.609   7.080  -4.606  1.00  0.00    -0.744 OA
ENDBRANCH  71  75
ENDBRANCH  54  68
BRANCH  55  79
ATOM     79  C   UNL     1       1.639   3.319   8.009  1.00  0.00     0.023 A 
ATOM     80  C   UNL     1       0.807   2.886   9.054  1.00  0.00     0.031 A 
ATOM     81  C   UNL     1       3.031   3.277   8.221  1.00  0.00     0.131 A 
ATOM     82  C   UNL     1       1.369   2.486  10.278  1.00  0.00     0.055 A 
ATOM     83  C   UNL     1       3.586   2.802   9.410  1.00  0.00     0.041 A 
ATOM     84  F   UNL     1       3.879   3.699   7.270  1.00  0.00    -0.206 F 
ATOM     85  C   UNL     1       2.753   2.420  10.454  1.00  0.00     0.022 A 
BRANCH  82  86
ATOM     86  S   UNL     1       0.264   2.185  11.685  1.00  0.00     0.124 S 
ATOM     87  O   UNL     1      -0.474   3.441  11.757  1.00  0.00    -0.237 OA
ATOM     88  O   UNL     1      -0.492   1.022  11.233  1.00  0.00    -0.237 OA
ATOM     89  O   UNL     1       1.184   1.937  12.793  1.00  0.00    -0.744 OA
ENDBRANCH  82  86
ENDBRANCH  55  79
BRANCH  67  90
ATOM     90  C   UNL     1      -2.324   8.896   6.757  1.00  0.00     0.023 A 
ATOM     91  C   UNL     1      -1.540   9.720   7.585  1.00  0.00     0.031 A 
ATOM     92  C   UNL     1      -3.722   8.985   6.875  1.00  0.00     0.131 A 
ATOM     93  C   UNL     1      -2.154  10.522   8.559  1.00  0.00     0.055 A 
ATOM     94  C   UNL     1      -4.330   9.843   7.793  1.00  0.00     0.041 A 
ATOM     95  F   UNL     1      -4.523   8.224   6.112  1.00  0.00    -0.206 F 
ATOM     96  C   UNL     1      -3.545  10.601   8.657  1.00  0.00     0.022 A 
BRANCH  93  97
ATOM     97  S   UNL     1      -1.107  11.342   9.792  1.00  0.00     0.124 S 
ATOM     98  O   UNL     1      -0.358  10.220  10.349  1.00  0.00    -0.237 OA
ATOM     99  O   UNL     1      -0.340  12.278   8.976  1.00  0.00    -0.237 OA
ATOM    100  O   UNL     1      -2.069  11.959  10.703  1.00  0.00    -0.744 OA
ENDBRANCH  93  97
ENDBRANCH  67  90
ENDBRANCH  41  42
ENDBRANCH  34  36
ENDBRANCH  33  34
ENDBRANCH  32  33
ENDBRANCH  31  32
ENDBRANCH  30  31
ENDBRANCH  29  30
ENDBRANCH   1  29
TORSDOF 23
