REMARK SMILES CCOC[C@@H](O)C[C@]1(C(=O)OCCOCCOCCOC(=O)c2ccc(-c3c4nc(c(-c5cc(S(=O)(=O)[O-])ccc5F)c5ccc([nH]5)c(-c5cc(S(=O)(=O)[O-])ccc5F)c5nc(c(-c6cc(S(=O)(=O)[O-])ccc6F)c6ccc3[nH]6)C=C5)C=C4)cc2)CCc2ccccc21
REMARK SMILES IDX 15 1 14 2 13 3 12 4 11 5 9 6 10 7 8 8 86 9 93 10 87 11 88 12
REMARK SMILES IDX 92 13 89 14 91 15 90 16 7 17 5 18 4 19 3 20 2 21 1 22 6 23
REMARK SMILES IDX 16 25 17 26 18 27 19 28 20 29 21 30 22 31 23 32 24 33 85 34
REMARK SMILES IDX 25 35 84 36 26 37 27 38 28 39 78 40 29 41 83 42 77 43 79 44
REMARK SMILES IDX 30 45 82 46 76 47 75 48 31 50 63 51 43 52 62 53 44 54 47 55
REMARK SMILES IDX 61 56 80 57 45 58 46 59 60 61 81 62 48 63 32 64 33 65 41 66
REMARK SMILES IDX 34 67 40 68 42 69 39 70 35 71 36 72 37 73 38 74 64 75 65 76
REMARK SMILES IDX 73 77 66 78 72 79 74 80 71 81 67 82 68 83 69 84 70 85 49 86
REMARK SMILES IDX 50 87 58 88 51 89 57 90 59 91 56 92 52 93 53 94 54 95 55 96
REMARK H PARENT 6 24 79 49 47 60
REMARK Flexibility Score: inf
ROOT
ATOM      1  C   UNL     1       5.341  -0.142   2.586  1.00  0.00     0.188 C 
ENDROOT
BRANCH   1   2
ATOM      2  O   UNL     1       5.077  -0.042   3.981  1.00  0.00    -0.376 OA
BRANCH   2   3
ATOM      3  C   UNL     1       4.070  -0.919   4.481  1.00  0.00     0.202 C 
BRANCH   3   4
ATOM      4  C   UNL     1       4.514  -2.376   4.570  1.00  0.00     0.261 C 
BRANCH   4   5
ATOM      5  O   UNL     1       4.751  -2.916   3.259  1.00  0.00    -0.463 OA
BRANCH   5   6
ATOM      6  C   UNL     1       3.888  -3.830   2.757  1.00  0.00     0.316 C 
ATOM      7  O   UNL     1       2.856  -4.163   3.324  1.00  0.00    -0.251 OA
BRANCH   6   8
ATOM      8  C   UNL     1       4.367  -4.353   1.381  1.00  0.00     0.096 C 
ATOM      9  C   UNL     1       5.924  -4.618   1.414  1.00  0.00     0.028 C 
ATOM     10  C   UNL     1       3.899  -5.782   1.172  1.00  0.00    -0.027 A 
ATOM     11  C   UNL     1       6.155  -6.023   1.957  1.00  0.00     0.037 C 
ATOM     12  C   UNL     1       4.907  -6.701   1.506  1.00  0.00    -0.044 A 
ATOM     13  C   UNL     1       2.633  -6.242   0.842  1.00  0.00     0.005 A 
ATOM     14  C   UNL     1       4.684  -8.068   1.494  1.00  0.00     0.004 A 
ATOM     15  C   UNL     1       2.400  -7.619   0.819  1.00  0.00     0.000 A 
ATOM     16  C   UNL     1       3.419  -8.526   1.139  1.00  0.00     0.000 A 
BRANCH   8  17
ATOM     17  C   UNL     1       4.103  -3.348   0.227  1.00  0.00     0.057 C 
BRANCH  17  18
ATOM     18  C   UNL     1       2.694  -3.035  -0.307  1.00  0.00     0.141 C 
BRANCH  18  19
ATOM     19  C   UNL     1       1.721  -2.453   0.724  1.00  0.00     0.191 C 
BRANCH  19  20
ATOM     20  O   UNL     1       0.385  -2.310   0.237  1.00  0.00    -0.379 OA
BRANCH  20  21
ATOM     21  C   UNL     1       0.065  -1.146  -0.523  1.00  0.00     0.157 C 
ATOM     22  C   UNL     1       0.471   0.165   0.128  1.00  0.00     0.035 C 
ENDBRANCH  20  21
ENDBRANCH  19  20
ENDBRANCH  18  19
BRANCH  18  23
ATOM     23  O   UNL     1       2.917  -2.058  -1.340  1.00  0.00    -0.391 OA
ATOM     24  H   UNL     1       3.337  -1.272  -0.957  1.00  0.00     0.211 HD
ENDBRANCH  18  23
ENDBRANCH  17  18
ENDBRANCH   8  17
ENDBRANCH   6   8
ENDBRANCH   5   6
ENDBRANCH   4   5
ENDBRANCH   3   4
ENDBRANCH   2   3
ENDBRANCH   1   2
BRANCH   1  25
ATOM     25  C   UNL     1       6.575  -0.982   2.210  1.00  0.00     0.188 C 
BRANCH  25  26
ATOM     26  O   UNL     1       7.537  -1.341   3.191  1.00  0.00    -0.376 OA
BRANCH  26  27
ATOM     27  C   UNL     1       7.994  -0.330   4.077  1.00  0.00     0.202 C 
BRANCH  27  28
ATOM     28  C   UNL     1       8.723   0.886   3.488  1.00  0.00     0.261 C 
BRANCH  28  29
ATOM     29  O   UNL     1       8.065   1.486   2.361  1.00  0.00    -0.460 OA
BRANCH  29  30
ATOM     30  C   UNL     1       8.691   1.311   1.166  1.00  0.00     0.338 C 
ATOM     31  O   UNL     1       9.771   0.775   0.975  1.00  0.00    -0.246 OA
BRANCH  30  32
ATOM     32  C   UNL     1       7.766   1.681   0.074  1.00  0.00     0.060 A 
ATOM     33  C   UNL     1       7.453   0.708  -0.889  1.00  0.00     0.016 A 
ATOM     34  C   UNL     1       7.213   2.959  -0.009  1.00  0.00     0.016 A 
ATOM     35  C   UNL     1       6.582   1.008  -1.936  1.00  0.00     0.010 A 
ATOM     36  C   UNL     1       6.376   3.271  -1.084  1.00  0.00     0.010 A 
ATOM     37  C   UNL     1       6.070   2.304  -2.060  1.00  0.00    -0.014 A 
BRANCH  37  38
ATOM     38  C   UNL     1       5.367   2.714  -3.299  1.00  0.00     0.031 A 
ATOM     39  C   UNL     1       6.178   3.314  -4.412  1.00  0.00     0.074 A 
ATOM     40  C   UNL     1       4.035   2.582  -3.427  1.00  0.00     0.049 A 
ATOM     41  N   UNL     1       5.777   3.889  -5.514  1.00  0.00    -0.248 NA
ATOM     42  C   UNL     1       7.639   3.256  -4.253  1.00  0.00     0.031 C 
ATOM     43  C   UNL     1       3.153   1.937  -2.457  1.00  0.00     0.029 A 
ATOM     44  N   UNL     1       3.190   3.008  -4.423  1.00  0.00    -0.354 N 
ATOM     45  C   UNL     1       6.936   4.264  -6.184  1.00  0.00     0.074 A 
ATOM     46  C   UNL     1       8.052   3.871  -5.350  1.00  0.00     0.031 C 
ATOM     47  C   UNL     1       1.884   2.051  -2.887  1.00  0.00     0.029 A 
ATOM     48  C   UNL     1       1.861   2.815  -4.132  1.00  0.00     0.049 A 
ATOM     49  H   UNL     1       3.507   3.414  -5.262  1.00  0.00     0.167 HD
ATOM     50  C   UNL     1       7.056   4.882  -7.384  1.00  0.00     0.034 A 
ATOM     51  C   UNL     1       0.753   3.248  -4.769  1.00  0.00     0.034 A 
ATOM     52  C   UNL     1       5.934   5.295  -8.189  1.00  0.00     0.049 A 
ATOM     53  C   UNL     1       0.905   4.067  -6.029  1.00  0.00     0.074 A 
ATOM     54  C   UNL     1       5.941   5.918  -9.424  1.00  0.00     0.029 A 
ATOM     55  N   UNL     1       4.601   5.146  -7.827  1.00  0.00    -0.354 N 
ATOM     56  N   UNL     1       2.004   4.425  -6.652  1.00  0.00    -0.248 NA
ATOM     57  C   UNL     1      -0.330   4.545  -6.665  1.00  0.00     0.031 C 
ATOM     58  C   UNL     1       4.618   6.211  -9.774  1.00  0.00     0.029 A 
ATOM     59  C   UNL     1       3.780   5.707  -8.792  1.00  0.00     0.049 A 
ATOM     60  H   UNL     1       4.286   4.707  -7.004  1.00  0.00     0.167 HD
ATOM     61  C   UNL     1       1.590   5.149  -7.767  1.00  0.00     0.074 A 
ATOM     62  C   UNL     1       0.142   5.170  -7.735  1.00  0.00     0.031 C 
ATOM     63  C   UNL     1       2.338   5.738  -8.735  1.00  0.00     0.034 A 
BRANCH  50  64
ATOM     64  C   UNL     1       8.451   5.206  -7.851  1.00  0.00     0.023 A 
ATOM     65  C   UNL     1       9.374   4.198  -8.176  1.00  0.00     0.031 A 
ATOM     66  C   UNL     1       8.876   6.544  -7.928  1.00  0.00     0.131 A 
ATOM     67  C   UNL     1      10.696   4.540  -8.501  1.00  0.00     0.055 A 
ATOM     68  C   UNL     1      10.172   6.881  -8.322  1.00  0.00     0.041 A 
ATOM     69  F   UNL     1       8.043   7.545  -7.603  1.00  0.00    -0.206 F 
ATOM     70  C   UNL     1      11.095   5.876  -8.597  1.00  0.00     0.022 A 
BRANCH  67  71
ATOM     71  S   UNL     1      11.921   3.213  -8.662  1.00  0.00     0.124 S 
ATOM     72  O   UNL     1      11.855   2.587  -7.344  1.00  0.00    -0.237 OA
ATOM     73  O   UNL     1      11.391   2.428  -9.771  1.00  0.00    -0.237 OA
ATOM     74  O   UNL     1      13.165   3.928  -8.942  1.00  0.00    -0.744 OA
ENDBRANCH  67  71
ENDBRANCH  50  64
BRANCH  51  75
ATOM     75  C   UNL     1      -0.599   2.995  -4.192  1.00  0.00     0.023 A 
ATOM     76  C   UNL     1      -1.546   2.214  -4.872  1.00  0.00     0.031 A 
ATOM     77  C   UNL     1      -0.984   3.586  -2.974  1.00  0.00     0.131 A 
ATOM     78  C   UNL     1      -2.843   2.077  -4.351  1.00  0.00     0.055 A 
ATOM     79  C   UNL     1      -2.259   3.407  -2.436  1.00  0.00     0.041 A 
ATOM     80  F   UNL     1      -0.118   4.345  -2.284  1.00  0.00    -0.206 F 
ATOM     81  C   UNL     1      -3.202   2.658  -3.132  1.00  0.00     0.022 A 
BRANCH  78  82
ATOM     82  S   UNL     1      -4.083   1.187  -5.331  1.00  0.00     0.124 S 
ATOM     83  O   UNL     1      -4.094   1.960  -6.568  1.00  0.00    -0.237 OA
ATOM     84  O   UNL     1      -3.499  -0.147  -5.412  1.00  0.00    -0.237 OA
ATOM     85  O   UNL     1      -5.294   1.288  -4.519  1.00  0.00    -0.744 OA
ENDBRANCH  78  82
ENDBRANCH  51  75
BRANCH  63  86
ATOM     86  C   UNL     1       1.597   6.424  -9.855  1.00  0.00     0.023 A 
ATOM     87  C   UNL     1       0.884   7.617  -9.646  1.00  0.00     0.031 A 
ATOM     88  C   UNL     1       1.614   5.879 -11.151  1.00  0.00     0.131 A 
ATOM     89  C   UNL     1       0.182   8.205 -10.710  1.00  0.00     0.055 A 
ATOM     90  C   UNL     1       0.957   6.496 -12.216  1.00  0.00     0.041 A 
ATOM     91  F   UNL     1       2.279   4.740 -11.404  1.00  0.00    -0.206 F 
ATOM     92  C   UNL     1       0.228   7.661 -11.996  1.00  0.00     0.022 A 
BRANCH  89  93
ATOM     93  S   UNL     1      -0.846   9.662 -10.378  1.00  0.00     0.124 S 
ATOM     94  O   UNL     1      -1.826   9.133  -9.436  1.00  0.00    -0.237 OA
ATOM     95  O   UNL     1       0.119  10.610  -9.830  1.00  0.00    -0.237 OA
ATOM     96  O   UNL     1      -1.377  10.014 -11.694  1.00  0.00    -0.744 OA
ENDBRANCH  89  93
ENDBRANCH  63  86
ENDBRANCH  37  38
ENDBRANCH  30  32
ENDBRANCH  29  30
ENDBRANCH  28  29
ENDBRANCH  27  28
ENDBRANCH  26  27
ENDBRANCH  25  26
ENDBRANCH   1  25
TORSDOF 26
