REMARK SMILES Cc1cc(C)c(S(=O)(=O)Nc2ccc(N3CC[NH+](C)CC3)c(C(=O)OCCOCCOCCOC(=O)c3ccc(-c4c5nc(c(-c6cc(S(=O)(=O)[O-])ccc6F)c6ccc([nH]6)c(-c6cc(S(=O)(=O)[O-])ccc6F)c6nc(c(-c7cc(S(=O)(=O)[O-])ccc7F)c7ccc4[nH]7)C=C6)C=C5)cc3)c2)c(C)c1
REMARK SMILES IDX 29 1 28 2 27 3 26 4 25 5 23 6 24 7 22 8 11 9 12 10 100 11
REMARK SMILES IDX 13 12 14 13 10 14 7 16 8 17 9 18 6 19 1 20 2 21 3 22 103 23
REMARK SMILES IDX 4 24 101 25 5 26 102 27 15 28 16 29 21 30 17 31 20 32 18 33
REMARK SMILES IDX 19 34 30 36 31 37 32 38 33 39 34 40 35 41 36 42 37 43 38 44
REMARK SMILES IDX 99 45 39 46 98 47 40 48 41 49 42 50 92 51 43 52 97 53 91 54
REMARK SMILES IDX 93 55 44 56 96 57 90 58 89 59 45 61 77 62 57 63 76 64 58 65
REMARK SMILES IDX 61 66 75 67 94 68 59 69 60 70 74 72 95 73 62 74 46 75 47 76
REMARK SMILES IDX 55 77 48 78 54 79 56 80 53 81 49 82 50 83 51 84 52 85 78 86
REMARK SMILES IDX 79 87 87 88 80 89 86 90 88 91 85 92 81 93 82 94 83 95 84 96
REMARK SMILES IDX 63 97 64 98 72 99 65 100 71 101 73 102 70 103 66 104 67 105
REMARK SMILES IDX 68 106 69 107
REMARK H PARENT 10 15 18 35 93 60 61 71
REMARK Flexibility Score: inf
ROOT
ATOM      1  C   UNL     1       3.735  -3.479   4.102  1.00  0.00     0.188 C 
ENDROOT
BRANCH   1   2
ATOM      2  O   UNL     1       3.781  -2.311   4.904  1.00  0.00    -0.376 OA
BRANCH   2   3
ATOM      3  C   UNL     1       4.044  -1.093   4.231  1.00  0.00     0.202 C 
BRANCH   3   4
ATOM      4  C   UNL     1       2.988  -0.601   3.230  1.00  0.00     0.261 C 
BRANCH   4   5
ATOM      5  O   UNL     1       2.306  -1.637   2.513  1.00  0.00    -0.460 OA
BRANCH   5   6
ATOM      6  C   UNL     1       2.741  -1.948   1.268  1.00  0.00     0.340 C 
ATOM      7  O   UNL     1       3.657  -1.393   0.680  1.00  0.00    -0.246 OA
BRANCH   6   8
ATOM      8  C   UNL     1       1.921  -3.089   0.758  1.00  0.00     0.085 A 
ATOM      9  C   UNL     1      -0.278  -3.886   0.204  1.00  0.00     0.050 A 
ATOM     10  C   UNL     1       0.283  -5.010  -0.407  1.00  0.00     0.029 A 
ATOM     11  C   UNL     1       0.528  -3.017   0.924  1.00  0.00     0.044 A 
ATOM     12  C   UNL     1       1.667  -5.138  -0.489  1.00  0.00     0.029 A 
ATOM     13  C   UNL     1       2.507  -4.149   0.034  1.00  0.00     0.052 A 
BRANCH   9  14
ATOM     14  N   UNL     1      -1.630  -3.607  -0.123  1.00  0.00    -0.280 N 
ATOM     15  H   UNL     1      -2.194  -4.370  -0.384  1.00  0.00     0.180 HD
BRANCH  14  16
ATOM     16  S   UNL     1      -2.354  -2.097  -0.103  1.00  0.00     0.262 S 
ATOM     17  O   UNL     1      -2.729  -1.871   1.280  1.00  0.00    -0.201 OA
ATOM     18  O   UNL     1      -3.365  -2.143  -1.141  1.00  0.00    -0.201 OA
BRANCH  16  19
ATOM     19  C   UNL     1      -1.224  -0.758  -0.558  1.00  0.00     0.093 A 
ATOM     20  C   UNL     1       1.961   2.113  -0.015  1.00  0.00     0.044 C 
ATOM     21  C   UNL     1       0.838   1.149  -0.260  1.00  0.00    -0.051 A 
ATOM     22  C   UNL     1      -0.448   1.432   0.190  1.00  0.00     0.008 A 
ATOM     23  C   UNL     1       1.028   0.003  -1.036  1.00  0.00     0.008 A 
ATOM     24  C   UNL     1      -1.490   0.503   0.032  1.00  0.00    -0.030 A 
ATOM     25  C   UNL     1      -0.003  -0.944  -1.233  1.00  0.00    -0.030 A 
ATOM     26  C   UNL     1      -2.878   0.982   0.377  1.00  0.00     0.046 C 
ATOM     27  C   UNL     1       0.258  -2.003  -2.267  1.00  0.00     0.046 C 
ENDBRANCH  16  19
ENDBRANCH  14  16
ENDBRANCH   9  14
BRANCH  13  28
ATOM     28  N   UNL     1       3.861  -4.257  -0.134  1.00  0.00    -0.360 N 
ATOM     29  C   UNL     1       4.668  -4.897   0.891  1.00  0.00     0.178 C 
ATOM     30  C   UNL     1       4.521  -4.141  -1.438  1.00  0.00     0.178 C 
ATOM     31  C   UNL     1       5.933  -4.040   1.095  1.00  0.00     0.283 C 
ATOM     32  C   UNL     1       5.890  -3.421  -1.256  1.00  0.00     0.283 C 
ATOM     33  N   UNL     1       6.720  -3.961  -0.150  1.00  0.00    -0.334 N 
ATOM     34  C   UNL     1       7.926  -3.166   0.046  1.00  0.00     0.332 C 
ATOM     35  H   UNL     1       7.013  -4.904  -0.408  1.00  0.00     0.347 HD
ENDBRANCH  13  28
ENDBRANCH   6   8
ENDBRANCH   5   6
ENDBRANCH   4   5
ENDBRANCH   3   4
ENDBRANCH   2   3
ENDBRANCH   1   2
BRANCH   1  36
ATOM     36  C   UNL     1       2.343  -4.141   4.086  1.00  0.00     0.188 C 
BRANCH  36  37
ATOM     37  O   UNL     1       1.410  -3.862   5.120  1.00  0.00    -0.376 OA
BRANCH  37  38
ATOM     38  C   UNL     1       1.895  -3.711   6.441  1.00  0.00     0.202 C 
BRANCH  38  39
ATOM     39  C   UNL     1       2.621  -4.899   7.088  1.00  0.00     0.261 C 
BRANCH  39  40
ATOM     40  O   UNL     1       3.548  -5.611   6.245  1.00  0.00    -0.460 OA
BRANCH  40  41
ATOM     41  C   UNL     1       3.104  -6.806   5.768  1.00  0.00     0.338 C 
ATOM     42  O   UNL     1       2.028  -7.328   6.004  1.00  0.00    -0.246 OA
BRANCH  41  43
ATOM     43  C   UNL     1       4.054  -7.340   4.759  1.00  0.00     0.060 A 
ATOM     44  C   UNL     1       3.568  -7.657   3.482  1.00  0.00     0.016 A 
ATOM     45  C   UNL     1       5.393  -7.585   5.070  1.00  0.00     0.016 A 
ATOM     46  C   UNL     1       4.414  -8.220   2.519  1.00  0.00     0.010 A 
ATOM     47  C   UNL     1       6.232  -8.177   4.113  1.00  0.00     0.010 A 
ATOM     48  C   UNL     1       5.748  -8.513   2.835  1.00  0.00    -0.014 A 
BRANCH  48  49
ATOM     49  C   UNL     1       6.600  -9.283   1.882  1.00  0.00     0.031 A 
ATOM     50  C   UNL     1       6.625 -10.777   1.965  1.00  0.00     0.074 A 
ATOM     51  C   UNL     1       7.363  -8.674   0.957  1.00  0.00     0.049 A 
ATOM     52  N   UNL     1       7.359 -11.626   1.296  1.00  0.00    -0.248 NA
ATOM     53  C   UNL     1       5.724 -11.386   2.950  1.00  0.00     0.031 C 
ATOM     54  C   UNL     1       7.428  -7.237   0.783  1.00  0.00     0.029 A 
ATOM     55  N   UNL     1       8.227  -9.160   0.005  1.00  0.00    -0.354 N 
ATOM     56  C   UNL     1       7.029 -12.879   1.793  1.00  0.00     0.074 A 
ATOM     57  C   UNL     1       6.037 -12.667   2.830  1.00  0.00     0.031 C 
ATOM     58  C   UNL     1       8.251  -6.945  -0.233  1.00  0.00     0.029 A 
ATOM     59  C   UNL     1       8.858  -8.174  -0.722  1.00  0.00     0.049 A 
ATOM     60  H   UNL     1       8.381 -10.121  -0.144  1.00  0.00     0.167 HD
ATOM     61  C   UNL     1       7.522 -14.087   1.425  1.00  0.00     0.034 A 
ATOM     62  C   UNL     1       9.853  -8.229  -1.633  1.00  0.00     0.034 A 
ATOM     63  C   UNL     1       8.538 -14.273   0.416  1.00  0.00     0.049 A 
ATOM     64  C   UNL     1      10.439  -9.573  -1.971  1.00  0.00     0.074 A 
ATOM     65  C   UNL     1       9.081 -15.460  -0.046  1.00  0.00     0.029 A 
ATOM     66  N   UNL     1       9.191 -13.251  -0.265  1.00  0.00    -0.354 N 
ATOM     67  N   UNL     1      10.103 -10.754  -1.508  1.00  0.00    -0.248 NA
ATOM     68  C   UNL     1      11.548  -9.594  -2.933  1.00  0.00     0.031 C 
ATOM     69  C   UNL     1      10.117 -15.154  -0.935  1.00  0.00     0.029 A 
ATOM     70  C   UNL     1      10.165 -13.779  -1.103  1.00  0.00     0.049 A 
ATOM     71  H   UNL     1       8.992 -12.292  -0.167  1.00  0.00     0.167 HD
ATOM     72  C   UNL     1      10.959 -11.661  -2.124  1.00  0.00     0.074 A 
ATOM     73  C   UNL     1      11.807 -10.892  -3.014  1.00  0.00     0.031 C 
ATOM     74  C   UNL     1      11.034 -13.007  -1.963  1.00  0.00     0.034 A 
BRANCH  61  75
ATOM     75  C   UNL     1       7.018 -15.283   2.193  1.00  0.00     0.023 A 
ATOM     76  C   UNL     1       5.662 -15.653   2.182  1.00  0.00     0.031 A 
ATOM     77  C   UNL     1       7.896 -16.017   3.011  1.00  0.00     0.131 A 
ATOM     78  C   UNL     1       5.207 -16.660   3.045  1.00  0.00     0.055 A 
ATOM     79  C   UNL     1       7.452 -17.080   3.798  1.00  0.00     0.041 A 
ATOM     80  F   UNL     1       9.196 -15.692   3.083  1.00  0.00    -0.206 F 
ATOM     81  C   UNL     1       6.096 -17.394   3.834  1.00  0.00     0.022 A 
BRANCH  78  82
ATOM     82  S   UNL     1       3.418 -16.865   3.261  1.00  0.00     0.124 S 
ATOM     83  O   UNL     1       3.015 -15.522   3.672  1.00  0.00    -0.237 OA
ATOM     84  O   UNL     1       2.987 -17.283   1.933  1.00  0.00    -0.237 OA
ATOM     85  O   UNL     1       3.313 -17.884   4.304  1.00  0.00    -0.744 OA
ENDBRANCH  78  82
ENDBRANCH  61  75
BRANCH  62  86
ATOM     86  C   UNL     1      10.427  -6.973  -2.207  1.00  0.00     0.023 A 
ATOM     87  C   UNL     1      10.360  -6.689  -3.581  1.00  0.00     0.031 A 
ATOM     88  C   UNL     1      11.084  -6.042  -1.378  1.00  0.00     0.131 A 
ATOM     89  C   UNL     1      10.957  -5.521  -4.086  1.00  0.00     0.055 A 
ATOM     90  C   UNL     1      11.627  -4.857  -1.877  1.00  0.00     0.041 A 
ATOM     91  F   UNL     1      11.191  -6.263  -0.058  1.00  0.00    -0.206 F 
ATOM     92  C   UNL     1      11.574  -4.595  -3.241  1.00  0.00     0.022 A 
BRANCH  89  93
ATOM     93  S   UNL     1      10.979  -5.252  -5.881  1.00  0.00     0.124 S 
ATOM     94  O   UNL     1      11.720  -6.418  -6.348  1.00  0.00    -0.237 OA
ATOM     95  O   UNL     1       9.556  -5.224  -6.202  1.00  0.00    -0.237 OA
ATOM     96  O   UNL     1      11.672  -3.973  -6.026  1.00  0.00    -0.744 OA
ENDBRANCH  89  93
ENDBRANCH  62  86
BRANCH  74  97
ATOM     97  C   UNL     1      12.065 -13.738  -2.790  1.00  0.00     0.023 A 
ATOM     98  C   UNL     1      13.444 -13.554  -2.588  1.00  0.00     0.031 A 
ATOM     99  C   UNL     1      11.659 -14.628  -3.801  1.00  0.00     0.131 A 
ATOM    100  C   UNL     1      14.367 -14.212  -3.415  1.00  0.00     0.055 A 
ATOM    101  C   UNL     1      12.582 -15.328  -4.579  1.00  0.00     0.041 A 
ATOM    102  F   UNL     1      10.356 -14.836  -4.046  1.00  0.00    -0.206 F 
ATOM    103  C   UNL     1      13.945 -15.114  -4.396  1.00  0.00     0.022 A 
BRANCH 100 104
ATOM    104  S   UNL     1      16.129 -13.810  -3.255  1.00  0.00     0.124 S 
ATOM    105  O   UNL     1      16.140 -12.379  -3.543  1.00  0.00    -0.237 OA
ATOM    106  O   UNL     1      16.412 -14.184  -1.873  1.00  0.00    -0.237 OA
ATOM    107  O   UNL     1      16.767 -14.650  -4.267  1.00  0.00    -0.744 OA
ENDBRANCH 100 104
ENDBRANCH  74  97
ENDBRANCH  48  49
ENDBRANCH  41  43
ENDBRANCH  40  41
ENDBRANCH  39  40
ENDBRANCH  38  39
ENDBRANCH  37  38
ENDBRANCH  36  37
ENDBRANCH   1  36
TORSDOF 24
