REMARK SMILES C[C@H]1CCCC[C@H]1[N@H+]1[C@@H](C(=O)OCCOCCOCCOC(=O)c2ccc(-c3c4nc(c(-c5cc(S(=O)(=O)[O-])ccc5F)c5ccc([nH]5)c(-c5cc(S(=O)(=O)[O-])ccc5F)c5nc(c(-c6cc(S(=O)(=O)[O-])ccc6F)c6ccc3[nH]6)C=C5)C=C4)cc2)CC[C@@H]2CCCC[C@@H]21
REMARK SMILES IDX 17 1 16 2 15 3 14 4 13 5 12 6 10 7 11 8 9 9 8 10 94 11 87 13
REMARK SMILES IDX 89 14 93 15 88 16 90 17 92 18 91 19 7 20 1 21 2 22 3 23 4 24
REMARK SMILES IDX 6 25 5 26 18 27 19 28 20 29 21 30 22 31 23 32 24 33 25 34
REMARK SMILES IDX 86 35 26 36 85 37 27 38 28 39 29 40 79 41 30 42 84 43 78 44
REMARK SMILES IDX 80 45 31 46 83 47 77 48 76 49 32 51 64 52 44 53 63 54 45 55
REMARK SMILES IDX 48 56 62 57 81 58 46 59 47 60 61 62 82 63 49 64 33 65 34 66
REMARK SMILES IDX 42 67 35 68 41 69 43 70 40 71 36 72 37 73 38 74 39 75 65 76
REMARK SMILES IDX 66 77 74 78 67 79 73 80 75 81 72 82 68 83 69 84 70 85 71 86
REMARK SMILES IDX 50 87 51 88 59 89 52 90 58 91 60 92 57 93 53 94 54 95 55 96
REMARK SMILES IDX 56 97
REMARK H PARENT 8 12 80 50 48 61
REMARK Flexibility Score: inf
ROOT
ATOM      1  C   UNL     1      -3.906  -0.433   1.648  1.00  0.00     0.188 C 
ENDROOT
BRANCH   1   2
ATOM      2  C   UNL     1      -4.283   0.615   0.570  1.00  0.00     0.188 C 
BRANCH   2   3
ATOM      3  O   UNL     1      -5.141   0.161  -0.471  1.00  0.00    -0.376 OA
BRANCH   3   4
ATOM      4  C   UNL     1      -4.598  -0.775  -1.424  1.00  0.00     0.202 C 
BRANCH   4   5
ATOM      5  C   UNL     1      -3.556  -0.256  -2.447  1.00  0.00     0.261 C 
BRANCH   5   6
ATOM      6  O   UNL     1      -2.151  -0.674  -2.286  1.00  0.00    -0.459 OA
BRANCH   6   7
ATOM      7  C   UNL     1      -1.247   0.219  -2.835  1.00  0.00     0.365 C 
ATOM      8  O   UNL     1      -1.660   1.275  -3.326  1.00  0.00    -0.245 OA
BRANCH   7   9
ATOM      9  C   UNL     1       0.267  -0.196  -2.970  1.00  0.00     0.295 C 
ATOM     10  N   UNL     1       1.316  -0.560  -1.921  1.00  0.00    -0.318 N 
ATOM     11  C   UNL     1       2.734  -0.490  -2.405  1.00  0.00     0.188 C 
ATOM     12  H   UNL     1       0.713  -1.382  -1.888  1.00  0.00     0.349 HD
ATOM     13  C   UNL     1       0.902   0.912  -3.857  1.00  0.00     0.078 C 
ATOM     14  C   UNL     1       2.859  -0.681  -3.924  1.00  0.00     0.048 C 
ATOM     15  C   UNL     1       3.793  -1.444  -1.770  1.00  0.00     0.065 C 
ATOM     16  C   UNL     1       2.115   0.435  -4.641  1.00  0.00     0.016 C 
ATOM     17  C   UNL     1       2.459  -2.109  -4.363  1.00  0.00     0.010 C 
ATOM     18  C   UNL     1       3.949  -2.799  -2.463  1.00  0.00     0.006 C 
ATOM     19  C   UNL     1       2.719  -3.158  -3.275  1.00  0.00     0.001 C 
BRANCH  10  20
ATOM     20  C   UNL     1       1.229  -0.581  -0.454  1.00  0.00     0.187 C 
ATOM     21  C   UNL     1       3.361   0.828   0.459  1.00  0.00     0.014 C 
ATOM     22  C   UNL     1       1.858   0.560   0.440  1.00  0.00     0.044 C 
ATOM     23  C   UNL     1       1.101   1.882   0.309  1.00  0.00     0.009 C 
ATOM     24  C   UNL     1      -0.350   1.720   0.709  1.00  0.00     0.001 C 
ATOM     25  C   UNL     1      -0.172  -0.805   0.068  1.00  0.00     0.065 C 
ATOM     26  C   UNL     1      -0.955   0.482   0.111  1.00  0.00     0.006 C 
ENDBRANCH  10  20
ENDBRANCH   7   9
ENDBRANCH   6   7
ENDBRANCH   5   6
ENDBRANCH   4   5
ENDBRANCH   3   4
ENDBRANCH   2   3
ENDBRANCH   1   2
BRANCH   1  27
ATOM     27  O   UNL     1      -3.670  -1.716   1.086  1.00  0.00    -0.376 OA
BRANCH  27  28
ATOM     28  C   UNL     1      -3.077  -2.731   1.892  1.00  0.00     0.202 C 
BRANCH  28  29
ATOM     29  C   UNL     1      -3.415  -2.725   3.391  1.00  0.00     0.261 C 
BRANCH  29  30
ATOM     30  O   UNL     1      -2.826  -1.600   4.077  1.00  0.00    -0.460 OA
BRANCH  30  31
ATOM     31  C   UNL     1      -1.473  -1.644   4.160  1.00  0.00     0.338 C 
ATOM     32  O   UNL     1      -0.778  -2.612   3.879  1.00  0.00    -0.246 OA
BRANCH  31  33
ATOM     33  C   UNL     1      -0.925  -0.285   4.394  1.00  0.00     0.060 A 
ATOM     34  C   UNL     1       0.265   0.021   3.735  1.00  0.00     0.016 A 
ATOM     35  C   UNL     1      -1.522   0.682   5.209  1.00  0.00     0.016 A 
ATOM     36  C   UNL     1       0.842   1.288   3.846  1.00  0.00     0.010 A 
ATOM     37  C   UNL     1      -0.917   1.949   5.355  1.00  0.00     0.010 A 
ATOM     38  C   UNL     1       0.268   2.265   4.663  1.00  0.00    -0.014 A 
BRANCH  38  39
ATOM     39  C   UNL     1       1.133   3.423   5.027  1.00  0.00     0.031 A 
ATOM     40  C   UNL     1       2.109   3.190   6.150  1.00  0.00     0.074 A 
ATOM     41  C   UNL     1       1.219   4.565   4.315  1.00  0.00     0.049 A 
ATOM     42  N   UNL     1       2.964   4.005   6.708  1.00  0.00    -0.248 NA
ATOM     43  C   UNL     1       2.126   1.825   6.697  1.00  0.00     0.031 C 
ATOM     44  C   UNL     1       0.493   4.864   3.083  1.00  0.00     0.029 A 
ATOM     45  N   UNL     1       1.995   5.684   4.522  1.00  0.00    -0.354 N 
ATOM     46  C   UNL     1       3.615   3.252   7.679  1.00  0.00     0.074 A 
ATOM     47  C   UNL     1       3.041   1.925   7.641  1.00  0.00     0.031 C 
ATOM     48  C   UNL     1       0.864   6.083   2.643  1.00  0.00     0.029 A 
ATOM     49  C   UNL     1       1.806   6.681   3.591  1.00  0.00     0.049 A 
ATOM     50  H   UNL     1       2.630   5.764   5.271  1.00  0.00     0.167 HD
ATOM     51  C   UNL     1       4.596   3.626   8.536  1.00  0.00     0.034 A 
ATOM     52  C   UNL     1       2.309   7.936   3.533  1.00  0.00     0.034 A 
ATOM     53  C   UNL     1       5.136   4.958   8.599  1.00  0.00     0.049 A 
ATOM     54  C   UNL     1       3.245   8.409   4.629  1.00  0.00     0.074 A 
ATOM     55  C   UNL     1       6.058   5.473   9.492  1.00  0.00     0.029 A 
ATOM     56  N   UNL     1       4.793   5.995   7.740  1.00  0.00    -0.354 N 
ATOM     57  N   UNL     1       3.765   7.733   5.629  1.00  0.00    -0.248 NA
ATOM     58  C   UNL     1       3.650   9.822   4.594  1.00  0.00     0.031 C 
ATOM     59  C   UNL     1       6.209   6.838   9.226  1.00  0.00     0.029 A 
ATOM     60  C   UNL     1       5.460   7.155   8.104  1.00  0.00     0.049 A 
ATOM     61  H   UNL     1       4.167   5.918   6.985  1.00  0.00     0.167 HD
ATOM     62  C   UNL     1       4.592   8.628   6.309  1.00  0.00     0.074 A 
ATOM     63  C   UNL     1       4.500   9.891   5.608  1.00  0.00     0.031 C 
ATOM     64  C   UNL     1       5.368   8.417   7.405  1.00  0.00     0.034 A 
BRANCH  51  65
ATOM     65  C   UNL     1       5.023   2.589   9.547  1.00  0.00     0.023 A 
ATOM     66  C   UNL     1       5.597   1.365   9.158  1.00  0.00     0.031 A 
ATOM     67  C   UNL     1       4.704   2.768  10.904  1.00  0.00     0.131 A 
ATOM     68  C   UNL     1       5.710   0.325  10.092  1.00  0.00     0.055 A 
ATOM     69  C   UNL     1       4.928   1.767  11.849  1.00  0.00     0.041 A 
ATOM     70  F   UNL     1       4.121   3.900  11.327  1.00  0.00    -0.206 F 
ATOM     71  C   UNL     1       5.407   0.526  11.441  1.00  0.00     0.022 A 
BRANCH  68  72
ATOM     72  S   UNL     1       6.016  -1.356   9.476  1.00  0.00     0.124 S 
ATOM     73  O   UNL     1       4.910  -1.529   8.535  1.00  0.00    -0.237 OA
ATOM     74  O   UNL     1       7.344  -1.240   8.887  1.00  0.00    -0.237 OA
ATOM     75  O   UNL     1       5.933  -2.182  10.679  1.00  0.00    -0.744 OA
ENDBRANCH  68  72
ENDBRANCH  51  65
BRANCH  52  76
ATOM     76  C   UNL     1       1.893   8.891   2.456  1.00  0.00     0.023 A 
ATOM     77  C   UNL     1       2.831   9.468   1.580  1.00  0.00     0.031 A 
ATOM     78  C   UNL     1       0.558   9.322   2.357  1.00  0.00     0.131 A 
ATOM     79  C   UNL     1       2.428  10.467   0.675  1.00  0.00     0.055 A 
ATOM     80  C   UNL     1       0.153  10.276   1.420  1.00  0.00     0.041 A 
ATOM     81  F   UNL     1      -0.378   8.828   3.183  1.00  0.00    -0.206 F 
ATOM     82  C   UNL     1       1.092  10.862   0.580  1.00  0.00     0.022 A 
BRANCH  79  83
ATOM     83  S   UNL     1       3.688  11.308  -0.327  1.00  0.00     0.124 S 
ATOM     84  O   UNL     1       4.501  11.951   0.699  1.00  0.00    -0.237 OA
ATOM     85  O   UNL     1       4.309  10.195  -1.036  1.00  0.00    -0.237 OA
ATOM     86  O   UNL     1       2.906  12.216  -1.164  1.00  0.00    -0.744 OA
ENDBRANCH  79  83
ENDBRANCH  52  76
BRANCH  64  87
ATOM     87  C   UNL     1       6.248   9.555   7.877  1.00  0.00     0.023 A 
ATOM     88  C   UNL     1       5.723  10.758   8.383  1.00  0.00     0.031 A 
ATOM     89  C   UNL     1       7.649   9.423   7.824  1.00  0.00     0.131 A 
ATOM     90  C   UNL     1       6.590  11.796   8.764  1.00  0.00     0.055 A 
ATOM     91  C   UNL     1       8.505  10.431   8.267  1.00  0.00     0.041 A 
ATOM     92  F   UNL     1       8.211   8.300   7.348  1.00  0.00    -0.206 F 
ATOM     93  C   UNL     1       7.977  11.632   8.728  1.00  0.00     0.022 A 
BRANCH  90  94
ATOM     94  S   UNL     1       5.885  13.406   9.216  1.00  0.00     0.124 S 
ATOM     95  O   UNL     1       5.100  13.738   8.032  1.00  0.00    -0.237 OA
ATOM     96  O   UNL     1       5.121  13.086  10.418  1.00  0.00    -0.237 OA
ATOM     97  O   UNL     1       7.061  14.247   9.436  1.00  0.00    -0.744 OA
ENDBRANCH  90  94
ENDBRANCH  64  87
ENDBRANCH  38  39
ENDBRANCH  31  33
ENDBRANCH  30  31
ENDBRANCH  29  30
ENDBRANCH  28  29
ENDBRANCH  27  28
ENDBRANCH   1  27
TORSDOF 21
