REMARK SMILES CNS(=O)(=O)c1cc(C(=O)OCCOCCOCCOC(=O)c2ccc(-c3c4nc(c(-c5cc(S(=O)(=O)[O-])ccc5F)c5ccc([nH]5)c(-c5cc(S(=O)(=O)[O-])ccc5F)c5nc(c(-c6cc(S(=O)(=O)[O-])ccc6F)c6ccc3[nH]6)C=C5)C=C4)cc2)ccc1N(C)C
REMARK SMILES IDX 16 1 15 2 14 3 13 4 12 5 11 6 9 7 10 8 8 9 6 10 7 11 88 12
REMARK SMILES IDX 87 13 86 14 3 15 4 16 5 17 2 18 1 19 89 21 90 22 91 23 17 24
REMARK SMILES IDX 18 25 19 26 20 27 21 28 22 29 23 30 24 31 85 32 25 33 84 34
REMARK SMILES IDX 26 35 27 36 28 37 78 38 29 39 83 40 77 41 79 42 30 43 82 44
REMARK SMILES IDX 76 45 75 46 31 48 63 49 43 50 62 51 44 52 47 53 61 54 80 55
REMARK SMILES IDX 45 56 46 57 60 59 81 60 48 61 32 62 33 63 41 64 34 65 40 66
REMARK SMILES IDX 42 67 39 68 35 69 36 70 37 71 38 72 64 73 65 74 73 75 66 76
REMARK SMILES IDX 72 77 74 78 71 79 67 80 68 81 69 82 70 83 49 84 50 85 58 86
REMARK SMILES IDX 51 87 57 88 59 89 56 90 52 91 53 92 54 93 55 94
REMARK H PARENT 2 20 79 47 47 58
REMARK Flexibility Score: inf
ROOT
ATOM      1  C   UNL     1      -4.615   4.622  -1.663  1.00  0.00     0.188 C 
ENDROOT
BRANCH   1   2
ATOM      2  C   UNL     1      -3.514   5.620  -1.246  1.00  0.00     0.188 C 
BRANCH   2   3
ATOM      3  O   UNL     1      -3.461   6.901  -1.853  1.00  0.00    -0.376 OA
BRANCH   3   4
ATOM      4  C   UNL     1      -3.399   7.019  -3.266  1.00  0.00     0.202 C 
BRANCH   4   5
ATOM      5  C   UNL     1      -2.521   6.096  -4.130  1.00  0.00     0.261 C 
BRANCH   5   6
ATOM      6  O   UNL     1      -2.591   4.699  -3.814  1.00  0.00    -0.460 OA
BRANCH   6   7
ATOM      7  C   UNL     1      -1.440   4.135  -3.367  1.00  0.00     0.338 C 
ATOM      8  O   UNL     1      -0.344   4.663  -3.292  1.00  0.00    -0.246 OA
BRANCH   7   9
ATOM      9  C   UNL     1      -1.738   2.801  -2.797  1.00  0.00     0.061 A 
ATOM     10  C   UNL     1      -1.574   1.260  -0.869  1.00  0.00     0.106 A 
ATOM     11  C   UNL     1      -1.248   2.483  -1.537  1.00  0.00     0.039 A 
ATOM     12  C   UNL     1      -2.330   0.250  -1.526  1.00  0.00     0.056 A 
ATOM     13  C   UNL     1      -2.868   0.685  -2.778  1.00  0.00     0.028 A 
ATOM     14  C   UNL     1      -2.589   1.909  -3.409  1.00  0.00     0.018 A 
BRANCH  10  15
ATOM     15  S   UNL     1      -0.995   1.343   0.836  1.00  0.00     0.242 S 
ATOM     16  O   UNL     1      -1.443   0.263   1.668  1.00  0.00    -0.207 OA
ATOM     17  O   UNL     1      -1.226   2.709   1.276  1.00  0.00    -0.207 OA
BRANCH  15  18
ATOM     18  N   UNL     1       0.677   1.193   0.659  1.00  0.00    -0.214 NA
ATOM     19  C   UNL     1       1.203  -0.056   0.117  1.00  0.00     0.120 C 
ATOM     20  H   UNL     1       0.984   1.944   0.042  1.00  0.00     0.141 HD
ENDBRANCH  15  18
ENDBRANCH  10  15
BRANCH  12  21
ATOM     21  N   UNL     1      -2.588  -1.069  -1.154  1.00  0.00    -0.377 N 
ATOM     22  C   UNL     1      -3.111  -2.092  -2.073  1.00  0.00     0.143 C 
ATOM     23  C   UNL     1      -2.273  -1.662   0.142  1.00  0.00     0.143 C 
ENDBRANCH  12  21
ENDBRANCH   7   9
ENDBRANCH   6   7
ENDBRANCH   5   6
ENDBRANCH   4   5
ENDBRANCH   3   4
ENDBRANCH   2   3
ENDBRANCH   1   2
BRANCH   1  24
ATOM     24  O   UNL     1      -5.392   4.999  -2.775  1.00  0.00    -0.376 OA
BRANCH  24  25
ATOM     25  C   UNL     1      -6.567   5.769  -2.584  1.00  0.00     0.202 C 
BRANCH  25  26
ATOM     26  C   UNL     1      -6.997   6.481  -1.282  1.00  0.00     0.261 C 
BRANCH  26  27
ATOM     27  O   UNL     1      -6.168   6.374  -0.123  1.00  0.00    -0.460 OA
BRANCH  27  28
ATOM     28  C   UNL     1      -6.559   5.465   0.806  1.00  0.00     0.338 C 
ATOM     29  O   UNL     1      -7.509   4.707   0.729  1.00  0.00    -0.246 OA
BRANCH  28  30
ATOM     30  C   UNL     1      -5.534   5.408   1.869  1.00  0.00     0.060 A 
ATOM     31  C   UNL     1      -4.746   4.256   1.985  1.00  0.00     0.016 A 
ATOM     32  C   UNL     1      -5.367   6.473   2.755  1.00  0.00     0.016 A 
ATOM     33  C   UNL     1      -3.793   4.162   3.000  1.00  0.00     0.010 A 
ATOM     34  C   UNL     1      -4.425   6.366   3.786  1.00  0.00     0.010 A 
ATOM     35  C   UNL     1      -3.647   5.201   3.926  1.00  0.00    -0.014 A 
BRANCH  35  36
ATOM     36  C   UNL     1      -2.809   4.997   5.137  1.00  0.00     0.031 A 
ATOM     37  C   UNL     1      -3.490   4.616   6.423  1.00  0.00     0.074 A 
ATOM     38  C   UNL     1      -1.470   5.117   5.093  1.00  0.00     0.049 A 
ATOM     39  N   UNL     1      -2.985   4.454   7.619  1.00  0.00    -0.248 NA
ATOM     40  C   UNL     1      -4.941   4.387   6.344  1.00  0.00     0.031 C 
ATOM     41  C   UNL     1      -0.687   5.404   3.893  1.00  0.00     0.029 A 
ATOM     42  N   UNL     1      -0.531   5.018   6.091  1.00  0.00    -0.354 N 
ATOM     43  C   UNL     1      -4.056   4.108   8.437  1.00  0.00     0.074 A 
ATOM     44  C   UNL     1      -5.241   4.123   7.606  1.00  0.00     0.031 C 
ATOM     45  C   UNL     1       0.613   5.476   4.228  1.00  0.00     0.029 A 
ATOM     46  C   UNL     1       0.752   5.280   5.671  1.00  0.00     0.049 A 
ATOM     47  H   UNL     1      -0.755   4.780   7.020  1.00  0.00     0.167 HD
ATOM     48  C   UNL     1      -4.048   3.801   9.758  1.00  0.00     0.034 A 
ATOM     49  C   UNL     1       1.900   5.381   6.374  1.00  0.00     0.034 A 
ATOM     50  C   UNL     1      -2.858   3.808  10.575  1.00  0.00     0.049 A 
ATOM     51  C   UNL     1       1.867   5.151   7.869  1.00  0.00     0.074 A 
ATOM     52  C   UNL     1      -2.737   3.513  11.922  1.00  0.00     0.029 A 
ATOM     53  N   UNL     1      -1.585   4.144  10.129  1.00  0.00    -0.354 N 
ATOM     54  N   UNL     1       0.850   4.831   8.637  1.00  0.00    -0.248 NA
ATOM     55  C   UNL     1       3.140   5.290   8.590  1.00  0.00     0.031 C 
ATOM     56  C   UNL     1      -1.415   3.755  12.307  1.00  0.00     0.029 A 
ATOM     57  C   UNL     1      -0.684   4.104  11.183  1.00  0.00     0.049 A 
ATOM     58  H   UNL     1      -1.357   4.375   9.200  1.00  0.00     0.167 HD
ATOM     59  C   UNL     1       1.370   4.694   9.922  1.00  0.00     0.074 A 
ATOM     60  C   UNL     1       2.791   4.954   9.823  1.00  0.00     0.031 C 
ATOM     61  C   UNL     1       0.732   4.374  11.078  1.00  0.00     0.034 A 
BRANCH  48  62
ATOM     62  C   UNL     1      -5.378   3.502  10.407  1.00  0.00     0.023 A 
ATOM     63  C   UNL     1      -6.166   2.402  10.022  1.00  0.00     0.031 A 
ATOM     64  C   UNL     1      -5.884   4.355  11.404  1.00  0.00     0.131 A 
ATOM     65  C   UNL     1      -7.444   2.228  10.575  1.00  0.00     0.055 A 
ATOM     66  C   UNL     1      -7.120   4.127  12.013  1.00  0.00     0.041 A 
ATOM     67  F   UNL     1      -5.192   5.436  11.795  1.00  0.00    -0.206 F 
ATOM     68  C   UNL     1      -7.915   3.068  11.588  1.00  0.00     0.022 A 
BRANCH  65  69
ATOM     69  S   UNL     1      -8.546   0.986   9.844  1.00  0.00     0.124 S 
ATOM     70  O   UNL     1      -8.609   1.428   8.453  1.00  0.00    -0.237 OA
ATOM     71  O   UNL     1      -7.827  -0.258  10.089  1.00  0.00    -0.237 OA
ATOM     72  O   UNL     1      -9.789   1.146  10.596  1.00  0.00    -0.744 OA
ENDBRANCH  65  69
ENDBRANCH  48  62
BRANCH  49  73
ATOM     73  C   UNL     1       3.175   5.764   5.697  1.00  0.00     0.023 A 
ATOM     74  C   UNL     1       4.286   4.905   5.691  1.00  0.00     0.031 A 
ATOM     75  C   UNL     1       3.321   7.030   5.102  1.00  0.00     0.131 A 
ATOM     76  C   UNL     1       5.506   5.342   5.148  1.00  0.00     0.055 A 
ATOM     77  C   UNL     1       4.518   7.436   4.509  1.00  0.00     0.041 A 
ATOM     78  F   UNL     1       2.296   7.898   5.089  1.00  0.00    -0.206 F 
ATOM     79  C   UNL     1       5.624   6.594   4.543  1.00  0.00     0.022 A 
BRANCH  76  80
ATOM     80  S   UNL     1       6.968   4.283   5.330  1.00  0.00     0.124 S 
ATOM     81  O   UNL     1       7.062   4.153   6.780  1.00  0.00    -0.237 OA
ATOM     82  O   UNL     1       6.567   3.083   4.603  1.00  0.00    -0.237 OA
ATOM     83  O   UNL     1       8.034   5.061   4.702  1.00  0.00    -0.744 OA
ENDBRANCH  76  80
ENDBRANCH  49  73
BRANCH  61  84
ATOM     84  C   UNL     1       1.579   4.230  12.324  1.00  0.00     0.023 A 
ATOM     85  C   UNL     1       2.267   5.318  12.890  1.00  0.00     0.031 A 
ATOM     86  C   UNL     1       1.701   2.977  12.952  1.00  0.00     0.131 A 
ATOM     87  C   UNL     1       3.089   5.120  14.011  1.00  0.00     0.055 A 
ATOM     88  C   UNL     1       2.462   2.801  14.108  1.00  0.00     0.041 A 
ATOM     89  F   UNL     1       1.073   1.899  12.455  1.00  0.00    -0.206 F 
ATOM     90  C   UNL     1       3.174   3.873  14.636  1.00  0.00     0.022 A 
BRANCH  87  91
ATOM     91  S   UNL     1       4.132   6.490  14.583  1.00  0.00     0.124 S 
ATOM     92  O   UNL     1       4.916   6.792  13.390  1.00  0.00    -0.237 OA
ATOM     93  O   UNL     1       3.146   7.494  14.970  1.00  0.00    -0.237 OA
ATOM     94  O   UNL     1       4.889   5.907  15.690  1.00  0.00    -0.744 OA
ENDBRANCH  87  91
ENDBRANCH  61  84
ENDBRANCH  35  36
ENDBRANCH  28  30
ENDBRANCH  27  28
ENDBRANCH  26  27
ENDBRANCH  25  26
ENDBRANCH  24  25
ENDBRANCH   1  24
TORSDOF 23
