REMARK SMILES O=C(Cc1ccccc1)Nc1cccc(C(=O)Nc2ccccc2C(=O)OCCOCCOCCOC(=O)c2ccc(-c3c4nc(c(-c5cc(S(=O)(=O)[O-])ccc5F)c5ccc([nH]5)c(-c5cc(S(=O)(=O)[O-])ccc5F)c5nc(c(-c6cc(S(=O)(=O)[O-])ccc6F)c6ccc3[nH]6)C=C5)C=C4)cc2)c1
REMARK SMILES IDX 31 1 30 2 29 3 28 4 27 5 25 6 26 7 24 8 19 9 20 10 21 11
REMARK SMILES IDX 23 12 22 13 18 14 16 15 17 16 15 18 11 19 12 20 102 21 13 22
REMARK SMILES IDX 14 23 10 24 1 25 2 26 3 28 4 29 5 30 9 31 6 32 8 33 7 34
REMARK SMILES IDX 32 35 33 36 34 37 35 38 36 39 37 40 38 41 39 42 40 43 101 44
REMARK SMILES IDX 41 45 100 46 42 47 43 48 44 49 94 50 45 51 99 52 93 53 95 54
REMARK SMILES IDX 46 55 98 56 92 57 91 58 47 60 79 61 59 62 78 63 60 64 63 65
REMARK SMILES IDX 77 66 96 67 61 68 62 69 76 71 97 72 64 73 48 74 49 75 57 76
REMARK SMILES IDX 50 77 56 78 58 79 55 80 51 81 52 82 53 83 54 84 80 85 81 86
REMARK SMILES IDX 89 87 82 88 88 89 90 90 87 91 83 92 84 93 85 94 86 95 65 96
REMARK SMILES IDX 66 97 74 98 67 99 73 100 75 101 72 102 68 103 69 104 70 105
REMARK SMILES IDX 71 106
REMARK H PARENT 18 17 10 27 95 59 63 70
REMARK Flexibility Score: inf
ROOT
ATOM      1  C   UNL     1       3.572  -4.039  -3.802  1.00  0.00     0.188 C 
ENDROOT
BRANCH   1   2
ATOM      2  O   UNL     1       3.985  -5.317  -3.381  1.00  0.00    -0.376 OA
BRANCH   2   3
ATOM      3  C   UNL     1       3.436  -5.907  -2.220  1.00  0.00     0.202 C 
BRANCH   3   4
ATOM      4  C   UNL     1       2.484  -5.214  -1.238  1.00  0.00     0.261 C 
BRANCH   4   5
ATOM      5  O   UNL     1       1.579  -4.223  -1.735  1.00  0.00    -0.460 OA
BRANCH   5   6
ATOM      6  C   UNL     1       1.907  -2.947  -1.405  1.00  0.00     0.340 C 
ATOM      7  O   UNL     1       2.957  -2.606  -0.873  1.00  0.00    -0.246 OA
BRANCH   6   8
ATOM      8  C   UNL     1       0.931  -1.950  -1.921  1.00  0.00     0.083 A 
ATOM      9  C   UNL     1      -0.468  -2.093  -2.009  1.00  0.00     0.056 A 
ATOM     10  C   UNL     1      -1.195  -1.066  -2.643  1.00  0.00     0.027 A 
ATOM     11  C   UNL     1      -0.579   0.106  -3.092  1.00  0.00     0.002 A 
ATOM     12  C   UNL     1       1.543  -0.773  -2.414  1.00  0.00     0.018 A 
ATOM     13  C   UNL     1       0.794   0.257  -2.973  1.00  0.00     0.001 A 
BRANCH   9  14
ATOM     14  N   UNL     1      -1.284  -3.136  -1.506  1.00  0.00    -0.321 N 
ATOM     15  C   UNL     1      -1.219  -3.941  -0.388  1.00  0.00     0.255 C 
ATOM     16  O   UNL     1      -1.991  -4.895  -0.283  1.00  0.00    -0.269 OA
ATOM     17  H   UNL     1      -2.064  -3.327  -2.076  1.00  0.00     0.170 HD
BRANCH  15  18
ATOM     18  C   UNL     1      -0.272  -3.670   0.718  1.00  0.00     0.042 A 
ATOM     19  C   UNL     1       1.359  -2.189   1.637  1.00  0.00     0.041 A 
ATOM     20  C   UNL     1       2.030  -3.292   2.191  1.00  0.00     0.026 A 
ATOM     21  C   UNL     1       0.126  -2.367   1.025  1.00  0.00     0.040 A 
ATOM     22  C   UNL     1       1.500  -4.576   2.081  1.00  0.00     0.003 A 
ATOM     23  C   UNL     1       0.357  -4.771   1.314  1.00  0.00     0.014 A 
BRANCH  19  24
ATOM     24  N   UNL     1       2.121  -1.022   1.452  1.00  0.00    -0.326 N 
ATOM     25  O   UNL     1       0.599   0.572   0.730  1.00  0.00    -0.274 OA
ATOM     26  C   UNL     1       1.756   0.190   0.893  1.00  0.00     0.228 C 
ATOM     27  H   UNL     1       3.053  -1.075   1.766  1.00  0.00     0.169 HD
BRANCH  26  28
ATOM     28  C   UNL     1       2.954   1.003   0.386  1.00  0.00     0.135 C 
BRANCH  28  29
ATOM     29  C   UNL     1       3.875   1.494   1.477  1.00  0.00    -0.039 A 
ATOM     30  C   UNL     1       4.733   0.619   2.164  1.00  0.00     0.004 A 
ATOM     31  C   UNL     1       3.891   2.850   1.823  1.00  0.00     0.004 A 
ATOM     32  C   UNL     1       5.486   1.059   3.250  1.00  0.00     0.000 A 
ATOM     33  C   UNL     1       4.690   3.301   2.875  1.00  0.00     0.000 A 
ATOM     34  C   UNL     1       5.459   2.401   3.609  1.00  0.00     0.000 A 
ENDBRANCH  28  29
ENDBRANCH  26  28
ENDBRANCH  19  24
ENDBRANCH  15  18
ENDBRANCH   9  14
ENDBRANCH   6   8
ENDBRANCH   5   6
ENDBRANCH   4   5
ENDBRANCH   3   4
ENDBRANCH   2   3
ENDBRANCH   1   2
BRANCH   1  35
ATOM     35  C   UNL     1       2.212  -3.928  -4.528  1.00  0.00     0.188 C 
BRANCH  35  36
ATOM     36  O   UNL     1       1.417  -5.076  -4.748  1.00  0.00    -0.376 OA
BRANCH  36  37
ATOM     37  C   UNL     1       2.013  -6.209  -5.354  1.00  0.00     0.202 C 
BRANCH  37  38
ATOM     38  C   UNL     1       2.962  -6.083  -6.562  1.00  0.00     0.261 C 
BRANCH  38  39
ATOM     39  O   UNL     1       3.926  -5.016  -6.524  1.00  0.00    -0.460 OA
BRANCH  39  40
ATOM     40  C   UNL     1       3.680  -3.961  -7.345  1.00  0.00     0.338 C 
ATOM     41  O   UNL     1       2.757  -3.860  -8.139  1.00  0.00    -0.246 OA
BRANCH  40  42
ATOM     42  C   UNL     1       4.555  -2.821  -6.971  1.00  0.00     0.060 A 
ATOM     43  C   UNL     1       3.957  -1.618  -6.557  1.00  0.00     0.016 A 
ATOM     44  C   UNL     1       5.946  -2.928  -7.014  1.00  0.00     0.016 A 
ATOM     45  C   UNL     1       4.742  -0.515  -6.211  1.00  0.00     0.010 A 
ATOM     46  C   UNL     1       6.731  -1.809  -6.705  1.00  0.00     0.010 A 
ATOM     47  C   UNL     1       6.134  -0.588  -6.334  1.00  0.00    -0.014 A 
BRANCH  47  48
ATOM     48  C   UNL     1       6.940   0.663  -6.333  1.00  0.00     0.031 A 
ATOM     49  C   UNL     1       7.273   1.280  -7.668  1.00  0.00     0.074 A 
ATOM     50  C   UNL     1       7.354   1.257  -5.199  1.00  0.00     0.049 A 
ATOM     51  N   UNL     1       8.035   2.305  -7.949  1.00  0.00    -0.248 NA
ATOM     52  C   UNL     1       6.662   0.642  -8.845  1.00  0.00     0.031 C 
ATOM     53  C   UNL     1       7.044   0.807  -3.844  1.00  0.00     0.029 A 
ATOM     54  N   UNL     1       8.142   2.369  -5.011  1.00  0.00    -0.354 N 
ATOM     55  C   UNL     1       8.006   2.427  -9.335  1.00  0.00     0.074 A 
ATOM     56  C   UNL     1       7.179   1.350  -9.835  1.00  0.00     0.031 C 
ATOM     57  C   UNL     1       7.650   1.625  -2.964  1.00  0.00     0.029 A 
ATOM     58  C   UNL     1       8.429   2.629  -3.690  1.00  0.00     0.049 A 
ATOM     59  H   UNL     1       8.469   2.927  -5.753  1.00  0.00     0.167 HD
ATOM     60  C   UNL     1       8.608   3.354 -10.120  1.00  0.00     0.034 A 
ATOM     61  C   UNL     1       9.253   3.546  -3.137  1.00  0.00     0.034 A 
ATOM     62  C   UNL     1       9.443   4.414  -9.612  1.00  0.00     0.049 A 
ATOM     63  C   UNL     1      10.007   4.501  -4.039  1.00  0.00     0.074 A 
ATOM     64  C   UNL     1      10.096   5.409 -10.319  1.00  0.00     0.029 A 
ATOM     65  N   UNL     1       9.755   4.610  -8.273  1.00  0.00    -0.354 N 
ATOM     66  N   UNL     1       9.977   4.605  -5.348  1.00  0.00    -0.248 NA
ATOM     67  C   UNL     1      10.904   5.465  -3.385  1.00  0.00     0.031 C 
ATOM     68  C   UNL     1      10.867   6.152  -9.420  1.00  0.00     0.029 A 
ATOM     69  C   UNL     1      10.621   5.685  -8.139  1.00  0.00     0.049 A 
ATOM     70  H   UNL     1       9.411   4.066  -7.528  1.00  0.00     0.167 HD
ATOM     71  C   UNL     1      10.819   5.671  -5.667  1.00  0.00     0.074 A 
ATOM     72  C   UNL     1      11.333   6.181  -4.413  1.00  0.00     0.031 C 
ATOM     73  C   UNL     1      11.133   6.186  -6.884  1.00  0.00     0.034 A 
BRANCH  60  74
ATOM     74  C   UNL     1       8.432   3.217 -11.613  1.00  0.00     0.023 A 
ATOM     75  C   UNL     1       7.171   3.330 -12.225  1.00  0.00     0.031 A 
ATOM     76  C   UNL     1       9.539   2.935 -12.433  1.00  0.00     0.131 A 
ATOM     77  C   UNL     1       7.038   3.089 -13.601  1.00  0.00     0.055 A 
ATOM     78  C   UNL     1       9.412   2.783 -13.815  1.00  0.00     0.041 A 
ATOM     79  F   UNL     1      10.763   2.788 -11.902  1.00  0.00    -0.206 F 
ATOM     80  C   UNL     1       8.154   2.844 -14.405  1.00  0.00     0.022 A 
BRANCH  77  81
ATOM     81  S   UNL     1       5.369   2.950 -14.298  1.00  0.00     0.124 S 
ATOM     82  O   UNL     1       4.807   1.862 -13.501  1.00  0.00    -0.237 OA
ATOM     83  O   UNL     1       4.813   4.275 -14.052  1.00  0.00    -0.237 OA
ATOM     84  O   UNL     1       5.610   2.623 -15.702  1.00  0.00    -0.744 OA
ENDBRANCH  77  81
ENDBRANCH  60  74
BRANCH  61  85
ATOM     85  C   UNL     1       9.466   3.586  -1.658  1.00  0.00     0.023 A 
ATOM     86  C   UNL     1       9.137   4.724  -0.903  1.00  0.00     0.031 A 
ATOM     87  C   UNL     1      10.077   2.509  -0.989  1.00  0.00     0.131 A 
ATOM     88  C   UNL     1       9.464   4.779   0.462  1.00  0.00     0.055 A 
ATOM     89  C   UNL     1      10.346   2.546   0.381  1.00  0.00     0.041 A 
ATOM     90  F   UNL     1      10.425   1.400  -1.661  1.00  0.00    -0.206 F 
ATOM     91  C   UNL     1      10.052   3.692   1.112  1.00  0.00     0.022 A 
BRANCH  88  92
ATOM     92  S   UNL     1       9.206   6.336   1.359  1.00  0.00     0.124 S 
ATOM     93  O   UNL     1      10.025   7.262   0.585  1.00  0.00    -0.237 OA
ATOM     94  O   UNL     1       7.762   6.513   1.253  1.00  0.00    -0.237 OA
ATOM     95  O   UNL     1       9.698   6.040   2.703  1.00  0.00    -0.744 OA
ENDBRANCH  88  92
ENDBRANCH  61  85
BRANCH  73  96
ATOM     96  C   UNL     1      12.030   7.404  -6.918  1.00  0.00     0.023 A 
ATOM     97  C   UNL     1      13.370   7.359  -6.497  1.00  0.00     0.031 A 
ATOM     98  C   UNL     1      11.528   8.634  -7.384  1.00  0.00     0.131 A 
ATOM     99  C   UNL     1      14.145   8.530  -6.497  1.00  0.00     0.055 A 
ATOM    100  C   UNL     1      12.323   9.779  -7.447  1.00  0.00     0.041 A 
ATOM    101  F   UNL     1      10.255   8.741  -7.796  1.00  0.00    -0.206 F 
ATOM    102  C   UNL     1      13.636   9.735  -6.989  1.00  0.00     0.022 A 
BRANCH  99 103
ATOM    103  S   UNL     1      15.799   8.484  -5.753  1.00  0.00     0.124 S 
ATOM    104  O   UNL     1      15.507   8.036  -4.396  1.00  0.00    -0.237 OA
ATOM    105  O   UNL     1      16.498   7.527  -6.604  1.00  0.00    -0.237 OA
ATOM    106  O   UNL     1      16.264   9.866  -5.864  1.00  0.00    -0.744 OA
ENDBRANCH  99 103
ENDBRANCH  73  96
ENDBRANCH  47  48
ENDBRANCH  40  42
ENDBRANCH  39  40
ENDBRANCH  38  39
ENDBRANCH  37  38
ENDBRANCH  36  37
ENDBRANCH  35  36
ENDBRANCH   1  35
TORSDOF 25
