REMARK SMILES O=C(OCCOCCOCCOC(=O)c1ccc(-c2c3nc(c(-c4cc(S(=O)(=O)[O-])ccc4F)c4ccc([nH]4)c(-c4cc(S(=O)(=O)[O-])ccc4F)c4nc(c(-c5cc(S(=O)(=O)[O-])ccc5F)c5ccc2[nH]5)C=C4)C=C3)cc1)C(=O)N1CC[N@@H+]2CCC[C@H]2C1
REMARK SMILES IDX 8 1 7 2 6 3 5 4 4 5 3 6 2 7 1 8 78 9 79 10 80 11 81 12 88 13
REMARK SMILES IDX 82 14 87 15 83 16 86 17 84 18 85 20 9 21 10 22 11 23 12 24
REMARK SMILES IDX 13 25 14 26 15 27 16 28 77 29 17 30 76 31 18 32 19 33 20 34
REMARK SMILES IDX 70 35 21 36 75 37 69 38 71 39 22 40 74 41 68 42 67 43 23 45
REMARK SMILES IDX 55 46 35 47 54 48 36 49 39 50 53 51 72 52 37 53 38 54 52 56
REMARK SMILES IDX 73 57 40 58 24 59 25 60 33 61 26 62 32 63 34 64 31 65 27 66
REMARK SMILES IDX 28 67 29 68 30 69 56 70 57 71 65 72 58 73 64 74 66 75 63 76
REMARK SMILES IDX 59 77 60 78 61 79 62 80 41 81 42 82 50 83 43 84 49 85 51 86
REMARK SMILES IDX 48 87 44 88 45 89 46 90 47 91
REMARK H PARENT 83 19 71 44 39 55
REMARK Flexibility Score: inf
ROOT
ATOM      1  C   UNL     1       1.921   2.692   1.077  1.00  0.00     0.188 C 
ENDROOT
BRANCH   1   2
ATOM      2  C   UNL     1       3.001   1.625   1.266  1.00  0.00     0.188 C 
BRANCH   2   3
ATOM      3  O   UNL     1       4.262   1.865   0.622  1.00  0.00    -0.376 OA
BRANCH   3   4
ATOM      4  C   UNL     1       4.267   1.993  -0.800  1.00  0.00     0.202 C 
BRANCH   4   5
ATOM      5  C   UNL     1       4.100   0.684  -1.589  1.00  0.00     0.262 C 
BRANCH   5   6
ATOM      6  O   UNL     1       2.805   0.116  -1.356  1.00  0.00    -0.456 OA
BRANCH   6   7
ATOM      7  C   UNL     1       2.617  -1.019  -0.655  1.00  0.00     0.397 C 
ATOM      8  O   UNL     1       1.565  -1.236  -0.066  1.00  0.00    -0.240 OA
BRANCH   7   9
ATOM      9  C   UNL     1       3.663  -2.141  -0.741  1.00  0.00     0.332 C 
ATOM     10  O   UNL     1       3.548  -2.922  -1.685  1.00  0.00    -0.261 OA
BRANCH   9  11
ATOM     11  N   UNL     1       4.622  -2.307   0.268  1.00  0.00    -0.321 N 
ATOM     12  C   UNL     1       5.330  -1.234   0.981  1.00  0.00     0.181 C 
ATOM     13  C   UNL     1       5.383  -3.554   0.262  1.00  0.00     0.185 C 
ATOM     14  C   UNL     1       6.756  -0.994   0.367  1.00  0.00     0.284 C 
ATOM     15  C   UNL     1       6.658  -3.273  -0.524  1.00  0.00     0.204 C 
ATOM     16  N   UNL     1       7.485  -2.250   0.149  1.00  0.00    -0.330 N 
ATOM     17  C   UNL     1       7.657  -4.401  -0.648  1.00  0.00     0.073 C 
ATOM     18  C   UNL     1       8.677  -2.178  -0.686  1.00  0.00     0.262 C 
ATOM     19  H   UNL     1       7.744  -2.481   1.108  1.00  0.00     0.348 HD
ATOM     20  C   UNL     1       8.973  -3.663  -0.932  1.00  0.00     0.068 C 
ENDBRANCH   9  11
ENDBRANCH   7   9
ENDBRANCH   6   7
ENDBRANCH   5   6
ENDBRANCH   4   5
ENDBRANCH   3   4
ENDBRANCH   2   3
ENDBRANCH   1   2
BRANCH   1  21
ATOM     21  O   UNL     1       2.050   3.854   1.892  1.00  0.00    -0.376 OA
BRANCH  21  22
ATOM     22  C   UNL     1       3.327   4.473   1.911  1.00  0.00     0.202 C 
BRANCH  22  23
ATOM     23  C   UNL     1       4.078   4.279   3.242  1.00  0.00     0.261 C 
BRANCH  23  24
ATOM     24  O   UNL     1       3.803   3.035   3.909  1.00  0.00    -0.460 OA
BRANCH  24  25
ATOM     25  C   UNL     1       2.647   3.038   4.617  1.00  0.00     0.338 C 
ATOM     26  O   UNL     1       1.906   3.997   4.802  1.00  0.00    -0.246 OA
BRANCH  25  27
ATOM     27  C   UNL     1       2.329   1.688   5.123  1.00  0.00     0.060 A 
ATOM     28  C   UNL     1       1.062   1.161   4.845  1.00  0.00     0.016 A 
ATOM     29  C   UNL     1       3.183   1.038   6.018  1.00  0.00     0.016 A 
ATOM     30  C   UNL     1       0.602   0.046   5.548  1.00  0.00     0.010 A 
ATOM     31  C   UNL     1       2.719  -0.081   6.723  1.00  0.00     0.010 A 
ATOM     32  C   UNL     1       1.398  -0.534   6.546  1.00  0.00    -0.014 A 
BRANCH  32  33
ATOM     33  C   UNL     1       0.744  -1.398   7.570  1.00  0.00     0.031 A 
ATOM     34  C   UNL     1       0.326  -0.764   8.877  1.00  0.00     0.074 A 
ATOM     35  C   UNL     1       0.449  -2.689   7.330  1.00  0.00     0.049 A 
ATOM     36  N   UNL     1      -0.307  -1.287   9.897  1.00  0.00    -0.248 NA
ATOM     37  C   UNL     1       0.673   0.655   9.054  1.00  0.00     0.031 C 
ATOM     38  C   UNL     1       0.758  -3.411   6.098  1.00  0.00     0.029 A 
ATOM     39  N   UNL     1      -0.192  -3.619   8.113  1.00  0.00    -0.354 N 
ATOM     40  C   UNL     1      -0.434  -0.263  10.832  1.00  0.00     0.074 A 
ATOM     41  C   UNL     1       0.233   0.895  10.278  1.00  0.00     0.031 C 
ATOM     42  C   UNL     1       0.297  -4.670   6.204  1.00  0.00     0.029 A 
ATOM     43  C   UNL     1      -0.319  -4.853   7.519  1.00  0.00     0.049 A 
ATOM     44  H   UNL     1      -0.529  -3.420   9.016  1.00  0.00     0.167 HD
ATOM     45  C   UNL     1      -1.063  -0.275  12.034  1.00  0.00     0.034 A 
ATOM     46  C   UNL     1      -0.866  -5.995   7.982  1.00  0.00     0.034 A 
ATOM     47  C   UNL     1      -1.726  -1.433  12.583  1.00  0.00     0.049 A 
ATOM     48  C   UNL     1      -1.505  -6.006   9.353  1.00  0.00     0.074 A 
ATOM     49  C   UNL     1      -2.400  -1.552  13.786  1.00  0.00     0.029 A 
ATOM     50  N   UNL     1      -1.791  -2.677  11.969  1.00  0.00    -0.354 N 
ATOM     51  N   UNL     1      -1.631  -5.026  10.219  1.00  0.00    -0.248 NA
ATOM     52  C   UNL     1      -2.092  -7.277   9.799  1.00  0.00     0.031 C 
ATOM     53  C   UNL     1      -2.812  -2.882  13.930  1.00  0.00     0.029 A 
ATOM     54  C   UNL     1      -2.467  -3.576  12.781  1.00  0.00     0.049 A 
ATOM     55  H   UNL     1      -1.412  -2.890  11.086  1.00  0.00     0.167 HD
ATOM     56  C   UNL     1      -2.349  -5.555  11.291  1.00  0.00     0.074 A 
ATOM     57  C   UNL     1      -2.635  -6.934  10.958  1.00  0.00     0.031 C 
ATOM     58  C   UNL     1      -2.744  -4.952  12.442  1.00  0.00     0.034 A 
BRANCH  45  59
ATOM     59  C   UNL     1      -1.010   0.993  12.854  1.00  0.00     0.023 A 
ATOM     60  C   UNL     1      -1.613   2.188  12.420  1.00  0.00     0.031 A 
ATOM     61  C   UNL     1      -0.307   1.017  14.072  1.00  0.00     0.131 A 
ATOM     62  C   UNL     1      -1.438   3.369  13.157  1.00  0.00     0.055 A 
ATOM     63  C   UNL     1      -0.205   2.178  14.842  1.00  0.00     0.041 A 
ATOM     64  F   UNL     1       0.308  -0.085  14.528  1.00  0.00    -0.206 F 
ATOM     65  C   UNL     1      -0.759   3.367  14.378  1.00  0.00     0.022 A 
BRANCH  62  66
ATOM     66  S   UNL     1      -1.981   4.940  12.428  1.00  0.00     0.124 S 
ATOM     67  O   UNL     1      -1.211   4.971  11.188  1.00  0.00    -0.237 OA
ATOM     68  O   UNL     1      -3.419   4.741  12.286  1.00  0.00    -0.237 OA
ATOM     69  O   UNL     1      -1.585   5.935  13.423  1.00  0.00    -0.744 OA
ENDBRANCH  62  66
ENDBRANCH  45  59
BRANCH  46  70
ATOM     70  C   UNL     1      -0.828  -7.243   7.163  1.00  0.00     0.023 A 
ATOM     71  C   UNL     1      -2.007  -7.859   6.713  1.00  0.00     0.031 A 
ATOM     72  C   UNL     1       0.395  -7.878   6.881  1.00  0.00     0.131 A 
ATOM     73  C   UNL     1      -1.943  -9.096   6.051  1.00  0.00     0.055 A 
ATOM     74  C   UNL     1       0.457  -9.081   6.176  1.00  0.00     0.041 A 
ATOM     75  F   UNL     1       1.552  -7.335   7.292  1.00  0.00    -0.206 F 
ATOM     76  C   UNL     1      -0.718  -9.704   5.769  1.00  0.00     0.022 A 
BRANCH  73  77
ATOM     77  S   UNL     1      -3.492  -9.950   5.645  1.00  0.00     0.124 S 
ATOM     78  O   UNL     1      -4.103 -10.099   6.961  1.00  0.00    -0.237 OA
ATOM     79  O   UNL     1      -4.134  -9.001   4.742  1.00  0.00    -0.237 OA
ATOM     80  O   UNL     1      -3.042 -11.193   5.022  1.00  0.00    -0.744 OA
ENDBRANCH  73  77
ENDBRANCH  46  70
BRANCH  58  81
ATOM     81  C   UNL     1      -3.583  -5.770  13.397  1.00  0.00     0.023 A 
ATOM     82  C   UNL     1      -3.071  -6.900  14.060  1.00  0.00     0.031 A 
ATOM     83  C   UNL     1      -4.926  -5.422  13.630  1.00  0.00     0.131 A 
ATOM     84  C   UNL     1      -3.914  -7.678  14.870  1.00  0.00     0.055 A 
ATOM     85  C   UNL     1      -5.742  -6.163  14.486  1.00  0.00     0.041 A 
ATOM     86  F   UNL     1      -5.470  -4.353  13.025  1.00  0.00    -0.206 F 
ATOM     87  C   UNL     1      -5.242  -7.308  15.098  1.00  0.00     0.022 A 
BRANCH  84  88
ATOM     88  S   UNL     1      -3.283  -9.243  15.537  1.00  0.00     0.124 S 
ATOM     89  O   UNL     1      -2.848  -9.937  14.329  1.00  0.00    -0.237 OA
ATOM     90  O   UNL     1      -2.221  -8.795  16.432  1.00  0.00    -0.237 OA
ATOM     91  O   UNL     1      -4.447  -9.828  16.201  1.00  0.00    -0.744 OA
ENDBRANCH  84  88
ENDBRANCH  58  81
ENDBRANCH  32  33
ENDBRANCH  25  27
ENDBRANCH  24  25
ENDBRANCH  23  24
ENDBRANCH  22  23
ENDBRANCH  21  22
ENDBRANCH   1  21
TORSDOF 21
