REMARK SMILES NC(=O)C[C@H](C(=O)OCCOCCOCCOC(=O)c1ccc(-c2c3nc(c(-c4cc(S(=O)(=O)[O-])ccc4F)c4ccc([nH]4)c(-c4cc(S(=O)(=O)[O-])ccc4F)c4nc(c(-c5cc(S(=O)(=O)[O-])ccc5F)c5ccc2[nH]5)C=C4)C=C3)cc1)N1C(=O)/C(=C/c2ccccc2)SC1=S
REMARK SMILES IDX 13 1 12 2 11 3 10 4 9 5 8 6 6 7 7 8 5 9 4 10 2 11 1 12 3 15
REMARK SMILES IDX 83 16 84 17 95 18 85 19 86 20 94 21 96 22 87 23 88 24 89 25
REMARK SMILES IDX 93 26 90 27 92 28 91 29 14 30 15 31 16 32 17 33 18 34 19 35
REMARK SMILES IDX 20 36 21 37 82 38 22 39 81 40 23 41 24 42 25 43 75 44 26 45
REMARK SMILES IDX 80 46 74 47 76 48 27 49 79 50 73 51 72 52 28 54 60 55 40 56
REMARK SMILES IDX 59 57 41 58 44 59 58 60 77 61 42 62 43 63 57 65 78 66 45 67
REMARK SMILES IDX 29 68 30 69 38 70 31 71 37 72 39 73 36 74 32 75 33 76 34 77
REMARK SMILES IDX 35 78 61 79 62 80 70 81 63 82 69 83 71 84 68 85 64 86 65 87
REMARK SMILES IDX 66 88 67 89 46 90 47 91 55 92 48 93 54 94 56 95 53 96 49 97
REMARK SMILES IDX 50 98 51 99 52 100
REMARK H PARENT 1 13 1 14 76 53 44 64
REMARK Flexibility Score: inf
ROOT
ATOM      1  C   UNL     1       0.469  -0.499   0.006  1.00  0.00     0.188 C 
ENDROOT
BRANCH   1   2
ATOM      2  C   UNL     1      -0.946  -1.042  -0.218  1.00  0.00     0.188 C 
BRANCH   2   3
ATOM      3  O   UNL     1      -1.367  -2.124   0.598  1.00  0.00    -0.376 OA
BRANCH   3   4
ATOM      4  C   UNL     1      -0.547  -3.287   0.674  1.00  0.00     0.202 C 
BRANCH   4   5
ATOM      5  C   UNL     1       0.127  -3.816  -0.600  1.00  0.00     0.261 C 
BRANCH   5   6
ATOM      6  O   UNL     1       1.179  -2.965  -1.116  1.00  0.00    -0.462 OA
BRANCH   6   7
ATOM      7  C   UNL     1       1.106  -2.639  -2.435  1.00  0.00     0.329 C 
ATOM      8  O   UNL     1       0.166  -2.939  -3.163  1.00  0.00    -0.250 OA
BRANCH   7   9
ATOM      9  C   UNL     1       2.369  -1.956  -2.983  1.00  0.00     0.211 C 
BRANCH   9  10
ATOM     10  C   UNL     1       3.323  -1.133  -2.115  1.00  0.00     0.137 C 
BRANCH  10  11
ATOM     11  C   UNL     1       4.319  -1.951  -1.356  1.00  0.00     0.220 C 
ATOM     12  N   UNL     1       3.905  -2.373  -0.134  1.00  0.00    -0.370 N 
ATOM     13  H   UNL     1       4.504  -2.917   0.428  1.00  0.00     0.159 HD
ATOM     14  H   UNL     1       3.006  -2.137   0.190  1.00  0.00     0.159 HD
ATOM     15  O   UNL     1       5.430  -2.225  -1.796  1.00  0.00    -0.275 OA
ENDBRANCH  10  11
ENDBRANCH   9  10
BRANCH   9  16
ATOM     16  N   UNL     1       3.049  -2.806  -3.971  1.00  0.00    -0.278 N 
ATOM     17  C   UNL     1       3.591  -2.169  -5.078  1.00  0.00     0.267 C 
ATOM     18  C   UNL     1       3.361  -4.145  -3.820  1.00  0.00     0.149 C 
ATOM     19  O   UNL     1       3.544  -0.970  -5.316  1.00  0.00    -0.268 OA
ATOM     20  C   UNL     1       4.303  -3.143  -5.930  1.00  0.00     0.081 C 
ATOM     21  S   UNL     1       4.207  -4.715  -5.238  1.00  0.00    -0.054 SA
ATOM     22  S   UNL     1       3.037  -5.210  -2.578  1.00  0.00    -0.052 S 
ATOM     23  C   UNL     1       4.923  -2.814  -7.070  1.00  0.00     0.029 C 
BRANCH  23  24
ATOM     24  C   UNL     1       5.517  -3.861  -7.901  1.00  0.00    -0.024 A 
ATOM     25  C   UNL     1       6.861  -4.212  -7.750  1.00  0.00     0.008 A 
ATOM     26  C   UNL     1       4.664  -4.662  -8.672  1.00  0.00     0.008 A 
ATOM     27  C   UNL     1       7.336  -5.386  -8.335  1.00  0.00     0.001 A 
ATOM     28  C   UNL     1       5.139  -5.839  -9.241  1.00  0.00     0.001 A 
ATOM     29  C   UNL     1       6.472  -6.205  -9.065  1.00  0.00     0.000 A 
ENDBRANCH  23  24
ENDBRANCH   9  16
ENDBRANCH   7   9
ENDBRANCH   6   7
ENDBRANCH   5   6
ENDBRANCH   4   5
ENDBRANCH   3   4
ENDBRANCH   2   3
ENDBRANCH   1   2
BRANCH   1  30
ATOM     30  O   UNL     1       1.246  -1.188   0.965  1.00  0.00    -0.376 OA
BRANCH  30  31
ATOM     31  C   UNL     1       1.374  -0.595   2.255  1.00  0.00     0.202 C 
BRANCH  31  32
ATOM     32  C   UNL     1       0.190   0.119   2.943  1.00  0.00     0.261 C 
BRANCH  32  33
ATOM     33  O   UNL     1      -0.613   1.001   2.141  1.00  0.00    -0.460 OA
BRANCH  33  34
ATOM     34  C   UNL     1      -0.061   2.163   1.712  1.00  0.00     0.338 C 
ATOM     35  O   UNL     1       1.059   2.570   1.970  1.00  0.00    -0.246 OA
BRANCH  34  36
ATOM     36  C   UNL     1      -0.947   2.673   0.630  1.00  0.00     0.060 A 
ATOM     37  C   UNL     1      -0.425   2.828  -0.665  1.00  0.00     0.016 A 
ATOM     38  C   UNL     1      -2.308   2.877   0.863  1.00  0.00     0.016 A 
ATOM     39  C   UNL     1      -1.266   3.164  -1.730  1.00  0.00     0.010 A 
ATOM     40  C   UNL     1      -3.141   3.249  -0.197  1.00  0.00     0.010 A 
ATOM     41  C   UNL     1      -2.626   3.401  -1.498  1.00  0.00    -0.014 A 
BRANCH  41  42
ATOM     42  C   UNL     1      -3.488   3.975  -2.562  1.00  0.00     0.031 A 
ATOM     43  C   UNL     1      -3.723   5.459  -2.558  1.00  0.00     0.074 A 
ATOM     44  C   UNL     1      -4.080   3.203  -3.490  1.00  0.00     0.049 A 
ATOM     45  N   UNL     1      -4.547   6.177  -3.274  1.00  0.00    -0.248 NA
ATOM     46  C   UNL     1      -2.920   6.231  -1.598  1.00  0.00     0.031 C 
ATOM     47  C   UNL     1      -3.892   1.761  -3.634  1.00  0.00     0.029 A 
ATOM     48  N   UNL     1      -4.984   3.526  -4.473  1.00  0.00    -0.354 N 
ATOM     49  C   UNL     1      -4.371   7.488  -2.847  1.00  0.00     0.074 A 
ATOM     50  C   UNL     1      -3.390   7.454  -1.782  1.00  0.00     0.031 C 
ATOM     51  C   UNL     1      -4.686   1.317  -4.625  1.00  0.00     0.029 A 
ATOM     52  C   UNL     1      -5.475   2.432  -5.149  1.00  0.00     0.049 A 
ATOM     53  H   UNL     1      -5.255   4.450  -4.675  1.00  0.00     0.167 HD
ATOM     54  C   UNL     1      -4.971   8.616  -3.303  1.00  0.00     0.034 A 
ATOM     55  C   UNL     1      -6.480   2.333  -6.045  1.00  0.00     0.034 A 
ATOM     56  C   UNL     1      -5.970   8.625  -4.343  1.00  0.00     0.049 A 
ATOM     57  C   UNL     1      -7.226   3.582  -6.458  1.00  0.00     0.074 A 
ATOM     58  C   UNL     1      -6.632   9.708  -4.894  1.00  0.00     0.029 A 
ATOM     59  N   UNL     1      -6.474   7.492  -4.973  1.00  0.00    -0.354 N 
ATOM     60  N   UNL     1      -7.047   4.822  -6.060  1.00  0.00    -0.248 NA
ATOM     61  C   UNL     1      -8.309   3.418  -7.437  1.00  0.00     0.031 C 
ATOM     62  C   UNL     1      -7.596   9.226  -5.786  1.00  0.00     0.029 A 
ATOM     63  C   UNL     1      -7.474   7.847  -5.867  1.00  0.00     0.049 A 
ATOM     64  H   UNL     1      -6.167   6.572  -4.809  1.00  0.00     0.167 HD
ATOM     65  C   UNL     1      -7.984   5.585  -6.755  1.00  0.00     0.074 A 
ATOM     66  C   UNL     1      -8.713   4.670  -7.608  1.00  0.00     0.031 C 
ATOM     67  C   UNL     1      -8.215   6.923  -6.696  1.00  0.00     0.034 A 
BRANCH  54  68
ATOM     68  C   UNL     1      -4.604   9.912  -2.619  1.00  0.00     0.023 A 
ATOM     69  C   UNL     1      -3.285  10.402  -2.621  1.00  0.00     0.031 A 
ATOM     70  C   UNL     1      -5.570  10.633  -1.896  1.00  0.00     0.131 A 
ATOM     71  C   UNL     1      -2.951  11.514  -1.835  1.00  0.00     0.055 A 
ATOM     72  C   UNL     1      -5.249  11.797  -1.195  1.00  0.00     0.041 A 
ATOM     73  F   UNL     1      -6.840  10.203  -1.834  1.00  0.00    -0.206 F 
ATOM     74  C   UNL     1      -3.929  12.232  -1.143  1.00  0.00     0.022 A 
BRANCH  71  75
ATOM     75  S   UNL     1      -1.194  11.886  -1.572  1.00  0.00     0.124 S 
ATOM     76  O   UNL     1      -0.700  10.617  -1.041  1.00  0.00    -0.237 OA
ATOM     77  O   UNL     1      -0.743  12.237  -2.913  1.00  0.00    -0.237 OA
ATOM     78  O   UNL     1      -1.218  12.986  -0.610  1.00  0.00    -0.744 OA
ENDBRANCH  71  75
ENDBRANCH  54  68
BRANCH  55  79
ATOM     79  C   UNL     1      -6.899   0.993  -6.553  1.00  0.00     0.023 A 
ATOM     80  C   UNL     1      -6.783   0.649  -7.908  1.00  0.00     0.031 A 
ATOM     81  C   UNL     1      -7.455   0.041  -5.677  1.00  0.00     0.131 A 
ATOM     82  C   UNL     1      -7.241  -0.603  -8.354  1.00  0.00     0.055 A 
ATOM     83  C   UNL     1      -7.859  -1.221  -6.115  1.00  0.00     0.041 A 
ATOM     84  F   UNL     1      -7.600   0.322  -4.372  1.00  0.00    -0.206 F 
ATOM     85  C   UNL     1      -7.760  -1.546  -7.463  1.00  0.00     0.022 A 
BRANCH  82  86
ATOM     86  S   UNL     1      -7.211  -0.962 -10.132  1.00  0.00     0.124 S 
ATOM     87  O   UNL     1      -8.076   0.087 -10.661  1.00  0.00    -0.237 OA
ATOM     88  O   UNL     1      -5.791  -0.840 -10.443  1.00  0.00    -0.237 OA
ATOM     89  O   UNL     1      -7.751  -2.317 -10.215  1.00  0.00    -0.744 OA
ENDBRANCH  82  86
ENDBRANCH  55  79
BRANCH  67  90
ATOM     90  C   UNL     1      -9.287   7.485  -7.603  1.00  0.00     0.023 A 
ATOM     91  C   UNL     1     -10.646   7.170  -7.431  1.00  0.00     0.031 A 
ATOM     92  C   UNL     1      -8.942   8.363  -8.648  1.00  0.00     0.131 A 
ATOM     93  C   UNL     1     -11.604   7.693  -8.314  1.00  0.00     0.055 A 
ATOM     94  C   UNL     1      -9.905   8.930  -9.483  1.00  0.00     0.041 A 
ATOM     95  F   UNL     1      -7.659   8.697  -8.865  1.00  0.00    -0.206 F 
ATOM     96  C   UNL     1     -11.245   8.588  -9.326  1.00  0.00     0.022 A 
BRANCH  93  97
ATOM     97  S   UNL     1     -13.322   7.125  -8.179  1.00  0.00     0.124 S 
ATOM     98  O   UNL     1     -13.181   5.687  -8.386  1.00  0.00    -0.237 OA
ATOM     99  O   UNL     1     -13.684   7.542  -6.828  1.00  0.00    -0.237 OA
ATOM    100  O   UNL     1     -14.007   7.842  -9.253  1.00  0.00    -0.744 OA
ENDBRANCH  93  97
ENDBRANCH  67  90
ENDBRANCH  41  42
ENDBRANCH  34  36
ENDBRANCH  33  34
ENDBRANCH  32  33
ENDBRANCH  31  32
ENDBRANCH  30  31
ENDBRANCH   1  30
TORSDOF 24
