REMARK SMILES COc1ccc(Br)c([C@H]2[NH2+][C@H](C(=O)OCCOCCOCCOC(=O)c3ccc(-c4c5nc(c(-c6cc(S(=O)(=O)[O-])ccc6F)c6ccc([nH]6)c(-c6cc(S(=O)(=O)[O-])ccc6F)c6nc(c(-c7cc(S(=O)(=O)[O-])ccc7F)c7ccc4[nH]7)C=C6)C=C5)cc3)CS2)c1O
REMARK SMILES IDX 19 1 18 2 17 3 16 4 15 5 14 6 12 7 13 8 11 9 9 10 10 11
REMARK SMILES IDX 90 12 89 15 8 16 3 17 4 18 91 19 5 20 6 21 7 22 2 23 1 24
REMARK SMILES IDX 92 25 20 27 21 28 22 29 23 30 24 31 25 32 26 33 27 34 88 35
REMARK SMILES IDX 28 36 87 37 29 38 30 39 31 40 81 41 32 42 86 43 80 44 82 45
REMARK SMILES IDX 33 46 85 47 79 48 78 49 34 51 66 52 46 53 65 54 47 55 50 56
REMARK SMILES IDX 64 57 83 58 48 59 49 60 63 62 84 63 51 64 35 65 36 66 44 67
REMARK SMILES IDX 37 68 43 69 45 70 42 71 38 72 39 73 40 74 41 75 67 76 68 77
REMARK SMILES IDX 76 78 69 79 75 80 77 81 74 82 70 83 71 84 72 85 73 86 52 87
REMARK SMILES IDX 53 88 61 89 54 90 60 91 62 92 59 93 55 94 56 95 57 96 58 97
REMARK H PARENT 10 13 10 14 92 26 82 50 50 61
REMARK Flexibility Score: inf
ROOT
ATOM      1  C   UNL     1       4.589   1.525  -5.127  1.00  0.00     0.188 C 
ENDROOT
BRANCH   1   2
ATOM      2  C   UNL     1       5.330   0.196  -4.891  1.00  0.00     0.188 C 
BRANCH   2   3
ATOM      3  O   UNL     1       4.620  -1.040  -4.938  1.00  0.00    -0.376 OA
BRANCH   3   4
ATOM      4  C   UNL     1       3.244  -1.077  -4.594  1.00  0.00     0.202 C 
BRANCH   4   5
ATOM      5  C   UNL     1       2.827  -0.623  -3.185  1.00  0.00     0.261 C 
BRANCH   5   6
ATOM      6  O   UNL     1       3.401   0.616  -2.706  1.00  0.00    -0.459 OA
BRANCH   6   7
ATOM      7  C   UNL     1       4.303   0.498  -1.699  1.00  0.00     0.365 C 
ATOM      8  O   UNL     1       4.585  -0.577  -1.170  1.00  0.00    -0.245 OA
BRANCH   7   9
ATOM      9  C   UNL     1       4.954   1.795  -1.189  1.00  0.00     0.304 C 
ATOM     10  C   UNL     1       3.764   3.839  -1.754  1.00  0.00     0.279 C 
ATOM     11  N   UNL     1       4.959   3.021  -2.040  1.00  0.00    -0.319 N 
ATOM     12  S   UNL     1       3.166   3.414  -0.093  1.00  0.00    -0.087 SA
ATOM     13  H   UNL     1       5.797   3.567  -1.842  1.00  0.00     0.348 HD
ATOM     14  H   UNL     1       4.949   2.747  -3.022  1.00  0.00     0.348 HD
ATOM     15  C   UNL     1       4.407   2.130   0.187  1.00  0.00     0.153 C 
BRANCH  10  16
ATOM     16  C   UNL     1       3.990   5.328  -2.082  1.00  0.00     0.080 A 
ATOM     17  C   UNL     1       4.610   7.655  -1.515  1.00  0.00     0.161 A 
ATOM     18  C   UNL     1       4.461   8.077  -2.825  1.00  0.00     0.051 A 
ATOM     19  C   UNL     1       4.397   6.306  -1.151  1.00  0.00     0.169 A 
ATOM     20  C   UNL     1       4.075   7.146  -3.774  1.00  0.00     0.020 A 
ATOM     21  C   UNL     1       3.815   5.812  -3.403  1.00  0.00     0.032 A 
ATOM     22  Br  UNL     1       3.101   4.765  -4.805  1.00  0.00    -0.050 Br
BRANCH  17  23
ATOM     23  O   UNL     1       4.835   8.610  -0.553  1.00  0.00    -0.493 OA
ATOM     24  C   UNL     1       6.217   8.681  -0.197  1.00  0.00     0.278 C 
ENDBRANCH  17  23
BRANCH  19  25
ATOM     25  O   UNL     1       4.567   5.996   0.171  1.00  0.00    -0.504 OA
ATOM     26  H   UNL     1       4.838   6.658   0.776  1.00  0.00     0.293 HD
ENDBRANCH  19  25
ENDBRANCH  10  16
ENDBRANCH   7   9
ENDBRANCH   6   7
ENDBRANCH   5   6
ENDBRANCH   4   5
ENDBRANCH   3   4
ENDBRANCH   2   3
ENDBRANCH   1   2
BRANCH   1  27
ATOM     27  O   UNL     1       3.312   1.353  -5.698  1.00  0.00    -0.376 OA
BRANCH  27  28
ATOM     28  C   UNL     1       3.031   1.891  -6.968  1.00  0.00     0.202 C 
BRANCH  28  29
ATOM     29  C   UNL     1       3.948   1.586  -8.156  1.00  0.00     0.261 C 
BRANCH  29  30
ATOM     30  O   UNL     1       5.335   1.361  -7.875  1.00  0.00    -0.460 OA
BRANCH  30  31
ATOM     31  C   UNL     1       6.132   2.451  -7.795  1.00  0.00     0.338 C 
ATOM     32  O   UNL     1       5.785   3.620  -7.890  1.00  0.00    -0.246 OA
BRANCH  31  33
ATOM     33  C   UNL     1       7.481   1.999  -7.393  1.00  0.00     0.060 A 
ATOM     34  C   UNL     1       8.028   2.435  -6.178  1.00  0.00     0.016 A 
ATOM     35  C   UNL     1       8.205   1.141  -8.223  1.00  0.00     0.016 A 
ATOM     36  C   UNL     1       9.315   2.033  -5.804  1.00  0.00     0.010 A 
ATOM     37  C   UNL     1       9.497   0.754  -7.854  1.00  0.00     0.010 A 
ATOM     38  C   UNL     1      10.072   1.219  -6.657  1.00  0.00    -0.014 A 
BRANCH  38  39
ATOM     39  C   UNL     1      11.518   0.981  -6.401  1.00  0.00     0.031 A 
ATOM     40  C   UNL     1      12.525   1.780  -7.188  1.00  0.00     0.074 A 
ATOM     41  C   UNL     1      11.935   0.060  -5.512  1.00  0.00     0.049 A 
ATOM     42  N   UNL     1      13.827   1.671  -7.228  1.00  0.00    -0.248 NA
ATOM     43  C   UNL     1      11.985   2.842  -8.053  1.00  0.00     0.031 C 
ATOM     44  C   UNL     1      11.065  -0.744  -4.655  1.00  0.00     0.029 A 
ATOM     45  N   UNL     1      13.203  -0.369  -5.195  1.00  0.00    -0.354 N 
ATOM     46  C   UNL     1      14.261   2.629  -8.139  1.00  0.00     0.074 A 
ATOM     47  C   UNL     1      13.081   3.300  -8.639  1.00  0.00     0.031 C 
ATOM     48  C   UNL     1      11.823  -1.578  -3.922  1.00  0.00     0.029 A 
ATOM     49  C   UNL     1      13.228  -1.408  -4.291  1.00  0.00     0.049 A 
ATOM     50  H   UNL     1      14.017   0.030  -5.579  1.00  0.00     0.167 HD
ATOM     51  C   UNL     1      15.528   2.918  -8.523  1.00  0.00     0.034 A 
ATOM     52  C   UNL     1      14.260  -2.156  -3.845  1.00  0.00     0.034 A 
ATOM     53  C   UNL     1      16.697   2.245  -8.013  1.00  0.00     0.049 A 
ATOM     54  C   UNL     1      15.656  -1.865  -4.359  1.00  0.00     0.074 A 
ATOM     55  C   UNL     1      18.026   2.497  -8.304  1.00  0.00     0.029 A 
ATOM     56  N   UNL     1      16.680   1.178  -7.126  1.00  0.00    -0.354 N 
ATOM     57  N   UNL     1      16.055  -0.932  -5.194  1.00  0.00    -0.248 NA
ATOM     58  C   UNL     1      16.741  -2.725  -3.864  1.00  0.00     0.031 C 
ATOM     59  C   UNL     1      18.806   1.527  -7.669  1.00  0.00     0.029 A 
ATOM     60  C   UNL     1      17.973   0.732  -6.898  1.00  0.00     0.049 A 
ATOM     61  H   UNL     1      15.870   0.794  -6.719  1.00  0.00     0.167 HD
ATOM     62  C   UNL     1      17.441  -1.068  -5.282  1.00  0.00     0.074 A 
ATOM     63  C   UNL     1      17.808  -2.159  -4.407  1.00  0.00     0.031 C 
ATOM     64  C   UNL     1      18.332  -0.353  -6.015  1.00  0.00     0.034 A 
BRANCH  51  65
ATOM     65  C   UNL     1      15.722   3.966  -9.591  1.00  0.00     0.023 A 
ATOM     66  C   UNL     1      15.415   5.321  -9.377  1.00  0.00     0.031 A 
ATOM     67  C   UNL     1      16.256   3.599 -10.840  1.00  0.00     0.131 A 
ATOM     68  C   UNL     1      15.608   6.251 -10.410  1.00  0.00     0.055 A 
ATOM     69  C   UNL     1      16.513   4.540 -11.837  1.00  0.00     0.041 A 
ATOM     70  F   UNL     1      16.543   2.316 -11.109  1.00  0.00    -0.206 F 
ATOM     71  C   UNL     1      16.181   5.875 -11.628  1.00  0.00     0.022 A 
BRANCH  68  72
ATOM     72  S   UNL     1      15.003   7.946 -10.180  1.00  0.00     0.124 S 
ATOM     73  O   UNL     1      13.576   7.724  -9.962  1.00  0.00    -0.237 OA
ATOM     74  O   UNL     1      15.763   8.398  -9.021  1.00  0.00    -0.237 OA
ATOM     75  O   UNL     1      15.339   8.604 -11.441  1.00  0.00    -0.744 OA
ENDBRANCH  68  72
ENDBRANCH  51  65
BRANCH  52  76
ATOM     76  C   UNL     1      14.040  -3.296  -2.901  1.00  0.00     0.023 A 
ATOM     77  C   UNL     1      14.689  -3.338  -1.655  1.00  0.00     0.031 A 
ATOM     78  C   UNL     1      13.276  -4.415  -3.278  1.00  0.00     0.131 A 
ATOM     79  C   UNL     1      14.631  -4.502  -0.872  1.00  0.00     0.055 A 
ATOM     80  C   UNL     1      13.158  -5.540  -2.459  1.00  0.00     0.041 A 
ATOM     81  F   UNL     1      12.643  -4.440  -4.461  1.00  0.00    -0.206 F 
ATOM     82  C   UNL     1      13.856  -5.597  -1.257  1.00  0.00     0.022 A 
BRANCH  79  83
ATOM     83  S   UNL     1      15.709  -4.620   0.583  1.00  0.00     0.124 S 
ATOM     84  O   UNL     1      17.023  -4.379  -0.004  1.00  0.00    -0.237 OA
ATOM     85  O   UNL     1      15.183  -3.559   1.437  1.00  0.00    -0.237 OA
ATOM     86  O   UNL     1      15.481  -5.979   1.067  1.00  0.00    -0.744 OA
ENDBRANCH  79  83
ENDBRANCH  52  76
BRANCH  64  87
ATOM     87  C   UNL     1      19.799  -0.678  -5.845  1.00  0.00     0.023 A 
ATOM     88  C   UNL     1      20.341  -1.917  -6.226  1.00  0.00     0.031 A 
ATOM     89  C   UNL     1      20.669   0.277  -5.285  1.00  0.00     0.131 A 
ATOM     90  C   UNL     1      21.697  -2.191  -5.989  1.00  0.00     0.055 A 
ATOM     91  C   UNL     1      22.031   0.025  -5.117  1.00  0.00     0.041 A 
ATOM     92  F   UNL     1      20.209   1.478  -4.898  1.00  0.00    -0.206 F 
ATOM     93  C   UNL     1      22.549  -1.221  -5.455  1.00  0.00     0.022 A 
BRANCH  90  94
ATOM     94  S   UNL     1      22.314  -3.870  -6.290  1.00  0.00     0.124 S 
ATOM     95  O   UNL     1      21.451  -4.671  -5.428  1.00  0.00    -0.237 OA
ATOM     96  O   UNL     1      22.105  -4.027  -7.726  1.00  0.00    -0.237 OA
ATOM     97  O   UNL     1      23.714  -3.801  -5.873  1.00  0.00    -0.744 OA
ENDBRANCH  90  94
ENDBRANCH  64  87
ENDBRANCH  38  39
ENDBRANCH  31  33
ENDBRANCH  30  31
ENDBRANCH  29  30
ENDBRANCH  28  29
ENDBRANCH  27  28
ENDBRANCH   1  27
TORSDOF 23
