REMARK SMILES COc1ccc2c(c1)c(CC(=O)OCCOCCOCCOC(=O)c1ccc(-c3c4nc(c(-c5cc(S(=O)(=O)[O-])ccc5F)c5ccc([nH]5)c(-c5cc(S(=O)(=O)[O-])ccc5F)c5nc(c(-c6cc(S(=O)(=O)[O-])ccc6F)c6ccc3[nH]6)C=C5)C=C4)cc1)c(C)n2Cc1ccc(Br)cc1
REMARK SMILES IDX 17 1 16 2 15 3 14 4 13 5 11 6 12 7 10 8 9 9 3 10 4 11 8 12
REMARK SMILES IDX 5 13 7 14 6 15 90 16 88 17 89 18 2 19 1 20 91 21 92 22 93 23
REMARK SMILES IDX 98 24 94 25 97 26 95 27 96 28 18 29 19 30 20 31 21 32 22 33
REMARK SMILES IDX 23 34 24 35 25 36 26 37 87 38 27 39 86 40 28 41 29 42 30 43
REMARK SMILES IDX 80 44 31 45 85 46 79 47 81 48 32 49 84 50 78 51 77 52 33 54
REMARK SMILES IDX 65 55 45 56 64 57 46 58 49 59 63 60 82 61 47 62 48 63 62 65
REMARK SMILES IDX 83 66 50 67 34 68 35 69 43 70 36 71 42 72 44 73 41 74 37 75
REMARK SMILES IDX 38 76 39 77 40 78 66 79 67 80 75 81 68 82 74 83 76 84 73 85
REMARK SMILES IDX 69 86 70 87 71 88 72 89 51 90 52 91 60 92 53 93 59 94 61 95
REMARK SMILES IDX 58 96 54 97 55 98 56 99 57 100
REMARK H PARENT 81 53 49 64
REMARK Flexibility Score: inf
ROOT
ATOM      1  C   UNL     1      -2.216  -3.119  -4.466  1.00  0.00     0.188 C 
ENDROOT
BRANCH   1   2
ATOM      2  O   UNL     1      -2.543  -4.128  -5.401  1.00  0.00    -0.376 OA
BRANCH   2   3
ATOM      3  C   UNL     1      -1.643  -4.448  -6.446  1.00  0.00     0.202 C 
BRANCH   3   4
ATOM      4  C   UNL     1      -1.456  -3.400  -7.547  1.00  0.00     0.261 C 
BRANCH   4   5
ATOM      5  O   UNL     1      -0.669  -2.252  -7.134  1.00  0.00    -0.463 OA
BRANCH   5   6
ATOM      6  C   UNL     1      -1.372  -1.094  -7.094  1.00  0.00     0.310 C 
ATOM      7  O   UNL     1      -2.534  -1.055  -7.505  1.00  0.00    -0.252 OA
BRANCH   6   8
ATOM      8  C   UNL     1      -0.797   0.095  -6.336  1.00  0.00     0.160 C 
BRANCH   8   9
ATOM      9  C   UNL     1       0.631   0.539  -6.228  1.00  0.00    -0.008 A 
ATOM     10  C   UNL     1       2.467   0.270  -2.833  1.00  0.00     0.119 A 
ATOM     11  C   UNL     1       3.587   0.998  -3.191  1.00  0.00     0.048 A 
ATOM     12  C   UNL     1       1.476  -0.009  -3.782  1.00  0.00     0.057 A 
ATOM     13  C   UNL     1       3.709   1.501  -4.492  1.00  0.00     0.031 A 
ATOM     14  C   UNL     1       1.535   0.508  -5.094  1.00  0.00     0.007 A 
ATOM     15  C   UNL     1       2.661   1.278  -5.410  1.00  0.00     0.049 A 
ATOM     16  N   UNL     1       2.467   1.724  -6.700  1.00  0.00    -0.340 N 
ATOM     17  C   UNL     1       1.152   1.532  -7.050  1.00  0.00     0.020 A 
ATOM     18  C   UNL     1       0.439   2.359  -8.071  1.00  0.00     0.065 C 
BRANCH  10  19
ATOM     19  O   UNL     1       2.310  -0.258  -1.577  1.00  0.00    -0.497 OA
ATOM     20  C   UNL     1       2.232   0.744  -0.558  1.00  0.00     0.278 C 
ENDBRANCH  10  19
BRANCH  16  21
ATOM     21  C   UNL     1       3.491   2.247  -7.599  1.00  0.00     0.157 C 
BRANCH  21  22
ATOM     22  C   UNL     1       3.723   1.205  -8.680  1.00  0.00    -0.028 A 
ATOM     23  C   UNL     1       2.936   1.205  -9.844  1.00  0.00     0.007 A 
ATOM     24  C   UNL     1       4.564   0.111  -8.432  1.00  0.00     0.007 A 
ATOM     25  C   UNL     1       2.916   0.098 -10.691  1.00  0.00     0.016 A 
ATOM     26  C   UNL     1       4.577  -0.981  -9.302  1.00  0.00     0.016 A 
ATOM     27  C   UNL     1       3.734  -0.992 -10.412  1.00  0.00     0.017 A 
ATOM     28  Br  UNL     1       3.674  -2.515 -11.530  1.00  0.00    -0.051 Br
ENDBRANCH  21  22
ENDBRANCH  16  21
ENDBRANCH   8   9
ENDBRANCH   6   8
ENDBRANCH   5   6
ENDBRANCH   4   5
ENDBRANCH   3   4
ENDBRANCH   2   3
ENDBRANCH   1   2
BRANCH   1  29
ATOM     29  C   UNL     1      -0.779  -2.628  -4.276  1.00  0.00     0.188 C 
BRANCH  29  30
ATOM     30  O   UNL     1       0.310  -3.521  -4.336  1.00  0.00    -0.376 OA
BRANCH  30  31
ATOM     31  C   UNL     1       0.357  -4.517  -3.331  1.00  0.00     0.202 C 
BRANCH  31  32
ATOM     32  C   UNL     1       0.251  -4.017  -1.877  1.00  0.00     0.261 C 
BRANCH  32  33
ATOM     33  O   UNL     1      -1.047  -3.422  -1.613  1.00  0.00    -0.460 OA
BRANCH  33  34
ATOM     34  C   UNL     1      -1.034  -2.359  -0.753  1.00  0.00     0.338 C 
ATOM     35  O   UNL     1      -0.237  -2.200   0.151  1.00  0.00    -0.246 OA
BRANCH  34  36
ATOM     36  C   UNL     1      -1.875  -1.257  -1.332  1.00  0.00     0.060 A 
ATOM     37  C   UNL     1      -3.182  -1.395  -1.810  1.00  0.00     0.016 A 
ATOM     38  C   UNL     1      -1.190  -0.076  -1.610  1.00  0.00     0.016 A 
ATOM     39  C   UNL     1      -3.756  -0.385  -2.625  1.00  0.00     0.010 A 
ATOM     40  C   UNL     1      -1.722   0.879  -2.478  1.00  0.00     0.010 A 
ATOM     41  C   UNL     1      -3.009   0.739  -3.011  1.00  0.00    -0.014 A 
BRANCH  41  42
ATOM     42  C   UNL     1      -3.544   1.923  -3.720  1.00  0.00     0.031 A 
ATOM     43  C   UNL     1      -4.064   2.965  -2.836  1.00  0.00     0.074 A 
ATOM     44  C   UNL     1      -3.631   2.237  -5.032  1.00  0.00     0.049 A 
ATOM     45  N   UNL     1      -5.327   3.104  -2.619  1.00  0.00    -0.248 NA
ATOM     46  C   UNL     1      -3.197   3.836  -2.056  1.00  0.00     0.031 C 
ATOM     47  C   UNL     1      -3.471   1.344  -6.147  1.00  0.00     0.029 A 
ATOM     48  N   UNL     1      -3.877   3.443  -5.657  1.00  0.00    -0.354 N 
ATOM     49  C   UNL     1      -5.454   4.208  -1.809  1.00  0.00     0.074 A 
ATOM     50  C   UNL     1      -4.112   4.517  -1.360  1.00  0.00     0.031 C 
ATOM     51  C   UNL     1      -3.380   2.034  -7.306  1.00  0.00     0.029 A 
ATOM     52  C   UNL     1      -3.605   3.446  -7.026  1.00  0.00     0.049 A 
ATOM     53  H   UNL     1      -4.215   4.234  -5.178  1.00  0.00     0.167 HD
ATOM     54  C   UNL     1      -6.644   4.864  -1.728  1.00  0.00     0.034 A 
ATOM     55  C   UNL     1      -4.056   4.252  -8.022  1.00  0.00     0.034 A 
ATOM     56  C   UNL     1      -7.702   4.137  -2.396  1.00  0.00     0.049 A 
ATOM     57  C   UNL     1      -5.420   4.679  -7.647  1.00  0.00     0.074 A 
ATOM     58  C   UNL     1      -8.297   2.906  -2.208  1.00  0.00     0.029 A 
ATOM     59  N   UNL     1      -8.054   4.532  -3.667  1.00  0.00    -0.354 N 
ATOM     60  N   UNL     1      -6.463   3.895  -7.678  1.00  0.00    -0.248 NA
ATOM     61  C   UNL     1      -5.564   5.875  -6.835  1.00  0.00     0.031 C 
ATOM     62  C   UNL     1      -8.617   2.433  -3.513  1.00  0.00     0.029 A 
ATOM     63  C   UNL     1      -8.243   3.410  -4.439  1.00  0.00     0.049 A 
ATOM     64  H   UNL     1      -8.154   5.463  -3.972  1.00  0.00     0.167 HD
ATOM     65  C   UNL     1      -7.175   4.226  -6.534  1.00  0.00     0.074 A 
ATOM     66  C   UNL     1      -6.644   5.527  -6.133  1.00  0.00     0.031 C 
ATOM     67  C   UNL     1      -7.944   3.313  -5.865  1.00  0.00     0.034 A 
BRANCH  54  68
ATOM     68  C   UNL     1      -6.792   6.277  -1.257  1.00  0.00     0.023 A 
ATOM     69  C   UNL     1      -5.706   7.163  -1.158  1.00  0.00     0.031 A 
ATOM     70  C   UNL     1      -8.067   6.827  -1.032  1.00  0.00     0.131 A 
ATOM     71  C   UNL     1      -5.883   8.499  -0.789  1.00  0.00     0.055 A 
ATOM     72  C   UNL     1      -8.253   8.181  -0.735  1.00  0.00     0.041 A 
ATOM     73  F   UNL     1      -9.174   6.074  -1.131  1.00  0.00    -0.206 F 
ATOM     74  C   UNL     1      -7.156   9.023  -0.599  1.00  0.00     0.022 A 
BRANCH  71  75
ATOM     75  S   UNL     1      -4.441   9.565  -0.527  1.00  0.00     0.124 S 
ATOM     76  O   UNL     1      -4.595  10.543  -1.597  1.00  0.00    -0.237 OA
ATOM     77  O   UNL     1      -4.676  10.060   0.827  1.00  0.00    -0.237 OA
ATOM     78  O   UNL     1      -3.311   8.649  -0.659  1.00  0.00    -0.744 OA
ENDBRANCH  71  75
ENDBRANCH  54  68
BRANCH  55  79
ATOM     79  C   UNL     1      -3.148   5.061  -8.882  1.00  0.00     0.023 A 
ATOM     80  C   UNL     1      -1.824   5.351  -8.492  1.00  0.00     0.031 A 
ATOM     81  C   UNL     1      -3.602   5.646 -10.077  1.00  0.00     0.131 A 
ATOM     82  C   UNL     1      -1.012   6.194  -9.270  1.00  0.00     0.055 A 
ATOM     83  C   UNL     1      -2.790   6.484 -10.855  1.00  0.00     0.041 A 
ATOM     84  F   UNL     1      -4.853   5.424 -10.511  1.00  0.00    -0.206 F 
ATOM     85  C   UNL     1      -1.488   6.763 -10.452  1.00  0.00     0.022 A 
BRANCH  82  86
ATOM     86  S   UNL     1       0.693   6.575  -8.767  1.00  0.00     0.124 S 
ATOM     87  O   UNL     1       1.436   6.383 -10.011  1.00  0.00    -0.237 OA
ATOM     88  O   UNL     1       0.573   7.955  -8.314  1.00  0.00    -0.237 OA
ATOM     89  O   UNL     1       0.980   5.588  -7.732  1.00  0.00    -0.744 OA
ENDBRANCH  82  86
ENDBRANCH  55  79
BRANCH  67  90
ATOM     90  C   UNL     1      -8.284   1.975  -6.517  1.00  0.00     0.023 A 
ATOM     91  C   UNL     1      -9.610   1.511  -6.422  1.00  0.00     0.031 A 
ATOM     92  C   UNL     1      -7.326   1.052  -6.972  1.00  0.00     0.131 A 
ATOM     93  C   UNL     1      -9.918   0.166  -6.685  1.00  0.00     0.055 A 
ATOM     94  C   UNL     1      -7.641  -0.277  -7.282  1.00  0.00     0.041 A 
ATOM     95  F   UNL     1      -6.038   1.378  -7.062  1.00  0.00    -0.206 F 
ATOM     96  C   UNL     1      -8.940  -0.734  -7.114  1.00  0.00     0.022 A 
BRANCH  93  97
ATOM     97  S   UNL     1     -11.569  -0.491  -6.331  1.00  0.00     0.124 S 
ATOM     98  O   UNL     1     -12.006  -0.955  -7.645  1.00  0.00    -0.237 OA
ATOM     99  O   UNL     1     -11.281  -1.546  -5.361  1.00  0.00    -0.237 OA
ATOM    100  O   UNL     1     -12.300   0.655  -5.800  1.00  0.00    -0.744 OA
ENDBRANCH  93  97
ENDBRANCH  67  90
ENDBRANCH  41  42
ENDBRANCH  34  36
ENDBRANCH  33  34
ENDBRANCH  32  33
ENDBRANCH  31  32
ENDBRANCH  30  31
ENDBRANCH  29  30
ENDBRANCH   1  29
TORSDOF 24
