REMARK SMILES COc1cc(NC(=O)c2ccc([N+](=O)[O-])cc2)c(C(=O)OCCOCCOCCOC(=O)c2ccc(-c3c4nc(c(-c5cc(S(=O)(=O)[O-])ccc5F)c5ccc([nH]5)c(-c5cc(S(=O)(=O)[O-])ccc5F)c5nc(c(-c6cc(S(=O)(=O)[O-])ccc6F)c6ccc3[nH]6)C=C5)C=C4)cc2)cc1OC
REMARK SMILES IDX 25 1 24 2 23 3 22 4 21 5 19 6 20 7 18 8 3 9 4 10 97 11 5 12
REMARK SMILES IDX 96 13 2 14 1 15 98 16 99 17 6 18 7 19 8 21 9 22 10 23 17 24
REMARK SMILES IDX 11 25 16 26 12 27 13 28 14 29 15 30 26 31 27 32 28 33 29 34
REMARK SMILES IDX 30 35 31 36 32 37 33 38 34 39 95 40 35 41 94 42 36 43 37 44
REMARK SMILES IDX 38 45 88 46 39 47 93 48 87 49 89 50 40 51 92 52 86 53 85 54
REMARK SMILES IDX 41 56 73 57 53 58 72 59 54 60 57 61 71 62 90 63 55 64 56 65
REMARK SMILES IDX 70 67 91 68 58 69 42 70 43 71 51 72 44 73 50 74 52 75 49 76
REMARK SMILES IDX 45 77 46 78 47 79 48 80 74 81 75 82 83 83 76 84 82 85 84 86
REMARK SMILES IDX 81 87 77 88 78 89 79 90 80 91 59 92 60 93 68 94 61 95 67 96
REMARK SMILES IDX 69 97 66 98 62 99 63 100 64 101 65 102
REMARK H PARENT 6 20 89 55 57 66
REMARK Flexibility Score: inf
ROOT
ATOM      1  C   UNL     1       1.847   2.725   7.614  1.00  0.00     0.188 C 
ENDROOT
BRANCH   1   2
ATOM      2  O   UNL     1       2.325   2.172   8.829  1.00  0.00    -0.376 OA
BRANCH   2   3
ATOM      3  C   UNL     1       3.244   1.091   8.805  1.00  0.00     0.202 C 
BRANCH   3   4
ATOM      4  C   UNL     1       2.870  -0.173   8.035  1.00  0.00     0.261 C 
BRANCH   4   5
ATOM      5  O   UNL     1       2.778   0.059   6.621  1.00  0.00    -0.460 OA
BRANCH   5   6
ATOM      6  C   UNL     1       1.596  -0.288   6.059  1.00  0.00     0.340 C 
ATOM      7  O   UNL     1       0.638  -0.787   6.627  1.00  0.00    -0.246 OA
BRANCH   6   8
ATOM      8  C   UNL     1       1.537   0.168   4.654  1.00  0.00     0.087 A 
ATOM      9  C   UNL     1       1.424   0.837   1.958  1.00  0.00     0.162 A 
ATOM     10  C   UNL     1       0.370   1.184   2.821  1.00  0.00     0.077 A 
ATOM     11  C   UNL     1       2.585   0.240   2.455  1.00  0.00     0.161 A 
ATOM     12  C   UNL     1       0.381   0.813   4.168  1.00  0.00     0.060 A 
ATOM     13  C   UNL     1       2.634  -0.080   3.814  1.00  0.00     0.068 A 
BRANCH   9  14
ATOM     14  O   UNL     1       1.284   1.145   0.630  1.00  0.00    -0.493 OA
ATOM     15  C   UNL     1       0.307   0.302   0.009  1.00  0.00     0.278 C 
ENDBRANCH   9  14
BRANCH  11  16
ATOM     16  O   UNL     1       3.726  -0.099   1.784  1.00  0.00    -0.493 OA
ATOM     17  C   UNL     1       3.740   0.014   0.368  1.00  0.00     0.278 C 
ENDBRANCH  11  16
BRANCH  12  18
ATOM     18  N   UNL     1      -0.671   1.120   5.064  1.00  0.00    -0.321 N 
ATOM     19  C   UNL     1      -1.937   1.631   4.899  1.00  0.00     0.255 C 
ATOM     20  H   UNL     1      -0.449   0.928   6.004  1.00  0.00     0.170 HD
ATOM     21  O   UNL     1      -2.526   2.106   5.863  1.00  0.00    -0.269 OA
BRANCH  19  22
ATOM     22  C   UNL     1      -2.629   1.538   3.605  1.00  0.00     0.040 A 
ATOM     23  C   UNL     1      -3.158   2.691   3.013  1.00  0.00     0.021 A 
ATOM     24  C   UNL     1      -2.730   0.292   2.972  1.00  0.00     0.021 A 
ATOM     25  C   UNL     1      -3.692   2.618   1.723  1.00  0.00     0.086 A 
ATOM     26  C   UNL     1      -3.264   0.214   1.687  1.00  0.00     0.086 A 
ATOM     27  C   UNL     1      -3.712   1.383   1.055  1.00  0.00     0.269 A 
BRANCH  27  28
ATOM     28  N   UNL     1      -4.134   1.316  -0.348  1.00  0.00     0.062 N 
ATOM     29  O   UNL     1      -4.689   2.308  -0.839  1.00  0.00    -0.258 OA
ATOM     30  O   UNL     1      -3.850   0.285  -0.979  1.00  0.00    -0.258 OA
ENDBRANCH  27  28
ENDBRANCH  19  22
ENDBRANCH  12  18
ENDBRANCH   6   8
ENDBRANCH   5   6
ENDBRANCH   4   5
ENDBRANCH   3   4
ENDBRANCH   2   3
ENDBRANCH   1   2
BRANCH   1  31
ATOM     31  C   UNL     1       2.830   3.182   6.516  1.00  0.00     0.188 C 
BRANCH  31  32
ATOM     32  O   UNL     1       4.211   3.348   6.788  1.00  0.00    -0.376 OA
BRANCH  32  33
ATOM     33  C   UNL     1       4.619   4.086   7.929  1.00  0.00     0.202 C 
BRANCH  33  34
ATOM     34  C   UNL     1       4.144   5.527   8.115  1.00  0.00     0.261 C 
BRANCH  34  35
ATOM     35  O   UNL     1       2.719   5.677   8.096  1.00  0.00    -0.460 OA
BRANCH  35  36
ATOM     36  C   UNL     1       2.241   6.426   7.072  1.00  0.00     0.338 C 
ATOM     37  O   UNL     1       2.889   6.968   6.192  1.00  0.00    -0.246 OA
BRANCH  36  38
ATOM     38  C   UNL     1       0.769   6.374   7.066  1.00  0.00     0.060 A 
ATOM     39  C   UNL     1       0.132   5.887   5.918  1.00  0.00     0.016 A 
ATOM     40  C   UNL     1       0.025   6.865   8.140  1.00  0.00     0.016 A 
ATOM     41  C   UNL     1      -1.258   5.920   5.829  1.00  0.00     0.010 A 
ATOM     42  C   UNL     1      -1.369   6.917   8.039  1.00  0.00     0.010 A 
ATOM     43  C   UNL     1      -2.014   6.472   6.872  1.00  0.00    -0.014 A 
BRANCH  43  44
ATOM     44  C   UNL     1      -3.460   6.735   6.667  1.00  0.00     0.031 A 
ATOM     45  C   UNL     1      -3.884   8.096   6.190  1.00  0.00     0.074 A 
ATOM     46  C   UNL     1      -4.377   5.774   6.879  1.00  0.00     0.049 A 
ATOM     47  N   UNL     1      -5.086   8.562   5.973  1.00  0.00    -0.248 NA
ATOM     48  C   UNL     1      -2.805   9.061   5.930  1.00  0.00     0.031 C 
ATOM     49  C   UNL     1      -4.075   4.413   7.307  1.00  0.00     0.029 A 
ATOM     50  N   UNL     1      -5.744   5.795   6.759  1.00  0.00    -0.354 N 
ATOM     51  C   UNL     1      -4.912   9.882   5.573  1.00  0.00     0.074 A 
ATOM     52  C   UNL     1      -3.488  10.142   5.585  1.00  0.00     0.031 C 
ATOM     53  C   UNL     1      -5.223   3.720   7.403  1.00  0.00     0.029 A 
ATOM     54  C   UNL     1      -6.345   4.603   7.096  1.00  0.00     0.049 A 
ATOM     55  H   UNL     1      -6.247   6.586   6.461  1.00  0.00     0.167 HD
ATOM     56  C   UNL     1      -5.857  10.793   5.236  1.00  0.00     0.034 A 
ATOM     57  C   UNL     1      -7.651   4.273   7.171  1.00  0.00     0.034 A 
ATOM     58  C   UNL     1      -7.274  10.520   5.242  1.00  0.00     0.049 A 
ATOM     59  C   UNL     1      -8.685   5.324   6.839  1.00  0.00     0.074 A 
ATOM     60  C   UNL     1      -8.314  11.366   4.901  1.00  0.00     0.029 A 
ATOM     61  N   UNL     1      -7.851   9.315   5.623  1.00  0.00    -0.354 N 
ATOM     62  N   UNL     1      -8.508   6.565   6.445  1.00  0.00    -0.248 NA
ATOM     63  C   UNL     1     -10.096   4.931   6.964  1.00  0.00     0.031 C 
ATOM     64  C   UNL     1      -9.520  10.699   5.144  1.00  0.00     0.029 A 
ATOM     65  C   UNL     1      -9.233   9.409   5.561  1.00  0.00     0.049 A 
ATOM     66  H   UNL     1      -7.351   8.512   5.897  1.00  0.00     0.167 HD
ATOM     67  C   UNL     1      -9.784   7.091   6.257  1.00  0.00     0.074 A 
ATOM     68  C   UNL     1     -10.719   6.026   6.556  1.00  0.00     0.031 C 
ATOM     69  C   UNL     1     -10.152   8.340   5.874  1.00  0.00     0.034 A 
BRANCH  56  70
ATOM     70  C   UNL     1      -5.386  12.188   4.912  1.00  0.00     0.023 A 
ATOM     71  C   UNL     1      -4.602  12.466   3.779  1.00  0.00     0.031 A 
ATOM     72  C   UNL     1      -5.705  13.253   5.773  1.00  0.00     0.131 A 
ATOM     73  C   UNL     1      -4.112  13.765   3.572  1.00  0.00     0.055 A 
ATOM     74  C   UNL     1      -5.275  14.557   5.522  1.00  0.00     0.041 A 
ATOM     75  F   UNL     1      -6.429  13.041   6.883  1.00  0.00    -0.206 F 
ATOM     76  C   UNL     1      -4.463  14.817   4.423  1.00  0.00     0.022 A 
BRANCH  73  77
ATOM     77  S   UNL     1      -2.904  14.037   2.246  1.00  0.00     0.124 S 
ATOM     78  O   UNL     1      -1.821  13.141   2.645  1.00  0.00    -0.237 OA
ATOM     79  O   UNL     1      -3.650  13.647   1.055  1.00  0.00    -0.237 OA
ATOM     80  O   UNL     1      -2.595  15.462   2.351  1.00  0.00    -0.744 OA
ENDBRANCH  73  77
ENDBRANCH  56  70
BRANCH  57  81
ATOM     81  C   UNL     1      -8.073   2.916   7.630  1.00  0.00     0.023 A 
ATOM     82  C   UNL     1      -8.822   2.066   6.800  1.00  0.00     0.031 A 
ATOM     83  C   UNL     1      -7.800   2.481   8.940  1.00  0.00     0.131 A 
ATOM     84  C   UNL     1      -9.317   0.852   7.303  1.00  0.00     0.055 A 
ATOM     85  C   UNL     1      -8.243   1.246   9.416  1.00  0.00     0.041 A 
ATOM     86  F   UNL     1      -7.098   3.256   9.782  1.00  0.00    -0.206 F 
ATOM     87  C   UNL     1      -9.020   0.430   8.601  1.00  0.00     0.022 A 
BRANCH  84  88
ATOM     88  S   UNL     1     -10.447  -0.122   6.271  1.00  0.00     0.124 S 
ATOM     89  O   UNL     1     -11.510   0.840   6.002  1.00  0.00    -0.237 OA
ATOM     90  O   UNL     1      -9.598  -0.473   5.137  1.00  0.00    -0.237 OA
ATOM     91  O   UNL     1     -10.822  -1.240   7.135  1.00  0.00    -0.744 OA
ENDBRANCH  84  88
ENDBRANCH  57  81
BRANCH  69  92
ATOM     92  C   UNL     1     -11.631   8.604   5.719  1.00  0.00     0.023 A 
ATOM     93  C   UNL     1     -12.502   8.613   6.822  1.00  0.00     0.031 A 
ATOM     94  C   UNL     1     -12.175   8.845   4.444  1.00  0.00     0.131 A 
ATOM     95  C   UNL     1     -13.878   8.807   6.625  1.00  0.00     0.055 A 
ATOM     96  C   UNL     1     -13.535   9.095   4.261  1.00  0.00     0.041 A 
ATOM     97  F   UNL     1     -11.389   8.847   3.356  1.00  0.00    -0.206 F 
ATOM     98  C   UNL     1     -14.397   9.064   5.353  1.00  0.00     0.022 A 
BRANCH  95  99
ATOM     99  S   UNL     1     -14.997   8.635   8.042  1.00  0.00     0.124 S 
ATOM    100  O   UNL     1     -14.729   7.268   8.478  1.00  0.00    -0.237 OA
ATOM    101  O   UNL     1     -14.534   9.691   8.936  1.00  0.00    -0.237 OA
ATOM    102  O   UNL     1     -16.322   8.852   7.463  1.00  0.00    -0.744 OA
ENDBRANCH  95  99
ENDBRANCH  69  92
ENDBRANCH  43  44
ENDBRANCH  36  38
ENDBRANCH  35  36
ENDBRANCH  34  35
ENDBRANCH  33  34
ENDBRANCH  32  33
ENDBRANCH  31  32
ENDBRANCH   1  31
TORSDOF 25
