REMARK SMILES CCC(CC)(NC(=O)N[C@H](C)C1CC1)C(=O)OCCOCCOCCOC(=O)c1ccc(-c2c3nc(c(-c4cc(S(=O)(=O)[O-])ccc4F)c4ccc([nH]4)c(-c4cc(S(=O)(=O)[O-])ccc4F)c4nc(c(-c5cc(S(=O)(=O)[O-])ccc5F)c5ccc2[nH]5)C=C4)C=C3)cc1
REMARK SMILES IDX 21 1 20 2 19 3 18 4 17 5 15 6 16 7 3 8 2 9 1 10 4 11 5 12
REMARK SMILES IDX 6 13 7 14 8 16 9 17 10 19 11 20 12 21 13 22 14 23 22 24
REMARK SMILES IDX 23 25 24 26 25 27 26 28 27 29 28 30 29 31 30 32 91 33 31 34
REMARK SMILES IDX 90 35 32 36 33 37 34 38 84 39 35 40 89 41 83 42 85 43 36 44
REMARK SMILES IDX 88 45 82 46 81 47 37 49 69 50 49 51 68 52 50 53 53 54 67 55
REMARK SMILES IDX 86 56 51 57 52 58 66 60 87 61 54 62 38 63 39 64 47 65 40 66
REMARK SMILES IDX 46 67 48 68 45 69 41 70 42 71 43 72 44 73 70 74 71 75 79 76
REMARK SMILES IDX 72 77 78 78 80 79 77 80 73 81 74 82 75 83 76 84 55 85 56 86
REMARK SMILES IDX 64 87 57 88 63 89 65 90 62 91 58 92 59 93 60 94 61 95
REMARK H PARENT 6 15 9 18 85 48 53 59
REMARK Flexibility Score: inf
ROOT
ATOM      1  C   UNL     1       1.567  -1.873  -2.950  1.00  0.00     0.188 C 
ENDROOT
BRANCH   1   2
ATOM      2  O   UNL     1       0.619  -1.465  -3.934  1.00  0.00    -0.376 OA
BRANCH   2   3
ATOM      3  C   UNL     1       1.034  -0.333  -4.704  1.00  0.00     0.202 C 
BRANCH   3   4
ATOM      4  C   UNL     1       0.918   0.968  -3.905  1.00  0.00     0.261 C 
BRANCH   4   5
ATOM      5  O   UNL     1       2.001   0.985  -2.957  1.00  0.00    -0.461 OA
BRANCH   5   6
ATOM      6  C   UNL     1       1.726   1.146  -1.646  1.00  0.00     0.331 C 
ATOM      7  O   UNL     1       0.664   1.617  -1.256  1.00  0.00    -0.249 OA
BRANCH   6   8
ATOM      8  C   UNL     1       2.962   0.826  -0.719  1.00  0.00     0.139 C 
BRANCH   8   9
ATOM      9  C   UNL     1       2.396   0.078   0.549  1.00  0.00     0.037 C 
ATOM     10  C   UNL     1       1.266   0.693   1.355  1.00  0.00     0.007 C 
ENDBRANCH   8   9
BRANCH   8  11
ATOM     11  C   UNL     1       3.560   2.208  -0.375  1.00  0.00     0.037 C 
ATOM     12  C   UNL     1       4.696   2.215   0.635  1.00  0.00     0.007 C 
ENDBRANCH   8  11
BRANCH   8  13
ATOM     13  N   UNL     1       4.050  -0.152  -1.162  1.00  0.00    -0.322 N 
ATOM     14  C   UNL     1       5.006  -0.493  -2.005  1.00  0.00     0.315 C 
ATOM     15  H   UNL     1       4.027  -0.877  -0.497  1.00  0.00     0.166 HD
ATOM     16  O   UNL     1       5.685  -1.466  -1.656  1.00  0.00    -0.249 OA
ATOM     17  N   UNL     1       5.314   0.052  -3.166  1.00  0.00    -0.335 N 
ATOM     18  H   UNL     1       5.984  -0.466  -3.667  1.00  0.00     0.165 HD
BRANCH  17  19
ATOM     19  C   UNL     1       4.886   1.232  -3.859  1.00  0.00     0.083 C 
ATOM     20  C   UNL     1       4.845   0.974  -5.363  1.00  0.00     0.031 C 
BRANCH  19  21
ATOM     21  C   UNL     1       5.736   2.375  -3.394  1.00  0.00     0.011 C 
ATOM     22  C   UNL     1       6.802   3.068  -4.197  1.00  0.00     0.006 C 
ATOM     23  C   UNL     1       5.483   3.752  -3.947  1.00  0.00     0.006 C 
ENDBRANCH  19  21
ENDBRANCH  17  19
ENDBRANCH   8  13
ENDBRANCH   6   8
ENDBRANCH   5   6
ENDBRANCH   4   5
ENDBRANCH   3   4
ENDBRANCH   2   3
ENDBRANCH   1   2
BRANCH   1  24
ATOM     24  C   UNL     1       2.474  -2.975  -3.432  1.00  0.00     0.188 C 
BRANCH  24  25
ATOM     25  O   UNL     1       3.318  -2.585  -4.516  1.00  0.00    -0.376 OA
BRANCH  25  26
ATOM     26  C   UNL     1       3.310  -3.534  -5.583  1.00  0.00     0.202 C 
BRANCH  26  27
ATOM     27  C   UNL     1       3.951  -4.900  -5.266  1.00  0.00     0.261 C 
BRANCH  27  28
ATOM     28  O   UNL     1       3.338  -5.539  -4.127  1.00  0.00    -0.460 OA
BRANCH  28  29
ATOM     29  C   UNL     1       4.101  -5.582  -3.001  1.00  0.00     0.338 C 
ATOM     30  O   UNL     1       5.306  -5.383  -2.947  1.00  0.00    -0.246 OA
BRANCH  29  31
ATOM     31  C   UNL     1       3.237  -5.687  -1.789  1.00  0.00     0.060 A 
ATOM     32  C   UNL     1       3.657  -5.011  -0.631  1.00  0.00     0.016 A 
ATOM     33  C   UNL     1       2.016  -6.370  -1.782  1.00  0.00     0.016 A 
ATOM     34  C   UNL     1       2.903  -5.077   0.544  1.00  0.00     0.010 A 
ATOM     35  C   UNL     1       1.263  -6.441  -0.599  1.00  0.00     0.010 A 
ATOM     36  C   UNL     1       1.727  -5.836   0.584  1.00  0.00    -0.014 A 
BRANCH  36  37
ATOM     37  C   UNL     1       1.142  -6.193   1.907  1.00  0.00     0.031 A 
ATOM     38  C   UNL     1       1.521  -7.526   2.506  1.00  0.00     0.074 A 
ATOM     39  C   UNL     1       0.354  -5.349   2.599  1.00  0.00     0.049 A 
ATOM     40  N   UNL     1       1.173  -8.060   3.648  1.00  0.00    -0.248 NA
ATOM     41  C   UNL     1       2.418  -8.367   1.698  1.00  0.00     0.031 C 
ATOM     42  C   UNL     1      -0.064  -4.021   2.155  1.00  0.00     0.029 A 
ATOM     43  N   UNL     1      -0.237  -5.489   3.834  1.00  0.00    -0.354 N 
ATOM     44  C   UNL     1       1.822  -9.290   3.704  1.00  0.00     0.074 A 
ATOM     45  C   UNL     1       2.531  -9.448   2.453  1.00  0.00     0.031 C 
ATOM     46  C   UNL     1      -0.852  -3.472   3.098  1.00  0.00     0.029 A 
ATOM     47  C   UNL     1      -1.014  -4.415   4.205  1.00  0.00     0.049 A 
ATOM     48  H   UNL     1      -0.114  -6.285   4.400  1.00  0.00     0.167 HD
ATOM     49  C   UNL     1       1.847 -10.198   4.710  1.00  0.00     0.034 A 
ATOM     50  C   UNL     1      -1.778  -4.225   5.302  1.00  0.00     0.034 A 
ATOM     51  C   UNL     1       1.115 -10.052   5.944  1.00  0.00     0.049 A 
ATOM     52  C   UNL     1      -1.807  -5.292   6.376  1.00  0.00     0.074 A 
ATOM     53  C   UNL     1       1.055 -10.921   7.020  1.00  0.00     0.029 A 
ATOM     54  N   UNL     1       0.307  -8.969   6.265  1.00  0.00    -0.354 N 
ATOM     55  N   UNL     1      -1.178  -6.445   6.419  1.00  0.00    -0.248 NA
ATOM     56  C   UNL     1      -2.636  -5.019   7.559  1.00  0.00     0.031 C 
ATOM     57  C   UNL     1       0.159 -10.397   7.959  1.00  0.00     0.029 A 
ATOM     58  C   UNL     1      -0.276  -9.161   7.509  1.00  0.00     0.049 A 
ATOM     59  H   UNL     1       0.167  -8.180   5.693  1.00  0.00     0.167 HD
ATOM     60  C   UNL     1      -1.516  -7.018   7.646  1.00  0.00     0.074 A 
ATOM     61  C   UNL     1      -2.377  -6.071   8.321  1.00  0.00     0.031 C 
ATOM     62  C   UNL     1      -1.149  -8.217   8.168  1.00  0.00     0.034 A 
BRANCH  49  63
ATOM     63  C   UNL     1       2.665 -11.447   4.488  1.00  0.00     0.023 A 
ATOM     64  C   UNL     1       4.062 -11.394   4.329  1.00  0.00     0.031 A 
ATOM     65  C   UNL     1       2.040 -12.703   4.397  1.00  0.00     0.131 A 
ATOM     66  C   UNL     1       4.777 -12.560   4.019  1.00  0.00     0.055 A 
ATOM     67  C   UNL     1       2.769 -13.873   4.168  1.00  0.00     0.041 A 
ATOM     68  F   UNL     1       0.708 -12.814   4.514  1.00  0.00    -0.206 F 
ATOM     69  C   UNL     1       4.144 -13.803   3.964  1.00  0.00     0.022 A 
BRANCH  66  70
ATOM     70  S   UNL     1       6.524 -12.410   3.552  1.00  0.00     0.124 S 
ATOM     71  O   UNL     1       6.441 -11.541   2.380  1.00  0.00    -0.237 OA
ATOM     72  O   UNL     1       7.120 -11.821   4.745  1.00  0.00    -0.237 OA
ATOM     73  O   UNL     1       6.922 -13.788   3.270  1.00  0.00    -0.744 OA
ENDBRANCH  66  70
ENDBRANCH  49  63
BRANCH  50  74
ATOM     74  C   UNL     1      -2.624  -2.999   5.441  1.00  0.00     0.023 A 
ATOM     75  C   UNL     1      -2.439  -2.091   6.497  1.00  0.00     0.031 A 
ATOM     76  C   UNL     1      -3.696  -2.769   4.560  1.00  0.00     0.131 A 
ATOM     77  C   UNL     1      -3.344  -1.032   6.679  1.00  0.00     0.055 A 
ATOM     78  C   UNL     1      -4.557  -1.681   4.710  1.00  0.00     0.041 A 
ATOM     79  F   UNL     1      -3.926  -3.608   3.537  1.00  0.00    -0.206 F 
ATOM     80  C   UNL     1      -4.393  -0.813   5.784  1.00  0.00     0.022 A 
BRANCH  77  81
ATOM     81  S   UNL     1      -3.194  -0.001   8.165  1.00  0.00     0.124 S 
ATOM     82  O   UNL     1      -3.301  -0.993   9.228  1.00  0.00    -0.237 OA
ATOM     83  O   UNL     1      -1.879   0.604   7.982  1.00  0.00    -0.237 OA
ATOM     84  O   UNL     1      -4.322   0.922   8.055  1.00  0.00    -0.744 OA
ENDBRANCH  77  81
ENDBRANCH  50  74
BRANCH  62  85
ATOM     85  C   UNL     1      -1.652  -8.547   9.556  1.00  0.00     0.023 A 
ATOM     86  C   UNL     1      -3.023  -8.704   9.829  1.00  0.00     0.031 A 
ATOM     87  C   UNL     1      -0.750  -8.674  10.628  1.00  0.00     0.131 A 
ATOM     88  C   UNL     1      -3.457  -8.897  11.150  1.00  0.00     0.055 A 
ATOM     89  C   UNL     1      -1.183  -8.938  11.929  1.00  0.00     0.041 A 
ATOM     90  F   UNL     1       0.571  -8.535  10.431  1.00  0.00    -0.206 F 
ATOM     91  C   UNL     1      -2.545  -9.032  12.199  1.00  0.00     0.022 A 
BRANCH  88  92
ATOM     92  S   UNL     1      -5.237  -8.840  11.498  1.00  0.00     0.124 S 
ATOM     93  O   UNL     1      -5.612  -7.540  10.951  1.00  0.00    -0.237 OA
ATOM     94  O   UNL     1      -5.733 -10.005  10.771  1.00  0.00    -0.237 OA
ATOM     95  O   UNL     1      -5.306  -8.944  12.954  1.00  0.00    -0.744 OA
ENDBRANCH  88  92
ENDBRANCH  62  85
ENDBRANCH  36  37
ENDBRANCH  29  31
ENDBRANCH  28  29
ENDBRANCH  27  28
ENDBRANCH  26  27
ENDBRANCH  25  26
ENDBRANCH  24  25
ENDBRANCH   1  24
TORSDOF 25
