REMARK SMILES Cc1cc(Cl)cc2c1O[C@H](C(F)(F)F)C(C(=O)OCCOCCOCCOC(=O)c1ccc(-c3c4nc(c(-c5cc(S(=O)(=O)[O-])ccc5F)c5ccc([nH]5)c(-c5cc(S(=O)(=O)[O-])ccc5F)c5nc(c(-c6cc(S(=O)(=O)[O-])ccc6F)c6ccc3[nH]6)C=C5)C=C4)cc1)=C2
REMARK SMILES IDX 23 1 22 2 21 3 20 4 19 5 18 6 16 7 17 8 15 9 1 10 2 11 3 12
REMARK SMILES IDX 8 13 4 14 7 15 9 16 5 17 6 18 93 19 10 20 11 21 12 22 13 23
REMARK SMILES IDX 14 24 24 25 25 26 26 27 27 28 28 29 29 30 30 31 31 32 92 33
REMARK SMILES IDX 32 34 91 35 33 36 34 37 35 38 85 39 36 40 90 41 84 42 86 43
REMARK SMILES IDX 37 44 89 45 83 46 82 47 38 49 70 50 50 51 69 52 51 53 54 54
REMARK SMILES IDX 68 55 87 56 52 57 53 58 67 60 88 61 55 62 39 63 40 64 48 65
REMARK SMILES IDX 41 66 47 67 49 68 46 69 42 70 43 71 44 72 45 73 71 74 72 75
REMARK SMILES IDX 80 76 73 77 79 78 81 79 78 80 74 81 75 82 76 83 77 84 56 85
REMARK SMILES IDX 57 86 65 87 58 88 64 89 66 90 63 91 59 92 60 93 61 94 62 95
REMARK H PARENT 86 48 54 59
REMARK Flexibility Score: inf
ROOT
ATOM      1  C   UNL     1       4.121  -6.381   0.689  1.00  0.00     0.188 C 
ENDROOT
BRANCH   1   2
ATOM      2  C   UNL     1       3.268  -7.590   1.130  1.00  0.00     0.188 C 
BRANCH   2   3
ATOM      3  O   UNL     1       3.363  -8.831   0.456  1.00  0.00    -0.376 OA
BRANCH   3   4
ATOM      4  C   UNL     1       3.196  -8.899  -0.951  1.00  0.00     0.202 C 
BRANCH   4   5
ATOM      5  C   UNL     1       1.999  -8.226  -1.621  1.00  0.00     0.261 C 
BRANCH   5   6
ATOM      6  O   UNL     1       1.884  -6.834  -1.299  1.00  0.00    -0.460 OA
BRANCH   6   7
ATOM      7  C   UNL     1       0.692  -6.468  -0.771  1.00  0.00     0.338 C 
ATOM      8  O   UNL     1      -0.288  -7.179  -0.617  1.00  0.00    -0.246 OA
BRANCH   7   9
ATOM      9  C   UNL     1       0.768  -5.075  -0.295  1.00  0.00     0.087 C 
ATOM     10  C   UNL     1       1.117   0.019   0.098  1.00  0.00     0.048 C 
ATOM     11  C   UNL     1       0.651  -1.100   0.986  1.00  0.00    -0.007 A 
ATOM     12  C   UNL     1       0.111  -0.808   2.247  1.00  0.00     0.027 A 
ATOM     13  C   UNL     1       0.752  -2.441   0.578  1.00  0.00     0.131 A 
ATOM     14  C   UNL     1      -0.330  -1.837   3.078  1.00  0.00     0.042 A 
ATOM     15  C   UNL     1       0.280  -3.467   1.405  1.00  0.00     0.019 A 
ATOM     16  O   UNL     1       1.323  -2.669  -0.644  1.00  0.00    -0.475 OA
ATOM     17  Cl  UNL     1      -0.998  -1.460   4.616  1.00  0.00    -0.084 Cl
ATOM     18  C   UNL     1      -0.251  -3.164   2.663  1.00  0.00     0.032 A 
ATOM     19  C   UNL     1       0.289  -4.841   0.933  1.00  0.00     0.027 C 
ATOM     20  C   UNL     1       1.348  -4.015  -1.187  1.00  0.00     0.316 C 
BRANCH  20  21
ATOM     21  C   UNL     1       0.684  -3.983  -2.571  1.00  0.00     0.430 C 
ATOM     22  F   UNL     1       1.207  -2.999  -3.344  1.00  0.00    -0.167 F 
ATOM     23  F   UNL     1       0.875  -5.140  -3.249  1.00  0.00    -0.167 F 
ATOM     24  F   UNL     1      -0.648  -3.773  -2.496  1.00  0.00    -0.167 F 
ENDBRANCH  20  21
ENDBRANCH   7   9
ENDBRANCH   6   7
ENDBRANCH   5   6
ENDBRANCH   4   5
ENDBRANCH   3   4
ENDBRANCH   2   3
ENDBRANCH   1   2
BRANCH   1  25
ATOM     25  O   UNL     1       5.123  -6.508  -0.301  1.00  0.00    -0.376 OA
BRANCH  25  26
ATOM     26  C   UNL     1       6.181  -7.439  -0.133  1.00  0.00     0.202 C 
BRANCH  26  27
ATOM     27  C   UNL     1       6.915  -7.619   1.200  1.00  0.00     0.261 C 
BRANCH  27  28
ATOM     28  O   UNL     1       6.074  -7.706   2.353  1.00  0.00    -0.460 OA
BRANCH  28  29
ATOM     29  C   UNL     1       6.216  -6.686   3.238  1.00  0.00     0.338 C 
ATOM     30  O   UNL     1       6.973  -5.736   3.149  1.00  0.00    -0.246 OA
BRANCH  29  31
ATOM     31  C   UNL     1       5.167  -6.793   4.266  1.00  0.00     0.060 A 
ATOM     32  C   UNL     1       4.237  -5.751   4.374  1.00  0.00     0.016 A 
ATOM     33  C   UNL     1       5.125  -7.882   5.138  1.00  0.00     0.016 A 
ATOM     34  C   UNL     1       3.265  -5.789   5.372  1.00  0.00     0.010 A 
ATOM     35  C   UNL     1       4.169  -7.904   6.156  1.00  0.00     0.010 A 
ATOM     36  C   UNL     1       3.252  -6.846   6.292  1.00  0.00    -0.014 A 
BRANCH  36  37
ATOM     37  C   UNL     1       2.410  -6.743   7.506  1.00  0.00     0.031 A 
ATOM     38  C   UNL     1       3.014  -6.137   8.743  1.00  0.00     0.074 A 
ATOM     39  C   UNL     1       1.124  -7.138   7.500  1.00  0.00     0.049 A 
ATOM     40  N   UNL     1       2.490  -5.980   9.930  1.00  0.00    -0.248 NA
ATOM     41  C   UNL     1       4.394  -5.637   8.620  1.00  0.00     0.031 C 
ATOM     42  C   UNL     1       0.408  -7.672   6.343  1.00  0.00     0.029 A 
ATOM     43  N   UNL     1       0.190  -7.141   8.505  1.00  0.00    -0.354 N 
ATOM     44  C   UNL     1       3.466  -5.347  10.690  1.00  0.00     0.074 A 
ATOM     45  C   UNL     1       4.627  -5.184   9.842  1.00  0.00     0.031 C 
ATOM     46  C   UNL     1      -0.858  -7.948   6.705  1.00  0.00     0.029 A 
ATOM     47  C   UNL     1      -1.031  -7.646   8.125  1.00  0.00     0.049 A 
ATOM     48  H   UNL     1       0.377  -6.812   9.414  1.00  0.00     0.167 HD
ATOM     49  C   UNL     1       3.397  -4.928  11.976  1.00  0.00     0.034 A 
ATOM     50  C   UNL     1      -2.150  -7.858   8.848  1.00  0.00     0.034 A 
ATOM     51  C   UNL     1       2.249  -5.116  12.822  1.00  0.00     0.049 A 
ATOM     52  C   UNL     1      -2.156  -7.508  10.318  1.00  0.00     0.074 A 
ATOM     53  C   UNL     1       2.090  -4.756  14.149  1.00  0.00     0.029 A 
ATOM     54  N   UNL     1       1.064  -5.720  12.428  1.00  0.00    -0.354 N 
ATOM     55  N   UNL     1      -1.208  -6.956  11.039  1.00  0.00    -0.248 NA
ATOM     56  C   UNL     1      -3.379  -7.820  11.072  1.00  0.00     0.031 C 
ATOM     57  C   UNL     1       0.832  -5.194  14.573  1.00  0.00     0.029 A 
ATOM     58  C   UNL     1       0.180  -5.768  13.492  1.00  0.00     0.049 A 
ATOM     59  H   UNL     1       0.879  -6.064  11.524  1.00  0.00     0.167 HD
ATOM     60  C   UNL     1      -1.731  -6.832  12.324  1.00  0.00     0.074 A 
ATOM     61  C   UNL     1      -3.076  -7.365  12.280  1.00  0.00     0.031 C 
ATOM     62  C   UNL     1      -1.153  -6.315  13.437  1.00  0.00     0.034 A 
BRANCH  49  63
ATOM     63  C   UNL     1       4.615  -4.260  12.551  1.00  0.00     0.023 A 
ATOM     64  C   UNL     1       5.013  -2.980  12.131  1.00  0.00     0.031 A 
ATOM     65  C   UNL     1       5.383  -4.907  13.535  1.00  0.00     0.131 A 
ATOM     66  C   UNL     1       6.172  -2.401  12.666  1.00  0.00     0.055 A 
ATOM     67  C   UNL     1       6.501  -4.300  14.107  1.00  0.00     0.041 A 
ATOM     68  F   UNL     1       5.057  -6.140  13.953  1.00  0.00    -0.206 F 
ATOM     69  C   UNL     1       6.905  -3.042  13.669  1.00  0.00     0.022 A 
BRANCH  66  70
ATOM     70  S   UNL     1       6.754  -0.826  11.982  1.00  0.00     0.124 S 
ATOM     71  O   UNL     1       7.100  -1.209  10.616  1.00  0.00    -0.237 OA
ATOM     72  O   UNL     1       5.587   0.036  12.128  1.00  0.00    -0.237 OA
ATOM     73  O   UNL     1       7.891  -0.483  12.834  1.00  0.00    -0.744 OA
ENDBRANCH  66  70
ENDBRANCH  49  63
BRANCH  50  74
ATOM     74  C   UNL     1      -3.353  -8.465   8.215  1.00  0.00     0.023 A 
ATOM     75  C   UNL     1      -4.540  -7.731   8.067  1.00  0.00     0.031 A 
ATOM     76  C   UNL     1      -3.345  -9.804   7.786  1.00  0.00     0.131 A 
ATOM     77  C   UNL     1      -5.681  -8.349   7.530  1.00  0.00     0.055 A 
ATOM     78  C   UNL     1      -4.470 -10.402   7.216  1.00  0.00     0.041 A 
ATOM     79  F   UNL     1      -2.235 -10.549   7.909  1.00  0.00    -0.206 F 
ATOM     80  C   UNL     1      -5.650  -9.675   7.093  1.00  0.00     0.022 A 
BRANCH  77  81
ATOM     81  S   UNL     1      -7.228  -7.405   7.452  1.00  0.00     0.124 S 
ATOM     82  O   UNL     1      -7.509  -7.180   8.865  1.00  0.00    -0.237 OA
ATOM     83  O   UNL     1      -6.830  -6.232   6.680  1.00  0.00    -0.237 OA
ATOM     84  O   UNL     1      -8.146  -8.314   6.768  1.00  0.00    -0.744 OA
ENDBRANCH  77  81
ENDBRANCH  50  74
BRANCH  62  85
ATOM     85  C   UNL     1      -1.977  -6.271  14.697  1.00  0.00     0.023 A 
ATOM     86  C   UNL     1      -2.270  -7.436  15.424  1.00  0.00     0.031 A 
ATOM     87  C   UNL     1      -2.426  -5.038  15.203  1.00  0.00     0.131 A 
ATOM     88  C   UNL     1      -3.014  -7.347  16.610  1.00  0.00     0.055 A 
ATOM     89  C   UNL     1      -3.127  -4.951  16.405  1.00  0.00     0.041 A 
ATOM     90  F   UNL     1      -2.166  -3.896  14.547  1.00  0.00    -0.206 F 
ATOM     91  C   UNL     1      -3.429  -6.111  17.114  1.00  0.00     0.022 A 
BRANCH  88  92
ATOM     92  S   UNL     1      -3.456  -8.875  17.481  1.00  0.00     0.124 S 
ATOM     93  O   UNL     1      -4.337  -9.528  16.518  1.00  0.00    -0.237 OA
ATOM     94  O   UNL     1      -2.158  -9.508  17.689  1.00  0.00    -0.237 OA
ATOM     95  O   UNL     1      -4.113  -8.399  18.698  1.00  0.00    -0.744 OA
ENDBRANCH  88  92
ENDBRANCH  62  85
ENDBRANCH  36  37
ENDBRANCH  29  31
ENDBRANCH  28  29
ENDBRANCH  27  28
ENDBRANCH  26  27
ENDBRANCH  25  26
ENDBRANCH   1  25
TORSDOF 21
