REMARK SMILES Cc1ccc(OC2(C(=O)OCCOCCOCCOC(=O)c3ccc(-c4c5nc(c(-c6cc(S(=O)(=O)[O-])ccc6F)c6ccc([nH]6)c(-c6cc(S(=O)(=O)[O-])ccc6F)c6nc(c(-c7cc(S(=O)(=O)[O-])ccc7F)c7ccc4[nH]7)C=C6)C=C5)cc3)CC[NH+](C[C@@H]3CC=CCC3)CC2)cn1
REMARK SMILES IDX 15 1 14 2 13 3 12 4 11 5 10 6 8 7 9 8 7 9 85 10 96 11 86 12
REMARK SMILES IDX 95 13 87 14 6 16 5 17 1 18 2 19 3 20 98 21 4 22 97 23 88 24
REMARK SMILES IDX 89 25 90 26 94 27 91 28 93 29 92 30 16 31 17 32 18 33 19 34
REMARK SMILES IDX 20 35 21 36 22 37 23 38 84 39 24 40 83 41 25 42 26 43 27 44
REMARK SMILES IDX 77 45 28 46 82 47 76 48 78 49 29 50 81 51 75 52 74 53 30 55
REMARK SMILES IDX 62 56 42 57 61 58 43 59 46 60 60 61 79 62 44 63 45 64 59 66
REMARK SMILES IDX 80 67 47 68 31 69 32 70 40 71 33 72 39 73 41 74 38 75 34 76
REMARK SMILES IDX 35 77 36 78 37 79 63 80 64 81 72 82 65 83 71 84 73 85 70 86
REMARK SMILES IDX 66 87 67 88 68 89 69 90 48 91 49 92 57 93 50 94 56 95 58 96
REMARK SMILES IDX 55 97 51 98 52 99 53 100 54 101
REMARK H PARENT 87 15 78 54 46 65
REMARK Flexibility Score: inf
ROOT
ATOM      1  C   UNL     1       1.133  -2.542  -5.343  1.00  0.00     0.188 C 
ENDROOT
BRANCH   1   2
ATOM      2  C   UNL     1       2.669  -2.397  -5.420  1.00  0.00     0.188 C 
BRANCH   2   3
ATOM      3  O   UNL     1       3.316  -2.273  -6.661  1.00  0.00    -0.376 OA
BRANCH   3   4
ATOM      4  C   UNL     1       3.621  -3.449  -7.392  1.00  0.00     0.202 C 
BRANCH   4   5
ATOM      5  C   UNL     1       3.926  -4.817  -6.719  1.00  0.00     0.261 C 
BRANCH   5   6
ATOM      6  O   UNL     1       2.955  -5.188  -5.728  1.00  0.00    -0.460 OA
BRANCH   6   7
ATOM      7  C   UNL     1       3.245  -5.688  -4.469  1.00  0.00     0.351 C 
ATOM      8  O   UNL     1       4.348  -6.099  -4.141  1.00  0.00    -0.247 OA
BRANCH   7   9
ATOM      9  C   UNL     1       1.990  -5.451  -3.516  1.00  0.00     0.216 C 
ATOM     10  C   UNL     1       0.833  -5.600  -4.553  1.00  0.00     0.122 C 
ATOM     11  C   UNL     1       1.660  -6.536  -2.476  1.00  0.00     0.122 C 
ATOM     12  C   UNL     1      -0.528  -5.347  -4.010  1.00  0.00     0.267 C 
ATOM     13  C   UNL     1       0.185  -6.402  -1.948  1.00  0.00     0.267 C 
ATOM     14  N   UNL     1      -0.851  -6.308  -2.989  1.00  0.00    -0.334 N 
ATOM     15  H   UNL     1      -0.801  -7.261  -3.350  1.00  0.00     0.348 HD
BRANCH   9  16
ATOM     16  O   UNL     1       2.546  -4.249  -2.862  1.00  0.00    -0.473 OA
BRANCH  16  17
ATOM     17  C   UNL     1       2.193  -3.103  -2.180  1.00  0.00     0.139 A 
ATOM     18  C   UNL     1       0.155   1.727  -1.675  1.00  0.00     0.066 C 
ATOM     19  C   UNL     1       1.041   0.476  -1.676  1.00  0.00     0.038 A 
ATOM     20  C   UNL     1      -0.035  -0.984  -1.315  1.00  0.00     0.027 A 
ATOM     21  N   UNL     1       2.900   0.030  -2.268  1.00  0.00    -0.258 NA
ATOM     22  C   UNL     1       0.521  -2.706  -1.603  1.00  0.00     0.050 A 
ATOM     23  C   UNL     1       3.386  -1.739  -2.398  1.00  0.00     0.157 A 
ENDBRANCH  16  17
ENDBRANCH   9  16
BRANCH  14  24
ATOM     24  C   UNL     1      -2.275  -6.201  -2.606  1.00  0.00     0.266 C 
BRANCH  24  25
ATOM     25  C   UNL     1      -2.952  -4.923  -1.996  1.00  0.00     0.048 C 
ATOM     26  C   UNL     1      -3.010  -3.654  -2.888  1.00  0.00     0.036 C 
ATOM     27  C   UNL     1      -2.494  -4.679  -0.554  1.00  0.00     0.014 C 
ATOM     28  C   UNL     1      -3.237  -2.368  -2.155  1.00  0.00    -0.031 C 
ATOM     29  C   UNL     1      -3.054  -3.419   0.103  1.00  0.00     0.027 C 
ATOM     30  C   UNL     1      -3.261  -2.267  -0.822  1.00  0.00    -0.031 C 
ENDBRANCH  24  25
ENDBRANCH  14  24
ENDBRANCH   7   9
ENDBRANCH   6   7
ENDBRANCH   5   6
ENDBRANCH   4   5
ENDBRANCH   3   4
ENDBRANCH   2   3
ENDBRANCH   1   2
BRANCH   1  31
ATOM     31  O   UNL     1       0.385  -2.842  -6.497  1.00  0.00    -0.376 OA
BRANCH  31  32
ATOM     32  C   UNL     1       0.403  -1.830  -7.497  1.00  0.00     0.202 C 
BRANCH  32  33
ATOM     33  C   UNL     1       0.371  -0.335  -7.107  1.00  0.00     0.261 C 
BRANCH  33  34
ATOM     34  O   UNL     1       1.317   0.049  -6.091  1.00  0.00    -0.460 OA
BRANCH  34  35
ATOM     35  C   UNL     1       0.754   0.493  -4.939  1.00  0.00     0.338 C 
ATOM     36  O   UNL     1      -0.421   0.772  -4.759  1.00  0.00    -0.246 OA
BRANCH  35  37
ATOM     37  C   UNL     1       1.687   0.391  -3.812  1.00  0.00     0.060 A 
ATOM     38  C   UNL     1       1.518  -0.967  -2.713  1.00  0.00     0.016 A 
ATOM     39  C   UNL     1       2.423   1.814  -3.293  1.00  0.00     0.016 A 
ATOM     40  C   UNL     1       2.211  -0.719  -0.808  1.00  0.00     0.010 A 
ATOM     41  C   UNL     1       2.988   2.046  -1.695  1.00  0.00     0.010 A 
ATOM     42  C   UNL     1       2.881   0.888  -0.418  1.00  0.00    -0.014 A 
BRANCH  42  43
ATOM     43  C   UNL     1       3.441   1.416   0.857  1.00  0.00     0.031 A 
ATOM     44  C   UNL     1       2.818   2.609   1.567  1.00  0.00     0.074 A 
ATOM     45  C   UNL     1       4.699   1.061   1.163  1.00  0.00     0.049 A 
ATOM     46  N   UNL     1       3.173   3.245   2.658  1.00  0.00    -0.248 NA
ATOM     47  C   UNL     1       1.619   3.183   0.957  1.00  0.00     0.031 C 
ATOM     48  C   UNL     1       5.477   0.057   0.441  1.00  0.00     0.029 A 
ATOM     49  N   UNL     1       5.569   1.550   2.101  1.00  0.00    -0.354 N 
ATOM     50  C   UNL     1       2.186   4.211   2.886  1.00  0.00     0.074 A 
ATOM     51  C   UNL     1       1.242   4.119   1.808  1.00  0.00     0.031 C 
ATOM     52  C   UNL     1       6.710  -0.003   0.965  1.00  0.00     0.029 A 
ATOM     53  C   UNL     1       6.821   0.989   2.028  1.00  0.00     0.049 A 
ATOM     54  H   UNL     1       5.321   2.236   2.763  1.00  0.00     0.167 HD
ATOM     55  C   UNL     1       2.087   5.137   3.871  1.00  0.00     0.034 A 
ATOM     56  C   UNL     1       7.934   1.266   2.734  1.00  0.00     0.034 A 
ATOM     57  C   UNL     1       3.168   5.396   4.778  1.00  0.00     0.049 A 
ATOM     58  C   UNL     1       7.854   2.342   3.788  1.00  0.00     0.074 A 
ATOM     59  C   UNL     1       3.248   6.318   5.803  1.00  0.00     0.029 A 
ATOM     60  N   UNL     1       4.404   4.768   4.696  1.00  0.00    -0.354 N 
ATOM     61  N   UNL     1       6.847   3.131   4.092  1.00  0.00    -0.248 NA
ATOM     62  C   UNL     1       9.052   2.553   4.608  1.00  0.00     0.031 C 
ATOM     63  C   UNL     1       4.564   6.311   6.278  1.00  0.00     0.029 A 
ATOM     64  C   UNL     1       5.265   5.303   5.631  1.00  0.00     0.049 A 
ATOM     65  H   UNL     1       4.632   4.049   4.064  1.00  0.00     0.167 HD
ATOM     66  C   UNL     1       7.274   3.894   5.174  1.00  0.00     0.074 A 
ATOM     67  C   UNL     1       8.630   3.471   5.464  1.00  0.00     0.031 C 
ATOM     68  C   UNL     1       6.611   4.847   5.879  1.00  0.00     0.034 A 
BRANCH  55  69
ATOM     69  C   UNL     1       0.820   5.965   3.938  1.00  0.00     0.023 A 
ATOM     70  C   UNL     1      -0.434   5.349   4.128  1.00  0.00     0.031 A 
ATOM     71  C   UNL     1       0.838   7.360   3.765  1.00  0.00     0.131 A 
ATOM     72  C   UNL     1      -1.613   6.110   4.070  1.00  0.00     0.055 A 
ATOM     73  C   UNL     1      -0.334   8.124   3.791  1.00  0.00     0.041 A 
ATOM     74  F   UNL     1       1.991   8.008   3.539  1.00  0.00    -0.206 F 
ATOM     75  C   UNL     1      -1.570   7.498   3.931  1.00  0.00     0.022 A 
BRANCH  72  76
ATOM     76  S   UNL     1      -3.205   5.241   4.021  1.00  0.00     0.124 S 
ATOM     77  O   UNL     1      -3.067   4.441   2.805  1.00  0.00    -0.237 OA
ATOM     78  O   UNL     1      -3.202   4.499   5.276  1.00  0.00    -0.237 OA
ATOM     79  O   UNL     1      -4.185   6.322   3.937  1.00  0.00    -0.744 OA
ENDBRANCH  72  76
ENDBRANCH  55  69
BRANCH  56  80
ATOM     80  C   UNL     1       9.185   0.492   2.498  1.00  0.00     0.023 A 
ATOM     81  C   UNL     1       9.719  -0.320   3.509  1.00  0.00     0.031 A 
ATOM     82  C   UNL     1       9.873   0.554   1.273  1.00  0.00     0.131 A 
ATOM     83  C   UNL     1      10.934  -0.989   3.304  1.00  0.00     0.055 A 
ATOM     84  C   UNL     1      11.046  -0.170   1.048  1.00  0.00     0.041 A 
ATOM     85  F   UNL     1       9.404   1.309   0.267  1.00  0.00    -0.206 F 
ATOM     86  C   UNL     1      11.592  -0.935   2.074  1.00  0.00     0.022 A 
BRANCH  83  87
ATOM     87  S   UNL     1      11.703  -1.829   4.714  1.00  0.00     0.124 S 
ATOM     88  O   UNL     1      11.782  -0.750   5.693  1.00  0.00    -0.237 OA
ATOM     89  O   UNL     1      10.739  -2.886   5.000  1.00  0.00    -0.237 OA
ATOM     90  O   UNL     1      12.985  -2.284   4.181  1.00  0.00    -0.744 OA
ENDBRANCH  83  87
ENDBRANCH  56  80
BRANCH  68  91
ATOM     91  C   UNL     1       7.311   5.437   7.071  1.00  0.00     0.023 A 
ATOM     92  C   UNL     1       8.460   6.231   6.939  1.00  0.00     0.031 A 
ATOM     93  C   UNL     1       6.785   5.225   8.358  1.00  0.00     0.131 A 
ATOM     94  C   UNL     1       9.078   6.741   8.087  1.00  0.00     0.055 A 
ATOM     95  C   UNL     1       7.357   5.805   9.486  1.00  0.00     0.041 A 
ATOM     96  F   UNL     1       5.689   4.468   8.533  1.00  0.00    -0.206 F 
ATOM     97  C   UNL     1       8.519   6.559   9.355  1.00  0.00     0.022 A 
BRANCH  94  98
ATOM     98  S   UNL     1      10.685   7.557   7.908  1.00  0.00     0.124 S 
ATOM     99  O   UNL     1      11.487   6.508   7.285  1.00  0.00    -0.237 OA
ATOM    100  O   UNL     1      10.364   8.700   7.060  1.00  0.00    -0.237 OA
ATOM    101  O   UNL     1      11.055   7.888   9.283  1.00  0.00    -0.744 OA
ENDBRANCH  94  98
ENDBRANCH  68  91
ENDBRANCH  42  43
ENDBRANCH  35  37
ENDBRANCH  34  35
ENDBRANCH  33  34
ENDBRANCH  32  33
ENDBRANCH  31  32
ENDBRANCH   1  31
TORSDOF 24
