REMARK SMILES CC1(C)[C@@H](C(=O)NCCc2ccc(S(N)(=O)=O)cc2)[C@@H]1C(=O)OCCOCCOCCOC(=O)c1ccc(-c2c3nc(c(-c4cc(S(=O)(=O)[O-])ccc4F)c4ccc([nH]4)c(-c4cc(S(=O)(=O)[O-])ccc4F)c4nc(c(-c5cc(S(=O)(=O)[O-])ccc5F)c5ccc2[nH]5)C=C4)C=C3)cc1
REMARK SMILES IDX 26 1 25 2 24 3 23 4 21 5 22 6 20 7 1 8 2 9 3 10 4 11 5 12
REMARK SMILES IDX 6 13 7 14 8 16 9 17 10 18 11 19 19 20 12 21 18 22 13 23
REMARK SMILES IDX 14 24 16 25 17 26 15 27 27 30 28 31 29 32 30 33 31 34 32 35
REMARK SMILES IDX 33 36 34 37 35 38 36 39 97 40 37 41 96 42 38 43 39 44 40 45
REMARK SMILES IDX 90 46 41 47 95 48 89 49 91 50 42 51 94 52 88 53 87 54 43 56
REMARK SMILES IDX 75 57 55 58 74 59 56 60 59 61 73 62 92 63 57 64 58 65 72 67
REMARK SMILES IDX 93 68 60 69 44 70 45 71 53 72 46 73 52 74 54 75 51 76 47 77
REMARK SMILES IDX 48 78 49 79 50 80 76 81 77 82 85 83 78 84 84 85 86 86 83 87
REMARK SMILES IDX 79 88 80 89 81 90 82 91 61 92 62 93 70 94 63 95 69 96 71 97
REMARK SMILES IDX 68 98 64 99 65 100 66 101 67 102
REMARK H PARENT 7 15 15 28 15 29 91 55 59 66
REMARK Flexibility Score: inf
ROOT
ATOM      1  O   UNL     1      -2.340   2.128   4.277  1.00  0.00    -0.376 OA
ENDROOT
BRANCH   1   2
ATOM      2  C   UNL     1      -3.005   3.046   3.421  1.00  0.00     0.202 C 
BRANCH   2   3
ATOM      3  C   UNL     1      -2.550   3.270   1.966  1.00  0.00     0.261 C 
BRANCH   3   4
ATOM      4  O   UNL     1      -2.258   2.088   1.205  1.00  0.00    -0.463 OA
BRANCH   4   5
ATOM      5  C   UNL     1      -0.938   1.867   0.962  1.00  0.00     0.310 C 
ATOM      6  O   UNL     1      -0.024   2.610   1.285  1.00  0.00    -0.252 OA
BRANCH   5   7
ATOM      7  C   UNL     1      -0.701   0.519   0.375  1.00  0.00     0.118 C 
ATOM      8  C   UNL     1       1.209  -1.065  -0.244  1.00  0.00     0.013 C 
ATOM      9  C   UNL     1       0.494   0.244  -0.508  1.00  0.00    -0.009 C 
ATOM     10  C   UNL     1       1.431   1.361  -0.888  1.00  0.00     0.013 C 
ATOM     11  C   UNL     1      -0.932   0.246  -1.094  1.00  0.00     0.100 C 
BRANCH  11  12
ATOM     12  C   UNL     1      -1.393  -1.037  -1.690  1.00  0.00     0.224 C 
ATOM     13  O   UNL     1      -0.801  -1.486  -2.668  1.00  0.00    -0.275 OA
ATOM     14  N   UNL     1      -2.448  -1.740  -1.183  1.00  0.00    -0.355 N 
ATOM     15  H   UNL     1      -2.542  -2.650  -1.547  1.00  0.00     0.163 HD
BRANCH  14  16
ATOM     16  C   UNL     1      -3.453  -1.383  -0.202  1.00  0.00     0.120 C 
BRANCH  16  17
ATOM     17  C   UNL     1      -4.886  -1.251  -0.745  1.00  0.00     0.056 C 
BRANCH  17  18
ATOM     18  C   UNL     1      -5.597  -2.501  -1.224  1.00  0.00    -0.046 A 
ATOM     19  C   UNL     1      -6.877  -2.815  -0.727  1.00  0.00     0.005 A 
ATOM     20  C   UNL     1      -5.070  -3.300  -2.248  1.00  0.00     0.005 A 
ATOM     21  C   UNL     1      -7.603  -3.899  -1.236  1.00  0.00     0.022 A 
ATOM     22  C   UNL     1      -5.774  -4.402  -2.739  1.00  0.00     0.022 A 
ATOM     23  C   UNL     1      -7.042  -4.691  -2.238  1.00  0.00     0.082 A 
BRANCH  23  24
ATOM     24  S   UNL     1      -7.958  -6.038  -2.923  1.00  0.00     0.238 S 
ATOM     25  O   UNL     1      -9.257  -5.547  -3.338  1.00  0.00    -0.207 OA
ATOM     26  O   UNL     1      -7.110  -6.804  -3.799  1.00  0.00    -0.207 OA
BRANCH  24  27
ATOM     27  N   UNL     1      -8.231  -7.019  -1.591  1.00  0.00    -0.225 NA
ATOM     28  H   UNL     1      -8.830  -6.530  -0.926  1.00  0.00     0.137 HD
ATOM     29  H   UNL     1      -7.341  -7.243  -1.145  1.00  0.00     0.137 HD
ENDBRANCH  24  27
ENDBRANCH  23  24
ENDBRANCH  17  18
ENDBRANCH  16  17
ENDBRANCH  14  16
ENDBRANCH  11  12
ENDBRANCH   5   7
ENDBRANCH   4   5
ENDBRANCH   3   4
ENDBRANCH   2   3
ENDBRANCH   1   2
BRANCH   1  30
ATOM     30  C   UNL     1      -2.029   0.819   3.828  1.00  0.00     0.188 C 
BRANCH  30  31
ATOM     31  C   UNL     1      -3.081   0.004   3.057  1.00  0.00     0.188 C 
BRANCH  31  32
ATOM     32  O   UNL     1      -4.264   0.698   2.742  1.00  0.00    -0.376 OA
BRANCH  32  33
ATOM     33  C   UNL     1      -5.416   0.438   3.525  1.00  0.00     0.202 C 
BRANCH  33  34
ATOM     34  C   UNL     1      -5.359   0.134   5.040  1.00  0.00     0.261 C 
BRANCH  34  35
ATOM     35  O   UNL     1      -4.164  -0.449   5.582  1.00  0.00    -0.460 OA
BRANCH  35  36
ATOM     36  C   UNL     1      -4.051  -1.799   5.512  1.00  0.00     0.338 C 
ATOM     37  O   UNL     1      -4.851  -2.562   5.001  1.00  0.00    -0.246 OA
BRANCH  36  38
ATOM     38  C   UNL     1      -2.680  -2.178   5.937  1.00  0.00     0.060 A 
ATOM     39  C   UNL     1      -1.819  -2.770   5.001  1.00  0.00     0.016 A 
ATOM     40  C   UNL     1      -2.248  -1.963   7.247  1.00  0.00     0.016 A 
ATOM     41  C   UNL     1      -0.540  -3.181   5.382  1.00  0.00     0.010 A 
ATOM     42  C   UNL     1      -0.973  -2.398   7.633  1.00  0.00     0.010 A 
ATOM     43  C   UNL     1      -0.124  -3.041   6.712  1.00  0.00    -0.014 A 
BRANCH  43  44
ATOM     44  C   UNL     1       1.105  -3.739   7.179  1.00  0.00     0.031 A 
ATOM     45  C   UNL     1       0.952  -5.045   7.914  1.00  0.00     0.074 A 
ATOM     46  C   UNL     1       2.334  -3.251   6.928  1.00  0.00     0.049 A 
ATOM     47  N   UNL     1       1.865  -5.813   8.452  1.00  0.00    -0.248 NA
ATOM     48  C   UNL     1      -0.422  -5.548   8.065  1.00  0.00     0.031 C 
ATOM     49  C   UNL     1       2.620  -2.027   6.182  1.00  0.00     0.029 A 
ATOM     50  N   UNL     1       3.575  -3.727   7.280  1.00  0.00    -0.354 N 
ATOM     51  C   UNL     1       1.177  -6.885   9.012  1.00  0.00     0.074 A 
ATOM     52  C   UNL     1      -0.232  -6.644   8.783  1.00  0.00     0.031 C 
ATOM     53  C   UNL     1       3.952  -1.845   6.137  1.00  0.00     0.029 A 
ATOM     54  C   UNL     1       4.613  -2.914   6.886  1.00  0.00     0.049 A 
ATOM     55  H   UNL     1       3.708  -4.572   7.767  1.00  0.00     0.167 HD
ATOM     56  C   UNL     1       1.673  -7.975   9.649  1.00  0.00     0.034 A 
ATOM     57  C   UNL     1       5.938  -3.006   7.126  1.00  0.00     0.034 A 
ATOM     58  C   UNL     1       3.080  -8.197   9.882  1.00  0.00     0.049 A 
ATOM     59  C   UNL     1       6.462  -4.181   7.923  1.00  0.00     0.074 A 
ATOM     60  C   UNL     1       3.689  -9.270  10.508  1.00  0.00     0.029 A 
ATOM     61  N   UNL     1       4.097  -7.325   9.514  1.00  0.00    -0.354 N 
ATOM     62  N   UNL     1       5.801  -5.190   8.444  1.00  0.00    -0.248 NA
ATOM     63  C   UNL     1       7.912  -4.232   8.155  1.00  0.00     0.031 C 
ATOM     64  C   UNL     1       5.060  -9.007  10.597  1.00  0.00     0.029 A 
ATOM     65  C   UNL     1       5.323  -7.819   9.934  1.00  0.00     0.049 A 
ATOM     66  H   UNL     1       3.966  -6.479   9.027  1.00  0.00     0.167 HD
ATOM     67  C   UNL     1       6.763  -6.016   9.026  1.00  0.00     0.074 A 
ATOM     68  C   UNL     1       8.046  -5.391   8.782  1.00  0.00     0.031 C 
ATOM     69  C   UNL     1       6.601  -7.188   9.692  1.00  0.00     0.034 A 
BRANCH  56  70
ATOM     70  C   UNL     1       0.679  -8.979  10.186  1.00  0.00     0.023 A 
ATOM     71  C   UNL     1      -0.184  -9.697   9.340  1.00  0.00     0.031 A 
ATOM     72  C   UNL     1       0.577  -9.202  11.571  1.00  0.00     0.131 A 
ATOM     73  C   UNL     1      -1.159 -10.545   9.890  1.00  0.00     0.055 A 
ATOM     74  C   UNL     1      -0.335 -10.114  12.106  1.00  0.00     0.041 A 
ATOM     75  F   UNL     1       1.355  -8.527  12.432  1.00  0.00    -0.206 F 
ATOM     76  C   UNL     1      -1.221 -10.780  11.265  1.00  0.00     0.022 A 
BRANCH  73  77
ATOM     77  S   UNL     1      -2.443 -11.213   8.797  1.00  0.00     0.124 S 
ATOM     78  O   UNL     1      -3.026  -9.991   8.245  1.00  0.00    -0.237 OA
ATOM     79  O   UNL     1      -1.673 -12.029   7.866  1.00  0.00    -0.237 OA
ATOM     80  O   UNL     1      -3.315 -11.954   9.705  1.00  0.00    -0.744 OA
ENDBRANCH  73  77
ENDBRANCH  56  70
BRANCH  57  81
ATOM     81  C   UNL     1       6.873  -1.944   6.646  1.00  0.00     0.023 A 
ATOM     82  C   UNL     1       7.908  -2.236   5.744  1.00  0.00     0.031 A 
ATOM     83  C   UNL     1       6.785  -0.630   7.141  1.00  0.00     0.131 A 
ATOM     84  C   UNL     1       8.843  -1.245   5.404  1.00  0.00     0.055 A 
ATOM     85  C   UNL     1       7.679   0.369   6.750  1.00  0.00     0.041 A 
ATOM     86  F   UNL     1       5.822  -0.295   8.015  1.00  0.00    -0.206 F 
ATOM     87  C   UNL     1       8.725   0.060   5.887  1.00  0.00     0.022 A 
BRANCH  84  88
ATOM     88  S   UNL     1      10.281  -1.712   4.401  1.00  0.00     0.124 S 
ATOM     89  O   UNL     1      10.888  -2.753   5.222  1.00  0.00    -0.237 OA
ATOM     90  O   UNL     1       9.654  -2.157   3.161  1.00  0.00    -0.237 OA
ATOM     91  O   UNL     1      11.045  -0.470   4.301  1.00  0.00    -0.744 OA
ENDBRANCH  84  88
ENDBRANCH  57  81
BRANCH  69  92
ATOM     92  C   UNL     1       7.851  -7.909  10.148  1.00  0.00     0.023 A 
ATOM     93  C   UNL     1       8.723  -7.364  11.106  1.00  0.00     0.031 A 
ATOM     94  C   UNL     1       8.177  -9.164   9.601  1.00  0.00     0.131 A 
ATOM     95  C   UNL     1       9.909  -8.039  11.438  1.00  0.00     0.055 A 
ATOM     96  C   UNL     1       9.320  -9.864   9.989  1.00  0.00     0.041 A 
ATOM     97  F   UNL     1       7.386  -9.735   8.678  1.00  0.00    -0.206 F 
ATOM     98  C   UNL     1      10.203  -9.295  10.901  1.00  0.00     0.022 A 
BRANCH  95  99
ATOM     99  S   UNL     1      11.123  -7.201  12.494  1.00  0.00     0.124 S 
ATOM    100  O   UNL     1      11.376  -5.972  11.749  1.00  0.00    -0.237 OA
ATOM    101  O   UNL     1      10.393  -7.048  13.748  1.00  0.00    -0.237 OA
ATOM    102  O   UNL     1      12.244  -8.139  12.540  1.00  0.00    -0.744 OA
ENDBRANCH  95  99
ENDBRANCH  69  92
ENDBRANCH  43  44
ENDBRANCH  36  38
ENDBRANCH  35  36
ENDBRANCH  34  35
ENDBRANCH  33  34
ENDBRANCH  32  33
ENDBRANCH  31  32
ENDBRANCH  30  31
ENDBRANCH   1  30
TORSDOF 26
