REMARK SMILES Cc1nc(SCc2ccccc2)[nH]c(=O)c1CCC(=O)OCCOCCOCCOC(=O)c1ccc(-c2c3nc(c(-c4cc(S(=O)(=O)[O-])ccc4F)c4ccc([nH]4)c(-c4cc(S(=O)(=O)[O-])ccc4F)c4nc(c(-c5cc(S(=O)(=O)[O-])ccc5F)c5ccc2[nH]5)C=C4)C=C3)cc1
REMARK SMILES IDX 25 1 24 2 23 3 22 4 21 5 19 6 20 7 18 8 17 9 16 10 1 11 2 12
REMARK SMILES IDX 3 13 4 14 14 15 13 16 15 17 5 19 6 20 7 21 8 22 12 23 9 24
REMARK SMILES IDX 11 25 10 26 26 27 27 28 28 29 29 30 30 31 31 32 32 33 33 34
REMARK SMILES IDX 34 35 95 36 35 37 94 38 36 39 37 40 38 41 88 42 39 43 93 44
REMARK SMILES IDX 87 45 89 46 40 47 92 48 86 49 85 50 41 52 73 53 53 54 72 55
REMARK SMILES IDX 54 56 57 57 71 58 90 59 55 60 56 61 70 63 91 64 58 65 42 66
REMARK SMILES IDX 43 67 51 68 44 69 50 70 52 71 49 72 45 73 46 74 47 75 48 76
REMARK SMILES IDX 74 77 75 78 83 79 76 80 82 81 84 82 81 83 77 84 78 85 79 86
REMARK SMILES IDX 80 87 59 88 60 89 68 90 61 91 67 92 69 93 66 94 62 95 63 96
REMARK SMILES IDX 64 97 65 98
REMARK H PARENT 13 18 89 51 57 62
REMARK Flexibility Score: inf
ROOT
ATOM      1  C   UNL     1       3.448  -3.028  -0.274  1.00  0.00     0.188 C 
ENDROOT
BRANCH   1   2
ATOM      2  O   UNL     1       4.691  -2.646  -0.840  1.00  0.00    -0.376 OA
BRANCH   2   3
ATOM      3  C   UNL     1       4.684  -1.325  -1.381  1.00  0.00     0.202 C 
BRANCH   3   4
ATOM      4  C   UNL     1       3.913  -1.159  -2.715  1.00  0.00     0.261 C 
BRANCH   4   5
ATOM      5  O   UNL     1       2.468  -1.198  -2.598  1.00  0.00    -0.463 OA
BRANCH   5   6
ATOM      6  C   UNL     1       1.844  -2.384  -2.797  1.00  0.00     0.306 C 
ATOM      7  O   UNL     1       2.373  -3.366  -3.301  1.00  0.00    -0.252 OA
BRANCH   6   8
ATOM      8  C   UNL     1       0.394  -2.374  -2.323  1.00  0.00     0.128 C 
BRANCH   8   9
ATOM      9  C   UNL     1       0.072  -2.160  -0.824  1.00  0.00     0.055 C 
BRANCH   9  10
ATOM     10  C   UNL     1      -0.156  -0.751  -0.304  1.00  0.00     0.039 A 
ATOM     11  C   UNL     1      -2.569  -1.098   0.311  1.00  0.00     0.067 C 
ATOM     12  C   UNL     1      -1.306  -0.276   0.230  1.00  0.00     0.049 A 
ATOM     13  N   UNL     1      -1.501   1.041   0.616  1.00  0.00    -0.229 NA
ATOM     14  C   UNL     1      -0.561   1.875   0.335  1.00  0.00     0.168 A 
ATOM     15  C   UNL     1       0.974   0.215  -0.270  1.00  0.00     0.254 A 
ATOM     16  N   UNL     1       0.653   1.515  -0.111  1.00  0.00    -0.301 N 
ATOM     17  O   UNL     1       2.148  -0.087  -0.382  1.00  0.00    -0.269 OA
ATOM     18  H   UNL     1       1.318   2.209  -0.324  1.00  0.00     0.172 HD
BRANCH  14  19
ATOM     19  S   UNL     1      -0.714   3.594   0.394  1.00  0.00    -0.083 SA
BRANCH  19  20
ATOM     20  C   UNL     1      -2.462   3.805   0.009  1.00  0.00     0.113 C 
BRANCH  20  21
ATOM     21  C   UNL     1      -2.964   3.466  -1.385  1.00  0.00    -0.038 A 
ATOM     22  C   UNL     1      -3.770   4.392  -2.065  1.00  0.00     0.004 A 
ATOM     23  C   UNL     1      -2.831   2.197  -1.966  1.00  0.00     0.004 A 
ATOM     24  C   UNL     1      -4.449   4.036  -3.237  1.00  0.00     0.000 A 
ATOM     25  C   UNL     1      -3.513   1.831  -3.126  1.00  0.00     0.000 A 
ATOM     26  C   UNL     1      -4.337   2.748  -3.755  1.00  0.00     0.000 A 
ENDBRANCH  20  21
ENDBRANCH  19  20
ENDBRANCH  14  19
ENDBRANCH   9  10
ENDBRANCH   8   9
ENDBRANCH   6   8
ENDBRANCH   5   6
ENDBRANCH   4   5
ENDBRANCH   3   4
ENDBRANCH   2   3
ENDBRANCH   1   2
BRANCH   1  27
ATOM     27  C   UNL     1       3.392  -2.948   1.233  1.00  0.00     0.188 C 
BRANCH  27  28
ATOM     28  O   UNL     1       2.926  -1.707   1.766  1.00  0.00    -0.376 OA
BRANCH  28  29
ATOM     29  C   UNL     1       3.912  -0.953   2.459  1.00  0.00     0.202 C 
BRANCH  29  30
ATOM     30  C   UNL     1       4.347  -1.502   3.835  1.00  0.00     0.261 C 
BRANCH  30  31
ATOM     31  O   UNL     1       4.470  -2.933   3.897  1.00  0.00    -0.460 OA
BRANCH  31  32
ATOM     32  C   UNL     1       3.318  -3.605   4.171  1.00  0.00     0.338 C 
ATOM     33  O   UNL     1       2.264  -3.112   4.544  1.00  0.00    -0.246 OA
BRANCH  32  34
ATOM     34  C   UNL     1       3.456  -5.017   3.715  1.00  0.00     0.060 A 
ATOM     35  C   UNL     1       2.374  -5.613   3.043  1.00  0.00     0.016 A 
ATOM     36  C   UNL     1       4.648  -5.727   3.871  1.00  0.00     0.016 A 
ATOM     37  C   UNL     1       2.478  -6.908   2.531  1.00  0.00     0.010 A 
ATOM     38  C   UNL     1       4.737  -7.041   3.397  1.00  0.00     0.010 A 
ATOM     39  C   UNL     1       3.645  -7.649   2.749  1.00  0.00    -0.014 A 
BRANCH  39  40
ATOM     40  C   UNL     1       3.633  -9.122   2.556  1.00  0.00     0.031 A 
ATOM     41  C   UNL     1       3.358  -9.972   3.768  1.00  0.00     0.074 A 
ATOM     42  C   UNL     1       3.846  -9.702   1.361  1.00  0.00     0.049 A 
ATOM     43  N   UNL     1       3.404 -11.270   3.908  1.00  0.00    -0.248 NA
ATOM     44  C   UNL     1       2.989  -9.246   4.994  1.00  0.00     0.031 C 
ATOM     45  C   UNL     1       4.050  -8.994   0.099  1.00  0.00     0.029 A 
ATOM     46  N   UNL     1       3.939 -11.031   1.020  1.00  0.00    -0.354 N 
ATOM     47  C   UNL     1       3.086 -11.516   5.240  1.00  0.00     0.074 A 
ATOM     48  C   UNL     1       2.885 -10.230   5.871  1.00  0.00     0.031 C 
ATOM     49  C   UNL     1       4.262  -9.897  -0.876  1.00  0.00     0.029 A 
ATOM     50  C   UNL     1       4.258 -11.243  -0.302  1.00  0.00     0.049 A 
ATOM     51  H   UNL     1       3.790 -11.762   1.661  1.00  0.00     0.167 HD
ATOM     52  C   UNL     1       2.970 -12.705   5.878  1.00  0.00     0.034 A 
ATOM     53  C   UNL     1       4.549 -12.387  -0.959  1.00  0.00     0.034 A 
ATOM     54  C   UNL     1       3.188 -13.978   5.239  1.00  0.00     0.049 A 
ATOM     55  C   UNL     1       4.524 -13.699  -0.202  1.00  0.00     0.074 A 
ATOM     56  C   UNL     1       3.092 -15.244   5.790  1.00  0.00     0.029 A 
ATOM     57  N   UNL     1       3.561 -14.149   3.912  1.00  0.00    -0.354 N 
ATOM     58  N   UNL     1       4.235 -13.922   1.061  1.00  0.00    -0.248 NA
ATOM     59  C   UNL     1       4.862 -14.914  -0.959  1.00  0.00     0.031 C 
ATOM     60  C   UNL     1       3.491 -16.172   4.823  1.00  0.00     0.029 A 
ATOM     61  C   UNL     1       3.735 -15.496   3.638  1.00  0.00     0.049 A 
ATOM     62  H   UNL     1       3.683 -13.420   3.262  1.00  0.00     0.167 HD
ATOM     63  C   UNL     1       4.313 -15.304   1.233  1.00  0.00     0.074 A 
ATOM     64  C   UNL     1       4.675 -15.862  -0.052  1.00  0.00     0.031 C 
ATOM     65  C   UNL     1       4.093 -16.044   2.350  1.00  0.00     0.034 A 
BRANCH  52  66
ATOM     66  C   UNL     1       2.655 -12.672   7.354  1.00  0.00     0.023 A 
ATOM     67  C   UNL     1       1.452 -12.136   7.847  1.00  0.00     0.031 A 
ATOM     68  C   UNL     1       3.591 -13.152   8.287  1.00  0.00     0.131 A 
ATOM     69  C   UNL     1       1.250 -12.026   9.231  1.00  0.00     0.055 A 
ATOM     70  C   UNL     1       3.346 -13.121   9.660  1.00  0.00     0.041 A 
ATOM     71  F   UNL     1       4.770 -13.648   7.879  1.00  0.00    -0.206 F 
ATOM     72  C   UNL     1       2.176 -12.541  10.140  1.00  0.00     0.022 A 
BRANCH  69  73
ATOM     73  S   UNL     1      -0.164 -11.058   9.825  1.00  0.00     0.124 S 
ATOM     74  O   UNL     1       0.087  -9.758   9.207  1.00  0.00    -0.237 OA
ATOM     75  O   UNL     1      -1.301 -11.806   9.302  1.00  0.00    -0.237 OA
ATOM     76  O   UNL     1      -0.013 -11.088  11.279  1.00  0.00    -0.744 OA
ENDBRANCH  69  73
ENDBRANCH  52  66
BRANCH  53  77
ATOM     77  C   UNL     1       4.943 -12.359  -2.401  1.00  0.00     0.023 A 
ATOM     78  C   UNL     1       4.189 -13.030  -3.377  1.00  0.00     0.031 A 
ATOM     79  C   UNL     1       6.125 -11.716  -2.813  1.00  0.00     0.131 A 
ATOM     80  C   UNL     1       4.647 -13.082  -4.705  1.00  0.00     0.055 A 
ATOM     81  C   UNL     1       6.543 -11.718  -4.145  1.00  0.00     0.041 A 
ATOM     82  F   UNL     1       6.895 -11.072  -1.921  1.00  0.00    -0.206 F 
ATOM     83  C   UNL     1       5.809 -12.416  -5.098  1.00  0.00     0.022 A 
BRANCH  80  84
ATOM     84  S   UNL     1       3.756 -14.126  -5.893  1.00  0.00     0.124 S 
ATOM     85  O   UNL     1       3.838 -15.435  -5.256  1.00  0.00    -0.237 OA
ATOM     86  O   UNL     1       2.436 -13.504  -5.914  1.00  0.00    -0.237 OA
ATOM     87  O   UNL     1       4.531 -13.979  -7.123  1.00  0.00    -0.744 OA
ENDBRANCH  80  84
ENDBRANCH  53  77
BRANCH  65  88
ATOM     88  C   UNL     1       4.161 -17.549   2.222  1.00  0.00     0.023 A 
ATOM     89  C   UNL     1       5.360 -18.227   1.943  1.00  0.00     0.031 A 
ATOM     90  C   UNL     1       2.997 -18.318   2.411  1.00  0.00     0.131 A 
ATOM     91  C   UNL     1       5.359 -19.626   1.819  1.00  0.00     0.055 A 
ATOM     92  C   UNL     1       3.015 -19.712   2.351  1.00  0.00     0.041 A 
ATOM     93  F   UNL     1       1.822 -17.725   2.676  1.00  0.00    -0.206 F 
ATOM     94  C   UNL     1       4.199 -20.373   2.042  1.00  0.00     0.022 A 
BRANCH  91  95
ATOM     95  S   UNL     1       6.878 -20.459   1.280  1.00  0.00     0.124 S 
ATOM     96  O   UNL     1       7.127 -19.828  -0.013  1.00  0.00    -0.237 OA
ATOM     97  O   UNL     1       7.816 -20.120   2.345  1.00  0.00    -0.237 OA
ATOM     98  O   UNL     1       6.495 -21.868   1.218  1.00  0.00    -0.744 OA
ENDBRANCH  91  95
ENDBRANCH  65  88
ENDBRANCH  39  40
ENDBRANCH  32  34
ENDBRANCH  31  32
ENDBRANCH  30  31
ENDBRANCH  29  30
ENDBRANCH  28  29
ENDBRANCH  27  28
ENDBRANCH   1  27
TORSDOF 25
