REMARK SMILES CC1=C(C)C[C@@H](C(=O)OCCOCCOCCOC(=O)c2ccc(-c3c4nc(c(-c5cc(S(=O)(=O)[O-])ccc5F)c5ccc([nH]5)c(-c5cc(S(=O)(=O)[O-])ccc5F)c5nc(c(-c6cc(S(=O)(=O)[O-])ccc6F)c6ccc3[nH]6)C=C5)C=C4)cc2)[C@@H](C(=O)NCC[NH+]2CCOCC2)C1
REMARK SMILES IDX 13 1 12 2 11 3 10 4 9 5 7 6 8 7 6 8 1 9 2 10 3 11 96 12 4 13
REMARK SMILES IDX 5 14 84 15 85 16 86 17 87 18 88 20 89 21 90 22 91 23 95 24
REMARK SMILES IDX 92 26 94 27 93 28 14 29 15 30 16 31 17 32 18 33 19 34 20 35
REMARK SMILES IDX 21 36 22 37 83 38 23 39 82 40 24 41 25 42 26 43 76 44 27 45
REMARK SMILES IDX 81 46 75 47 77 48 28 49 80 50 74 51 73 52 29 54 61 55 41 56
REMARK SMILES IDX 60 57 42 58 45 59 59 60 78 61 43 62 44 63 58 65 79 66 46 67
REMARK SMILES IDX 30 68 31 69 39 70 32 71 38 72 40 73 37 74 33 75 34 76 35 77
REMARK SMILES IDX 36 78 62 79 63 80 71 81 64 82 70 83 72 84 69 85 65 86 66 87
REMARK SMILES IDX 67 88 68 89 47 90 48 91 56 92 49 93 55 94 57 95 54 96 50 97
REMARK SMILES IDX 51 98 52 99 53 100
REMARK H PARENT 87 19 90 25 77 53 45 64
REMARK Flexibility Score: inf
ROOT
ATOM      1  C   UNL     1      -2.163   4.750  -0.682  1.00  0.00     0.188 C 
ENDROOT
BRANCH   1   2
ATOM      2  O   UNL     1      -3.577   4.711  -0.816  1.00  0.00    -0.376 OA
BRANCH   2   3
ATOM      3  C   UNL     1      -4.086   3.378  -0.789  1.00  0.00     0.202 C 
BRANCH   3   4
ATOM      4  C   UNL     1      -3.718   2.510  -2.005  1.00  0.00     0.261 C 
BRANCH   4   5
ATOM      5  O   UNL     1      -2.294   2.251  -2.119  1.00  0.00    -0.463 OA
BRANCH   5   6
ATOM      6  C   UNL     1      -1.755   2.514  -3.336  1.00  0.00     0.310 C 
ATOM      7  O   UNL     1      -2.401   2.940  -4.289  1.00  0.00    -0.252 OA
BRANCH   6   8
ATOM      8  C   UNL     1      -0.305   2.098  -3.514  1.00  0.00     0.116 C 
ATOM      9  C   UNL     1       1.102  -0.314  -0.091  1.00  0.00     0.039 C 
ATOM     10  C   UNL     1       0.722   0.378  -1.379  1.00  0.00    -0.074 C 
ATOM     11  C   UNL     1       0.048  -0.189  -2.398  1.00  0.00    -0.073 C 
ATOM     12  C   UNL     1       1.181   1.822  -1.422  1.00  0.00     0.045 C 
ATOM     13  C   UNL     1      -0.473  -1.601  -2.434  1.00  0.00     0.039 C 
ATOM     14  C   UNL     1      -0.228   0.578  -3.663  1.00  0.00     0.046 C 
ATOM     15  C   UNL     1       0.799   2.708  -2.645  1.00  0.00     0.097 C 
BRANCH  15  16
ATOM     16  C   UNL     1       0.603   4.154  -2.170  1.00  0.00     0.224 C 
ATOM     17  O   UNL     1       0.826   4.472  -0.997  1.00  0.00    -0.275 OA
ATOM     18  N   UNL     1       0.212   5.171  -2.976  1.00  0.00    -0.350 N 
ATOM     19  H   UNL     1      -0.097   5.964  -2.480  1.00  0.00     0.163 HD
BRANCH  18  20
ATOM     20  C   UNL     1       0.152   5.338  -4.414  1.00  0.00     0.177 C 
BRANCH  20  21
ATOM     21  C   UNL     1      -1.201   5.846  -4.972  1.00  0.00     0.283 C 
BRANCH  21  22
ATOM     22  N   UNL     1      -1.681   7.197  -4.574  1.00  0.00    -0.330 N 
ATOM     23  C   UNL     1      -2.735   7.160  -3.524  1.00  0.00     0.291 C 
ATOM     24  C   UNL     1      -2.345   7.865  -5.731  1.00  0.00     0.291 C 
ATOM     25  H   UNL     1      -0.850   7.682  -4.236  1.00  0.00     0.348 HD
ATOM     26  C   UNL     1      -4.062   6.497  -3.953  1.00  0.00     0.221 C 
ATOM     27  C   UNL     1      -3.632   7.151  -6.185  1.00  0.00     0.221 C 
ATOM     28  O   UNL     1      -4.603   7.114  -5.130  1.00  0.00    -0.370 OA
ENDBRANCH  21  22
ENDBRANCH  20  21
ENDBRANCH  18  20
ENDBRANCH  15  16
ENDBRANCH   6   8
ENDBRANCH   5   6
ENDBRANCH   4   5
ENDBRANCH   3   4
ENDBRANCH   2   3
ENDBRANCH   1   2
BRANCH   1  29
ATOM     29  C   UNL     1      -1.601   5.661   0.409  1.00  0.00     0.188 C 
BRANCH  29  30
ATOM     30  O   UNL     1      -2.553   6.442   1.113  1.00  0.00    -0.376 OA
BRANCH  30  31
ATOM     31  C   UNL     1      -2.965   7.631   0.438  1.00  0.00     0.202 C 
BRANCH  31  32
ATOM     32  C   UNL     1      -1.876   8.712   0.384  1.00  0.00     0.261 C 
BRANCH  32  33
ATOM     33  O   UNL     1      -1.238   8.757  -0.912  1.00  0.00    -0.460 OA
BRANCH  33  34
ATOM     34  C   UNL     1       0.111   8.626  -0.943  1.00  0.00     0.338 C 
ATOM     35  O   UNL     1       0.831   8.320  -0.002  1.00  0.00    -0.246 OA
BRANCH  34  36
ATOM     36  C   UNL     1       0.622   8.849  -2.317  1.00  0.00     0.060 A 
ATOM     37  C   UNL     1       1.729   8.112  -2.761  1.00  0.00     0.016 A 
ATOM     38  C   UNL     1       0.055   9.816  -3.153  1.00  0.00     0.016 A 
ATOM     39  C   UNL     1       2.241   8.310  -4.049  1.00  0.00     0.010 A 
ATOM     40  C   UNL     1       0.585  10.033  -4.430  1.00  0.00     0.010 A 
ATOM     41  C   UNL     1       1.681   9.282  -4.889  1.00  0.00    -0.014 A 
BRANCH  41  42
ATOM     42  C   UNL     1       2.365   9.689  -6.145  1.00  0.00     0.031 A 
ATOM     43  C   UNL     1       3.467  10.701  -6.036  1.00  0.00     0.074 A 
ATOM     44  C   UNL     1       1.990   9.226  -7.352  1.00  0.00     0.049 A 
ATOM     45  N   UNL     1       4.126  11.318  -6.979  1.00  0.00    -0.248 NA
ATOM     46  C   UNL     1       3.879  11.060  -4.671  1.00  0.00     0.031 C 
ATOM     47  C   UNL     1       1.000   8.179  -7.576  1.00  0.00     0.029 A 
ATOM     48  N   UNL     1       2.377   9.591  -8.620  1.00  0.00    -0.354 N 
ATOM     49  C   UNL     1       5.035  12.139  -6.322  1.00  0.00     0.074 A 
ATOM     50  C   UNL     1       4.825  11.953  -4.903  1.00  0.00     0.031 C 
ATOM     51  C   UNL     1       0.808   8.025  -8.898  1.00  0.00     0.029 A 
ATOM     52  C   UNL     1       1.647   8.983  -9.618  1.00  0.00     0.049 A 
ATOM     53  H   UNL     1       3.107  10.226  -8.798  1.00  0.00     0.167 HD
ATOM     54  C   UNL     1       5.952  12.980  -6.857  1.00  0.00     0.034 A 
ATOM     55  C   UNL     1       1.631   9.203 -10.952  1.00  0.00     0.034 A 
ATOM     56  C   UNL     1       6.092  13.203  -8.273  1.00  0.00     0.049 A 
ATOM     57  C   UNL     1       2.566  10.246 -11.524  1.00  0.00     0.074 A 
ATOM     58  C   UNL     1       6.968  14.048  -8.929  1.00  0.00     0.029 A 
ATOM     59  N   UNL     1       5.306  12.605  -9.251  1.00  0.00    -0.354 N 
ATOM     60  N   UNL     1       3.428  11.013 -10.895  1.00  0.00    -0.248 NA
ATOM     61  C   UNL     1       2.533  10.453 -12.979  1.00  0.00     0.031 C 
ATOM     62  C   UNL     1       6.649  14.033 -10.290  1.00  0.00     0.029 A 
ATOM     63  C   UNL     1       5.646  13.097 -10.500  1.00  0.00     0.049 A 
ATOM     64  H   UNL     1       4.610  11.930  -9.081  1.00  0.00     0.167 HD
ATOM     65  C   UNL     1       4.067  11.762 -11.882  1.00  0.00     0.074 A 
ATOM     66  C   UNL     1       3.487  11.360 -13.146  1.00  0.00     0.031 C 
ATOM     67  C   UNL     1       5.055  12.685 -11.754  1.00  0.00     0.034 A 
BRANCH  54  68
ATOM     68  C   UNL     1       6.784  13.783  -5.888  1.00  0.00     0.023 A 
ATOM     69  C   UNL     1       7.652  13.165  -4.970  1.00  0.00     0.031 A 
ATOM     70  C   UNL     1       6.638  15.179  -5.819  1.00  0.00     0.131 A 
ATOM     71  C   UNL     1       8.263  13.929  -3.964  1.00  0.00     0.055 A 
ATOM     72  C   UNL     1       7.323  15.945  -4.875  1.00  0.00     0.041 A 
ATOM     73  F   UNL     1       5.799  15.820  -6.648  1.00  0.00    -0.206 F 
ATOM     74  C   UNL     1       8.125  15.318  -3.926  1.00  0.00     0.022 A 
BRANCH  71  75
ATOM     75  S   UNL     1       9.080  13.060  -2.596  1.00  0.00     0.124 S 
ATOM     76  O   UNL     1       7.993  12.229  -2.084  1.00  0.00    -0.237 OA
ATOM     77  O   UNL     1      10.161  12.353  -3.273  1.00  0.00    -0.237 OA
ATOM     78  O   UNL     1       9.500  14.141  -1.707  1.00  0.00    -0.744 OA
ENDBRANCH  71  75
ENDBRANCH  54  68
BRANCH  55  79
ATOM     79  C   UNL     1       0.666   8.475 -11.833  1.00  0.00     0.023 A 
ATOM     80  C   UNL     1       1.101   7.609 -12.850  1.00  0.00     0.031 A 
ATOM     81  C   UNL     1      -0.721   8.675 -11.694  1.00  0.00     0.131 A 
ATOM     82  C   UNL     1       0.164   7.002 -13.705  1.00  0.00     0.055 A 
ATOM     83  C   UNL     1      -1.650   8.031 -12.516  1.00  0.00     0.041 A 
ATOM     84  F   UNL     1      -1.197   9.496 -10.745  1.00  0.00    -0.206 F 
ATOM     85  C   UNL     1      -1.208   7.196 -13.535  1.00  0.00     0.022 A 
BRANCH  82  86
ATOM     86  S   UNL     1       0.766   6.004 -15.098  1.00  0.00     0.124 S 
ATOM     87  O   UNL     1       1.562   6.976 -15.838  1.00  0.00    -0.237 OA
ATOM     88  O   UNL     1       1.510   4.950 -14.415  1.00  0.00    -0.237 OA
ATOM     89  O   UNL     1      -0.462   5.567 -15.760  1.00  0.00    -0.744 OA
ENDBRANCH  82  86
ENDBRANCH  55  79
BRANCH  67  90
ATOM     90  C   UNL     1       5.629  13.282 -13.016  1.00  0.00     0.023 A 
ATOM     91  C   UNL     1       4.898  14.160 -13.833  1.00  0.00     0.031 A 
ATOM     92  C   UNL     1       6.966  13.009 -13.366  1.00  0.00     0.131 A 
ATOM     93  C   UNL     1       5.500  14.714 -14.974  1.00  0.00     0.055 A 
ATOM     94  C   UNL     1       7.577  13.610 -14.466  1.00  0.00     0.041 A 
ATOM     95  F   UNL     1       7.709  12.174 -12.622  1.00  0.00    -0.206 F 
ATOM     96  C   UNL     1       6.841  14.464 -15.281  1.00  0.00     0.022 A 
BRANCH  93  97
ATOM     97  S   UNL     1       4.494  15.728 -16.091  1.00  0.00     0.124 S 
ATOM     98  O   UNL     1       3.458  14.787 -16.503  1.00  0.00    -0.237 OA
ATOM     99  O   UNL     1       4.059  16.817 -15.222  1.00  0.00    -0.237 OA
ATOM    100  O   UNL     1       5.433  16.115 -17.144  1.00  0.00    -0.744 OA
ENDBRANCH  93  97
ENDBRANCH  67  90
ENDBRANCH  41  42
ENDBRANCH  34  36
ENDBRANCH  33  34
ENDBRANCH  32  33
ENDBRANCH  31  32
ENDBRANCH  30  31
ENDBRANCH  29  30
ENDBRANCH   1  29
TORSDOF 24
