REMARK SMILES Cc1cc(OCC(=O)OCCOCCOCCOC(=O)c2ccc(-c3c4nc(c(-c5cc(S(=O)(=O)[O-])ccc5F)c5ccc([nH]5)c(-c5cc(S(=O)(=O)[O-])ccc5F)c5nc(c(-c6cc(S(=O)(=O)[O-])ccc6F)c6ccc3[nH]6)C=C5)C=C4)cc2)ccc1NC(=O)c1ccc(N2C(=O)[C@@H]3[C@H](C2=O)[C@H]2C=C[C@@H]3C2)cc1
REMARK SMILES IDX 13 1 12 2 11 3 10 4 9 5 7 6 8 7 6 8 5 9 4 10 1 11 2 12 3 13
REMARK SMILES IDX 86 14 85 15 84 16 87 17 88 18 89 20 90 21 91 22 107 23 92 24
REMARK SMILES IDX 106 25 93 26 94 27 95 28 99 29 96 30 97 31 98 32 100 33
REMARK SMILES IDX 104 34 101 35 103 36 105 37 102 38 14 39 15 40 16 41 17 42
REMARK SMILES IDX 18 43 19 44 20 45 21 46 22 47 83 48 23 49 82 50 24 51 25 52
REMARK SMILES IDX 26 53 76 54 27 55 81 56 75 57 77 58 28 59 80 60 74 61 73 62
REMARK SMILES IDX 29 64 61 65 41 66 60 67 42 68 45 69 59 70 78 71 43 72 44 73
REMARK SMILES IDX 58 75 79 76 46 77 30 78 31 79 39 80 32 81 38 82 40 83 37 84
REMARK SMILES IDX 33 85 34 86 35 87 36 88 62 89 63 90 71 91 64 92 70 93 72 94
REMARK SMILES IDX 69 95 65 96 66 97 67 98 68 99 47 100 48 101 56 102 49 103
REMARK SMILES IDX 55 104 57 105 54 106 50 107 51 108 52 109 53 110
REMARK H PARENT 87 19 77 63 45 74
REMARK Flexibility Score: inf
ROOT
ATOM      1  C   UNL     1      -3.753   1.151   3.797  1.00  0.00     0.188 C 
ENDROOT
BRANCH   1   2
ATOM      2  O   UNL     1      -4.047  -0.240   3.576  1.00  0.00    -0.376 OA
BRANCH   2   3
ATOM      3  C   UNL     1      -3.700  -1.254   4.538  1.00  0.00     0.202 C 
BRANCH   3   4
ATOM      4  C   UNL     1      -3.306  -2.889   3.986  1.00  0.00     0.261 C 
BRANCH   4   5
ATOM      5  O   UNL     1      -2.329  -3.366   2.561  1.00  0.00    -0.461 OA
BRANCH   5   6
ATOM      6  C   UNL     1      -2.364  -3.886   1.128  1.00  0.00     0.344 C 
ATOM      7  O   UNL     1      -3.264  -4.405   0.446  1.00  0.00    -0.248 OA
BRANCH   6   8
ATOM      8  C   UNL     1      -1.184  -3.636   0.291  1.00  0.00     0.351 C 
BRANCH   8   9
ATOM      9  O   UNL     1      -0.625  -2.508   0.863  1.00  0.00    -0.482 OA
BRANCH   9  10
ATOM     10  C   UNL     1      -1.036  -1.322   0.181  1.00  0.00     0.120 A 
ATOM     11  C   UNL     1       2.399   0.644  -1.248  1.00  0.00     0.047 C 
ATOM     12  C   UNL     1       0.871   0.590  -1.206  1.00  0.00    -0.024 A 
ATOM     13  C   UNL     1       0.416  -1.066  -0.825  1.00  0.00     0.052 A 
ATOM     14  C   UNL     1      -0.103   2.034  -0.755  1.00  0.00     0.044 A 
ATOM     15  C   UNL     1      -1.573   1.927   0.161  1.00  0.00     0.030 A 
ATOM     16  C   UNL     1      -2.094   0.322   0.729  1.00  0.00     0.048 A 
BRANCH  14  17
ATOM     17  N   UNL     1       0.493   3.313  -0.882  1.00  0.00    -0.322 N 
ATOM     18  C   UNL     1       0.263   4.533  -0.238  1.00  0.00     0.255 C 
ATOM     19  H   UNL     1       1.211   3.350  -1.555  1.00  0.00     0.170 HD
ATOM     20  O   UNL     1       1.010   5.479  -0.512  1.00  0.00    -0.269 OA
BRANCH  18  21
ATOM     21  C   UNL     1      -0.771   4.788   0.820  1.00  0.00     0.040 A 
ATOM     22  C   UNL     1      -1.981   5.404   0.512  1.00  0.00     0.016 A 
ATOM     23  C   UNL     1      -0.514   4.575   2.174  1.00  0.00     0.016 A 
ATOM     24  C   UNL     1      -2.981   5.609   1.507  1.00  0.00     0.027 A 
ATOM     25  C   UNL     1      -1.521   4.787   3.165  1.00  0.00     0.027 A 
ATOM     26  C   UNL     1      -2.826   5.211   2.846  1.00  0.00     0.052 A 
BRANCH  26  27
ATOM     27  N   UNL     1      -3.940   5.175   3.797  1.00  0.00    -0.250 N 
ATOM     28  C   UNL     1      -5.209   5.689   3.553  1.00  0.00     0.238 C 
ATOM     29  C   UNL     1      -3.873   4.667   5.082  1.00  0.00     0.238 C 
ATOM     30  O   UNL     1      -5.549   6.488   2.687  1.00  0.00    -0.274 OA
ATOM     31  C   UNL     1      -6.144   5.382   4.712  1.00  0.00     0.099 C 
ATOM     32  C   UNL     1      -5.198   4.849   5.792  1.00  0.00     0.099 C 
ATOM     33  O   UNL     1      -2.916   4.179   5.672  1.00  0.00    -0.274 OA
ATOM     34  C   UNL     1      -7.236   4.279   4.625  1.00  0.00     0.025 C 
ATOM     35  C   UNL     1      -5.884   3.547   6.255  1.00  0.00     0.025 C 
ATOM     36  C   UNL     1      -8.025   4.334   5.928  1.00  0.00    -0.027 C 
ATOM     37  C   UNL     1      -6.468   3.002   4.946  1.00  0.00     0.017 C 
ATOM     38  C   UNL     1      -7.204   3.921   6.910  1.00  0.00    -0.027 C 
ENDBRANCH  26  27
ENDBRANCH  18  21
ENDBRANCH  14  17
ENDBRANCH   9  10
ENDBRANCH   8   9
ENDBRANCH   6   8
ENDBRANCH   5   6
ENDBRANCH   4   5
ENDBRANCH   3   4
ENDBRANCH   2   3
ENDBRANCH   1   2
BRANCH   1  39
ATOM     39  C   UNL     1      -2.283   1.516   3.834  1.00  0.00     0.188 C 
BRANCH  39  40
ATOM     40  O   UNL     1      -1.648   1.338   5.084  1.00  0.00    -0.376 OA
BRANCH  40  41
ATOM     41  C   UNL     1      -0.319   0.798   4.993  1.00  0.00     0.202 C 
BRANCH  41  42
ATOM     42  C   UNL     1       0.687   1.540   4.041  1.00  0.00     0.261 C 
BRANCH  42  43
ATOM     43  O   UNL     1       1.100   0.764   2.861  1.00  0.00    -0.460 OA
BRANCH  43  44
ATOM     44  C   UNL     1       0.939   1.248   1.562  1.00  0.00     0.338 C 
ATOM     45  O   UNL     1       1.595   2.222   1.246  1.00  0.00    -0.246 OA
BRANCH  44  46
ATOM     46  C   UNL     1      -0.201   0.325   0.721  1.00  0.00     0.060 A 
ATOM     47  C   UNL     1      -1.351   0.125  -0.946  1.00  0.00     0.016 A 
ATOM     48  C   UNL     1      -0.709  -0.532   2.131  1.00  0.00     0.016 A 
ATOM     49  C   UNL     1      -2.909  -0.895  -0.761  1.00  0.00     0.010 A 
ATOM     50  C   UNL     1      -2.197  -1.259   2.130  1.00  0.00     0.010 A 
ATOM     51  C   UNL     1      -3.349  -1.587   0.837  1.00  0.00    -0.014 A 
BRANCH  51  52
ATOM     52  C   UNL     1      -4.708  -2.507   1.488  1.00  0.00     0.031 A 
ATOM     53  C   UNL     1      -4.818  -4.214   2.120  1.00  0.00     0.074 A 
ATOM     54  C   UNL     1      -5.678  -1.688   1.979  1.00  0.00     0.049 A 
ATOM     55  N   UNL     1      -5.886  -4.982   2.231  1.00  0.00    -0.248 NA
ATOM     56  C   UNL     1      -3.678  -5.241   2.603  1.00  0.00     0.031 C 
ATOM     57  C   UNL     1      -6.506  -1.895   3.179  1.00  0.00     0.029 A 
ATOM     58  N   UNL     1      -6.041  -0.389   1.587  1.00  0.00    -0.354 N 
ATOM     59  C   UNL     1      -5.415  -6.164   2.911  1.00  0.00     0.074 A 
ATOM     60  C   UNL     1      -4.150  -6.457   2.397  1.00  0.00     0.031 C 
ATOM     61  C   UNL     1      -7.399  -0.892   3.307  1.00  0.00     0.029 A 
ATOM     62  C   UNL     1      -7.363  -0.168   2.052  1.00  0.00     0.049 A 
ATOM     63  H   UNL     1      -5.484   0.247   1.083  1.00  0.00     0.167 HD
ATOM     64  C   UNL     1      -5.706  -6.443   4.236  1.00  0.00     0.034 A 
ATOM     65  C   UNL     1      -8.397  -0.169   1.151  1.00  0.00     0.034 A 
ATOM     66  C   UNL     1      -6.863  -5.674   4.595  1.00  0.00     0.049 A 
ATOM     67  C   UNL     1      -9.261  -1.419   1.319  1.00  0.00     0.074 A 
ATOM     68  C   UNL     1      -7.223  -4.721   5.519  1.00  0.00     0.029 A 
ATOM     69  N   UNL     1      -7.846  -5.683   3.640  1.00  0.00    -0.354 N 
ATOM     70  N   UNL     1      -8.874  -2.477   1.990  1.00  0.00    -0.248 NA
ATOM     71  C   UNL     1     -10.643  -1.553   0.870  1.00  0.00     0.031 C 
ATOM     72  C   UNL     1      -8.395  -4.069   4.989  1.00  0.00     0.029 A 
ATOM     73  C   UNL     1      -8.739  -4.672   3.787  1.00  0.00     0.049 A 
ATOM     74  H   UNL     1      -7.899  -6.354   2.922  1.00  0.00     0.167 HD
ATOM     75  C   UNL     1      -9.879  -3.390   2.085  1.00  0.00     0.074 A 
ATOM     76  C   UNL     1     -10.967  -2.768   1.354  1.00  0.00     0.031 C 
ATOM     77  C   UNL     1      -9.739  -4.585   2.736  1.00  0.00     0.034 A 
BRANCH  64  78
ATOM     78  C   UNL     1      -4.876  -7.285   5.253  1.00  0.00     0.023 A 
ATOM     79  C   UNL     1      -5.549  -7.728   6.410  1.00  0.00     0.031 A 
ATOM     80  C   UNL     1      -3.493  -7.645   5.233  1.00  0.00     0.131 A 
ATOM     81  C   UNL     1      -4.907  -8.491   7.416  1.00  0.00     0.055 A 
ATOM     82  C   UNL     1      -2.869  -8.454   6.207  1.00  0.00     0.041 A 
ATOM     83  F   UNL     1      -2.624  -7.193   4.320  1.00  0.00    -0.206 F 
ATOM     84  C   UNL     1      -3.578  -8.886   7.309  1.00  0.00     0.022 A 
BRANCH  81  85
ATOM     85  S   UNL     1      -5.844  -8.954   8.896  1.00  0.00     0.124 S 
ATOM     86  O   UNL     1      -6.045  -7.659   9.538  1.00  0.00    -0.237 OA
ATOM     87  O   UNL     1      -7.026  -9.588   8.326  1.00  0.00    -0.237 OA
ATOM     88  O   UNL     1      -4.939  -9.859   9.605  1.00  0.00    -0.744 OA
ENDBRANCH  81  85
ENDBRANCH  64  78
BRANCH  65  89
ATOM     89  C   UNL     1      -7.971   0.532  -0.110  1.00  0.00     0.023 A 
ATOM     90  C   UNL     1      -7.644   1.904   0.029  1.00  0.00     0.031 A 
ATOM     91  C   UNL     1      -7.311  -0.188  -1.121  1.00  0.00     0.131 A 
ATOM     92  C   UNL     1      -6.524   2.429  -0.640  1.00  0.00     0.055 A 
ATOM     93  C   UNL     1      -6.236   0.371  -1.831  1.00  0.00     0.041 A 
ATOM     94  F   UNL     1      -7.569  -1.490  -1.302  1.00  0.00    -0.206 F 
ATOM     95  C   UNL     1      -5.799   1.665  -1.552  1.00  0.00     0.022 A 
BRANCH  92  96
ATOM     96  S   UNL     1      -5.867   4.019  -0.073  1.00  0.00     0.124 S 
ATOM     97  O   UNL     1      -7.038   4.885  -0.145  1.00  0.00    -0.237 OA
ATOM     98  O   UNL     1      -5.410   3.666   1.272  1.00  0.00    -0.237 OA
ATOM     99  O   UNL     1      -4.805   4.322  -1.030  1.00  0.00    -0.744 OA
ENDBRANCH  92  96
ENDBRANCH  65  89
BRANCH  77 100
ATOM    100  C   UNL     1     -10.461  -5.859   2.300  1.00  0.00     0.023 A 
ATOM    101  C   UNL     1     -11.266  -5.877   1.164  1.00  0.00     0.031 A 
ATOM    102  C   UNL     1     -10.275  -7.131   2.916  1.00  0.00     0.131 A 
ATOM    103  C   UNL     1     -11.971  -7.025   0.789  1.00  0.00     0.055 A 
ATOM    104  C   UNL     1     -10.837  -8.314   2.429  1.00  0.00     0.041 A 
ATOM    105  F   UNL     1      -9.526  -7.306   4.014  1.00  0.00    -0.206 F 
ATOM    106  C   UNL     1     -11.739  -8.258   1.385  1.00  0.00     0.022 A 
BRANCH 103 107
ATOM    107  S   UNL     1     -13.347  -6.782  -0.351  1.00  0.00     0.124 S 
ATOM    108  O   UNL     1     -14.126  -5.760   0.346  1.00  0.00    -0.237 OA
ATOM    109  O   UNL     1     -12.673  -6.341  -1.567  1.00  0.00    -0.237 OA
ATOM    110  O   UNL     1     -13.972  -8.100  -0.417  1.00  0.00    -0.744 OA
ENDBRANCH 103 107
ENDBRANCH  77 100
ENDBRANCH  51  52
ENDBRANCH  44  46
ENDBRANCH  43  44
ENDBRANCH  42  43
ENDBRANCH  41  42
ENDBRANCH  40  41
ENDBRANCH  39  40
ENDBRANCH   1  39
TORSDOF 25
