REMARK SMILES O=C(OCCOCCOCCOC(=O)c1ccc([S@@](=O)[C@H]2CCOC3(CCCC3)C2)cc1)c1ccc(-c2c3nc(c(-c4cc(S(=O)(=O)[O-])ccc4F)c4ccc([nH]4)c(-c4cc(S(=O)(=O)[O-])ccc4F)c4nc(c(-c5cc(S(=O)(=O)[O-])ccc5F)c5ccc2[nH]5)C=C4)C=C3)cc1
REMARK SMILES IDX 7 1 6 2 5 3 4 4 3 5 2 6 1 7 33 8 34 9 95 10 35 11 94 12
REMARK SMILES IDX 36 13 37 14 38 15 88 16 39 17 93 18 87 19 89 20 40 21 92 22
REMARK SMILES IDX 86 23 85 24 41 26 73 27 53 28 72 29 54 30 57 31 71 32 90 33
REMARK SMILES IDX 55 34 56 35 70 37 91 38 58 39 42 40 43 41 51 42 44 43 50 44
REMARK SMILES IDX 52 45 49 46 45 47 46 48 47 49 48 50 74 51 75 52 83 53 76 54
REMARK SMILES IDX 82 55 84 56 81 57 77 58 78 59 79 60 80 61 59 62 60 63 68 64
REMARK SMILES IDX 61 65 67 66 69 67 66 68 62 69 63 70 64 71 65 72 8 73 9 74
REMARK SMILES IDX 10 75 11 76 12 77 13 78 14 79 15 80 16 81 32 82 17 83 31 84
REMARK SMILES IDX 18 85 19 86 20 87 21 88 22 89 30 90 23 91 25 92 24 93 26 94
REMARK SMILES IDX 29 95 27 96 28 97
REMARK H PARENT 89 25 57 36
REMARK Flexibility Score: inf
ROOT
ATOM      1  C   UNL     1       6.488  -3.667  16.723  1.00  0.00     0.188 C 
ENDROOT
BRANCH   1   2
ATOM      2  O   UNL     1       7.475  -4.379  15.969  1.00  0.00    -0.376 OA
BRANCH   2   3
ATOM      3  C   UNL     1       8.817  -4.113  16.391  1.00  0.00     0.202 C 
BRANCH   3   4
ATOM      4  C   UNL     1       9.432  -2.828  15.812  1.00  0.00     0.261 C 
BRANCH   4   5
ATOM      5  O   UNL     1       8.471  -1.766  15.686  1.00  0.00    -0.460 OA
BRANCH   5   6
ATOM      6  C   UNL     1       7.765  -1.392  14.587  1.00  0.00     0.338 C 
ATOM      7  O   UNL     1       7.059  -0.386  14.671  1.00  0.00    -0.246 OA
BRANCH   6   8
ATOM      8  C   UNL     1       7.782  -2.127  13.279  1.00  0.00     0.060 A 
ATOM      9  C   UNL     1       8.213  -3.440  13.101  1.00  0.00     0.016 A 
ATOM     10  C   UNL     1       7.280  -1.450  12.150  1.00  0.00     0.016 A 
ATOM     11  C   UNL     1       8.274  -4.020  11.841  1.00  0.00     0.010 A 
ATOM     12  C   UNL     1       7.271  -2.052  10.883  1.00  0.00     0.010 A 
ATOM     13  C   UNL     1       7.813  -3.330  10.722  1.00  0.00    -0.014 A 
BRANCH  13  14
ATOM     14  C   UNL     1       8.022  -3.963   9.403  1.00  0.00     0.031 A 
ATOM     15  C   UNL     1       9.123  -3.453   8.522  1.00  0.00     0.074 A 
ATOM     16  C   UNL     1       7.345  -5.085   9.096  1.00  0.00     0.049 A 
ATOM     17  N   UNL     1       9.538  -3.909   7.370  1.00  0.00    -0.248 NA
ATOM     18  C   UNL     1       9.877  -2.291   9.019  1.00  0.00     0.031 C 
ATOM     19  C   UNL     1       6.314  -5.701   9.936  1.00  0.00     0.029 A 
ATOM     20  N   UNL     1       7.425  -5.914   8.008  1.00  0.00    -0.354 N 
ATOM     21  C   UNL     1      10.621  -3.110   7.019  1.00  0.00     0.074 A 
ATOM     22  C   UNL     1      10.764  -2.110   8.054  1.00  0.00     0.031 C 
ATOM     23  C   UNL     1       5.868  -6.814   9.334  1.00  0.00     0.029 A 
ATOM     24  C   UNL     1       6.535  -6.961   8.047  1.00  0.00     0.049 A 
ATOM     25  H   UNL     1       8.060  -5.773   7.269  1.00  0.00     0.167 HD
ATOM     26  C   UNL     1      11.432  -3.216   5.939  1.00  0.00     0.034 A 
ATOM     27  C   UNL     1       6.269  -7.913   7.132  1.00  0.00     0.034 A 
ATOM     28  C   UNL     1      11.236  -4.191   4.897  1.00  0.00     0.049 A 
ATOM     29  C   UNL     1       7.092  -7.923   5.870  1.00  0.00     0.074 A 
ATOM     30  C   UNL     1      11.914  -4.333   3.700  1.00  0.00     0.029 A 
ATOM     31  N   UNL     1      10.273  -5.193   4.930  1.00  0.00    -0.354 N 
ATOM     32  N   UNL     1       8.075  -7.122   5.523  1.00  0.00    -0.248 NA
ATOM     33  C   UNL     1       6.782  -8.964   4.885  1.00  0.00     0.031 C 
ATOM     34  C   UNL     1      11.328  -5.389   2.990  1.00  0.00     0.029 A 
ATOM     35  C   UNL     1      10.325  -5.945   3.769  1.00  0.00     0.049 A 
ATOM     36  H   UNL     1       9.644  -5.346   5.673  1.00  0.00     0.167 HD
ATOM     37  C   UNL     1       8.513  -7.577   4.284  1.00  0.00     0.074 A 
ATOM     38  C   UNL     1       7.704  -8.737   3.962  1.00  0.00     0.031 C 
ATOM     39  C   UNL     1       9.487  -7.083   3.476  1.00  0.00     0.034 A 
BRANCH  26  40
ATOM     40  C   UNL     1      12.542  -2.203   5.826  1.00  0.00     0.023 A 
ATOM     41  C   UNL     1      13.617  -2.190   6.734  1.00  0.00     0.031 A 
ATOM     42  C   UNL     1      12.483  -1.188   4.857  1.00  0.00     0.131 A 
ATOM     43  C   UNL     1      14.551  -1.142   6.697  1.00  0.00     0.055 A 
ATOM     44  C   UNL     1      13.452  -0.186   4.783  1.00  0.00     0.041 A 
ATOM     45  F   UNL     1      11.464  -1.137   3.985  1.00  0.00    -0.206 F 
ATOM     46  C   UNL     1      14.486  -0.150   5.715  1.00  0.00     0.022 A 
BRANCH  43  47
ATOM     47  S   UNL     1      15.773  -1.016   8.033  1.00  0.00     0.124 S 
ATOM     48  O   UNL     1      14.916  -0.835   9.202  1.00  0.00    -0.237 OA
ATOM     49  O   UNL     1      16.471  -2.293   7.945  1.00  0.00    -0.237 OA
ATOM     50  O   UNL     1      16.566   0.154   7.662  1.00  0.00    -0.744 OA
ENDBRANCH  43  47
ENDBRANCH  26  40
BRANCH  27  51
ATOM     51  C   UNL     1       5.157  -8.885   7.342  1.00  0.00     0.023 A 
ATOM     52  C   UNL     1       5.391 -10.267   7.401  1.00  0.00     0.031 A 
ATOM     53  C   UNL     1       3.822  -8.443   7.430  1.00  0.00     0.131 A 
ATOM     54  C   UNL     1       4.309 -11.158   7.492  1.00  0.00     0.055 A 
ATOM     55  C   UNL     1       2.753  -9.329   7.573  1.00  0.00     0.041 A 
ATOM     56  F   UNL     1       3.536  -7.132   7.389  1.00  0.00    -0.206 F 
ATOM     57  C   UNL     1       2.993 -10.698   7.588  1.00  0.00     0.022 A 
BRANCH  54  58
ATOM     58  S   UNL     1       4.636 -12.939   7.377  1.00  0.00     0.124 S 
ATOM     59  O   UNL     1       5.422 -13.019   6.151  1.00  0.00    -0.237 OA
ATOM     60  O   UNL     1       5.358 -13.188   8.620  1.00  0.00    -0.237 OA
ATOM     61  O   UNL     1       3.300 -13.525   7.303  1.00  0.00    -0.744 OA
ENDBRANCH  54  58
ENDBRANCH  27  51
BRANCH  39  62
ATOM     62  C   UNL     1       9.718  -7.822   2.185  1.00  0.00     0.023 A 
ATOM     63  C   UNL     1       8.756  -7.813   1.161  1.00  0.00     0.031 A 
ATOM     64  C   UNL     1      10.891  -8.570   1.993  1.00  0.00     0.131 A 
ATOM     65  C   UNL     1       8.955  -8.593   0.014  1.00  0.00     0.055 A 
ATOM     66  C   UNL     1      11.110  -9.298   0.824  1.00  0.00     0.041 A 
ATOM     67  F   UNL     1      11.839  -8.609   2.943  1.00  0.00    -0.206 F 
ATOM     68  C   UNL     1      10.132  -9.325  -0.167  1.00  0.00     0.022 A 
BRANCH  65  69
ATOM     69  S   UNL     1       7.606  -8.716  -1.191  1.00  0.00     0.124 S 
ATOM     70  O   UNL     1       6.518  -9.244  -0.375  1.00  0.00    -0.237 OA
ATOM     71  O   UNL     1       7.458  -7.334  -1.635  1.00  0.00    -0.237 OA
ATOM     72  O   UNL     1       8.130  -9.638  -2.198  1.00  0.00    -0.744 OA
ENDBRANCH  65  69
ENDBRANCH  39  62
ENDBRANCH  13  14
ENDBRANCH   6   8
ENDBRANCH   5   6
ENDBRANCH   4   5
ENDBRANCH   3   4
ENDBRANCH   2   3
ENDBRANCH   1   2
BRANCH   1  73
ATOM     73  C   UNL     1       5.224  -4.499  16.947  1.00  0.00     0.188 C 
BRANCH  73  74
ATOM     74  O   UNL     1       5.374  -5.649  17.778  1.00  0.00    -0.376 OA
BRANCH  74  75
ATOM     75  C   UNL     1       6.175  -6.710  17.264  1.00  0.00     0.202 C 
BRANCH  75  76
ATOM     76  C   UNL     1       5.571  -7.577  16.148  1.00  0.00     0.261 C 
BRANCH  76  77
ATOM     77  O   UNL     1       5.153  -6.869  14.967  1.00  0.00    -0.460 OA
BRANCH  77  78
ATOM     78  C   UNL     1       3.813  -6.774  14.814  1.00  0.00     0.338 C 
ATOM     79  O   UNL     1       2.948  -7.133  15.615  1.00  0.00    -0.246 OA
BRANCH  78  80
ATOM     80  C   UNL     1       3.453  -6.131  13.542  1.00  0.00     0.060 A 
ATOM     81  C   UNL     1       2.897  -4.847  13.564  1.00  0.00     0.017 A 
ATOM     82  C   UNL     1       3.417  -6.893  12.373  1.00  0.00     0.017 A 
ATOM     83  C   UNL     1       2.252  -4.346  12.427  1.00  0.00     0.018 A 
ATOM     84  C   UNL     1       2.770  -6.385  11.238  1.00  0.00     0.018 A 
ATOM     85  C   UNL     1       2.159  -5.122  11.266  1.00  0.00     0.039 A 
BRANCH  85  86
ATOM     86  S   UNL     1       1.008  -4.698   9.944  1.00  0.00     0.056 S 
ATOM     87  O   UNL     1      -0.167  -4.060  10.630  1.00  0.00    -0.254 OA
BRANCH  86  88
ATOM     88  C   UNL     1       1.849  -3.401   8.999  1.00  0.00     0.089 C 
ATOM     89  C   UNL     1       1.992  -2.075   9.732  1.00  0.00     0.046 C 
ATOM     90  C   UNL     1       3.188  -3.820   8.413  1.00  0.00     0.053 C 
ATOM     91  C   UNL     1       2.542  -1.035   8.767  1.00  0.00     0.162 C 
ATOM     92  C   UNL     1       3.720  -2.722   7.473  1.00  0.00     0.069 C 
ATOM     93  O   UNL     1       3.764  -1.461   8.169  1.00  0.00    -0.375 OA
ATOM     94  C   UNL     1       5.165  -3.027   7.021  1.00  0.00     0.035 C 
ATOM     95  C   UNL     1       2.922  -2.615   6.155  1.00  0.00     0.035 C 
ATOM     96  C   UNL     1       5.152  -3.078   5.498  1.00  0.00     0.003 C 
ATOM     97  C   UNL     1       3.959  -2.230   5.109  1.00  0.00     0.003 C 
ENDBRANCH  86  88
ENDBRANCH  85  86
ENDBRANCH  78  80
ENDBRANCH  77  78
ENDBRANCH  76  77
ENDBRANCH  75  76
ENDBRANCH  74  75
ENDBRANCH  73  74
ENDBRANCH   1  73
TORSDOF 22
