REMARK SMILES O=C(C[C@@H](NS(=O)(=O)c1ccc2c(c1)OCCO2)c1ccccc1)OCCOCCOCCOC(=O)c1ccc(-c2c3nc(c(-c4cc(S(=O)(=O)[O-])ccc4F)c4ccc([nH]4)c(-c4cc(S(=O)(=O)[O-])ccc4F)c4nc(c(-c5cc(S(=O)(=O)[O-])ccc5F)c5ccc2[nH]5)C=C4)C=C3)cc1
REMARK SMILES IDX 29 1 28 2 27 3 26 4 25 5 2 6 1 7 3 8 4 9 5 10 6 12 7 13 8 14
REMARK SMILES IDX 9 15 10 16 14 17 11 18 13 19 12 20 15 21 18 22 16 23 17 24
REMARK SMILES IDX 19 25 20 26 24 27 21 28 23 29 22 30 30 31 31 32 32 33 33 34
REMARK SMILES IDX 34 35 35 36 36 37 37 38 38 39 99 40 39 41 98 42 40 43 41 44
REMARK SMILES IDX 42 45 92 46 43 47 97 48 91 49 93 50 44 51 96 52 90 53 89 54
REMARK SMILES IDX 45 56 77 57 57 58 76 59 58 60 61 61 75 62 94 63 59 64 60 65
REMARK SMILES IDX 74 67 95 68 62 69 46 70 47 71 55 72 48 73 54 74 56 75 53 76
REMARK SMILES IDX 49 77 50 78 51 79 52 80 78 81 79 82 87 83 80 84 86 85 88 86
REMARK SMILES IDX 85 87 81 88 82 89 83 90 84 91 63 92 64 93 72 94 65 95 71 96
REMARK SMILES IDX 73 97 70 98 66 99 67 100 68 101 69 102
REMARK H PARENT 5 11 93 55 61 66
REMARK Flexibility Score: inf
ROOT
ATOM      1  C   UNL     1       3.032  -1.364  -1.316  1.00  0.00     0.188 C 
ENDROOT
BRANCH   1   2
ATOM      2  O   UNL     1       4.433  -1.435  -1.164  1.00  0.00    -0.376 OA
BRANCH   2   3
ATOM      3  C   UNL     1       5.021  -0.792  -0.047  1.00  0.00     0.202 C 
BRANCH   3   4
ATOM      4  C   UNL     1       4.283  -0.896   1.286  1.00  0.00     0.261 C 
BRANCH   4   5
ATOM      5  O   UNL     1       3.361   0.165   1.726  1.00  0.00    -0.463 OA
BRANCH   5   6
ATOM      6  C   UNL     1       2.474   0.930   1.046  1.00  0.00     0.307 C 
ATOM      7  O   UNL     1       1.299   0.972   1.398  1.00  0.00    -0.252 OA
BRANCH   6   8
ATOM      8  C   UNL     1       2.983   1.800  -0.074  1.00  0.00     0.147 C 
BRANCH   8   9
ATOM      9  C   UNL     1       4.105   2.779   0.300  1.00  0.00     0.111 C 
BRANCH   9  10
ATOM     10  N   UNL     1       5.162   2.057   1.053  1.00  0.00    -0.203 NA
ATOM     11  H   UNL     1       5.654   1.481   0.370  1.00  0.00     0.142 HD
BRANCH  10  12
ATOM     12  S   UNL     1       6.345   2.856   1.929  1.00  0.00     0.241 S 
ATOM     13  O   UNL     1       5.648   3.750   2.830  1.00  0.00    -0.207 OA
ATOM     14  O   UNL     1       7.204   1.812   2.439  1.00  0.00    -0.207 OA
BRANCH  12  15
ATOM     15  C   UNL     1       7.234   3.772   0.730  1.00  0.00     0.086 A 
ATOM     16  C   UNL     1       8.081   3.113  -0.168  1.00  0.00     0.026 A 
ATOM     17  C   UNL     1       7.019   5.146   0.655  1.00  0.00     0.072 A 
ATOM     18  C   UNL     1       8.676   3.843  -1.197  1.00  0.00     0.052 A 
ATOM     19  C   UNL     1       7.593   5.856  -0.387  1.00  0.00     0.162 A 
ATOM     20  C   UNL     1       8.425   5.212  -1.310  1.00  0.00     0.161 A 
ATOM     21  O   UNL     1       7.264   7.183  -0.459  1.00  0.00    -0.486 OA
ATOM     22  O   UNL     1       8.998   5.858  -2.374  1.00  0.00    -0.486 OA
ATOM     23  C   UNL     1       7.491   7.689  -1.776  1.00  0.00     0.271 C 
ATOM     24  C   UNL     1       8.871   7.282  -2.264  1.00  0.00     0.271 C 
ENDBRANCH  12  15
ENDBRANCH  10  12
ENDBRANCH   9  10
BRANCH   9  25
ATOM     25  C   UNL     1       4.583   3.384  -1.018  1.00  0.00    -0.029 A 
ATOM     26  C   UNL     1       5.313   2.638  -1.966  1.00  0.00     0.005 A 
ATOM     27  C   UNL     1       4.244   4.702  -1.344  1.00  0.00     0.005 A 
ATOM     28  C   UNL     1       5.743   3.205  -3.166  1.00  0.00     0.000 A 
ATOM     29  C   UNL     1       4.678   5.270  -2.544  1.00  0.00     0.000 A 
ATOM     30  C   UNL     1       5.440   4.529  -3.446  1.00  0.00     0.000 A 
ENDBRANCH   9  25
ENDBRANCH   8   9
ENDBRANCH   6   8
ENDBRANCH   5   6
ENDBRANCH   4   5
ENDBRANCH   3   4
ENDBRANCH   2   3
ENDBRANCH   1   2
BRANCH   1  31
ATOM     31  C   UNL     1       2.292  -2.699  -1.196  1.00  0.00     0.188 C 
BRANCH  31  32
ATOM     32  O   UNL     1       2.993  -3.824  -0.697  1.00  0.00    -0.376 OA
BRANCH  32  33
ATOM     33  C   UNL     1       4.255  -4.146  -1.272  1.00  0.00     0.202 C 
BRANCH  33  34
ATOM     34  C   UNL     1       4.432  -4.177  -2.804  1.00  0.00     0.261 C 
BRANCH  34  35
ATOM     35  O   UNL     1       4.029  -2.997  -3.534  1.00  0.00    -0.460 OA
BRANCH  35  36
ATOM     36  C   UNL     1       2.943  -3.133  -4.340  1.00  0.00     0.338 C 
ATOM     37  O   UNL     1       2.254  -4.130  -4.471  1.00  0.00    -0.246 OA
BRANCH  36  38
ATOM     38  C   UNL     1       2.605  -1.839  -4.976  1.00  0.00     0.060 A 
ATOM     39  C   UNL     1       1.452  -1.147  -4.576  1.00  0.00     0.016 A 
ATOM     40  C   UNL     1       3.371  -1.356  -6.037  1.00  0.00     0.016 A 
ATOM     41  C   UNL     1       1.073   0.037  -5.224  1.00  0.00     0.010 A 
ATOM     42  C   UNL     1       2.974  -0.187  -6.701  1.00  0.00     0.010 A 
ATOM     43  C   UNL     1       1.817   0.515  -6.309  1.00  0.00    -0.014 A 
BRANCH  43  44
ATOM     44  C   UNL     1       1.355   1.682  -7.112  1.00  0.00     0.031 A 
ATOM     45  C   UNL     1       0.676   1.443  -8.436  1.00  0.00     0.074 A 
ATOM     46  C   UNL     1       1.572   2.946  -6.697  1.00  0.00     0.049 A 
ATOM     47  N   UNL     1       0.346   2.302  -9.366  1.00  0.00    -0.248 NA
ATOM     48  C   UNL     1       0.326   0.050  -8.752  1.00  0.00     0.031 C 
ATOM     49  C   UNL     1       2.159   3.322  -5.412  1.00  0.00     0.029 A 
ATOM     50  N   UNL     1       1.347   4.150  -7.326  1.00  0.00    -0.354 N 
ATOM     51  C   UNL     1      -0.227   1.555 -10.390  1.00  0.00     0.074 A 
ATOM     52  C   UNL     1      -0.196   0.171  -9.966  1.00  0.00     0.031 C 
ATOM     53  C   UNL     1       2.273   4.661  -5.363  1.00  0.00     0.029 A 
ATOM     54  C   UNL     1       1.836   5.235  -6.633  1.00  0.00     0.049 A 
ATOM     55  H   UNL     1       0.881   4.228  -8.190  1.00  0.00     0.167 HD
ATOM     56  C   UNL     1      -0.723   1.986 -11.576  1.00  0.00     0.034 A 
ATOM     57  C   UNL     1       1.972   6.530  -6.995  1.00  0.00     0.034 A 
ATOM     58  C   UNL     1      -0.753   3.369 -11.987  1.00  0.00     0.049 A 
ATOM     59  C   UNL     1       1.507   6.965  -8.367  1.00  0.00     0.074 A 
ATOM     60  C   UNL     1      -1.289   3.906 -13.146  1.00  0.00     0.029 A 
ATOM     61  N   UNL     1      -0.207   4.428 -11.277  1.00  0.00    -0.354 N 
ATOM     62  N   UNL     1       0.938   6.252  -9.310  1.00  0.00    -0.248 NA
ATOM     63  C   UNL     1       1.705   8.378  -8.724  1.00  0.00     0.031 C 
ATOM     64  C   UNL     1      -0.980   5.268 -13.183  1.00  0.00     0.029 A 
ATOM     65  C   UNL     1      -0.338   5.603 -12.002  1.00  0.00     0.049 A 
ATOM     66  H   UNL     1       0.211   4.356 -10.389  1.00  0.00     0.167 HD
ATOM     67  C   UNL     1       0.687   7.138 -10.356  1.00  0.00     0.074 A 
ATOM     68  C   UNL     1       1.144   8.439  -9.922  1.00  0.00     0.031 C 
ATOM     69  C   UNL     1       0.129   6.897 -11.569  1.00  0.00     0.034 A 
BRANCH  56  70
ATOM     70  C   UNL     1      -1.217   0.954 -12.559  1.00  0.00     0.023 A 
ATOM     71  C   UNL     1      -2.370   0.187 -12.325  1.00  0.00     0.031 A 
ATOM     72  C   UNL     1      -0.541   0.778 -13.781  1.00  0.00     0.131 A 
ATOM     73  C   UNL     1      -2.795  -0.743 -13.288  1.00  0.00     0.055 A 
ATOM     74  C   UNL     1      -1.006  -0.099 -14.761  1.00  0.00     0.041 A 
ATOM     75  F   UNL     1       0.579   1.469 -14.046  1.00  0.00    -0.206 F 
ATOM     76  C   UNL     1      -2.137  -0.870 -14.514  1.00  0.00     0.022 A 
BRANCH  73  77
ATOM     77  S   UNL     1      -4.170  -1.853 -12.880  1.00  0.00     0.124 S 
ATOM     78  O   UNL     1      -3.653  -2.542 -11.700  1.00  0.00    -0.237 OA
ATOM     79  O   UNL     1      -5.268  -0.923 -12.647  1.00  0.00    -0.237 OA
ATOM     80  O   UNL     1      -4.301  -2.688 -14.072  1.00  0.00    -0.744 OA
ENDBRANCH  73  77
ENDBRANCH  56  70
BRANCH  57  81
ATOM     81  C   UNL     1       2.666   7.511  -6.105  1.00  0.00     0.023 A 
ATOM     82  C   UNL     1       2.022   8.673  -5.653  1.00  0.00     0.031 A 
ATOM     83  C   UNL     1       4.032   7.360  -5.801  1.00  0.00     0.131 A 
ATOM     84  C   UNL     1       2.757   9.665  -4.982  1.00  0.00     0.055 A 
ATOM     85  C   UNL     1       4.739   8.315  -5.066  1.00  0.00     0.041 A 
ATOM     86  F   UNL     1       4.709   6.283  -6.227  1.00  0.00    -0.206 F 
ATOM     87  C   UNL     1       4.105   9.485  -4.666  1.00  0.00     0.022 A 
BRANCH  84  88
ATOM     88  S   UNL     1       1.965  11.269  -4.668  1.00  0.00     0.124 S 
ATOM     89  O   UNL     1       1.568  11.667  -6.013  1.00  0.00    -0.237 OA
ATOM     90  O   UNL     1       0.885  10.898  -3.760  1.00  0.00    -0.237 OA
ATOM     91  O   UNL     1       3.037  12.062  -4.070  1.00  0.00    -0.744 OA
ENDBRANCH  84  88
ENDBRANCH  57  81
BRANCH  69  92
ATOM     92  C   UNL     1      -0.052   8.072 -12.500  1.00  0.00     0.023 A 
ATOM     93  C   UNL     1       1.046   8.753 -13.054  1.00  0.00     0.031 A 
ATOM     94  C   UNL     1      -1.343   8.512 -12.844  1.00  0.00     0.131 A 
ATOM     95  C   UNL     1       0.834   9.864 -13.885  1.00  0.00     0.055 A 
ATOM     96  C   UNL     1      -1.549   9.577 -13.723  1.00  0.00     0.041 A 
ATOM     97  F   UNL     1      -2.429   7.905 -12.340  1.00  0.00    -0.206 F 
ATOM     98  C   UNL     1      -0.456  10.266 -14.241  1.00  0.00     0.022 A 
BRANCH  95  99
ATOM     99  S   UNL     1       2.268  10.830 -14.433  1.00  0.00     0.124 S 
ATOM    100  O   UNL     1       2.840  11.269 -13.165  1.00  0.00    -0.237 OA
ATOM    101  O   UNL     1       3.046   9.843 -15.175  1.00  0.00    -0.237 OA
ATOM    102  O   UNL     1       1.677  11.890 -15.248  1.00  0.00    -0.744 OA
ENDBRANCH  95  99
ENDBRANCH  69  92
ENDBRANCH  43  44
ENDBRANCH  36  38
ENDBRANCH  35  36
ENDBRANCH  34  35
ENDBRANCH  33  34
ENDBRANCH  32  33
ENDBRANCH  31  32
ENDBRANCH   1  31
TORSDOF 25
