REMARK SMILES COc1ccc(C(=O)OCCOCCOCCOC(=O)c2ccc(-c3c4nc(c(-c5cc(S(=O)(=O)[O-])ccc5F)c5ccc([nH]5)c(-c5cc(S(=O)(=O)[O-])ccc5F)c5nc(c(-c6cc(S(=O)(=O)[O-])ccc6F)c6ccc3[nH]6)C=C5)C=C4)cc2)cc1Oc1nc(C(C)(C)C)ns1
REMARK SMILES IDX 13 1 12 2 11 3 10 4 9 5 7 6 8 7 6 8 3 9 4 10 85 11 5 12
REMARK SMILES IDX 84 13 2 14 1 15 86 16 87 17 88 18 95 19 89 20 94 21 90 22
REMARK SMILES IDX 91 23 92 24 93 25 14 26 15 27 16 28 17 29 18 30 19 31 20 32
REMARK SMILES IDX 21 33 22 34 83 35 23 36 82 37 24 38 25 39 26 40 76 41 27 42
REMARK SMILES IDX 81 43 75 44 77 45 28 46 80 47 74 48 73 49 29 51 61 52 41 53
REMARK SMILES IDX 60 54 42 55 45 56 59 57 78 58 43 59 44 60 58 62 79 63 46 64
REMARK SMILES IDX 30 65 31 66 39 67 32 68 38 69 40 70 37 71 33 72 34 73 35 74
REMARK SMILES IDX 36 75 62 76 63 77 71 78 64 79 70 80 72 81 69 82 65 83 66 84
REMARK SMILES IDX 67 85 68 86 47 87 48 88 56 89 49 90 55 91 57 92 54 93 50 94
REMARK SMILES IDX 51 95 52 96 53 97
REMARK H PARENT 77 50 45 61
REMARK Flexibility Score: inf
ROOT
ATOM      1  C   UNL     1       2.171   5.020  -5.967  1.00  0.00     0.188 C 
ENDROOT
BRANCH   1   2
ATOM      2  O   UNL     1       2.709   6.290  -6.274  1.00  0.00    -0.376 OA
BRANCH   2   3
ATOM      3  C   UNL     1       3.646   6.902  -5.404  1.00  0.00     0.202 C 
BRANCH   3   4
ATOM      4  C   UNL     1       3.699   6.658  -3.886  1.00  0.00     0.261 C 
BRANCH   4   5
ATOM      5  O   UNL     1       3.434   5.320  -3.443  1.00  0.00    -0.460 OA
BRANCH   5   6
ATOM      6  C   UNL     1       2.375   5.210  -2.607  1.00  0.00     0.338 C 
ATOM      7  O   UNL     1       1.699   6.122  -2.157  1.00  0.00    -0.246 OA
BRANCH   6   8
ATOM      8  C   UNL     1       1.986   3.802  -2.409  1.00  0.00     0.064 A 
ATOM      9  C   UNL     1       0.955   1.343  -1.665  1.00  0.00     0.161 A 
ATOM     10  C   UNL     1       0.171   2.219  -2.421  1.00  0.00     0.051 A 
ATOM     11  C   UNL     1       2.302   1.625  -1.387  1.00  0.00     0.173 A 
ATOM     12  C   UNL     1       0.677   3.462  -2.768  1.00  0.00     0.020 A 
ATOM     13  C   UNL     1       2.821   2.872  -1.775  1.00  0.00     0.067 A 
BRANCH   9  14
ATOM     14  O   UNL     1       0.320   0.238  -1.166  1.00  0.00    -0.493 OA
ATOM     15  C   UNL     1      -0.359   0.611   0.041  1.00  0.00     0.278 C 
ENDBRANCH   9  14
BRANCH  11  16
ATOM     16  O   UNL     1       3.180   0.810  -0.699  1.00  0.00    -0.426 OA
BRANCH  16  17
ATOM     17  C   UNL     1       2.815  -0.381  -0.223  1.00  0.00     0.298 A 
ATOM     18  N   UNL     1       2.425  -0.570   1.021  1.00  0.00    -0.185 NA
ATOM     19  S   UNL     1       2.901  -1.845  -1.110  1.00  0.00     0.025 S 
ATOM     20  C   UNL     1       2.078  -1.917   1.172  1.00  0.00     0.151 A 
ATOM     21  N   UNL     1       2.312  -2.762   0.160  1.00  0.00    -0.172 NA
BRANCH  20  22
ATOM     22  C   UNL     1       1.512  -2.415   2.495  1.00  0.00     0.023 C 
ATOM     23  C   UNL     1       2.664  -2.654   3.487  1.00  0.00     0.019 C 
ATOM     24  C   UNL     1       0.545  -1.383   3.111  1.00  0.00     0.019 C 
ATOM     25  C   UNL     1       0.723  -3.734   2.328  1.00  0.00     0.019 C 
ENDBRANCH  20  22
ENDBRANCH  16  17
ENDBRANCH  11  16
ENDBRANCH   6   8
ENDBRANCH   5   6
ENDBRANCH   4   5
ENDBRANCH   3   4
ENDBRANCH   2   3
ENDBRANCH   1   2
BRANCH   1  26
ATOM     26  C   UNL     1       3.105   3.795  -5.914  1.00  0.00     0.188 C 
BRANCH  26  27
ATOM     27  O   UNL     1       4.499   3.991  -5.974  1.00  0.00    -0.376 OA
BRANCH  27  28
ATOM     28  C   UNL     1       5.122   4.406  -7.177  1.00  0.00     0.202 C 
BRANCH  28  29
ATOM     29  C   UNL     1       4.517   4.318  -8.591  1.00  0.00     0.261 C 
BRANCH  29  30
ATOM     30  O   UNL     1       3.097   4.237  -8.715  1.00  0.00    -0.460 OA
BRANCH  30  31
ATOM     31  C   UNL     1       2.618   3.017  -9.053  1.00  0.00     0.338 C 
ATOM     32  O   UNL     1       3.266   1.988  -9.210  1.00  0.00    -0.246 OA
BRANCH  31  33
ATOM     33  C   UNL     1       1.148   3.059  -9.043  1.00  0.00     0.060 A 
ATOM     34  C   UNL     1       0.457   2.350  -8.052  1.00  0.00     0.016 A 
ATOM     35  C   UNL     1       0.455   3.758 -10.032  1.00  0.00     0.016 A 
ATOM     36  C   UNL     1      -0.937   2.328  -8.054  1.00  0.00     0.010 A 
ATOM     37  C   UNL     1      -0.943   3.715 -10.046  1.00  0.00     0.010 A 
ATOM     38  C   UNL     1      -1.645   2.981  -9.072  1.00  0.00    -0.014 A 
BRANCH  38  39
ATOM     39  C   UNL     1      -3.104   2.755  -9.221  1.00  0.00     0.031 A 
ATOM     40  C   UNL     1      -3.572   1.748 -10.236  1.00  0.00     0.074 A 
ATOM     41  C   UNL     1      -3.995   3.413  -8.456  1.00  0.00     0.049 A 
ATOM     42  N   UNL     1      -4.788   1.451 -10.613  1.00  0.00    -0.248 NA
ATOM     43  C   UNL     1      -2.523   0.973 -10.918  1.00  0.00     0.031 C 
ATOM     44  C   UNL     1      -3.660   4.365  -7.399  1.00  0.00     0.029 A 
ATOM     45  N   UNL     1      -5.368   3.386  -8.462  1.00  0.00    -0.354 N 
ATOM     46  C   UNL     1      -4.654   0.451 -11.570  1.00  0.00     0.074 A 
ATOM     47  C   UNL     1      -3.235   0.225 -11.747  1.00  0.00     0.031 C 
ATOM     48  C   UNL     1      -4.799   4.848  -6.872  1.00  0.00     0.029 A 
ATOM     49  C   UNL     1      -5.942   4.277  -7.583  1.00  0.00     0.049 A 
ATOM     50  H   UNL     1      -5.893   2.787  -9.040  1.00  0.00     0.167 HD
ATOM     51  C   UNL     1      -5.625  -0.226 -12.229  1.00  0.00     0.034 A 
ATOM     52  C   UNL     1      -7.236   4.616  -7.404  1.00  0.00     0.034 A 
ATOM     53  C   UNL     1      -7.035   0.022 -12.060  1.00  0.00     0.049 A 
ATOM     54  C   UNL     1      -8.296   3.931  -8.242  1.00  0.00     0.074 A 
ATOM     55  C   UNL     1      -8.100  -0.587 -12.699  1.00  0.00     0.029 A 
ATOM     56  N   UNL     1      -7.577   0.959 -11.191  1.00  0.00    -0.354 N 
ATOM     57  N   UNL     1      -8.154   2.996  -9.155  1.00  0.00    -0.248 NA
ATOM     58  C   UNL     1      -9.689   4.340  -8.019  1.00  0.00     0.031 C 
ATOM     59  C   UNL     1      -9.280   0.025 -12.267  1.00  0.00     0.029 A 
ATOM     60  C   UNL     1      -8.960   0.959 -11.295  1.00  0.00     0.049 A 
ATOM     61  H   UNL     1      -7.057   1.539 -10.589  1.00  0.00     0.167 HD
ATOM     62  C   UNL     1      -9.445   2.679  -9.577  1.00  0.00     0.074 A 
ATOM     63  C   UNL     1     -10.348   3.508  -8.810  1.00  0.00     0.031 C 
ATOM     64  C   UNL     1      -9.850   1.783 -10.514  1.00  0.00     0.034 A 
BRANCH  51  65
ATOM     65  C   UNL     1      -5.190  -1.275 -13.221  1.00  0.00     0.023 A 
ATOM     66  C   UNL     1      -4.522  -2.442 -12.810  1.00  0.00     0.031 A 
ATOM     67  C   UNL     1      -5.446  -1.110 -14.594  1.00  0.00     0.131 A 
ATOM     68  C   UNL     1      -4.090  -3.373 -13.766  1.00  0.00     0.055 A 
ATOM     69  C   UNL     1      -5.079  -2.076 -15.532  1.00  0.00     0.041 A 
ATOM     70  F   UNL     1      -6.057  -0.003 -15.046  1.00  0.00    -0.206 F 
ATOM     71  C   UNL     1      -4.387  -3.211 -15.121  1.00  0.00     0.022 A 
BRANCH  68  72
ATOM     72  S   UNL     1      -3.031  -4.743 -13.225  1.00  0.00     0.124 S 
ATOM     73  O   UNL     1      -1.880  -4.027 -12.681  1.00  0.00    -0.237 OA
ATOM     74  O   UNL     1      -3.875  -5.429 -12.253  1.00  0.00    -0.237 OA
ATOM     75  O   UNL     1      -2.771  -5.482 -14.458  1.00  0.00    -0.744 OA
ENDBRANCH  68  72
ENDBRANCH  51  65
BRANCH  52  76
ATOM     76  C   UNL     1      -7.623   5.694  -6.445  1.00  0.00     0.023 A 
ATOM     77  C   UNL     1      -8.512   5.441  -5.388  1.00  0.00     0.031 A 
ATOM     78  C   UNL     1      -7.200   7.022  -6.640  1.00  0.00     0.131 A 
ATOM     79  C   UNL     1      -9.012   6.506  -4.621  1.00  0.00     0.055 A 
ATOM     80  C   UNL     1      -7.641   8.067  -5.826  1.00  0.00     0.041 A 
ATOM     81  F   UNL     1      -6.357   7.328  -7.639  1.00  0.00    -0.206 F 
ATOM     82  C   UNL     1      -8.571   7.816  -4.823  1.00  0.00     0.022 A 
BRANCH  79  83
ATOM     83  S   UNL     1     -10.363   6.175  -3.455  1.00  0.00     0.124 S 
ATOM     84  O   UNL     1     -11.355   5.553  -4.324  1.00  0.00    -0.237 OA
ATOM     85  O   UNL     1      -9.716   5.295  -2.487  1.00  0.00    -0.237 OA
ATOM     86  O   UNL     1     -10.713   7.502  -2.954  1.00  0.00    -0.744 OA
ENDBRANCH  79  83
ENDBRANCH  52  76
BRANCH  64  87
ATOM     87  C   UNL     1     -11.338   1.603 -10.705  1.00  0.00     0.023 A 
ATOM     88  C   UNL     1     -12.155   2.628 -11.213  1.00  0.00     0.031 A 
ATOM     89  C   UNL     1     -11.947   0.380 -10.368  1.00  0.00     0.131 A 
ATOM     90  C   UNL     1     -13.541   2.433 -11.313  1.00  0.00     0.055 A 
ATOM     91  C   UNL     1     -13.316   0.169 -10.533  1.00  0.00     0.041 A 
ATOM     92  F   UNL     1     -11.217  -0.635  -9.877  1.00  0.00    -0.206 F 
ATOM     93  C   UNL     1     -14.124   1.203 -10.994  1.00  0.00     0.022 A 
BRANCH  90  94
ATOM     94  S   UNL     1     -14.589   3.839 -11.776  1.00  0.00     0.124 S 
ATOM     95  O   UNL     1     -14.269   4.812 -10.737  1.00  0.00    -0.237 OA
ATOM     96  O   UNL     1     -14.109   4.158 -13.117  1.00  0.00    -0.237 OA
ATOM     97  O   UNL     1     -15.944   3.292 -11.718  1.00  0.00    -0.744 OA
ENDBRANCH  90  94
ENDBRANCH  64  87
ENDBRANCH  38  39
ENDBRANCH  31  33
ENDBRANCH  30  31
ENDBRANCH  29  30
ENDBRANCH  28  29
ENDBRANCH  27  28
ENDBRANCH  26  27
ENDBRANCH   1  26
TORSDOF 24
