REMARK SMILES O=C(CSc1nc(O)cc(=O)[nH]1)Nc1cccc(C(=O)OCCOCCOCCOC(=O)c2ccc(-c3c4nc(c(-c5cc(S(=O)(=O)[O-])ccc5F)c5ccc([nH]5)c(-c5cc(S(=O)(=O)[O-])ccc5F)c5nc(c(-c6cc(S(=O)(=O)[O-])ccc6F)c6ccc3[nH]6)C=C5)C=C4)cc2)c1
REMARK SMILES IDX 25 1 24 2 23 3 22 4 21 5 19 6 20 7 18 8 14 9 15 10 96 11
REMARK SMILES IDX 16 12 17 13 13 14 1 15 2 16 3 18 4 19 5 20 6 21 12 22 7 23
REMARK SMILES IDX 10 24 9 26 11 27 8 28 26 30 27 31 28 32 29 33 30 34 31 35
REMARK SMILES IDX 32 36 33 37 34 38 95 39 35 40 94 41 36 42 37 43 38 44 88 45
REMARK SMILES IDX 39 46 93 47 87 48 89 49 40 50 92 51 86 52 85 53 41 55 73 56
REMARK SMILES IDX 53 57 72 58 54 59 57 60 71 61 90 62 55 63 56 64 70 66 91 67
REMARK SMILES IDX 58 68 42 69 43 70 51 71 44 72 50 73 52 74 49 75 45 76 46 77
REMARK SMILES IDX 47 78 48 79 74 80 75 81 83 82 76 83 82 84 84 85 81 86 77 87
REMARK SMILES IDX 78 88 79 89 80 90 59 91 60 92 68 93 61 94 67 95 69 96 66 97
REMARK SMILES IDX 62 98 63 99 64 100 65 101
REMARK H PARENT 13 17 12 25 8 29 89 54 57 65
REMARK Flexibility Score: inf
ROOT
ATOM      1  C   UNL     1      -0.272  -6.260  -0.800  1.00  0.00     0.188 C 
ENDROOT
BRANCH   1   2
ATOM      2  O   UNL     1      -1.515  -6.517  -1.443  1.00  0.00    -0.376 OA
BRANCH   2   3
ATOM      3  C   UNL     1      -2.242  -5.453  -2.041  1.00  0.00     0.202 C 
BRANCH   3   4
ATOM      4  C   UNL     1      -2.471  -4.122  -1.303  1.00  0.00     0.261 C 
BRANCH   4   5
ATOM      5  O   UNL     1      -1.321  -3.563  -0.658  1.00  0.00    -0.460 OA
BRANCH   5   6
ATOM      6  C   UNL     1      -1.349  -3.538   0.700  1.00  0.00     0.338 C 
ATOM      7  O   UNL     1      -2.262  -3.902   1.423  1.00  0.00    -0.246 OA
BRANCH   6   8
ATOM      8  C   UNL     1       0.001  -3.188   1.193  1.00  0.00     0.062 A 
ATOM      9  C   UNL     1       2.017  -1.856   1.048  1.00  0.00     0.042 A 
ATOM     10  C   UNL     1       2.627  -2.710   1.978  1.00  0.00     0.026 A 
ATOM     11  C   UNL     1       0.709  -2.117   0.638  1.00  0.00     0.041 A 
ATOM     12  C   UNL     1       1.913  -3.769   2.546  1.00  0.00     0.003 A 
ATOM     13  C   UNL     1       0.592  -3.999   2.167  1.00  0.00     0.016 A 
BRANCH   9  14
ATOM     14  N   UNL     1       2.764  -0.757   0.577  1.00  0.00    -0.325 N 
ATOM     15  O   UNL     1       1.069   0.591  -0.291  1.00  0.00    -0.274 OA
ATOM     16  C   UNL     1       2.252   0.373  -0.046  1.00  0.00     0.234 C 
ATOM     17  H   UNL     1       3.740  -0.795   0.702  1.00  0.00     0.169 HD
BRANCH  16  18
ATOM     18  C   UNL     1       3.305   1.406  -0.401  1.00  0.00     0.178 C 
BRANCH  18  19
ATOM     19  S   UNL     1       4.378   1.787   1.013  1.00  0.00    -0.078 SA
BRANCH  19  20
ATOM     20  C   UNL     1       3.235   2.531   2.093  1.00  0.00     0.172 A 
ATOM     21  N   UNL     1       3.189   3.815   2.223  1.00  0.00    -0.189 NA
ATOM     22  N   UNL     1       2.482   1.654   2.807  1.00  0.00    -0.301 N 
ATOM     23  C   UNL     1       2.323   4.287   3.167  1.00  0.00     0.218 A 
ATOM     24  C   UNL     1       1.601   2.080   3.752  1.00  0.00     0.255 A 
ATOM     25  H   UNL     1       2.577   0.689   2.638  1.00  0.00     0.172 HD
ATOM     26  C   UNL     1       1.537   3.533   3.937  1.00  0.00     0.139 A 
ATOM     27  O   UNL     1       0.919   1.316   4.421  1.00  0.00    -0.269 OA
BRANCH  23  28
ATOM     28  O   UNL     1       2.314   5.648   3.327  1.00  0.00    -0.493 OA
ATOM     29  H   UNL     1       2.862   6.186   2.791  1.00  0.00     0.295 HD
ENDBRANCH  23  28
ENDBRANCH  19  20
ENDBRANCH  18  19
ENDBRANCH  16  18
ENDBRANCH   9  14
ENDBRANCH   6   8
ENDBRANCH   5   6
ENDBRANCH   4   5
ENDBRANCH   3   4
ENDBRANCH   2   3
ENDBRANCH   1   2
BRANCH   1  30
ATOM     30  C   UNL     1       0.811  -5.436  -1.527  1.00  0.00     0.188 C 
BRANCH  30  31
ATOM     31  O   UNL     1       0.387  -4.899  -2.759  1.00  0.00    -0.376 OA
BRANCH  31  32
ATOM     32  C   UNL     1       0.736  -5.572  -3.956  1.00  0.00     0.202 C 
BRANCH  32  33
ATOM     33  C   UNL     1       0.864  -7.105  -4.089  1.00  0.00     0.261 C 
BRANCH  33  34
ATOM     34  O   UNL     1       1.075  -7.886  -2.907  1.00  0.00    -0.460 OA
BRANCH  34  35
ATOM     35  C   UNL     1       2.363  -8.123  -2.560  1.00  0.00     0.338 C 
ATOM     36  O   UNL     1       3.356  -7.688  -3.113  1.00  0.00    -0.246 OA
BRANCH  35  37
ATOM     37  C   UNL     1       2.377  -8.850  -1.271  1.00  0.00     0.060 A 
ATOM     38  C   UNL     1       2.926  -8.212  -0.152  1.00  0.00     0.016 A 
ATOM     39  C   UNL     1       1.888 -10.155  -1.169  1.00  0.00     0.016 A 
ATOM     40  C   UNL     1       3.026  -8.894   1.062  1.00  0.00     0.010 A 
ATOM     41  C   UNL     1       2.001 -10.841   0.047  1.00  0.00     0.010 A 
ATOM     42  C   UNL     1       2.603 -10.227   1.160  1.00  0.00    -0.014 A 
BRANCH  42  43
ATOM     43  C   UNL     1       2.949 -11.008   2.379  1.00  0.00     0.031 A 
ATOM     44  C   UNL     1       4.127 -11.947   2.331  1.00  0.00     0.074 A 
ATOM     45  C   UNL     1       2.275 -10.832   3.531  1.00  0.00     0.049 A 
ATOM     46  N   UNL     1       4.636 -12.694   3.276  1.00  0.00    -0.248 NA
ATOM     47  C   UNL     1       4.824 -12.055   1.040  1.00  0.00     0.031 C 
ATOM     48  C   UNL     1       1.142  -9.926   3.715  1.00  0.00     0.029 A 
ATOM     49  N   UNL     1       2.453 -11.402   4.768  1.00  0.00    -0.354 N 
ATOM     50  C   UNL     1       5.717 -13.355   2.699  1.00  0.00     0.074 A 
ATOM     51  C   UNL     1       5.754 -12.958   1.308  1.00  0.00     0.031 C 
ATOM     52  C   UNL     1       0.732  -9.995   4.994  1.00  0.00     0.029 A 
ATOM     53  C   UNL     1       1.548 -10.973   5.711  1.00  0.00     0.049 A 
ATOM     54  H   UNL     1       3.163 -12.056   4.961  1.00  0.00     0.167 HD
ATOM     55  C   UNL     1       6.605 -14.202   3.278  1.00  0.00     0.034 A 
ATOM     56  C   UNL     1       1.389 -11.339   7.000  1.00  0.00     0.034 A 
ATOM     57  C   UNL     1       6.547 -14.607   4.662  1.00  0.00     0.049 A 
ATOM     58  C   UNL     1       2.340 -12.352   7.598  1.00  0.00     0.074 A 
ATOM     59  C   UNL     1       7.394 -15.461   5.347  1.00  0.00     0.029 A 
ATOM     60  N   UNL     1       5.581 -14.197   5.573  1.00  0.00    -0.354 N 
ATOM     61  N   UNL     1       3.366 -12.957   7.043  1.00  0.00    -0.248 NA
ATOM     62  C   UNL     1       2.119 -12.714   9.003  1.00  0.00     0.031 C 
ATOM     63  C   UNL     1       6.898 -15.628   6.645  1.00  0.00     0.029 A 
ATOM     64  C   UNL     1       5.795 -14.804   6.803  1.00  0.00     0.049 A 
ATOM     65  H   UNL     1       4.851 -13.567   5.375  1.00  0.00     0.167 HD
ATOM     66  C   UNL     1       3.933 -13.739   8.048  1.00  0.00     0.074 A 
ATOM     67  C   UNL     1       3.152 -13.505   9.244  1.00  0.00     0.031 C 
ATOM     68  C   UNL     1       5.004 -14.575   7.990  1.00  0.00     0.034 A 
BRANCH  55  69
ATOM     69  C   UNL     1       7.689 -14.779   2.397  1.00  0.00     0.023 A 
ATOM     70  C   UNL     1       8.663 -13.964   1.791  1.00  0.00     0.031 A 
ATOM     71  C   UNL     1       7.740 -16.161   2.144  1.00  0.00     0.131 A 
ATOM     72  C   UNL     1       9.602 -14.528   0.914  1.00  0.00     0.055 A 
ATOM     73  C   UNL     1       8.728 -16.727   1.335  1.00  0.00     0.041 A 
ATOM     74  F   UNL     1       6.823 -16.987   2.672  1.00  0.00    -0.206 F 
ATOM     75  C   UNL     1       9.659 -15.908   0.703  1.00  0.00     0.022 A 
BRANCH  72  76
ATOM     76  S   UNL     1      10.658 -13.418  -0.058  1.00  0.00     0.124 S 
ATOM     77  O   UNL     1       9.667 -12.627  -0.783  1.00  0.00    -0.237 OA
ATOM     78  O   UNL     1      11.408 -12.712   0.974  1.00  0.00    -0.237 OA
ATOM     79  O   UNL     1      11.444 -14.330  -0.887  1.00  0.00    -0.744 OA
ENDBRANCH  72  76
ENDBRANCH  55  69
BRANCH  56  80
ATOM     80  C   UNL     1       0.278 -10.774   7.824  1.00  0.00     0.023 A 
ATOM     81  C   UNL     1       0.539 -10.044   8.996  1.00  0.00     0.031 A 
ATOM     82  C   UNL     1      -1.066 -11.033   7.499  1.00  0.00     0.131 A 
ATOM     83  C   UNL     1      -0.520  -9.656   9.831  1.00  0.00     0.055 A 
ATOM     84  C   UNL     1      -2.119 -10.586   8.299  1.00  0.00     0.041 A 
ATOM     85  F   UNL     1      -1.375 -11.733   6.396  1.00  0.00    -0.206 F 
ATOM     86  C   UNL     1      -1.849  -9.908   9.483  1.00  0.00     0.022 A 
BRANCH  83  87
ATOM     87  S   UNL     1      -0.129  -8.920  11.443  1.00  0.00     0.124 S 
ATOM     88  O   UNL     1       0.695  -9.959  12.050  1.00  0.00    -0.237 OA
ATOM     89  O   UNL     1       0.564  -7.696  11.056  1.00  0.00    -0.237 OA
ATOM     90  O   UNL     1      -1.441  -8.725  12.056  1.00  0.00    -0.744 OA
ENDBRANCH  83  87
ENDBRANCH  56  80
BRANCH  68  91
ATOM     91  C   UNL     1       5.418 -15.251   9.280  1.00  0.00     0.023 A 
ATOM     92  C   UNL     1       4.564 -16.137   9.961  1.00  0.00     0.031 A 
ATOM     93  C   UNL     1       6.664 -14.960   9.865  1.00  0.00     0.131 A 
ATOM     94  C   UNL     1       4.925 -16.624  11.227  1.00  0.00     0.055 A 
ATOM     95  C   UNL     1       7.052 -15.515  11.086  1.00  0.00     0.041 A 
ATOM     96  F   UNL     1       7.523 -14.121   9.265  1.00  0.00    -0.206 F 
ATOM     97  C   UNL     1       6.171 -16.333  11.786  1.00  0.00     0.022 A 
BRANCH  94  98
ATOM     98  S   UNL     1       3.679 -17.514  12.201  1.00  0.00     0.124 S 
ATOM     99  O   UNL     1       2.575 -16.560  12.223  1.00  0.00    -0.237 OA
ATOM    100  O   UNL     1       3.466 -18.719  11.407  1.00  0.00    -0.237 OA
ATOM    101  O   UNL     1       4.340 -17.728  13.488  1.00  0.00    -0.744 OA
ENDBRANCH  94  98
ENDBRANCH  68  91
ENDBRANCH  42  43
ENDBRANCH  35  37
ENDBRANCH  34  35
ENDBRANCH  33  34
ENDBRANCH  32  33
ENDBRANCH  31  32
ENDBRANCH  30  31
ENDBRANCH   1  30
TORSDOF 25
