REMARK SMILES CC1(C)CSC[C@H](N(CCC(=O)OCCOCCOCCOC(=O)c2ccc(-c3c4nc(c(-c5cc(S(=O)(=O)[O-])ccc5F)c5ccc([nH]5)c(-c5cc(S(=O)(=O)[O-])ccc5F)c5nc(c(-c6cc(S(=O)(=O)[O-])ccc6F)c6ccc3[nH]6)C=C5)C=C4)cc2)c2ccccc2)C1
REMARK SMILES IDX 17 1 16 2 15 3 14 4 13 5 11 6 12 7 10 8 9 9 8 10 7 11 1 12
REMARK SMILES IDX 2 13 3 14 4 15 94 16 5 17 6 18 88 19 89 20 93 21 90 22 92 23
REMARK SMILES IDX 91 24 18 25 19 26 20 27 21 28 22 29 23 30 24 31 25 32 26 33
REMARK SMILES IDX 87 34 27 35 86 36 28 37 29 38 30 39 80 40 31 41 85 42 79 43
REMARK SMILES IDX 81 44 32 45 84 46 78 47 77 48 33 50 65 51 45 52 64 53 46 54
REMARK SMILES IDX 49 55 63 56 82 57 47 58 48 59 62 61 83 62 50 63 34 64 35 65
REMARK SMILES IDX 43 66 36 67 42 68 44 69 41 70 37 71 38 72 39 73 40 74 66 75
REMARK SMILES IDX 67 76 75 77 68 78 74 79 76 80 73 81 69 82 70 83 71 84 72 85
REMARK SMILES IDX 51 86 52 87 60 88 53 89 59 90 61 91 58 92 54 93 55 94 56 95
REMARK SMILES IDX 57 96
REMARK H PARENT 81 49 49 60
REMARK Flexibility Score: inf
ROOT
ATOM      1  C   UNL     1       5.666   7.731  -0.258  1.00  0.00     0.188 C 
ENDROOT
BRANCH   1   2
ATOM      2  O   UNL     1       6.945   7.439  -0.806  1.00  0.00    -0.376 OA
BRANCH   2   3
ATOM      3  C   UNL     1       7.142   6.064  -1.144  1.00  0.00     0.202 C 
BRANCH   3   4
ATOM      4  C   UNL     1       7.270   5.167   0.092  1.00  0.00     0.261 C 
BRANCH   4   5
ATOM      5  O   UNL     1       5.960   4.703   0.477  1.00  0.00    -0.463 OA
BRANCH   5   6
ATOM      6  C   UNL     1       5.563   4.831   1.763  1.00  0.00     0.307 C 
ATOM      7  O   UNL     1       6.279   5.228   2.673  1.00  0.00    -0.252 OA
BRANCH   6   8
ATOM      8  C   UNL     1       4.138   4.361   1.974  1.00  0.00     0.144 C 
BRANCH   8   9
ATOM      9  C   UNL     1       3.153   4.748   0.870  1.00  0.00     0.128 C 
BRANCH   9  10
ATOM     10  N   UNL     1       2.760   3.633  -0.009  1.00  0.00    -0.367 N 
BRANCH  10  11
ATOM     11  C   UNL     1       1.776   2.575   0.366  1.00  0.00     0.092 C 
ATOM     12  C   UNL     1       0.889  -0.474  -0.007  1.00  0.00     0.012 C 
ATOM     13  C   UNL     1       0.230   0.719  -0.723  1.00  0.00    -0.024 C 
ATOM     14  C   UNL     1      -0.182   0.250  -2.138  1.00  0.00     0.012 C 
ATOM     15  C   UNL     1      -1.024   1.217   0.012  1.00  0.00     0.076 C 
ATOM     16  C   UNL     1       1.239   1.864  -0.906  1.00  0.00     0.033 C 
ATOM     17  S   UNL     1      -0.672   1.924   1.649  1.00  0.00    -0.159 SA
ATOM     18  C   UNL     1       0.593   3.152   1.173  1.00  0.00     0.094 C 
ENDBRANCH  10  11
BRANCH  10  19
ATOM     19  C   UNL     1       3.505   3.482  -1.176  1.00  0.00     0.037 A 
ATOM     20  C   UNL     1       4.707   2.769  -1.202  1.00  0.00     0.026 A 
ATOM     21  C   UNL     1       3.001   3.972  -2.387  1.00  0.00     0.026 A 
ATOM     22  C   UNL     1       5.410   2.590  -2.397  1.00  0.00     0.002 A 
ATOM     23  C   UNL     1       3.660   3.730  -3.593  1.00  0.00     0.002 A 
ATOM     24  C   UNL     1       4.879   3.060  -3.595  1.00  0.00     0.000 A 
ENDBRANCH  10  19
ENDBRANCH   9  10
ENDBRANCH   8   9
ENDBRANCH   6   8
ENDBRANCH   5   6
ENDBRANCH   4   5
ENDBRANCH   3   4
ENDBRANCH   2   3
ENDBRANCH   1   2
BRANCH   1  25
ATOM     25  C   UNL     1       4.627   8.056  -1.317  1.00  0.00     0.188 C 
BRANCH  25  26
ATOM     26  O   UNL     1       4.260   6.987  -2.184  1.00  0.00    -0.376 OA
BRANCH  26  27
ATOM     27  C   UNL     1       4.383   7.308  -3.573  1.00  0.00     0.202 C 
BRANCH  27  28
ATOM     28  C   UNL     1       3.351   8.293  -4.157  1.00  0.00     0.261 C 
BRANCH  28  29
ATOM     29  O   UNL     1       3.200   9.479  -3.364  1.00  0.00    -0.460 OA
BRANCH  29  30
ATOM     30  C   UNL     1       2.142   9.475  -2.509  1.00  0.00     0.338 C 
ATOM     31  O   UNL     1       1.212   8.684  -2.511  1.00  0.00    -0.246 OA
BRANCH  30  32
ATOM     32  C   UNL     1       2.418  10.427  -1.400  1.00  0.00     0.060 A 
ATOM     33  C   UNL     1       1.967  10.084  -0.114  1.00  0.00     0.016 A 
ATOM     34  C   UNL     1       3.207  11.568  -1.580  1.00  0.00     0.016 A 
ATOM     35  C   UNL     1       2.283  10.886   0.984  1.00  0.00     0.010 A 
ATOM     36  C   UNL     1       3.508  12.381  -0.485  1.00  0.00     0.010 A 
ATOM     37  C   UNL     1       3.021  12.061   0.795  1.00  0.00    -0.014 A 
BRANCH  37  38
ATOM     38  C   UNL     1       3.044  13.096   1.857  1.00  0.00     0.031 A 
ATOM     39  C   UNL     1       2.003  14.180   1.776  1.00  0.00     0.074 A 
ATOM     40  C   UNL     1       3.948  13.086   2.853  1.00  0.00     0.049 A 
ATOM     41  N   UNL     1       1.851  15.250   2.509  1.00  0.00    -0.248 NA
ATOM     42  C   UNL     1       1.003  14.035   0.704  1.00  0.00     0.031 C 
ATOM     43  C   UNL     1       4.971  12.064   3.062  1.00  0.00     0.029 A 
ATOM     44  N   UNL     1       4.154  13.981   3.874  1.00  0.00    -0.354 N 
ATOM     45  C   UNL     1       0.744  15.908   1.984  1.00  0.00     0.074 A 
ATOM     46  C   UNL     1       0.291  15.139   0.847  1.00  0.00     0.031 C 
ATOM     47  C   UNL     1       5.708  12.400   4.138  1.00  0.00     0.029 A 
ATOM     48  C   UNL     1       5.234  13.677   4.670  1.00  0.00     0.049 A 
ATOM     49  H   UNL     1       3.581  14.768   4.023  1.00  0.00     0.167 HD
ATOM     50  C   UNL     1       0.152  17.046   2.418  1.00  0.00     0.034 A 
ATOM     51  C   UNL     1       5.787  14.370   5.689  1.00  0.00     0.034 A 
ATOM     52  C   UNL     1       0.629  17.812   3.539  1.00  0.00     0.049 A 
ATOM     53  C   UNL     1       5.166  15.689   6.096  1.00  0.00     0.074 A 
ATOM     54  C   UNL     1       0.112  18.981   4.067  1.00  0.00     0.029 A 
ATOM     55  N   UNL     1       1.746  17.491   4.300  1.00  0.00    -0.354 N 
ATOM     56  N   UNL     1       4.115  16.301   5.598  1.00  0.00    -0.248 NA
ATOM     57  C   UNL     1       5.805  16.409   7.207  1.00  0.00     0.031 C 
ATOM     58  C   UNL     1       0.956  19.405   5.099  1.00  0.00     0.029 A 
ATOM     59  C   UNL     1       1.952  18.456   5.272  1.00  0.00     0.049 A 
ATOM     60  H   UNL     1       2.309  16.695   4.167  1.00  0.00     0.167 HD
ATOM     61  C   UNL     1       3.946  17.455   6.362  1.00  0.00     0.074 A 
ATOM     62  C   UNL     1       4.997  17.448   7.359  1.00  0.00     0.031 C 
ATOM     63  C   UNL     1       3.007  18.430   6.258  1.00  0.00     0.034 A 
BRANCH  50  64
ATOM     64  C   UNL     1      -1.036  17.545   1.633  1.00  0.00     0.023 A 
ATOM     65  C   UNL     1      -2.229  16.806   1.548  1.00  0.00     0.031 A 
ATOM     66  C   UNL     1      -0.957  18.754   0.921  1.00  0.00     0.131 A 
ATOM     67  C   UNL     1      -3.266  17.246   0.712  1.00  0.00     0.055 A 
ATOM     68  C   UNL     1      -2.023  19.228   0.156  1.00  0.00     0.041 A 
ATOM     69  F   UNL     1       0.168  19.486   0.940  1.00  0.00    -0.206 F 
ATOM     70  C   UNL     1      -3.182  18.465   0.036  1.00  0.00     0.022 A 
BRANCH  67  71
ATOM     71  S   UNL     1      -4.664  16.132   0.404  1.00  0.00     0.124 S 
ATOM     72  O   UNL     1      -3.994  14.974  -0.183  1.00  0.00    -0.237 OA
ATOM     73  O   UNL     1      -5.216  15.941   1.740  1.00  0.00    -0.237 OA
ATOM     74  O   UNL     1      -5.508  16.889  -0.518  1.00  0.00    -0.744 OA
ENDBRANCH  67  71
ENDBRANCH  50  64
BRANCH  51  75
ATOM     75  C   UNL     1       7.017  13.873   6.376  1.00  0.00     0.023 A 
ATOM     76  C   UNL     1       7.013  13.571   7.748  1.00  0.00     0.031 A 
ATOM     77  C   UNL     1       8.239  13.774   5.687  1.00  0.00     0.131 A 
ATOM     78  C   UNL     1       8.214  13.240   8.397  1.00  0.00     0.055 A 
ATOM     79  C   UNL     1       9.420  13.387   6.325  1.00  0.00     0.041 A 
ATOM     80  F   UNL     1       8.306  14.060   4.376  1.00  0.00    -0.206 F 
ATOM     81  C   UNL     1       9.415  13.132   7.692  1.00  0.00     0.022 A 
BRANCH  78  82
ATOM     82  S   UNL     1       8.205  13.056  10.203  1.00  0.00     0.124 S 
ATOM     83  O   UNL     1       7.703  14.357  10.630  1.00  0.00    -0.237 OA
ATOM     84  O   UNL     1       7.301  11.927  10.388  1.00  0.00    -0.237 OA
ATOM     85  O   UNL     1       9.605  12.791  10.526  1.00  0.00    -0.744 OA
ENDBRANCH  78  82
ENDBRANCH  51  75
BRANCH  63  86
ATOM     86  C   UNL     1       3.039  19.536   7.286  1.00  0.00     0.023 A 
ATOM     87  C   UNL     1       4.092  20.464   7.350  1.00  0.00     0.031 A 
ATOM     88  C   UNL     1       1.988  19.662   8.214  1.00  0.00     0.131 A 
ATOM     89  C   UNL     1       4.100  21.443   8.356  1.00  0.00     0.055 A 
ATOM     90  C   UNL     1       1.970  20.677   9.171  1.00  0.00     0.041 A 
ATOM     91  F   UNL     1       0.956  18.804   8.198  1.00  0.00    -0.206 F 
ATOM     92  C   UNL     1       3.037  21.567   9.255  1.00  0.00     0.022 A 
BRANCH  89  93
ATOM     93  S   UNL     1       5.562  22.502   8.531  1.00  0.00     0.124 S 
ATOM     94  O   UNL     1       6.622  21.522   8.744  1.00  0.00    -0.237 OA
ATOM     95  O   UNL     1       5.593  23.207   7.254  1.00  0.00    -0.237 OA
ATOM     96  O   UNL     1       5.246  23.335   9.690  1.00  0.00    -0.744 OA
ENDBRANCH  89  93
ENDBRANCH  63  86
ENDBRANCH  37  38
ENDBRANCH  30  32
ENDBRANCH  29  30
ENDBRANCH  28  29
ENDBRANCH  27  28
ENDBRANCH  26  27
ENDBRANCH  25  26
ENDBRANCH   1  25
TORSDOF 24
