REMARK SMILES O=C(OCCOCCOCCOC(=O)c1ccc(-c2c3nc(c(-c4cc(S(=O)(=O)[O-])ccc4F)c4ccc([nH]4)c(-c4cc(S(=O)(=O)[O-])ccc4F)c4nc(c(-c5cc(S(=O)(=O)[O-])ccc5F)c5ccc2[nH]5)C=C4)C=C3)cc1)C1=Cc2c(Cl)ccc(Cl)c2O[C@@H]1C(F)(F)F
REMARK SMILES IDX 8 1 7 2 6 3 5 4 4 5 3 6 2 7 1 8 78 9 79 10 89 11 80 12 88 13
REMARK SMILES IDX 81 14 87 15 82 16 83 17 85 18 84 19 86 20 90 21 91 22 92 23
REMARK SMILES IDX 93 24 9 25 10 26 11 27 12 28 13 29 14 30 15 31 16 32 77 33
REMARK SMILES IDX 17 34 76 35 18 36 19 37 20 38 70 39 21 40 75 41 69 42 71 43
REMARK SMILES IDX 22 44 74 45 68 46 67 47 23 49 55 50 35 51 54 52 36 53 39 54
REMARK SMILES IDX 53 55 72 56 37 57 38 58 52 60 73 61 40 62 24 63 25 64 33 65
REMARK SMILES IDX 26 66 32 67 34 68 31 69 27 70 28 71 29 72 30 73 56 74 57 75
REMARK SMILES IDX 65 76 58 77 64 78 66 79 63 80 59 81 60 82 61 83 62 84 41 85
REMARK SMILES IDX 42 86 50 87 43 88 49 89 51 90 48 91 44 92 45 93 46 94 47 95
REMARK H PARENT 71 48 39 59
REMARK Flexibility Score: inf
ROOT
ATOM      1  C   UNL     1       2.159   3.368   1.049  1.00  0.00     0.188 C 
ENDROOT
BRANCH   1   2
ATOM      2  C   UNL     1       2.439   1.927   1.513  1.00  0.00     0.188 C 
BRANCH   2   3
ATOM      3  O   UNL     1       3.772   1.304   1.663  1.00  0.00    -0.376 OA
BRANCH   3   4
ATOM      4  C   UNL     1       4.460   0.018   0.804  1.00  0.00     0.202 C 
BRANCH   4   5
ATOM      5  C   UNL     1       3.690  -0.880  -1.014  1.00  0.00     0.261 C 
BRANCH   5   6
ATOM      6  O   UNL     1       2.725  -2.039  -1.116  1.00  0.00    -0.460 OA
BRANCH   6   7
ATOM      7  C   UNL     1       2.934  -2.941  -0.149  1.00  0.00     0.338 C 
ATOM      8  O   UNL     1       2.276  -3.917   0.112  1.00  0.00    -0.246 OA
BRANCH   7   9
ATOM      9  C   UNL     1       3.836  -2.140   0.668  1.00  0.00     0.087 C 
ATOM     10  C   UNL     1       5.208  -2.057   0.161  1.00  0.00     0.029 C 
ATOM     11  C   UNL     1       2.618  -0.661   0.735  1.00  0.00     0.316 C 
ATOM     12  C   UNL     1       5.896  -0.644  -0.739  1.00  0.00     0.037 A 
ATOM     13  O   UNL     1       3.252   0.827  -0.350  1.00  0.00    -0.474 OA
ATOM     14  C   UNL     1       7.147  -0.708  -1.307  1.00  0.00     0.052 A 
ATOM     15  C   UNL     1       4.939   0.770  -1.073  1.00  0.00     0.148 A 
ATOM     16  Cl  UNL     1       8.181  -2.068  -1.175  1.00  0.00    -0.084 Cl
ATOM     17  C   UNL     1       7.531   0.403  -2.081  1.00  0.00     0.023 A 
ATOM     18  C   UNL     1       5.390   1.794  -1.864  1.00  0.00     0.083 A 
ATOM     19  C   UNL     1       6.706   1.578  -2.338  1.00  0.00     0.026 A 
ATOM     20  Cl  UNL     1       4.501   3.151  -2.359  1.00  0.00    -0.080 Cl
BRANCH  11  21
ATOM     21  C   UNL     1       2.376  -0.847   2.374  1.00  0.00     0.430 C 
ATOM     22  F   UNL     1       1.913   0.163   3.108  1.00  0.00    -0.167 F 
ATOM     23  F   UNL     1       1.442  -1.832   2.520  1.00  0.00    -0.167 F 
ATOM     24  F   UNL     1       3.472  -1.325   3.030  1.00  0.00    -0.167 F 
ENDBRANCH  11  21
ENDBRANCH   7   9
ENDBRANCH   6   7
ENDBRANCH   5   6
ENDBRANCH   4   5
ENDBRANCH   3   4
ENDBRANCH   2   3
ENDBRANCH   1   2
BRANCH   1  25
ATOM     25  O   UNL     1       3.141   4.102   0.369  1.00  0.00    -0.376 OA
BRANCH  25  26
ATOM     26  C   UNL     1       4.432   4.117   0.953  1.00  0.00     0.202 C 
BRANCH  26  27
ATOM     27  C   UNL     1       4.564   4.599   2.403  1.00  0.00     0.261 C 
BRANCH  27  28
ATOM     28  O   UNL     1       4.050   3.671   3.380  1.00  0.00    -0.460 OA
BRANCH  28  29
ATOM     29  C   UNL     1       2.978   4.086   4.102  1.00  0.00     0.338 C 
ATOM     30  O   UNL     1       2.396   5.151   3.999  1.00  0.00    -0.246 OA
BRANCH  29  31
ATOM     31  C   UNL     1       2.488   2.978   4.950  1.00  0.00     0.060 A 
ATOM     32  C   UNL     1       1.158   2.552   4.808  1.00  0.00     0.016 A 
ATOM     33  C   UNL     1       3.316   2.403   5.914  1.00  0.00     0.016 A 
ATOM     34  C   UNL     1       0.648   1.557   5.639  1.00  0.00     0.010 A 
ATOM     35  C   UNL     1       2.790   1.442   6.782  1.00  0.00     0.010 A 
ATOM     36  C   UNL     1       1.444   1.048   6.672  1.00  0.00    -0.014 A 
BRANCH  36  37
ATOM     37  C   UNL     1       0.770   0.374   7.808  1.00  0.00     0.031 A 
ATOM     38  C   UNL     1       0.327   1.247   8.953  1.00  0.00     0.074 A 
ATOM     39  C   UNL     1       0.507  -0.944   7.805  1.00  0.00     0.049 A 
ATOM     40  N   UNL     1      -0.308   0.928  10.050  1.00  0.00    -0.248 NA
ATOM     41  C   UNL     1       0.648   2.679   8.838  1.00  0.00     0.031 C 
ATOM     42  C   UNL     1       0.837  -1.870   6.724  1.00  0.00     0.029 A 
ATOM     43  N   UNL     1      -0.112  -1.728   8.746  1.00  0.00    -0.354 N 
ATOM     44  C   UNL     1      -0.460   2.119  10.753  1.00  0.00     0.074 A 
ATOM     45  C   UNL     1       0.187   3.155   9.982  1.00  0.00     0.031 C 
ATOM     46  C   UNL     1       0.411  -3.101   7.063  1.00  0.00     0.029 A 
ATOM     47  C   UNL     1      -0.190  -3.056   8.395  1.00  0.00     0.049 A 
ATOM     48  H   UNL     1      -0.467  -1.374   9.593  1.00  0.00     0.167 HD
ATOM     49  C   UNL     1      -1.090   2.329  11.934  1.00  0.00     0.034 A 
ATOM     50  C   UNL     1      -0.682  -4.108   9.083  1.00  0.00     0.034 A 
ATOM     51  C   UNL     1      -1.702   1.275  12.701  1.00  0.00     0.049 A 
ATOM     52  C   UNL     1      -1.286  -3.865  10.450  1.00  0.00     0.074 A 
ATOM     53  C   UNL     1      -2.375   1.367  13.906  1.00  0.00     0.029 A 
ATOM     54  N   UNL     1      -1.694  -0.070  12.352  1.00  0.00    -0.354 N 
ATOM     55  N   UNL     1      -1.442  -2.733  11.100  1.00  0.00    -0.248 NA
ATOM     56  C   UNL     1      -1.792  -5.042  11.167  1.00  0.00     0.031 C 
ATOM     57  C   UNL     1      -2.678   0.072  14.335  1.00  0.00     0.029 A 
ATOM     58  C   UNL     1      -2.307  -0.821  13.342  1.00  0.00     0.049 A 
ATOM     59  H   UNL     1      -1.309  -0.436  11.522  1.00  0.00     0.167 HD
ATOM     60  C   UNL     1      -2.110  -3.059  12.280  1.00  0.00     0.074 A 
ATOM     61  C   UNL     1      -2.333  -4.490  12.242  1.00  0.00     0.031 C 
ATOM     62  C   UNL     1      -2.514  -2.251  13.295  1.00  0.00     0.034 A 
BRANCH  49  63
ATOM     63  C   UNL     1      -1.071   3.732  12.491  1.00  0.00     0.023 A 
ATOM     64  C   UNL     1      -1.657   4.816  11.812  1.00  0.00     0.031 A 
ATOM     65  C   UNL     1      -0.408   3.998  13.703  1.00  0.00     0.131 A 
ATOM     66  C   UNL     1      -1.499   6.120  12.308  1.00  0.00     0.055 A 
ATOM     67  C   UNL     1      -0.339   5.284  14.239  1.00  0.00     0.041 A 
ATOM     68  F   UNL     1       0.202   3.012  14.380  1.00  0.00    -0.206 F 
ATOM     69  C   UNL     1      -0.872   6.357  13.533  1.00  0.00     0.022 A 
BRANCH  66  70
ATOM     70  S   UNL     1      -1.969   7.514  11.246  1.00  0.00     0.124 S 
ATOM     71  O   UNL     1      -1.152   7.269  10.060  1.00  0.00    -0.237 OA
ATOM     72  O   UNL     1      -3.405   7.319  11.085  1.00  0.00    -0.237 OA
ATOM     73  O   UNL     1      -1.582   8.686  12.029  1.00  0.00    -0.744 OA
ENDBRANCH  66  70
ENDBRANCH  49  63
BRANCH  50  74
ATOM     74  C   UNL     1      -0.617  -5.490   8.519  1.00  0.00     0.023 A 
ATOM     75  C   UNL     1      -1.784  -6.239   8.291  1.00  0.00     0.031 A 
ATOM     76  C   UNL     1       0.620  -6.113   8.272  1.00  0.00     0.131 A 
ATOM     77  C   UNL     1      -1.689  -7.580   7.886  1.00  0.00     0.055 A 
ATOM     78  C   UNL     1       0.707  -7.425   7.803  1.00  0.00     0.041 A 
ATOM     79  F   UNL     1       1.769  -5.452   8.487  1.00  0.00    -0.206 F 
ATOM     80  C   UNL     1      -0.452  -8.172   7.622  1.00  0.00     0.022 A 
BRANCH  77  81
ATOM     81  S   UNL     1      -3.202  -8.580   7.828  1.00  0.00     0.124 S 
ATOM     82  O   UNL     1      -3.683  -8.468   9.200  1.00  0.00    -0.237 OA
ATOM     83  O   UNL     1      -3.987  -7.885   6.813  1.00  0.00    -0.237 OA
ATOM     84  O   UNL     1      -2.720  -9.905   7.441  1.00  0.00    -0.744 OA
ENDBRANCH  77  81
ENDBRANCH  50  74
BRANCH  62  85
ATOM     85  C   UNL     1      -3.302  -2.889  14.418  1.00  0.00     0.023 A 
ATOM     86  C   UNL     1      -2.757  -3.887  15.244  1.00  0.00     0.031 A 
ATOM     87  C   UNL     1      -4.635  -2.500  14.651  1.00  0.00     0.131 A 
ATOM     88  C   UNL     1      -3.564  -4.519  16.201  1.00  0.00     0.055 A 
ATOM     89  C   UNL     1      -5.404  -3.069  15.666  1.00  0.00     0.041 A 
ATOM     90  F   UNL     1      -5.216  -1.556  13.892  1.00  0.00    -0.206 F 
ATOM     91  C   UNL     1      -4.876  -4.100  16.435  1.00  0.00     0.022 A 
BRANCH  88  92
ATOM     92  S   UNL     1      -2.925  -5.999  17.033  1.00  0.00     0.124 S 
ATOM     93  O   UNL     1      -2.585  -6.857  15.903  1.00  0.00    -0.237 OA
ATOM     94  O   UNL     1      -1.796  -5.468  17.792  1.00  0.00    -0.237 OA
ATOM     95  O   UNL     1      -4.055  -6.454  17.840  1.00  0.00    -0.744 OA
ENDBRANCH  88  92
ENDBRANCH  62  85
ENDBRANCH  36  37
ENDBRANCH  29  31
ENDBRANCH  28  29
ENDBRANCH  27  28
ENDBRANCH  26  27
ENDBRANCH  25  26
ENDBRANCH   1  25
TORSDOF 21
