REMARK SMILES O=C(OCCOCCOCCOC(=O)c1cc(S(=O)(=O)Nc2ccccc2-n2cc(Br)cn2)c[nH]1)c1ccc(-c2c3nc(c(-c4cc(S(=O)(=O)[O-])ccc4F)c4ccc([nH]4)c(-c4cc(S(=O)(=O)[O-])ccc4F)c4nc(c(-c5cc(S(=O)(=O)[O-])ccc5F)c5ccc2[nH]5)C=C4)C=C3)cc1
REMARK SMILES IDX 8 1 7 2 6 3 5 4 4 5 3 6 2 7 1 8 36 9 37 10 98 11 38 12 97 13
REMARK SMILES IDX 39 14 40 15 41 16 91 17 42 18 96 19 90 20 92 21 43 22 95 23
REMARK SMILES IDX 89 24 88 25 44 27 76 28 56 29 75 30 57 31 60 32 74 33 93 34
REMARK SMILES IDX 58 35 59 36 73 38 94 39 61 40 45 41 46 42 54 43 47 44 53 45
REMARK SMILES IDX 55 46 52 47 48 48 49 49 50 50 51 51 77 52 78 53 86 54 79 55
REMARK SMILES IDX 85 56 87 57 84 58 80 59 81 60 82 61 83 62 62 63 63 64 71 65
REMARK SMILES IDX 64 66 70 67 72 68 69 69 65 70 66 71 67 72 68 73 9 74 10 75
REMARK SMILES IDX 11 76 12 77 13 78 14 79 15 80 16 81 35 82 17 83 34 84 18 86
REMARK SMILES IDX 19 87 20 88 21 89 22 91 23 92 27 93 24 94 26 95 25 96 28 97
REMARK SMILES IDX 29 98 33 99 30 100 32 101 31 102
REMARK H PARENT 92 26 60 37 35 85 21 90
REMARK Flexibility Score: inf
ROOT
ATOM      1  C   UNL     1       2.456   2.091   1.203  1.00  0.00     0.188 C 
ENDROOT
BRANCH   1   2
ATOM      2  C   UNL     1       3.497   0.966   1.351  1.00  0.00     0.188 C 
BRANCH   2   3
ATOM      3  O   UNL     1       4.782   1.386   0.887  1.00  0.00    -0.376 OA
BRANCH   3   4
ATOM      4  C   UNL     1       5.265   0.688  -0.249  1.00  0.00     0.202 C 
BRANCH   4   5
ATOM      5  C   UNL     1       4.580   1.069  -1.576  1.00  0.00     0.261 C 
BRANCH   5   6
ATOM      6  O   UNL     1       3.132   1.103  -1.551  1.00  0.00    -0.460 OA
BRANCH   6   7
ATOM      7  C   UNL     1       2.150   0.179  -1.551  1.00  0.00     0.338 C 
ATOM      8  O   UNL     1       0.992   0.558  -1.380  1.00  0.00    -0.246 OA
BRANCH   7   9
ATOM      9  C   UNL     1       2.395  -1.275  -1.702  1.00  0.00     0.060 A 
ATOM     10  C   UNL     1       3.656  -1.861  -1.672  1.00  0.00     0.016 A 
ATOM     11  C   UNL     1       1.269  -2.106  -1.871  1.00  0.00     0.016 A 
ATOM     12  C   UNL     1       3.816  -3.220  -1.830  1.00  0.00     0.010 A 
ATOM     13  C   UNL     1       1.420  -3.477  -2.072  1.00  0.00     0.010 A 
ATOM     14  C   UNL     1       2.705  -4.018  -2.075  1.00  0.00    -0.014 A 
BRANCH  14  15
ATOM     15  C   UNL     1       3.006  -5.421  -2.390  1.00  0.00     0.031 A 
ATOM     16  C   UNL     1       3.288  -6.254  -1.146  1.00  0.00     0.074 A 
ATOM     17  C   UNL     1       3.163  -5.683  -3.721  1.00  0.00     0.049 A 
ATOM     18  N   UNL     1       4.170  -7.187  -0.950  1.00  0.00    -0.248 NA
ATOM     19  C   UNL     1       2.590  -5.893   0.115  1.00  0.00     0.031 C 
ATOM     20  C   UNL     1       2.931  -4.693  -4.801  1.00  0.00     0.029 A 
ATOM     21  N   UNL     1       3.565  -6.784  -4.440  1.00  0.00    -0.354 N 
ATOM     22  C   UNL     1       3.937  -7.707   0.343  1.00  0.00     0.074 A 
ATOM     23  C   UNL     1       3.106  -6.745   1.004  1.00  0.00     0.031 C 
ATOM     24  C   UNL     1       3.241  -5.212  -6.005  1.00  0.00     0.029 A 
ATOM     25  C   UNL     1       3.676  -6.583  -5.839  1.00  0.00     0.049 A 
ATOM     26  H   UNL     1       3.761  -7.650  -4.013  1.00  0.00     0.167 HD
ATOM     27  C   UNL     1       4.271  -8.983   0.711  1.00  0.00     0.034 A 
ATOM     28  C   UNL     1       4.109  -7.447  -6.806  1.00  0.00     0.034 A 
ATOM     29  C   UNL     1       4.918  -9.652  -0.376  1.00  0.00     0.049 A 
ATOM     30  C   UNL     1       4.351  -8.727  -6.118  1.00  0.00     0.074 A 
ATOM     31  C   UNL     1       6.145  -9.555  -0.975  1.00  0.00     0.029 A 
ATOM     32  N   UNL     1       4.124 -10.468  -1.152  1.00  0.00    -0.354 N 
ATOM     33  N   UNL     1       3.421  -9.499  -5.645  1.00  0.00    -0.248 NA
ATOM     34  C   UNL     1       5.733  -9.152  -5.864  1.00  0.00     0.031 C 
ATOM     35  C   UNL     1       5.918  -9.977  -2.306  1.00  0.00     0.029 A 
ATOM     36  C   UNL     1       4.582 -10.376  -2.441  1.00  0.00     0.049 A 
ATOM     37  H   UNL     1       3.369 -11.016  -0.839  1.00  0.00     0.167 HD
ATOM     38  C   UNL     1       4.104 -10.313  -4.774  1.00  0.00     0.074 A 
ATOM     39  C   UNL     1       5.493 -10.266  -5.177  1.00  0.00     0.031 C 
ATOM     40  C   UNL     1       3.615 -10.505  -3.521  1.00  0.00     0.034 A 
BRANCH  27  41
ATOM     41  C   UNL     1       3.837  -9.856   1.875  1.00  0.00     0.023 A 
ATOM     42  C   UNL     1       4.452 -11.134   1.961  1.00  0.00     0.031 A 
ATOM     43  C   UNL     1       2.723  -9.666   2.703  1.00  0.00     0.131 A 
ATOM     44  C   UNL     1       3.892 -12.182   2.703  1.00  0.00     0.055 A 
ATOM     45  C   UNL     1       2.206 -10.695   3.509  1.00  0.00     0.041 A 
ATOM     46  F   UNL     1       2.034  -8.519   2.721  1.00  0.00    -0.206 F 
ATOM     47  C   UNL     1       2.764 -11.970   3.482  1.00  0.00     0.022 A 
BRANCH  44  48
ATOM     48  S   UNL     1       4.556 -13.856   2.466  1.00  0.00     0.124 S 
ATOM     49  O   UNL     1       4.576 -13.979   1.013  1.00  0.00    -0.237 OA
ATOM     50  O   UNL     1       5.859 -13.760   3.116  1.00  0.00    -0.237 OA
ATOM     51  O   UNL     1       3.582 -14.706   3.148  1.00  0.00    -0.744 OA
ENDBRANCH  44  48
ENDBRANCH  27  41
BRANCH  28  52
ATOM     52  C   UNL     1       4.418  -7.397  -8.287  1.00  0.00     0.023 A 
ATOM     53  C   UNL     1       4.234  -6.287  -9.128  1.00  0.00     0.031 A 
ATOM     54  C   UNL     1       4.992  -8.538  -8.924  1.00  0.00     0.131 A 
ATOM     55  C   UNL     1       4.655  -6.326 -10.482  1.00  0.00     0.055 A 
ATOM     56  C   UNL     1       5.460  -8.553 -10.238  1.00  0.00     0.041 A 
ATOM     57  F   UNL     1       5.141  -9.709  -8.290  1.00  0.00    -0.206 F 
ATOM     58  C   UNL     1       5.304  -7.436 -11.026  1.00  0.00     0.022 A 
BRANCH  55  59
ATOM     59  S   UNL     1       4.405  -4.908 -11.590  1.00  0.00     0.124 S 
ATOM     60  O   UNL     1       3.189  -5.290 -12.299  1.00  0.00    -0.237 OA
ATOM     61  O   UNL     1       4.282  -3.782 -10.670  1.00  0.00    -0.237 OA
ATOM     62  O   UNL     1       5.625  -4.910 -12.398  1.00  0.00    -0.744 OA
ENDBRANCH  55  59
ENDBRANCH  28  52
BRANCH  40  63
ATOM     63  C   UNL     1       2.096 -10.320  -3.406  1.00  0.00     0.023 A 
ATOM     64  C   UNL     1       1.208 -11.042  -4.227  1.00  0.00     0.031 A 
ATOM     65  C   UNL     1       1.500  -9.350  -2.580  1.00  0.00     0.131 A 
ATOM     66  C   UNL     1      -0.176 -10.757  -4.225  1.00  0.00     0.055 A 
ATOM     67  C   UNL     1       0.131  -9.068  -2.566  1.00  0.00     0.041 A 
ATOM     68  F   UNL     1       2.233  -8.625  -1.744  1.00  0.00    -0.206 F 
ATOM     69  C   UNL     1      -0.718  -9.770  -3.401  1.00  0.00     0.022 A 
BRANCH  66  70
ATOM     70  S   UNL     1      -1.291 -11.707  -5.295  1.00  0.00     0.124 S 
ATOM     71  O   UNL     1      -0.963 -11.206  -6.625  1.00  0.00    -0.237 OA
ATOM     72  O   UNL     1      -0.901 -13.086  -5.017  1.00  0.00    -0.237 OA
ATOM     73  O   UNL     1      -2.623 -11.341  -4.811  1.00  0.00    -0.744 OA
ENDBRANCH  66  70
ENDBRANCH  40  63
ENDBRANCH  14  15
ENDBRANCH   7   9
ENDBRANCH   6   7
ENDBRANCH   5   6
ENDBRANCH   4   5
ENDBRANCH   3   4
ENDBRANCH   2   3
ENDBRANCH   1   2
BRANCH   1  74
ATOM     74  O   UNL     1       2.623   3.284   1.970  1.00  0.00    -0.376 OA
BRANCH  74  75
ATOM     75  C   UNL     1       3.933   3.811   2.094  1.00  0.00     0.202 C 
BRANCH  75  76
ATOM     76  C   UNL     1       4.519   3.552   3.490  1.00  0.00     0.261 C 
BRANCH  76  77
ATOM     77  O   UNL     1       4.188   2.273   4.053  1.00  0.00    -0.459 OA
BRANCH  77  78
ATOM     78  C   UNL     1       2.902   2.152   4.499  1.00  0.00     0.354 C 
ATOM     79  O   UNL     1       2.063   3.040   4.526  1.00  0.00    -0.244 OA
BRANCH  78  80
ATOM     80  C   UNL     1       2.654   0.807   4.963  1.00  0.00     0.126 A 
ATOM     81  C   UNL     1       3.516  -0.135   5.497  1.00  0.00     0.057 A 
ATOM     82  N   UNL     1       1.383   0.279   5.057  1.00  0.00    -0.354 N 
ATOM     83  C   UNL     1       2.707  -0.995   6.290  1.00  0.00     0.106 A 
ATOM     84  C   UNL     1       1.397  -0.798   5.906  1.00  0.00     0.105 A 
ATOM     85  H   UNL     1       0.589   0.622   4.588  1.00  0.00     0.166 HD
BRANCH  83  86
ATOM     86  S   UNL     1       3.286  -1.914   7.636  1.00  0.00     0.263 S 
ATOM     87  O   UNL     1       2.164  -2.708   8.081  1.00  0.00    -0.201 OA
ATOM     88  O   UNL     1       4.525  -2.513   7.188  1.00  0.00    -0.201 OA
BRANCH  86  89
ATOM     89  N   UNL     1       3.673  -0.845   8.934  1.00  0.00    -0.277 N 
ATOM     90  H   UNL     1       3.404  -1.033   9.863  1.00  0.00     0.180 HD
BRANCH  89  91
ATOM     91  C   UNL     1       4.412   0.340   8.577  1.00  0.00     0.075 A 
ATOM     92  C   UNL     1       5.789   0.194   8.347  1.00  0.00     0.029 A 
ATOM     93  C   UNL     1       3.778   1.551   8.229  1.00  0.00     0.089 A 
ATOM     94  C   UNL     1       6.525   1.214   7.741  1.00  0.00     0.002 A 
ATOM     95  C   UNL     1       4.533   2.567   7.607  1.00  0.00     0.030 A 
ATOM     96  C   UNL     1       5.895   2.393   7.358  1.00  0.00     0.002 A 
BRANCH  93  97
ATOM     97  N   UNL     1       2.378   1.766   8.390  1.00  0.00    -0.238 N 
ATOM     98  C   UNL     1       1.476   1.084   9.181  1.00  0.00     0.130 A 
ATOM     99  N   UNL     1       1.747   2.745   7.680  1.00  0.00    -0.175 NA
ATOM    100  C   UNL     1       0.233   1.483   8.775  1.00  0.00     0.056 A 
ATOM    101  C   UNL     1       0.446   2.482   7.828  1.00  0.00     0.151 A 
ATOM    102  Br  UNL     1      -1.424   0.853   9.350  1.00  0.00    -0.047 Br
ENDBRANCH  93  97
ENDBRANCH  89  91
ENDBRANCH  86  89
ENDBRANCH  83  86
ENDBRANCH  78  80
ENDBRANCH  77  78
ENDBRANCH  76  77
ENDBRANCH  75  76
ENDBRANCH  74  75
ENDBRANCH   1  74
TORSDOF 24
