REMARK SMILES C#CC[N@@H+](CC(=O)OCCOCCOCCOC(=O)c1ccc(-c2c3nc(c(-c4cc(S(=O)(=O)[O-])ccc4F)c4ccc([nH]4)c(-c4cc(S(=O)(=O)[O-])ccc4F)c4nc(c(-c5cc(S(=O)(=O)[O-])ccc5F)c5ccc2[nH]5)C=C4)C=C3)cc1)[C@@H](C)Cc1ccco1
REMARK SMILES IDX 12 1 11 2 10 3 9 4 8 5 6 6 7 7 5 8 4 9 3 11 2 12 1 13 83 14
REMARK SMILES IDX 84 15 85 16 86 17 87 18 90 19 88 20 89 21 13 22 14 23 15 24
REMARK SMILES IDX 16 25 17 26 18 27 19 28 20 29 21 30 82 31 22 32 81 33 23 34
REMARK SMILES IDX 24 35 25 36 75 37 26 38 80 39 74 40 76 41 27 42 79 43 73 44
REMARK SMILES IDX 72 45 28 47 60 48 40 49 59 50 41 51 44 52 58 53 77 54 42 55
REMARK SMILES IDX 43 56 57 58 78 59 45 60 29 61 30 62 38 63 31 64 37 65 39 66
REMARK SMILES IDX 36 67 32 68 33 69 34 70 35 71 61 72 62 73 70 74 63 75 69 76
REMARK SMILES IDX 71 77 68 78 64 79 65 80 66 81 67 82 46 83 47 84 55 85 48 86
REMARK SMILES IDX 54 87 56 88 53 89 49 90 50 91 51 92 52 93
REMARK H PARENT 4 10 76 46 44 57
REMARK Flexibility Score: inf
ROOT
ATOM      1  C   UNL     1      -5.249   1.411   3.918  1.00  0.00     0.188 C 
ENDROOT
BRANCH   1   2
ATOM      2  O   UNL     1      -6.036   0.234   4.069  1.00  0.00    -0.376 OA
BRANCH   2   3
ATOM      3  C   UNL     1      -5.451  -0.973   3.589  1.00  0.00     0.202 C 
BRANCH   3   4
ATOM      4  C   UNL     1      -5.298  -1.113   2.064  1.00  0.00     0.261 C 
BRANCH   4   5
ATOM      5  O   UNL     1      -4.367  -0.206   1.420  1.00  0.00    -0.459 OA
BRANCH   5   6
ATOM      6  C   UNL     1      -4.851   0.490   0.355  1.00  0.00     0.361 C 
ATOM      7  O   UNL     1      -6.048   0.505   0.065  1.00  0.00    -0.245 OA
BRANCH   6   8
ATOM      8  C   UNL     1      -3.849   1.221  -0.557  1.00  0.00     0.387 C 
BRANCH   8   9
ATOM      9  N   UNL     1      -2.380   1.223  -0.328  1.00  0.00    -0.313 N 
ATOM     10  H   UNL     1      -1.950   1.430  -1.230  1.00  0.00     0.349 HD
BRANCH   9  11
ATOM     11  C   UNL     1      -1.847  -0.096  -0.014  1.00  0.00     0.354 C 
BRANCH  11  12
ATOM     12  C   UNL     1      -0.327  -0.096  -0.014  1.00  0.00    -0.047 C 
ATOM     13  C   UNL     1       0.977  -0.096  -0.014  1.00  0.00     0.010 C 
ENDBRANCH  11  12
ENDBRANCH   9  11
BRANCH   9  14
ATOM     14  C   UNL     1      -1.891   2.355   0.484  1.00  0.00     0.189 C 
ATOM     15  C   UNL     1      -2.074   1.966   1.935  1.00  0.00     0.076 C 
BRANCH  14  16
ATOM     16  C   UNL     1      -0.430   2.881   0.311  1.00  0.00     0.140 C 
BRANCH  16  17
ATOM     17  C   UNL     1      -0.038   3.418  -1.017  1.00  0.00     0.109 A 
ATOM     18  C   UNL     1       0.080   4.709  -1.493  1.00  0.00     0.046 A 
ATOM     19  O   UNL     1       0.489   2.543  -1.921  1.00  0.00    -0.469 OA
ATOM     20  C   UNL     1       0.715   4.617  -2.754  1.00  0.00     0.042 A 
ATOM     21  C   UNL     1       0.939   3.278  -2.970  1.00  0.00     0.195 A 
ENDBRANCH  16  17
ENDBRANCH  14  16
ENDBRANCH   9  14
ENDBRANCH   8   9
ENDBRANCH   6   8
ENDBRANCH   5   6
ENDBRANCH   4   5
ENDBRANCH   3   4
ENDBRANCH   2   3
ENDBRANCH   1   2
BRANCH   1  22
ATOM     22  C   UNL     1      -3.934   1.437   4.721  1.00  0.00     0.188 C 
BRANCH  22  23
ATOM     23  O   UNL     1      -3.027   0.424   4.300  1.00  0.00    -0.376 OA
BRANCH  23  24
ATOM     24  C   UNL     1      -1.708   0.378   4.843  1.00  0.00     0.202 C 
BRANCH  24  25
ATOM     25  C   UNL     1      -1.292   1.290   6.004  1.00  0.00     0.261 C 
BRANCH  25  26
ATOM     26  O   UNL     1      -1.631   2.677   5.836  1.00  0.00    -0.460 OA
BRANCH  26  27
ATOM     27  C   UNL     1      -0.924   3.401   4.929  1.00  0.00     0.338 C 
ATOM     28  O   UNL     1       0.069   3.039   4.335  1.00  0.00    -0.246 OA
BRANCH  27  29
ATOM     29  C   UNL     1      -1.723   4.626   4.628  1.00  0.00     0.060 A 
ATOM     30  C   UNL     1      -1.896   5.027   3.297  1.00  0.00     0.016 A 
ATOM     31  C   UNL     1      -2.353   5.348   5.641  1.00  0.00     0.016 A 
ATOM     32  C   UNL     1      -2.731   6.083   2.956  1.00  0.00     0.010 A 
ATOM     33  C   UNL     1      -3.134   6.462   5.313  1.00  0.00     0.010 A 
ATOM     34  C   UNL     1      -3.317   6.836   3.969  1.00  0.00    -0.014 A 
BRANCH  34  35
ATOM     35  C   UNL     1      -3.875   8.158   3.619  1.00  0.00     0.031 A 
ATOM     36  C   UNL     1      -2.975   9.348   3.783  1.00  0.00     0.074 A 
ATOM     37  C   UNL     1      -5.103   8.290   3.090  1.00  0.00     0.049 A 
ATOM     38  N   UNL     1      -3.246  10.619   3.668  1.00  0.00    -0.248 NA
ATOM     39  C   UNL     1      -1.571   9.056   4.120  1.00  0.00     0.031 C 
ATOM     40  C   UNL     1      -6.006   7.189   2.757  1.00  0.00     0.029 A 
ATOM     41  N   UNL     1      -5.800   9.417   2.741  1.00  0.00    -0.354 N 
ATOM     42  C   UNL     1      -2.056  11.281   3.949  1.00  0.00     0.074 A 
ATOM     43  C   UNL     1      -1.067  10.271   4.253  1.00  0.00     0.031 C 
ATOM     44  C   UNL     1      -7.151   7.700   2.272  1.00  0.00     0.029 A 
ATOM     45  C   UNL     1      -7.083   9.160   2.319  1.00  0.00     0.049 A 
ATOM     46  H   UNL     1      -5.419  10.324   2.787  1.00  0.00     0.167 HD
ATOM     47  C   UNL     1      -1.819  12.614   3.955  1.00  0.00     0.034 A 
ATOM     48  C   UNL     1      -8.095  10.011   2.053  1.00  0.00     0.034 A 
ATOM     49  C   UNL     1      -2.826  13.597   3.651  1.00  0.00     0.049 A 
ATOM     50  C   UNL     1      -7.847  11.496   2.194  1.00  0.00     0.074 A 
ATOM     51  C   UNL     1      -2.712  14.975   3.647  1.00  0.00     0.029 A 
ATOM     52  N   UNL     1      -4.140  13.305   3.302  1.00  0.00    -0.354 N 
ATOM     53  N   UNL     1      -6.739  12.123   2.521  1.00  0.00    -0.248 NA
ATOM     54  C   UNL     1      -8.984  12.387   1.932  1.00  0.00     0.031 C 
ATOM     55  C   UNL     1      -3.973  15.515   3.376  1.00  0.00     0.029 A 
ATOM     56  C   UNL     1      -4.855  14.477   3.117  1.00  0.00     0.049 A 
ATOM     57  H   UNL     1      -4.509  12.398   3.202  1.00  0.00     0.167 HD
ATOM     58  C   UNL     1      -7.040  13.482   2.470  1.00  0.00     0.074 A 
ATOM     59  C   UNL     1      -8.429  13.582   2.069  1.00  0.00     0.031 C 
ATOM     60  C   UNL     1      -6.243  14.553   2.723  1.00  0.00     0.034 A 
BRANCH  47  61
ATOM     61  C   UNL     1      -0.448  13.067   4.390  1.00  0.00     0.023 A 
ATOM     62  C   UNL     1       0.712  12.747   3.663  1.00  0.00     0.031 A 
ATOM     63  C   UNL     1      -0.296  13.787   5.589  1.00  0.00     0.131 A 
ATOM     64  C   UNL     1       1.974  13.080   4.180  1.00  0.00     0.055 A 
ATOM     65  C   UNL     1       0.956  14.191   6.053  1.00  0.00     0.041 A 
ATOM     66  F   UNL     1      -1.365  14.091   6.343  1.00  0.00    -0.206 F 
ATOM     67  C   UNL     1       2.102  13.825   5.355  1.00  0.00     0.022 A 
BRANCH  64  68
ATOM     68  S   UNL     1       3.448  12.388   3.380  1.00  0.00     0.124 S 
ATOM     69  O   UNL     1       3.190  10.954   3.478  1.00  0.00    -0.237 OA
ATOM     70  O   UNL     1       3.378  12.961   2.041  1.00  0.00    -0.237 OA
ATOM     71  O   UNL     1       4.548  12.874   4.211  1.00  0.00    -0.744 OA
ENDBRANCH  64  68
ENDBRANCH  47  61
BRANCH  48  72
ATOM     72  C   UNL     1      -9.453   9.494   1.708  1.00  0.00     0.023 A 
ATOM     73  C   UNL     1     -10.063   9.805   0.484  1.00  0.00     0.031 A 
ATOM     74  C   UNL     1     -10.190   8.733   2.635  1.00  0.00     0.131 A 
ATOM     75  C   UNL     1     -11.385   9.399   0.237  1.00  0.00     0.055 A 
ATOM     76  C   UNL     1     -11.481   8.279   2.361  1.00  0.00     0.041 A 
ATOM     77  F   UNL     1      -9.661   8.416   3.828  1.00  0.00    -0.206 F 
ATOM     78  C   UNL     1     -12.091   8.624   1.160  1.00  0.00     0.022 A 
BRANCH  75  79
ATOM     79  S   UNL     1     -12.207   9.983  -1.271  1.00  0.00     0.124 S 
ATOM     80  O   UNL     1     -12.121  11.430  -1.112  1.00  0.00    -0.237 OA
ATOM     81  O   UNL     1     -11.371   9.401  -2.316  1.00  0.00    -0.237 OA
ATOM     82  O   UNL     1     -13.552   9.421  -1.165  1.00  0.00    -0.744 OA
ENDBRANCH  75  79
ENDBRANCH  48  72
BRANCH  60  83
ATOM     83  C   UNL     1      -6.841  15.924   2.514  1.00  0.00     0.023 A 
ATOM     84  C   UNL     1      -7.885  16.412   3.318  1.00  0.00     0.031 A 
ATOM     85  C   UNL     1      -6.351  16.756   1.491  1.00  0.00     0.131 A 
ATOM     86  C   UNL     1      -8.443  17.671   3.050  1.00  0.00     0.055 A 
ATOM     87  C   UNL     1      -6.864  18.035   1.273  1.00  0.00     0.041 A 
ATOM     88  F   UNL     1      -5.356  16.342   0.690  1.00  0.00    -0.206 F 
ATOM     89  C   UNL     1      -7.926  18.494   2.046  1.00  0.00     0.022 A 
BRANCH  86  90
ATOM     90  S   UNL     1      -9.921  18.183   3.969  1.00  0.00     0.124 S 
ATOM     91  O   UNL     1     -10.859  17.110   3.655  1.00  0.00    -0.237 OA
ATOM     92  O   UNL     1      -9.435  18.223   5.345  1.00  0.00    -0.237 OA
ATOM     93  O   UNL     1     -10.251  19.484   3.391  1.00  0.00    -0.744 OA
ENDBRANCH  86  90
ENDBRANCH  60  83
ENDBRANCH  34  35
ENDBRANCH  27  29
ENDBRANCH  26  27
ENDBRANCH  25  26
ENDBRANCH  24  25
ENDBRANCH  23  24
ENDBRANCH  22  23
ENDBRANCH   1  22
TORSDOF 26
