REMARK SMILES O=C(OCCOCCOCCOC(=O)[C@@H]1[C@H](C(=O)NCc2ccccc2Cl)[C@@H]2C=C[C@H]1C2)c1ccc(-c2c3nc(c(-c4cc(S(=O)(=O)[O-])ccc4F)c4ccc([nH]4)c(-c4cc(S(=O)(=O)[O-])ccc4F)c4nc(c(-c5cc(S(=O)(=O)[O-])ccc5F)c5ccc2[nH]5)C=C4)C=C3)cc1
REMARK SMILES IDX 7 1 6 2 5 3 4 4 3 5 2 6 1 7 33 8 34 9 95 10 35 11 94 12
REMARK SMILES IDX 36 13 37 14 38 15 88 16 39 17 93 18 87 19 89 20 40 21 92 22
REMARK SMILES IDX 86 23 85 24 41 26 73 27 53 28 72 29 54 30 57 31 71 32 90 33
REMARK SMILES IDX 55 34 56 35 70 37 91 38 58 39 42 40 43 41 51 42 44 43 50 44
REMARK SMILES IDX 52 45 49 46 45 47 46 48 47 49 48 50 74 51 75 52 83 53 76 54
REMARK SMILES IDX 82 55 84 56 81 57 77 58 78 59 79 60 80 61 59 62 60 63 68 64
REMARK SMILES IDX 61 65 67 66 69 67 66 68 62 69 63 70 64 71 65 72 8 73 9 74
REMARK SMILES IDX 10 75 11 76 12 77 13 78 14 79 15 80 16 81 31 82 28 83 30 84
REMARK SMILES IDX 32 85 29 86 17 87 18 88 19 89 20 91 21 92 22 93 26 94 23 95
REMARK SMILES IDX 25 96 27 97 24 98
REMARK H PARENT 89 25 57 36 19 90
REMARK Flexibility Score: inf
ROOT
ATOM      1  C   UNL     1       2.442  -1.068  -1.254  1.00  0.00     0.188 C 
ENDROOT
BRANCH   1   2
ATOM      2  O   UNL     1       3.794  -0.588  -1.247  1.00  0.00    -0.376 OA
BRANCH   2   3
ATOM      3  C   UNL     1       4.651  -1.360  -0.394  1.00  0.00     0.202 C 
BRANCH   3   4
ATOM      4  C   UNL     1       4.450  -1.171   1.121  1.00  0.00     0.261 C 
BRANCH   4   5
ATOM      5  O   UNL     1       3.118  -0.780   1.480  1.00  0.00    -0.460 OA
BRANCH   5   6
ATOM      6  C   UNL     1       2.604   0.465   1.636  1.00  0.00     0.338 C 
ATOM      7  O   UNL     1       1.424   0.549   1.980  1.00  0.00    -0.246 OA
BRANCH   6   8
ATOM      8  C   UNL     1       3.356   1.744   1.405  1.00  0.00     0.060 A 
ATOM      9  C   UNL     1       4.566   1.884   0.721  1.00  0.00     0.016 A 
ATOM     10  C   UNL     1       2.746   2.920   1.887  1.00  0.00     0.016 A 
ATOM     11  C   UNL     1       5.196   3.127   0.605  1.00  0.00     0.010 A 
ATOM     12  C   UNL     1       3.348   4.174   1.735  1.00  0.00     0.010 A 
ATOM     13  C   UNL     1       4.600   4.277   1.124  1.00  0.00    -0.014 A 
BRANCH  13  14
ATOM     14  C   UNL     1       5.344   5.561   1.098  1.00  0.00     0.031 A 
ATOM     15  C   UNL     1       6.094   5.967   2.308  1.00  0.00     0.074 A 
ATOM     16  C   UNL     1       5.378   6.323  -0.007  1.00  0.00     0.049 A 
ATOM     17  N   UNL     1       6.856   7.008   2.480  1.00  0.00    -0.248 NA
ATOM     18  C   UNL     1       5.962   5.090   3.477  1.00  0.00     0.031 C 
ATOM     19  C   UNL     1       4.675   5.950  -1.207  1.00  0.00     0.029 A 
ATOM     20  N   UNL     1       5.992   7.495  -0.350  1.00  0.00    -0.354 N 
ATOM     21  C   UNL     1       7.292   6.927   3.789  1.00  0.00     0.074 A 
ATOM     22  C   UNL     1       6.687   5.744   4.368  1.00  0.00     0.031 C 
ATOM     23  C   UNL     1       4.892   6.845  -2.179  1.00  0.00     0.029 A 
ATOM     24  C   UNL     1       5.795   7.858  -1.671  1.00  0.00     0.049 A 
ATOM     25  H   UNL     1       6.524   8.031   0.282  1.00  0.00     0.167 HD
ATOM     26  C   UNL     1       8.113   7.785   4.438  1.00  0.00     0.034 A 
ATOM     27  C   UNL     1       6.319   8.864  -2.400  1.00  0.00     0.034 A 
ATOM     28  C   UNL     1       8.617   8.992   3.831  1.00  0.00     0.049 A 
ATOM     29  C   UNL     1       7.234   9.795  -1.657  1.00  0.00     0.074 A 
ATOM     30  C   UNL     1       9.349  10.012   4.406  1.00  0.00     0.029 A 
ATOM     31  N   UNL     1       8.416   9.350   2.497  1.00  0.00    -0.354 N 
ATOM     32  N   UNL     1       7.628   9.719  -0.404  1.00  0.00    -0.248 NA
ATOM     33  C   UNL     1       7.755  10.949  -2.391  1.00  0.00     0.031 C 
ATOM     34  C   UNL     1       9.540  11.009   3.439  1.00  0.00     0.029 A 
ATOM     35  C   UNL     1       8.989  10.585   2.238  1.00  0.00     0.049 A 
ATOM     36  H   UNL     1       7.936   8.803   1.834  1.00  0.00     0.167 HD
ATOM     37  C   UNL     1       8.428  10.829  -0.191  1.00  0.00     0.074 A 
ATOM     38  C   UNL     1       8.511  11.523  -1.466  1.00  0.00     0.031 C 
ATOM     39  C   UNL     1       9.015  11.258   0.956  1.00  0.00     0.034 A 
BRANCH  26  40
ATOM     40  C   UNL     1       8.357   7.463   5.888  1.00  0.00     0.023 A 
ATOM     41  C   UNL     1       8.996   6.267   6.271  1.00  0.00     0.031 A 
ATOM     42  C   UNL     1       7.764   8.247   6.891  1.00  0.00     0.131 A 
ATOM     43  C   UNL     1       8.908   5.828   7.600  1.00  0.00     0.055 A 
ATOM     44  C   UNL     1       7.770   7.851   8.230  1.00  0.00     0.041 A 
ATOM     45  F   UNL     1       7.106   9.374   6.579  1.00  0.00    -0.206 F 
ATOM     46  C   UNL     1       8.321   6.623   8.587  1.00  0.00     0.022 A 
BRANCH  43  47
ATOM     47  S   UNL     1       9.369   4.111   7.971  1.00  0.00     0.124 S 
ATOM     48  O   UNL     1       8.395   3.368   7.168  1.00  0.00    -0.237 OA
ATOM     49  O   UNL     1      10.747   4.043   7.524  1.00  0.00    -0.237 OA
ATOM     50  O   UNL     1       9.171   4.010   9.420  1.00  0.00    -0.744 OA
ENDBRANCH  43  47
ENDBRANCH  26  40
BRANCH  27  51
ATOM     51  C   UNL     1       6.021   9.029  -3.862  1.00  0.00     0.023 A 
ATOM     52  C   UNL     1       7.050   9.043  -4.822  1.00  0.00     0.031 A 
ATOM     53  C   UNL     1       4.703   9.190  -4.333  1.00  0.00     0.131 A 
ATOM     54  C   UNL     1       6.752   9.243  -6.184  1.00  0.00     0.055 A 
ATOM     55  C   UNL     1       4.406   9.325  -5.693  1.00  0.00     0.041 A 
ATOM     56  F   UNL     1       3.670   9.202  -3.474  1.00  0.00    -0.206 F 
ATOM     57  C   UNL     1       5.435   9.365  -6.627  1.00  0.00     0.022 A 
BRANCH  54  58
ATOM     58  S   UNL     1       8.118   9.448  -7.366  1.00  0.00     0.124 S 
ATOM     59  O   UNL     1       8.896  10.515  -6.745  1.00  0.00    -0.237 OA
ATOM     60  O   UNL     1       8.732   8.124  -7.363  1.00  0.00    -0.237 OA
ATOM     61  O   UNL     1       7.445   9.818  -8.610  1.00  0.00    -0.744 OA
ENDBRANCH  54  58
ENDBRANCH  27  51
BRANCH  39  62
ATOM     62  C   UNL     1       9.768  12.555   0.854  1.00  0.00     0.023 A 
ATOM     63  C   UNL     1       9.095  13.766   0.616  1.00  0.00     0.031 A 
ATOM     64  C   UNL     1      11.167  12.575   0.963  1.00  0.00     0.131 A 
ATOM     65  C   UNL     1       9.830  14.943   0.431  1.00  0.00     0.055 A 
ATOM     66  C   UNL     1      11.889  13.761   0.840  1.00  0.00     0.041 A 
ATOM     67  F   UNL     1      11.851  11.441   1.186  1.00  0.00    -0.206 F 
ATOM     68  C   UNL     1      11.222  14.951   0.559  1.00  0.00     0.022 A 
BRANCH  65  69
ATOM     69  S   UNL     1       8.949  16.446  -0.068  1.00  0.00     0.124 S 
ATOM     70  O   UNL     1       8.372  16.048  -1.348  1.00  0.00    -0.237 OA
ATOM     71  O   UNL     1       8.002  16.633   1.027  1.00  0.00    -0.237 OA
ATOM     72  O   UNL     1      10.007  17.451  -0.149  1.00  0.00    -0.744 OA
ENDBRANCH  65  69
ENDBRANCH  39  62
ENDBRANCH  13  14
ENDBRANCH   6   8
ENDBRANCH   5   6
ENDBRANCH   4   5
ENDBRANCH   3   4
ENDBRANCH   2   3
ENDBRANCH   1   2
BRANCH   1  73
ATOM     73  C   UNL     1       1.787  -1.122  -2.635  1.00  0.00     0.188 C 
BRANCH  73  74
ATOM     74  O   UNL     1       2.360  -2.032  -3.574  1.00  0.00    -0.376 OA
BRANCH  74  75
ATOM     75  C   UNL     1       3.696  -1.756  -3.991  1.00  0.00     0.202 C 
BRANCH  75  76
ATOM     76  C   UNL     1       3.883  -0.510  -4.860  1.00  0.00     0.261 C 
BRANCH  76  77
ATOM     77  O   UNL     1       3.260   0.657  -4.299  1.00  0.00    -0.463 OA
BRANCH  77  78
ATOM     78  C   UNL     1       2.929   1.576  -5.229  1.00  0.00     0.310 C 
ATOM     79  O   UNL     1       3.297   1.527  -6.402  1.00  0.00    -0.252 OA
BRANCH  78  80
ATOM     80  C   UNL     1       1.917   2.595  -4.785  1.00  0.00     0.119 C 
ATOM     81  C   UNL     1       2.284   4.062  -5.088  1.00  0.00     0.100 C 
ATOM     82  C   UNL     1       1.213   2.689  -3.416  1.00  0.00     0.027 C 
ATOM     83  C   UNL     1       1.463   4.846  -4.021  1.00  0.00     0.025 C 
ATOM     84  C   UNL     1       1.999   3.383  -2.331  1.00  0.00    -0.027 C 
ATOM     85  C   UNL     1       0.285   3.895  -3.750  1.00  0.00     0.017 C 
ATOM     86  C   UNL     1       2.049   4.683  -2.660  1.00  0.00    -0.027 C 
BRANCH  81  87
ATOM     87  C   UNL     1       3.757   4.449  -5.304  1.00  0.00     0.224 C 
ATOM     88  O   UNL     1       4.026   5.474  -5.931  1.00  0.00    -0.275 OA
ATOM     89  N   UNL     1       4.788   3.631  -4.880  1.00  0.00    -0.352 N 
ATOM     90  H   UNL     1       5.084   2.869  -5.429  1.00  0.00     0.163 HD
BRANCH  89  91
ATOM     91  C   UNL     1       5.425   3.921  -3.607  1.00  0.00     0.153 C 
BRANCH  91  92
ATOM     92  C   UNL     1       6.554   3.026  -3.149  1.00  0.00    -0.010 A 
ATOM     93  C   UNL     1       6.329   1.648  -3.010  1.00  0.00     0.007 A 
ATOM     94  C   UNL     1       7.781   3.528  -2.670  1.00  0.00     0.046 A 
ATOM     95  C   UNL     1       7.289   0.795  -2.456  1.00  0.00     0.000 A 
ATOM     96  C   UNL     1       8.731   2.677  -2.085  1.00  0.00     0.021 A 
ATOM     97  Cl  UNL     1       8.190   5.203  -2.724  1.00  0.00    -0.084 Cl
ATOM     98  C   UNL     1       8.488   1.311  -1.981  1.00  0.00     0.002 A 
ENDBRANCH  91  92
ENDBRANCH  89  91
ENDBRANCH  81  87
ENDBRANCH  78  80
ENDBRANCH  77  78
ENDBRANCH  76  77
ENDBRANCH  75  76
ENDBRANCH  74  75
ENDBRANCH  73  74
ENDBRANCH   1  73
TORSDOF 23
