REMARK SMILES COCCNC(=O)Cn1ccc(C(=O)OCCOCCOCCOC(=O)c2ccc(-c3c4nc(c(-c5cc(S(=O)(=O)[O-])ccc5F)c5ccc([nH]5)c(-c5cc(S(=O)(=O)[O-])ccc5F)c5nc(c(-c6cc(S(=O)(=O)[O-])ccc6F)c6ccc3[nH]6)C=C5)C=C4)cc2)c1
REMARK SMILES IDX 19 1 18 2 17 3 16 4 15 5 13 6 14 7 12 8 9 9 10 10 90 11
REMARK SMILES IDX 11 12 8 13 6 14 5 15 7 17 4 18 3 19 2 20 1 21 20 22 21 23
REMARK SMILES IDX 22 24 23 25 24 26 25 27 26 28 27 29 28 30 89 31 29 32 88 33
REMARK SMILES IDX 30 34 31 35 32 36 82 37 33 38 87 39 81 40 83 41 34 42 86 43
REMARK SMILES IDX 80 44 79 45 35 47 67 48 47 49 66 50 48 51 51 52 65 53 84 54
REMARK SMILES IDX 49 55 50 56 64 58 85 59 52 60 36 61 37 62 45 63 38 64 44 65
REMARK SMILES IDX 46 66 43 67 39 68 40 69 41 70 42 71 68 72 69 73 77 74 70 75
REMARK SMILES IDX 76 76 78 77 75 78 71 79 72 80 73 81 74 82 53 83 54 84 62 85
REMARK SMILES IDX 55 86 61 87 63 88 60 89 56 90 57 91 58 92 59 93
REMARK H PARENT 5 16 83 46 51 57
REMARK Flexibility Score: inf
ROOT
ATOM      1  C   UNL     1       4.504   4.562  -1.034  1.00  0.00     0.188 C 
ENDROOT
BRANCH   1   2
ATOM      2  O   UNL     1       5.779   4.706  -1.646  1.00  0.00    -0.376 OA
BRANCH   2   3
ATOM      3  C   UNL     1       6.730   3.657  -1.586  1.00  0.00     0.202 C 
BRANCH   3   4
ATOM      4  C   UNL     1       7.275   3.240  -0.211  1.00  0.00     0.261 C 
BRANCH   4   5
ATOM      5  O   UNL     1       6.274   2.921   0.770  1.00  0.00    -0.460 OA
BRANCH   5   6
ATOM      6  C   UNL     1       6.101   3.843   1.762  1.00  0.00     0.339 C 
ATOM      7  O   UNL     1       6.823   4.814   1.941  1.00  0.00    -0.246 OA
BRANCH   6   8
ATOM      8  C   UNL     1       4.861   3.651   2.518  1.00  0.00     0.077 A 
ATOM      9  N   UNL     1       3.083   2.791   3.582  1.00  0.00    -0.344 N 
ATOM     10  C   UNL     1       2.936   4.156   3.603  1.00  0.00     0.087 A 
ATOM     11  C   UNL     1       4.230   2.471   2.894  1.00  0.00     0.101 A 
ATOM     12  C   UNL     1       4.029   4.712   2.984  1.00  0.00     0.035 A 
BRANCH   9  13
ATOM     13  C   UNL     1       2.237   1.894   4.360  1.00  0.00     0.221 C 
BRANCH  13  14
ATOM     14  C   UNL     1       1.776   0.635   3.667  1.00  0.00     0.239 C 
ATOM     15  N   UNL     1       0.717   0.672   2.809  1.00  0.00    -0.352 N 
ATOM     16  H   UNL     1       0.306  -0.199   2.608  1.00  0.00     0.163 HD
ATOM     17  O   UNL     1       2.278  -0.460   3.931  1.00  0.00    -0.273 OA
BRANCH  15  18
ATOM     18  C   UNL     1       0.108   1.817   2.146  1.00  0.00     0.144 C 
BRANCH  18  19
ATOM     19  C   UNL     1       0.659   2.001   0.730  1.00  0.00     0.181 C 
BRANCH  19  20
ATOM     20  O   UNL     1       0.077   1.078  -0.188  1.00  0.00    -0.383 OA
ATOM     21  C   UNL     1       0.784  -0.147  -0.319  1.00  0.00     0.194 C 
ENDBRANCH  19  20
ENDBRANCH  18  19
ENDBRANCH  15  18
ENDBRANCH  13  14
ENDBRANCH   9  13
ENDBRANCH   6   8
ENDBRANCH   5   6
ENDBRANCH   4   5
ENDBRANCH   3   4
ENDBRANCH   2   3
ENDBRANCH   1   2
BRANCH   1  22
ATOM     22  C   UNL     1       3.826   3.188  -0.846  1.00  0.00     0.188 C 
BRANCH  22  23
ATOM     23  O   UNL     1       4.526   2.063  -1.352  1.00  0.00    -0.376 OA
BRANCH  23  24
ATOM     24  C   UNL     1       3.897   1.361  -2.418  1.00  0.00     0.202 C 
BRANCH  24  25
ATOM     25  C   UNL     1       3.928   2.109  -3.755  1.00  0.00     0.261 C 
BRANCH  25  26
ATOM     26  O   UNL     1       3.264   3.373  -3.739  1.00  0.00    -0.460 OA
BRANCH  26  27
ATOM     27  C   UNL     1       1.951   3.279  -3.450  1.00  0.00     0.338 C 
ATOM     28  O   UNL     1       1.335   2.295  -3.085  1.00  0.00    -0.246 OA
BRANCH  27  29
ATOM     29  C   UNL     1       1.290   4.549  -3.690  1.00  0.00     0.060 A 
ATOM     30  C   UNL     1       0.219   4.862  -2.848  1.00  0.00     0.016 A 
ATOM     31  C   UNL     1       1.463   5.112  -4.956  1.00  0.00     0.016 A 
ATOM     32  C   UNL     1      -0.808   5.613  -3.366  1.00  0.00     0.010 A 
ATOM     33  C   UNL     1       0.408   5.812  -5.491  1.00  0.00     0.010 A 
ATOM     34  C   UNL     1      -0.742   5.993  -4.712  1.00  0.00    -0.014 A 
BRANCH  34  35
ATOM     35  C   UNL     1      -1.942   6.586  -5.303  1.00  0.00     0.031 A 
ATOM     36  C   UNL     1      -1.933   8.103  -5.130  1.00  0.00     0.074 A 
ATOM     37  C   UNL     1      -2.848   5.684  -5.799  1.00  0.00     0.049 A 
ATOM     38  N   UNL     1      -2.920   8.916  -4.923  1.00  0.00    -0.248 NA
ATOM     39  C   UNL     1      -0.625   8.814  -5.040  1.00  0.00     0.031 C 
ATOM     40  C   UNL     1      -2.659   4.208  -5.840  1.00  0.00     0.029 A 
ATOM     41  N   UNL     1      -4.103   5.800  -6.350  1.00  0.00    -0.354 N 
ATOM     42  C   UNL     1      -2.389  10.223  -4.925  1.00  0.00     0.074 A 
ATOM     43  C   UNL     1      -0.970  10.085  -4.830  1.00  0.00     0.031 C 
ATOM     44  C   UNL     1      -3.767   3.583  -6.301  1.00  0.00     0.029 A 
ATOM     45  C   UNL     1      -4.773   4.574  -6.629  1.00  0.00     0.049 A 
ATOM     46  H   UNL     1      -4.513   6.674  -6.540  1.00  0.00     0.167 HD
ATOM     47  C   UNL     1      -3.145  11.332  -5.168  1.00  0.00     0.034 A 
ATOM     48  C   UNL     1      -6.062   4.378  -7.049  1.00  0.00     0.034 A 
ATOM     49  C   UNL     1      -4.498  10.947  -5.400  1.00  0.00     0.049 A 
ATOM     50  C   UNL     1      -6.584   5.740  -7.250  1.00  0.00     0.074 A 
ATOM     51  C   UNL     1      -5.505  10.522  -4.578  1.00  0.00     0.029 A 
ATOM     52  N   UNL     1      -4.859  10.714  -6.707  1.00  0.00    -0.354 N 
ATOM     53  N   UNL     1      -6.267   6.524  -8.234  1.00  0.00    -0.248 NA
ATOM     54  C   UNL     1      -7.466   6.307  -6.222  1.00  0.00     0.031 C 
ATOM     55  C   UNL     1      -6.255   9.648  -5.391  1.00  0.00     0.029 A 
ATOM     56  C   UNL     1      -5.757   9.676  -6.702  1.00  0.00     0.049 A 
ATOM     57  H   UNL     1      -4.534  11.200  -7.499  1.00  0.00     0.167 HD
ATOM     58  C   UNL     1      -6.669   7.757  -7.782  1.00  0.00     0.074 A 
ATOM     59  C   UNL     1      -7.654   7.512  -6.753  1.00  0.00     0.031 C 
ATOM     60  C   UNL     1      -5.825   8.818  -7.872  1.00  0.00     0.034 A 
BRANCH  47  61
ATOM     61  C   UNL     1      -2.794  12.767  -5.451  1.00  0.00     0.023 A 
ATOM     62  C   UNL     1      -3.869  13.688  -5.394  1.00  0.00     0.031 A 
ATOM     63  C   UNL     1      -1.607  13.234  -6.029  1.00  0.00     0.131 A 
ATOM     64  C   UNL     1      -3.796  14.943  -6.005  1.00  0.00     0.055 A 
ATOM     65  C   UNL     1      -1.510  14.523  -6.576  1.00  0.00     0.041 A 
ATOM     66  F   UNL     1      -0.531  12.449  -6.167  1.00  0.00    -0.206 F 
ATOM     67  C   UNL     1      -2.617  15.371  -6.601  1.00  0.00     0.022 A 
BRANCH  64  68
ATOM     68  S   UNL     1      -5.327  15.907  -6.154  1.00  0.00     0.124 S 
ATOM     69  O   UNL     1      -6.232  14.958  -6.793  1.00  0.00    -0.237 OA
ATOM     70  O   UNL     1      -5.620  16.228  -4.760  1.00  0.00    -0.237 OA
ATOM     71  O   UNL     1      -4.931  17.044  -6.983  1.00  0.00    -0.744 OA
ENDBRANCH  64  68
ENDBRANCH  47  61
BRANCH  48  72
ATOM     72  C   UNL     1      -7.060   3.247  -7.264  1.00  0.00     0.023 A 
ATOM     73  C   UNL     1      -6.794   1.867  -7.232  1.00  0.00     0.031 A 
ATOM     74  C   UNL     1      -8.437   3.576  -7.486  1.00  0.00     0.131 A 
ATOM     75  C   UNL     1      -7.862   0.926  -7.346  1.00  0.00     0.055 A 
ATOM     76  C   UNL     1      -9.484   2.656  -7.512  1.00  0.00     0.041 A 
ATOM     77  F   UNL     1      -8.850   4.833  -7.694  1.00  0.00    -0.206 F 
ATOM     78  C   UNL     1      -9.200   1.317  -7.429  1.00  0.00     0.022 A 
BRANCH  75  79
ATOM     79  S   UNL     1      -7.559  -0.868  -7.383  1.00  0.00     0.124 S 
ATOM     80  O   UNL     1      -7.449  -1.125  -8.816  1.00  0.00    -0.237 OA
ATOM     81  O   UNL     1      -6.332  -1.014  -6.608  1.00  0.00    -0.237 OA
ATOM     82  O   UNL     1      -8.757  -1.419  -6.746  1.00  0.00    -0.744 OA
ENDBRANCH  75  79
ENDBRANCH  48  72
BRANCH  60  83
ATOM     83  C   UNL     1      -4.769   8.685  -8.970  1.00  0.00     0.023 A 
ATOM     84  C   UNL     1      -5.150   8.495 -10.312  1.00  0.00     0.031 A 
ATOM     85  C   UNL     1      -3.387   8.617  -8.714  1.00  0.00     0.131 A 
ATOM     86  C   UNL     1      -4.187   8.225 -11.308  1.00  0.00     0.055 A 
ATOM     87  C   UNL     1      -2.427   8.355  -9.698  1.00  0.00     0.041 A 
ATOM     88  F   UNL     1      -2.912   8.797  -7.485  1.00  0.00    -0.206 F 
ATOM     89  C   UNL     1      -2.827   8.150 -11.007  1.00  0.00     0.022 A 
BRANCH  86  90
ATOM     90  S   UNL     1      -4.721   8.001 -13.027  1.00  0.00     0.124 S 
ATOM     91  O   UNL     1      -5.382   6.702 -12.992  1.00  0.00    -0.237 OA
ATOM     92  O   UNL     1      -5.588   9.156 -13.241  1.00  0.00    -0.237 OA
ATOM     93  O   UNL     1      -3.467   8.035 -13.781  1.00  0.00    -0.744 OA
ENDBRANCH  86  90
ENDBRANCH  60  83
ENDBRANCH  34  35
ENDBRANCH  27  29
ENDBRANCH  26  27
ENDBRANCH  25  26
ENDBRANCH  24  25
ENDBRANCH  23  24
ENDBRANCH  22  23
ENDBRANCH   1  22
TORSDOF 25
