REMARK SMILES CC1(C)CCC[C@@H]1NC(=O)CC1(C(=O)OCCOCCOCCOC(=O)c2ccc(-c3c4nc(c(-c5cc(S(=O)(=O)[O-])ccc5F)c5ccc([nH]5)c(-c5cc(S(=O)(=O)[O-])ccc5F)c5nc(c(-c6cc(S(=O)(=O)[O-])ccc6F)c6ccc3[nH]6)C=C5)C=C4)cc2)CCCCC1
REMARK SMILES IDX 19 1 18 2 17 3 16 4 15 5 13 6 14 7 12 8 90 9 94 10 91 11
REMARK SMILES IDX 93 12 92 13 11 14 9 15 8 16 10 18 7 19 1 20 2 21 3 22 4 23
REMARK SMILES IDX 5 24 6 25 20 26 21 27 22 28 23 29 24 30 25 31 26 32 27 33
REMARK SMILES IDX 28 34 89 35 29 36 88 37 30 38 31 39 32 40 82 41 33 42 87 43
REMARK SMILES IDX 81 44 83 45 34 46 86 47 80 48 79 49 35 51 67 52 47 53 66 54
REMARK SMILES IDX 48 55 51 56 65 57 84 58 49 59 50 60 64 62 85 63 52 64 36 65
REMARK SMILES IDX 37 66 45 67 38 68 44 69 46 70 43 71 39 72 40 73 41 74 42 75
REMARK SMILES IDX 68 76 69 77 77 78 70 79 76 80 78 81 75 82 71 83 72 84 73 85
REMARK SMILES IDX 74 86 53 87 54 88 62 89 55 90 61 91 63 92 60 93 56 94 57 95
REMARK SMILES IDX 58 96 59 97
REMARK H PARENT 8 17 83 50 51 61
REMARK Flexibility Score: inf
ROOT
ATOM      1  C   UNL     1      -2.384   1.018   3.870  1.00  0.00     0.188 C 
ENDROOT
BRANCH   1   2
ATOM      2  O   UNL     1      -3.555   1.011   4.680  1.00  0.00    -0.376 OA
BRANCH   2   3
ATOM      3  C   UNL     1      -4.790   1.377   4.070  1.00  0.00     0.202 C 
BRANCH   3   4
ATOM      4  C   UNL     1      -4.843   2.802   3.523  1.00  0.00     0.261 C 
BRANCH   4   5
ATOM      5  O   UNL     1      -4.346   2.835   2.170  1.00  0.00    -0.463 OA
BRANCH   5   6
ATOM      6  C   UNL     1      -3.375   3.736   1.882  1.00  0.00     0.312 C 
ATOM      7  O   UNL     1      -2.889   4.497   2.711  1.00  0.00    -0.252 OA
BRANCH   6   8
ATOM      8  C   UNL     1      -2.937   3.708   0.403  1.00  0.00     0.077 C 
ATOM      9  C   UNL     1      -3.346   5.086  -0.171  1.00  0.00     0.019 C 
ATOM     10  C   UNL     1      -3.579   2.600  -0.460  1.00  0.00     0.019 C 
ATOM     11  C   UNL     1      -4.869   5.205  -0.343  1.00  0.00     0.001 C 
ATOM     12  C   UNL     1      -5.063   2.738  -0.770  1.00  0.00     0.001 C 
ATOM     13  C   UNL     1      -5.413   4.126  -1.272  1.00  0.00     0.000 C 
BRANCH   8  14
ATOM     14  C   UNL     1      -1.390   3.478   0.467  1.00  0.00     0.118 C 
BRANCH  14  15
ATOM     15  C   UNL     1      -0.668   3.377  -0.864  1.00  0.00     0.221 C 
ATOM     16  N   UNL     1      -0.110   2.216  -1.308  1.00  0.00    -0.353 N 
ATOM     17  H   UNL     1       0.450   2.341  -2.108  1.00  0.00     0.163 HD
ATOM     18  O   UNL     1      -0.560   4.368  -1.589  1.00  0.00    -0.275 OA
BRANCH  16  19
ATOM     19  C   UNL     1      -0.158   0.823  -0.857  1.00  0.00     0.087 C 
ATOM     20  C   UNL     1       2.292   0.050  -0.571  1.00  0.00     0.013 C 
ATOM     21  C   UNL     1       1.003  -0.080  -1.385  1.00  0.00    -0.015 C 
ATOM     22  C   UNL     1       1.350   0.171  -2.865  1.00  0.00     0.013 C 
ATOM     23  C   UNL     1       0.433  -1.509  -1.223  1.00  0.00     0.008 C 
ATOM     24  C   UNL     1      -1.081  -1.391  -1.324  1.00  0.00     0.003 C 
ATOM     25  C   UNL     1      -1.392   0.095  -1.399  1.00  0.00     0.025 C 
ENDBRANCH  16  19
ENDBRANCH  14  15
ENDBRANCH   8  14
ENDBRANCH   6   8
ENDBRANCH   5   6
ENDBRANCH   4   5
ENDBRANCH   3   4
ENDBRANCH   2   3
ENDBRANCH   1   2
BRANCH   1  26
ATOM     26  C   UNL     1      -2.483   0.340   2.494  1.00  0.00     0.188 C 
BRANCH  26  27
ATOM     27  O   UNL     1      -3.323  -0.796   2.349  1.00  0.00    -0.376 OA
BRANCH  27  28
ATOM     28  C   UNL     1      -3.128  -1.839   3.298  1.00  0.00     0.202 C 
BRANCH  28  29
ATOM     29  C   UNL     1      -1.756  -2.505   3.224  1.00  0.00     0.261 C 
BRANCH  29  30
ATOM     30  O   UNL     1      -0.711  -1.570   3.549  1.00  0.00    -0.460 OA
BRANCH  30  31
ATOM     31  C   UNL     1       0.527  -2.013   3.233  1.00  0.00     0.338 C 
ATOM     32  O   UNL     1       0.806  -3.134   2.846  1.00  0.00    -0.246 OA
BRANCH  31  33
ATOM     33  C   UNL     1       1.538  -0.941   3.393  1.00  0.00     0.060 A 
ATOM     34  C   UNL     1       1.354   0.337   2.857  1.00  0.00     0.016 A 
ATOM     35  C   UNL     1       2.777  -1.291   3.926  1.00  0.00     0.016 A 
ATOM     36  C   UNL     1       2.436   1.214   2.740  1.00  0.00     0.010 A 
ATOM     37  C   UNL     1       3.838  -0.383   3.878  1.00  0.00     0.010 A 
ATOM     38  C   UNL     1       3.696   0.856   3.231  1.00  0.00    -0.014 A 
BRANCH  38  39
ATOM     39  C   UNL     1       4.896   1.710   3.006  1.00  0.00     0.031 A 
ATOM     40  C   UNL     1       6.080   1.145   2.260  1.00  0.00     0.074 A 
ATOM     41  C   UNL     1       4.948   2.970   3.477  1.00  0.00     0.049 A 
ATOM     42  N   UNL     1       7.316   1.569   2.215  1.00  0.00    -0.248 NA
ATOM     43  C   UNL     1       5.834  -0.074   1.473  1.00  0.00     0.031 C 
ATOM     44  C   UNL     1       3.848   3.678   4.132  1.00  0.00     0.029 A 
ATOM     45  N   UNL     1       5.982   3.873   3.495  1.00  0.00    -0.354 N 
ATOM     46  C   UNL     1       8.011   0.638   1.447  1.00  0.00     0.074 A 
ATOM     47  C   UNL     1       7.053  -0.370   1.043  1.00  0.00     0.031 C 
ATOM     48  C   UNL     1       4.265   4.900   4.493  1.00  0.00     0.029 A 
ATOM     49  C   UNL     1       5.687   5.022   4.191  1.00  0.00     0.049 A 
ATOM     50  H   UNL     1       6.848   3.714   3.055  1.00  0.00     0.167 HD
ATOM     51  C   UNL     1       9.330   0.624   1.127  1.00  0.00     0.034 A 
ATOM     52  C   UNL     1       6.482   6.024   4.614  1.00  0.00     0.034 A 
ATOM     53  C   UNL     1      10.257   1.661   1.518  1.00  0.00     0.049 A 
ATOM     54  C   UNL     1       7.955   5.958   4.315  1.00  0.00     0.074 A 
ATOM     55  C   UNL     1      11.613   1.757   1.251  1.00  0.00     0.029 A 
ATOM     56  N   UNL     1       9.921   2.789   2.257  1.00  0.00    -0.354 N 
ATOM     57  N   UNL     1       8.627   5.026   3.679  1.00  0.00    -0.248 NA
ATOM     58  C   UNL     1       8.776   7.070   4.806  1.00  0.00     0.031 C 
ATOM     59  C   UNL     1      12.105   2.909   1.877  1.00  0.00     0.029 A 
ATOM     60  C   UNL     1      11.046   3.571   2.478  1.00  0.00     0.049 A 
ATOM     61  H   UNL     1       9.015   3.003   2.577  1.00  0.00     0.167 HD
ATOM     62  C   UNL     1       9.955   5.443   3.694  1.00  0.00     0.074 A 
ATOM     63  C   UNL     1       9.980   6.721   4.377  1.00  0.00     0.031 C 
ATOM     64  C   UNL     1      11.055   4.825   3.192  1.00  0.00     0.034 A 
BRANCH  51  65
ATOM     65  C   UNL     1       9.859  -0.585   0.392  1.00  0.00     0.023 A 
ATOM     66  C   UNL     1       9.471  -0.899  -0.922  1.00  0.00     0.031 A 
ATOM     67  C   UNL     1      10.755  -1.457   1.038  1.00  0.00     0.131 A 
ATOM     68  C   UNL     1       9.930  -2.083  -1.524  1.00  0.00     0.055 A 
ATOM     69  C   UNL     1      11.264  -2.595   0.408  1.00  0.00     0.041 A 
ATOM     70  F   UNL     1      11.144  -1.223   2.301  1.00  0.00    -0.206 F 
ATOM     71  C   UNL     1      10.841  -2.921  -0.876  1.00  0.00     0.022 A 
BRANCH  68  72
ATOM     72  S   UNL     1       9.220  -2.584  -3.117  1.00  0.00     0.124 S 
ATOM     73  O   UNL     1       7.794  -2.642  -2.803  1.00  0.00    -0.237 OA
ATOM     74  O   UNL     1       9.636  -1.503  -4.002  1.00  0.00    -0.237 OA
ATOM     75  O   UNL     1       9.844  -3.880  -3.379  1.00  0.00    -0.744 OA
ENDBRANCH  68  72
ENDBRANCH  51  65
BRANCH  52  76
ATOM     76  C   UNL     1       5.917   7.113   5.460  1.00  0.00     0.023 A 
ATOM     77  C   UNL     1       5.862   8.438   5.003  1.00  0.00     0.031 A 
ATOM     78  C   UNL     1       5.427   6.836   6.750  1.00  0.00     0.131 A 
ATOM     79  C   UNL     1       5.345   9.441   5.838  1.00  0.00     0.055 A 
ATOM     80  C   UNL     1       4.868   7.828   7.556  1.00  0.00     0.041 A 
ATOM     81  F   UNL     1       5.458   5.584   7.234  1.00  0.00    -0.206 F 
ATOM     82  C   UNL     1       4.832   9.142   7.104  1.00  0.00     0.022 A 
BRANCH  79  83
ATOM     83  S   UNL     1       5.403  11.162   5.269  1.00  0.00     0.124 S 
ATOM     84  O   UNL     1       6.835  11.362   5.072  1.00  0.00    -0.237 OA
ATOM     85  O   UNL     1       4.590  11.109   4.059  1.00  0.00    -0.237 OA
ATOM     86  O   UNL     1       4.816  11.908   6.380  1.00  0.00    -0.744 OA
ENDBRANCH  79  83
ENDBRANCH  52  76
BRANCH  64  87
ATOM     87  C   UNL     1      12.365   5.554   3.356  1.00  0.00     0.023 A 
ATOM     88  C   UNL     1      12.957   5.723   4.620  1.00  0.00     0.031 A 
ATOM     89  C   UNL     1      13.001   6.128   2.242  1.00  0.00     0.131 A 
ATOM     90  C   UNL     1      14.114   6.504   4.748  1.00  0.00     0.055 A 
ATOM     91  C   UNL     1      14.183   6.858   2.369  1.00  0.00     0.041 A 
ATOM     92  F   UNL     1      12.475   5.998   1.013  1.00  0.00    -0.206 F 
ATOM     93  C   UNL     1      14.738   7.063   3.629  1.00  0.00     0.022 A 
BRANCH  90  94
ATOM     94  S   UNL     1      14.736   6.872   6.413  1.00  0.00     0.124 S 
ATOM     95  O   UNL     1      13.580   7.511   7.034  1.00  0.00    -0.237 OA
ATOM     96  O   UNL     1      15.079   5.546   6.917  1.00  0.00    -0.237 OA
ATOM     97  O   UNL     1      15.874   7.755   6.166  1.00  0.00    -0.744 OA
ENDBRANCH  90  94
ENDBRANCH  64  87
ENDBRANCH  38  39
ENDBRANCH  31  33
ENDBRANCH  30  31
ENDBRANCH  29  30
ENDBRANCH  28  29
ENDBRANCH  27  28
ENDBRANCH  26  27
ENDBRANCH   1  26
TORSDOF 23
