REMARK SMILES O=C(OCCOCCOCCOC(=O)c1nnn(-c2cccc(C(F)(F)F)c2)c1[C@@H]1COc2ccccc2O1)c1ccc(-c2c3nc(c(-c4cc(S(=O)(=O)[O-])ccc4F)c4ccc([nH]4)c(-c4cc(S(=O)(=O)[O-])ccc4F)c4nc(c(-c5cc(S(=O)(=O)[O-])ccc5F)c5ccc2[nH]5)C=C4)C=C3)cc1
REMARK SMILES IDX 7 1 6 2 5 3 4 4 3 5 2 6 1 7 40 8 41 9 102 10 42 11 101 12
REMARK SMILES IDX 43 13 44 14 45 15 95 16 46 17 100 18 94 19 96 20 47 21 99 22
REMARK SMILES IDX 93 23 92 24 48 26 80 27 60 28 79 29 61 30 64 31 78 32 97 33
REMARK SMILES IDX 62 34 63 35 77 37 98 38 65 39 49 40 50 41 58 42 51 43 57 44
REMARK SMILES IDX 59 45 56 46 52 47 53 48 54 49 55 50 81 51 82 52 90 53 83 54
REMARK SMILES IDX 89 55 91 56 88 57 84 58 85 59 86 60 87 61 66 62 67 63 75 64
REMARK SMILES IDX 68 65 74 66 76 67 73 68 69 69 70 70 71 71 72 72 8 73 9 74
REMARK SMILES IDX 10 75 11 76 12 77 13 78 14 79 15 80 16 81 29 82 17 83 18 84
REMARK SMILES IDX 30 85 31 86 39 87 32 88 38 89 33 90 37 91 34 92 36 93 35 94
REMARK SMILES IDX 19 95 20 96 28 97 21 98 23 99 22 100 24 101 25 102 26 103
REMARK SMILES IDX 27 104
REMARK H PARENT 96 25 64 36
REMARK Flexibility Score: inf
ROOT
ATOM      1  C   UNL     1       3.254   1.838  -0.268  1.00  0.00     0.188 C 
ENDROOT
BRANCH   1   2
ATOM      2  O   UNL     1       4.559   1.523  -0.746  1.00  0.00    -0.376 OA
BRANCH   2   3
ATOM      3  C   UNL     1       5.106   0.286  -0.305  1.00  0.00     0.202 C 
BRANCH   3   4
ATOM      4  C   UNL     1       4.581  -0.958  -1.027  1.00  0.00     0.261 C 
BRANCH   4   5
ATOM      5  O   UNL     1       3.178  -0.954  -1.326  1.00  0.00    -0.460 OA
BRANCH   5   6
ATOM      6  C   UNL     1       2.119  -1.388  -0.616  1.00  0.00     0.338 C 
ATOM      7  O   UNL     1       1.066  -1.625  -1.203  1.00  0.00    -0.246 OA
BRANCH   6   8
ATOM      8  C   UNL     1       2.100  -1.373   0.865  1.00  0.00     0.060 A 
ATOM      9  C   UNL     1       3.166  -1.766   1.673  1.00  0.00     0.016 A 
ATOM     10  C   UNL     1       0.858  -1.059   1.453  1.00  0.00     0.016 A 
ATOM     11  C   UNL     1       2.959  -1.972   3.029  1.00  0.00     0.010 A 
ATOM     12  C   UNL     1       0.646  -1.270   2.806  1.00  0.00     0.010 A 
ATOM     13  C   UNL     1       1.679  -1.812   3.562  1.00  0.00    -0.014 A 
BRANCH  13  14
ATOM     14  C   UNL     1       1.443  -2.364   4.888  1.00  0.00     0.031 A 
ATOM     15  C   UNL     1       2.093  -1.666   6.022  1.00  0.00     0.074 A 
ATOM     16  C   UNL     1       0.652  -3.442   5.057  1.00  0.00     0.049 A 
ATOM     17  N   UNL     1       2.981  -2.123   6.842  1.00  0.00    -0.248 NA
ATOM     18  C   UNL     1       1.790  -0.240   6.203  1.00  0.00     0.031 C 
ATOM     19  C   UNL     1      -0.220  -4.076   4.061  1.00  0.00     0.029 A 
ATOM     20  N   UNL     1       0.373  -4.135   6.195  1.00  0.00    -0.354 N 
ATOM     21  C   UNL     1       3.191  -1.117   7.781  1.00  0.00     0.074 A 
ATOM     22  C   UNL     1       2.566   0.063   7.244  1.00  0.00     0.031 C 
ATOM     23  C   UNL     1      -1.098  -4.884   4.691  1.00  0.00     0.029 A 
ATOM     24  C   UNL     1      -0.764  -4.928   6.104  1.00  0.00     0.049 A 
ATOM     25  H   UNL     1       0.926  -4.079   7.008  1.00  0.00     0.167 HD
ATOM     26  C   UNL     1       3.674  -1.387   9.025  1.00  0.00     0.034 A 
ATOM     27  C   UNL     1      -1.446  -5.500   7.128  1.00  0.00     0.034 A 
ATOM     28  C   UNL     1       4.359  -2.658   9.063  1.00  0.00     0.049 A 
ATOM     29  C   UNL     1      -0.506  -5.618   8.269  1.00  0.00     0.074 A 
ATOM     30  C   UNL     1       5.446  -3.193   8.396  1.00  0.00     0.029 A 
ATOM     31  N   UNL     1       3.727  -3.734   9.645  1.00  0.00    -0.354 N 
ATOM     32  N   UNL     1       0.551  -6.385   8.249  1.00  0.00    -0.248 NA
ATOM     33  C   UNL     1      -0.467  -4.544   9.250  1.00  0.00     0.031 C 
ATOM     34  C   UNL     1       5.113  -4.564   8.188  1.00  0.00     0.029 A 
ATOM     35  C   UNL     1       3.874  -4.797   8.787  1.00  0.00     0.049 A 
ATOM     36  H   UNL     1       3.259  -3.740  10.511  1.00  0.00     0.167 HD
ATOM     37  C   UNL     1       1.541  -5.651   8.883  1.00  0.00     0.074 A 
ATOM     38  C   UNL     1       0.829  -4.580   9.576  1.00  0.00     0.031 C 
ATOM     39  C   UNL     1       2.860  -5.809   8.560  1.00  0.00     0.034 A 
BRANCH  26  40
ATOM     40  C   UNL     1       3.240  -0.667  10.285  1.00  0.00     0.023 A 
ATOM     41  C   UNL     1       3.830  -1.066  11.501  1.00  0.00     0.031 A 
ATOM     42  C   UNL     1       2.097   0.158  10.403  1.00  0.00     0.131 A 
ATOM     43  C   UNL     1       3.236  -0.744  12.734  1.00  0.00     0.055 A 
ATOM     44  C   UNL     1       1.552   0.535  11.633  1.00  0.00     0.041 A 
ATOM     45  F   UNL     1       1.387   0.569   9.347  1.00  0.00    -0.206 F 
ATOM     46  C   UNL     1       2.099   0.055  12.809  1.00  0.00     0.022 A 
BRANCH  43  47
ATOM     47  S   UNL     1       3.861  -1.557  14.228  1.00  0.00     0.124 S 
ATOM     48  O   UNL     1       3.873  -2.957  13.819  1.00  0.00    -0.237 OA
ATOM     49  O   UNL     1       5.164  -0.921  14.390  1.00  0.00    -0.237 OA
ATOM     50  O   UNL     1       2.867  -1.211  15.242  1.00  0.00    -0.744 OA
ENDBRANCH  43  47
ENDBRANCH  26  40
BRANCH  27  51
ATOM     51  C   UNL     1      -2.928  -5.571   7.236  1.00  0.00     0.023 A 
ATOM     52  C   UNL     1      -3.595  -6.486   8.073  1.00  0.00     0.031 A 
ATOM     53  C   UNL     1      -3.723  -4.562   6.639  1.00  0.00     0.131 A 
ATOM     54  C   UNL     1      -4.993  -6.381   8.265  1.00  0.00     0.055 A 
ATOM     55  C   UNL     1      -5.103  -4.475   6.817  1.00  0.00     0.041 A 
ATOM     56  F   UNL     1      -3.169  -3.572   5.921  1.00  0.00    -0.206 F 
ATOM     57  C   UNL     1      -5.745  -5.384   7.639  1.00  0.00     0.022 A 
BRANCH  54  58
ATOM     58  S   UNL     1      -5.846  -7.498   9.423  1.00  0.00     0.124 S 
ATOM     59  O   UNL     1      -5.761  -8.781   8.736  1.00  0.00    -0.237 OA
ATOM     60  O   UNL     1      -5.049  -7.357  10.637  1.00  0.00    -0.237 OA
ATOM     61  O   UNL     1      -7.194  -6.935   9.510  1.00  0.00    -0.744 OA
ENDBRANCH  54  58
ENDBRANCH  27  51
BRANCH  39  62
ATOM     62  C   UNL     1       3.253  -6.986   7.690  1.00  0.00     0.023 A 
ATOM     63  C   UNL     1       2.764  -7.205   6.382  1.00  0.00     0.031 A 
ATOM     64  C   UNL     1       4.271  -7.836   8.156  1.00  0.00     0.131 A 
ATOM     65  C   UNL     1       3.287  -8.253   5.599  1.00  0.00     0.055 A 
ATOM     66  C   UNL     1       4.796  -8.864   7.372  1.00  0.00     0.041 A 
ATOM     67  F   UNL     1       4.808  -7.652   9.374  1.00  0.00    -0.206 F 
ATOM     68  C   UNL     1       4.301  -9.080   6.091  1.00  0.00     0.022 A 
BRANCH  65  69
ATOM     69  S   UNL     1       2.658  -8.552   3.916  1.00  0.00     0.124 S 
ATOM     70  O   UNL     1       1.211  -8.570   4.090  1.00  0.00    -0.237 OA
ATOM     71  O   UNL     1       3.201  -7.418   3.171  1.00  0.00    -0.237 OA
ATOM     72  O   UNL     1       3.244  -9.846   3.559  1.00  0.00    -0.744 OA
ENDBRANCH  65  69
ENDBRANCH  39  62
ENDBRANCH  13  14
ENDBRANCH   6   8
ENDBRANCH   5   6
ENDBRANCH   4   5
ENDBRANCH   3   4
ENDBRANCH   2   3
ENDBRANCH   1   2
BRANCH   1  73
ATOM     73  C   UNL     1       2.146   1.911  -1.347  1.00  0.00     0.188 C 
BRANCH  73  74
ATOM     74  O   UNL     1       2.359   2.494  -2.632  1.00  0.00    -0.376 OA
BRANCH  74  75
ATOM     75  C   UNL     1       3.676   2.653  -3.119  1.00  0.00     0.202 C 
BRANCH  75  76
ATOM     76  C   UNL     1       4.246   4.032  -2.770  1.00  0.00     0.261 C 
BRANCH  76  77
ATOM     77  O   UNL     1       3.816   4.530  -1.493  1.00  0.00    -0.458 OA
BRANCH  77  78
ATOM     78  C   UNL     1       2.595   5.147  -1.470  1.00  0.00     0.361 C 
ATOM     79  O   UNL     1       1.919   5.389  -2.465  1.00  0.00    -0.244 OA
BRANCH  78  80
ATOM     80  C   UNL     1       2.177   5.503  -0.120  1.00  0.00     0.198 A 
ATOM     81  N   UNL     1       0.857   5.480   0.254  1.00  0.00    -0.122 NA
ATOM     82  C   UNL     1       2.947   5.871   0.978  1.00  0.00     0.123 A 
ATOM     83  N   UNL     1       0.777   5.832   1.528  1.00  0.00    -0.061 NA
ATOM     84  N   UNL     1       2.003   6.244   1.925  1.00  0.00    -0.213 N 
BRANCH  82  85
ATOM     85  C   UNL     1       4.429   5.826   1.204  1.00  0.00     0.262 C 
ATOM     86  C   UNL     1       4.862   4.753   2.211  1.00  0.00     0.281 C 
ATOM     87  O   UNL     1       4.936   7.135   1.483  1.00  0.00    -0.477 OA
ATOM     88  O   UNL     1       4.599   5.146   3.558  1.00  0.00    -0.485 OA
ATOM     89  C   UNL     1       5.342   7.320   2.779  1.00  0.00     0.162 A 
ATOM     90  C   UNL     1       5.143   6.380   3.793  1.00  0.00     0.161 A 
ATOM     91  C   UNL     1       5.904   8.559   3.082  1.00  0.00     0.050 A 
ATOM     92  C   UNL     1       5.435   6.700   5.116  1.00  0.00     0.050 A 
ATOM     93  C   UNL     1       6.226   8.871   4.403  1.00  0.00     0.004 A 
ATOM     94  C   UNL     1       5.977   7.949   5.421  1.00  0.00     0.004 A 
ENDBRANCH  82  85
BRANCH  84  95
ATOM     95  C   UNL     1       2.055   7.330   2.821  1.00  0.00     0.067 A 
ATOM     96  C   UNL     1       1.854   7.121   4.185  1.00  0.00     0.028 A 
ATOM     97  C   UNL     1       2.249   8.618   2.305  1.00  0.00     0.041 A 
ATOM     98  C   UNL     1       1.941   8.211   5.052  1.00  0.00     0.003 A 
ATOM     99  C   UNL     1       2.281   9.720   3.167  1.00  0.00     0.058 A 
ATOM    100  C   UNL     1       2.157   9.499   4.549  1.00  0.00     0.013 A 
BRANCH  99 101
ATOM    101  C   UNL     1       2.462  11.114   2.625  1.00  0.00     0.416 C 
ATOM    102  F   UNL     1       1.611  12.016   3.191  1.00  0.00    -0.166 F 
ATOM    103  F   UNL     1       3.716  11.601   2.837  1.00  0.00    -0.166 F 
ATOM    104  F   UNL     1       2.252  11.206   1.280  1.00  0.00    -0.166 F 
ENDBRANCH  99 101
ENDBRANCH  84  95
ENDBRANCH  78  80
ENDBRANCH  77  78
ENDBRANCH  76  77
ENDBRANCH  75  76
ENDBRANCH  74  75
ENDBRANCH  73  74
ENDBRANCH   1  73
TORSDOF 23
