REMARK SMILES CCC[NH2+][C@]1(C(=O)OCCOCCOCCOC(=O)c2ccc(-c3c4nc(c(-c5cc(S(=O)(=O)[O-])ccc5F)c5ccc([nH]5)c(-c5cc(S(=O)(=O)[O-])ccc5F)c5nc(c(-c6cc(S(=O)(=O)[O-])ccc6F)c6ccc3[nH]6)C=C5)C=C4)cc2)CC[C@@H](Sc2nnc(C)n2C)C1
REMARK SMILES IDX 12 1 11 2 10 3 9 4 8 5 6 6 7 7 5 8 83 9 94 10 84 11 85 12
REMARK SMILES IDX 4 13 3 16 2 17 1 18 86 19 87 20 88 21 92 22 89 23 90 24
REMARK SMILES IDX 93 25 91 26 13 27 14 28 15 29 16 30 17 31 18 32 19 33 20 34
REMARK SMILES IDX 21 35 82 36 22 37 81 38 23 39 24 40 25 41 75 42 26 43 80 44
REMARK SMILES IDX 74 45 76 46 27 47 79 48 73 49 72 50 28 52 60 53 40 54 59 55
REMARK SMILES IDX 41 56 44 57 58 58 77 59 42 60 43 61 57 63 78 64 45 65 29 66
REMARK SMILES IDX 30 67 38 68 31 69 37 70 39 71 36 72 32 73 33 74 34 75 35 76
REMARK SMILES IDX 61 77 62 78 70 79 63 80 69 81 71 82 68 83 64 84 65 85 66 86
REMARK SMILES IDX 67 87 46 88 47 89 55 90 48 91 54 92 56 93 53 94 49 95 50 96
REMARK SMILES IDX 51 97 52 98
REMARK H PARENT 4 14 4 15 76 51 44 62
REMARK Flexibility Score: inf
ROOT
ATOM      1  C   UNL     1       1.534   0.276   0.519  1.00  0.00     0.188 C 
ENDROOT
BRANCH   1   2
ATOM      2  O   UNL     1       0.447  -0.235  -0.233  1.00  0.00    -0.376 OA
BRANCH   2   3
ATOM      3  C   UNL     1      -0.842   0.128   0.254  1.00  0.00     0.202 C 
BRANCH   3   4
ATOM      4  C   UNL     1      -1.174   1.628   0.248  1.00  0.00     0.261 C 
BRANCH   4   5
ATOM      5  O   UNL     1      -0.274   2.444   1.033  1.00  0.00    -0.459 OA
BRANCH   5   6
ATOM      6  C   UNL     1      -0.574   2.645   2.335  1.00  0.00     0.368 C 
ATOM      7  O   UNL     1      -1.583   2.198   2.873  1.00  0.00    -0.245 OA
BRANCH   6   8
ATOM      8  C   UNL     1       0.460   3.558   3.078  1.00  0.00     0.195 C 
ATOM      9  C   UNL     1       1.867   3.752   2.497  1.00  0.00     0.082 C 
ATOM     10  C   UNL     1      -0.071   5.010   2.971  1.00  0.00     0.096 C 
ATOM     11  C   UNL     1       2.378   5.050   3.104  1.00  0.00     0.022 C 
ATOM     12  C   UNL     1       1.151   5.952   3.046  1.00  0.00     0.062 C 
BRANCH   8  13
ATOM     13  N   UNL     1       0.531   3.132   4.507  1.00  0.00    -0.332 N 
ATOM     14  H   UNL     1       1.139   3.778   5.010  1.00  0.00     0.347 HD
ATOM     15  H   UNL     1      -0.418   3.140   4.880  1.00  0.00     0.347 HD
BRANCH  13  16
ATOM     16  C   UNL     1       1.063   1.763   4.665  1.00  0.00     0.261 C 
BRANCH  16  17
ATOM     17  C   UNL     1       0.773   1.162   6.044  1.00  0.00     0.058 C 
ATOM     18  C   UNL     1      -0.709   1.095   6.387  1.00  0.00     0.010 C 
ENDBRANCH  16  17
ENDBRANCH  13  16
ENDBRANCH   8  13
BRANCH  12  19
ATOM     19  S   UNL     1       1.107   7.217   1.718  1.00  0.00    -0.082 SA
BRANCH  19  20
ATOM     20  C   UNL     1       1.926   6.535   0.352  1.00  0.00     0.191 A 
ATOM     21  N   UNL     1       3.194   6.720   0.070  1.00  0.00    -0.123 NA
ATOM     22  N   UNL     1       1.318   5.899  -0.699  1.00  0.00    -0.309 N 
ATOM     23  N   UNL     1       3.433   6.191  -1.178  1.00  0.00    -0.135 NA
ATOM     24  C   UNL     1       2.303   5.697  -1.642  1.00  0.00     0.130 A 
ATOM     25  C   UNL     1      -0.059   5.508  -0.827  1.00  0.00     0.154 C 
ATOM     26  C   UNL     1       2.120   5.057  -2.968  1.00  0.00     0.090 C 
ENDBRANCH  19  20
ENDBRANCH  12  19
ENDBRANCH   6   8
ENDBRANCH   5   6
ENDBRANCH   4   5
ENDBRANCH   3   4
ENDBRANCH   2   3
ENDBRANCH   1   2
BRANCH   1  27
ATOM     27  C   UNL     1       2.164   1.526  -0.104  1.00  0.00     0.188 C 
BRANCH  27  28
ATOM     28  O   UNL     1       1.595   2.108  -1.266  1.00  0.00    -0.376 OA
BRANCH  28  29
ATOM     29  C   UNL     1       1.623   1.302  -2.439  1.00  0.00     0.202 C 
BRANCH  29  30
ATOM     30  C   UNL     1       2.997   0.842  -2.955  1.00  0.00     0.261 C 
BRANCH  30  31
ATOM     31  O   UNL     1       3.722   0.023  -2.016  1.00  0.00    -0.460 OA
BRANCH  31  32
ATOM     32  C   UNL     1       4.878   0.560  -1.534  1.00  0.00     0.338 C 
ATOM     33  O   UNL     1       5.397   1.609  -1.883  1.00  0.00    -0.246 OA
BRANCH  32  34
ATOM     34  C   UNL     1       5.290  -0.189  -0.325  1.00  0.00     0.060 A 
ATOM     35  C   UNL     1       5.382   0.482   0.909  1.00  0.00     0.016 A 
ATOM     36  C   UNL     1       5.593  -1.544  -0.412  1.00  0.00     0.016 A 
ATOM     37  C   UNL     1       5.787  -0.201   2.059  1.00  0.00     0.010 A 
ATOM     38  C   UNL     1       6.037  -2.215   0.729  1.00  0.00     0.010 A 
ATOM     39  C   UNL     1       6.162  -1.544   1.962  1.00  0.00    -0.014 A 
BRANCH  39  40
ATOM     40  C   UNL     1       6.929  -2.215   3.041  1.00  0.00     0.031 A 
ATOM     41  C   UNL     1       8.425  -2.252   2.898  1.00  0.00     0.074 A 
ATOM     42  C   UNL     1       6.329  -2.848   4.064  1.00  0.00     0.049 A 
ATOM     43  N   UNL     1       9.303  -3.000   3.509  1.00  0.00    -0.248 NA
ATOM     44  C   UNL     1       8.998  -1.329   1.905  1.00  0.00     0.031 C 
ATOM     45  C   UNL     1       4.899  -2.814   4.363  1.00  0.00     0.029 A 
ATOM     46  N   UNL     1       6.856  -3.677   5.025  1.00  0.00    -0.354 N 
ATOM     47  C   UNL     1      10.533  -2.661   2.953  1.00  0.00     0.074 A 
ATOM     48  C   UNL     1      10.279  -1.657   1.943  1.00  0.00     0.031 C 
ATOM     49  C   UNL     1       4.657  -3.618   5.415  1.00  0.00     0.029 A 
ATOM     50  C   UNL     1       5.902  -4.271   5.820  1.00  0.00     0.049 A 
ATOM     51  H   UNL     1       7.822  -3.831   5.134  1.00  0.00     0.167 HD
ATOM     52  C   UNL     1      11.759  -3.151   3.256  1.00  0.00     0.034 A 
ATOM     53  C   UNL     1       6.019  -5.266   6.727  1.00  0.00     0.034 A 
ATOM     54  C   UNL     1      11.986  -4.164   4.254  1.00  0.00     0.049 A 
ATOM     55  C   UNL     1       7.380  -5.885   6.970  1.00  0.00     0.074 A 
ATOM     56  C   UNL     1      13.182  -4.745   4.637  1.00  0.00     0.029 A 
ATOM     57  N   UNL     1      10.992  -4.756   5.023  1.00  0.00    -0.354 N 
ATOM     58  N   UNL     1       8.534  -5.595   6.413  1.00  0.00    -0.248 NA
ATOM     59  C   UNL     1       7.455  -6.970   7.960  1.00  0.00     0.031 C 
ATOM     60  C   UNL     1      12.903  -5.739   5.579  1.00  0.00     0.029 A 
ATOM     61  C   UNL     1      11.546  -5.712   5.859  1.00  0.00     0.049 A 
ATOM     62  H   UNL     1      10.035  -4.529   4.981  1.00  0.00     0.167 HD
ATOM     63  C   UNL     1       9.475  -6.421   7.027  1.00  0.00     0.074 A 
ATOM     64  C   UNL     1       8.755  -7.229   7.987  1.00  0.00     0.031 C 
ATOM     65  C   UNL     1      10.816  -6.495   6.827  1.00  0.00     0.034 A 
BRANCH  52  66
ATOM     66  C   UNL     1      12.928  -2.640   2.450  1.00  0.00     0.023 A 
ATOM     67  C   UNL     1      13.312  -1.288   2.479  1.00  0.00     0.031 A 
ATOM     68  C   UNL     1      13.646  -3.511   1.611  1.00  0.00     0.131 A 
ATOM     69  C   UNL     1      14.332  -0.834   1.630  1.00  0.00     0.055 A 
ATOM     70  C   UNL     1      14.718  -3.069   0.836  1.00  0.00     0.041 A 
ATOM     71  F   UNL     1      13.306  -4.806   1.520  1.00  0.00    -0.206 F 
ATOM     72  C   UNL     1      15.057  -1.719   0.830  1.00  0.00     0.022 A 
BRANCH  69  73
ATOM     73  S   UNL     1      14.593   0.954   1.474  1.00  0.00     0.124 S 
ATOM     74  O   UNL     1      13.281   1.403   1.013  1.00  0.00    -0.237 OA
ATOM     75  O   UNL     1      14.960   1.339   2.832  1.00  0.00    -0.237 OA
ATOM     76  O   UNL     1      15.663   1.058   0.484  1.00  0.00    -0.744 OA
ENDBRANCH  69  73
ENDBRANCH  52  66
BRANCH  53  77
ATOM     77  C   UNL     1       4.817  -5.793   7.441  1.00  0.00     0.023 A 
ATOM     78  C   UNL     1       4.722  -5.721   8.840  1.00  0.00     0.031 A 
ATOM     79  C   UNL     1       3.782  -6.444   6.746  1.00  0.00     0.131 A 
ATOM     80  C   UNL     1       3.648  -6.337   9.503  1.00  0.00     0.055 A 
ATOM     81  C   UNL     1       2.683  -6.999   7.406  1.00  0.00     0.041 A 
ATOM     82  F   UNL     1       3.823  -6.551   5.408  1.00  0.00    -0.206 F 
ATOM     83  C   UNL     1       2.620  -6.961   8.795  1.00  0.00     0.022 A 
BRANCH  80  84
ATOM     84  S   UNL     1       3.674  -6.407  11.316  1.00  0.00     0.124 S 
ATOM     85  O   UNL     1       4.926  -7.111  11.565  1.00  0.00    -0.237 OA
ATOM     86  O   UNL     1       3.648  -4.993  11.673  1.00  0.00    -0.237 OA
ATOM     87  O   UNL     1       2.461  -7.153  11.644  1.00  0.00    -0.744 OA
ENDBRANCH  80  84
ENDBRANCH  53  77
BRANCH  65  88
ATOM     88  C   UNL     1      11.616  -7.404   7.729  1.00  0.00     0.023 A 
ATOM     89  C   UNL     1      11.519  -8.805   7.671  1.00  0.00     0.031 A 
ATOM     90  C   UNL     1      12.533  -6.842   8.638  1.00  0.00     0.131 A 
ATOM     91  C   UNL     1      12.304  -9.594   8.528  1.00  0.00     0.055 A 
ATOM     92  C   UNL     1      13.350  -7.632   9.446  1.00  0.00     0.041 A 
ATOM     93  F   UNL     1      12.664  -5.509   8.738  1.00  0.00    -0.206 F 
ATOM     94  C   UNL     1      13.233  -9.017   9.399  1.00  0.00     0.022 A 
BRANCH  91  95
ATOM     95  S   UNL     1      12.055 -11.391   8.538  1.00  0.00     0.124 S 
ATOM     96  O   UNL     1      10.650 -11.502   8.917  1.00  0.00    -0.237 OA
ATOM     97  O   UNL     1      12.375 -11.760   7.163  1.00  0.00    -0.237 OA
ATOM     98  O   UNL     1      13.007 -11.864   9.542  1.00  0.00    -0.744 OA
ENDBRANCH  91  95
ENDBRANCH  65  88
ENDBRANCH  39  40
ENDBRANCH  32  34
ENDBRANCH  31  32
ENDBRANCH  30  31
ENDBRANCH  29  30
ENDBRANCH  28  29
ENDBRANCH  27  28
ENDBRANCH   1  27
TORSDOF 25
