REMARK SMILES C[C@H]1c2ccc(O)cc2OC(=O)[C@@H]1CC(=O)N[C@@H](CC1=c2ccccc2=NC1)C(=O)OCCOCCOCCOC(=O)c1ccc(-c2c3nc(c(-c4cc(S(=O)(=O)[O-])ccc4F)c4ccc([nH]4)c(-c4cc(S(=O)(=O)[O-])ccc4F)c4nc(c(-c5cc(S(=O)(=O)[O-])ccc5F)c5ccc2[nH]5)C=C4)C=C3)cc1
REMARK SMILES IDX 35 1 34 2 33 3 32 4 31 5 29 6 30 7 18 8 17 9 15 10 16 11
REMARK SMILES IDX 14 13 13 14 1 15 2 16 3 17 4 18 9 19 11 20 5 21 8 22 10 23
REMARK SMILES IDX 12 24 6 25 7 26 19 28 20 29 21 30 28 31 22 32 26 33 27 34
REMARK SMILES IDX 23 35 25 36 24 37 36 38 37 39 38 40 39 41 40 42 41 43 42 44
REMARK SMILES IDX 43 45 44 46 105 47 45 48 104 49 46 50 47 51 48 52 98 53
REMARK SMILES IDX 49 54 103 55 97 56 99 57 50 58 102 59 96 60 95 61 51 63
REMARK SMILES IDX 83 64 63 65 82 66 64 67 67 68 81 69 100 70 65 71 66 72 80 74
REMARK SMILES IDX 101 75 68 76 52 77 53 78 61 79 54 80 60 81 62 82 59 83 55 84
REMARK SMILES IDX 56 85 57 86 58 87 84 88 85 89 93 90 86 91 92 92 94 93 91 94
REMARK SMILES IDX 87 95 88 96 89 97 90 98 69 99 70 100 78 101 71 102 77 103
REMARK SMILES IDX 79 104 76 105 72 106 73 107 74 108 75 109
REMARK H PARENT 17 12 7 27 99 62 67 73
REMARK Flexibility Score: inf
ROOT
ATOM      1  C   UNL     1      -4.408   4.943   1.923  1.00  0.00     0.188 C 
ENDROOT
BRANCH   1   2
ATOM      2  O   UNL     1      -5.461   5.851   1.660  1.00  0.00    -0.376 OA
BRANCH   2   3
ATOM      3  C   UNL     1      -6.658   5.387   1.049  1.00  0.00     0.202 C 
BRANCH   3   4
ATOM      4  C   UNL     1      -6.651   4.255   0.013  1.00  0.00     0.261 C 
BRANCH   4   5
ATOM      5  O   UNL     1      -6.017   3.040   0.455  1.00  0.00    -0.462 OA
BRANCH   5   6
ATOM      6  C   UNL     1      -5.016   2.610  -0.343  1.00  0.00     0.329 C 
ATOM      7  O   UNL     1      -4.724   3.134  -1.418  1.00  0.00    -0.250 OA
BRANCH   6   8
ATOM      8  C   UNL     1      -4.255   1.372   0.146  1.00  0.00     0.196 C 
BRANCH   8   9
ATOM      9  N   UNL     1      -4.199   0.808   1.508  1.00  0.00    -0.342 N 
ATOM     10  C   UNL     1      -3.115   0.363   2.226  1.00  0.00     0.221 C 
ATOM     11  O   UNL     1      -3.313  -0.416   3.160  1.00  0.00    -0.275 OA
ATOM     12  H   UNL     1      -5.066   0.739   1.970  1.00  0.00     0.164 HD
BRANCH  10  13
ATOM     13  C   UNL     1      -1.708   0.919   1.974  1.00  0.00     0.116 C 
BRANCH  13  14
ATOM     14  C   UNL     1      -0.762   0.071   1.095  1.00  0.00     0.116 C 
ATOM     15  C   UNL     1       1.604  -0.304   0.186  1.00  0.00     0.014 C 
ATOM     16  C   UNL     1       0.668   0.651   0.944  1.00  0.00     0.034 C 
ATOM     17  C   UNL     1       0.599   1.948   0.179  1.00  0.00    -0.001 A 
ATOM     18  C   UNL     1       1.598   2.917   0.255  1.00  0.00     0.011 A 
ATOM     19  C   UNL     1      -0.471   2.162  -0.694  1.00  0.00     0.138 A 
ATOM     20  C   UNL     1      -1.286  -0.073  -0.305  1.00  0.00     0.315 C 
ATOM     21  C   UNL     1       1.477   4.088  -0.496  1.00  0.00     0.047 A 
ATOM     22  C   UNL     1      -0.666   3.369  -1.351  1.00  0.00     0.093 A 
ATOM     23  O   UNL     1      -1.343   1.109  -1.028  1.00  0.00    -0.426 OA
ATOM     24  O   UNL     1      -1.682  -1.136  -0.766  1.00  0.00    -0.251 OA
ATOM     25  C   UNL     1       0.326   4.328  -1.246  1.00  0.00     0.119 A 
BRANCH  25  26
ATOM     26  O   UNL     1       0.209   5.516  -1.898  1.00  0.00    -0.508 OA
ATOM     27  H   UNL     1       0.885   6.161  -1.822  1.00  0.00     0.293 HD
ENDBRANCH  25  26
ENDBRANCH  13  14
ENDBRANCH  10  13
ENDBRANCH   8   9
BRANCH   8  28
ATOM     28  C   UNL     1      -4.610   0.269  -0.871  1.00  0.00     0.070 C 
BRANCH  28  29
ATOM     29  C   UNL     1      -5.985  -0.421  -0.811  1.00  0.00    -0.037 C 
ATOM     30  C   UNL     1      -6.555  -0.672   0.373  1.00  0.00     0.001 A 
ATOM     31  C   UNL     1      -5.879  -1.755  -1.533  1.00  0.00     0.174 C 
ATOM     32  C   UNL     1      -7.783  -0.241   0.986  1.00  0.00     0.010 A 
ATOM     33  C   UNL     1      -6.206  -2.096   0.573  1.00  0.00     0.065 A 
ATOM     34  N   UNL     1      -5.796  -2.768  -0.456  1.00  0.00    -0.280 NA
ATOM     35  C   UNL     1      -8.179  -0.897   2.095  1.00  0.00     0.001 A 
ATOM     36  C   UNL     1      -6.391  -2.569   1.957  1.00  0.00     0.028 A 
ATOM     37  C   UNL     1      -7.344  -1.946   2.674  1.00  0.00     0.002 A 
ENDBRANCH  28  29
ENDBRANCH   8  28
ENDBRANCH   6   8
ENDBRANCH   5   6
ENDBRANCH   4   5
ENDBRANCH   3   4
ENDBRANCH   2   3
ENDBRANCH   1   2
BRANCH   1  38
ATOM     38  C   UNL     1      -4.664   3.754   2.859  1.00  0.00     0.188 C 
BRANCH  38  39
ATOM     39  O   UNL     1      -5.989   3.385   3.145  1.00  0.00    -0.376 OA
BRANCH  39  40
ATOM     40  C   UNL     1      -6.696   4.032   4.190  1.00  0.00     0.202 C 
BRANCH  40  41
ATOM     41  C   UNL     1      -6.116   5.080   5.165  1.00  0.00     0.261 C 
BRANCH  41  42
ATOM     42  O   UNL     1      -4.790   5.570   4.941  1.00  0.00    -0.460 OA
BRANCH  42  43
ATOM     43  C   UNL     1      -3.808   4.986   5.684  1.00  0.00     0.338 C 
ATOM     44  O   UNL     1      -3.947   4.109   6.511  1.00  0.00    -0.246 OA
BRANCH  43  45
ATOM     45  C   UNL     1      -2.502   5.425   5.133  1.00  0.00     0.060 A 
ATOM     46  C   UNL     1      -2.138   6.770   5.166  1.00  0.00     0.016 A 
ATOM     47  C   UNL     1      -1.646   4.475   4.553  1.00  0.00     0.016 A 
ATOM     48  C   UNL     1      -0.902   7.159   4.642  1.00  0.00     0.010 A 
ATOM     49  C   UNL     1      -0.424   4.872   3.997  1.00  0.00     0.010 A 
ATOM     50  C   UNL     1      -0.030   6.216   4.063  1.00  0.00    -0.014 A 
BRANCH  50  51
ATOM     51  C   UNL     1       1.356   6.621   3.708  1.00  0.00     0.031 A 
ATOM     52  C   UNL     1       1.755   7.010   2.319  1.00  0.00     0.074 A 
ATOM     53  C   UNL     1       2.261   6.695   4.700  1.00  0.00     0.049 A 
ATOM     54  N   UNL     1       2.929   7.365   1.859  1.00  0.00    -0.248 NA
ATOM     55  C   UNL     1       0.688   7.006   1.317  1.00  0.00     0.031 C 
ATOM     56  C   UNL     1       1.978   6.389   6.101  1.00  0.00     0.029 A 
ATOM     57  N   UNL     1       3.572   7.094   4.694  1.00  0.00    -0.354 N 
ATOM     58  C   UNL     1       2.766   7.555   0.489  1.00  0.00     0.074 A 
ATOM     59  C   UNL     1       1.359   7.357   0.228  1.00  0.00     0.031 C 
ATOM     60  C   UNL     1       3.063   6.679   6.832  1.00  0.00     0.029 A 
ATOM     61  C   UNL     1       4.134   7.140   5.947  1.00  0.00     0.049 A 
ATOM     62  H   UNL     1       4.063   7.325   3.873  1.00  0.00     0.167 HD
ATOM     63  C   UNL     1       3.709   7.826  -0.452  1.00  0.00     0.034 A 
ATOM     64  C   UNL     1       5.363   7.527   6.346  1.00  0.00     0.034 A 
ATOM     65  C   UNL     1       5.072   8.180  -0.122  1.00  0.00     0.049 A 
ATOM     66  C   UNL     1       6.343   8.040   5.322  1.00  0.00     0.074 A 
ATOM     67  C   UNL     1       6.087   8.574  -0.979  1.00  0.00     0.029 A 
ATOM     68  N   UNL     1       5.593   8.252   1.163  1.00  0.00    -0.354 N 
ATOM     69  N   UNL     1       6.194   8.149   4.023  1.00  0.00    -0.248 NA
ATOM     70  C   UNL     1       7.649   8.499   5.813  1.00  0.00     0.031 C 
ATOM     71  C   UNL     1       7.225   8.849  -0.221  1.00  0.00     0.029 A 
ATOM     72  C   UNL     1       6.901   8.706   1.118  1.00  0.00     0.049 A 
ATOM     73  H   UNL     1       5.105   8.016   1.984  1.00  0.00     0.167 HD
ATOM     74  C   UNL     1       7.377   8.708   3.546  1.00  0.00     0.074 A 
ATOM     75  C   UNL     1       8.219   8.944   4.699  1.00  0.00     0.031 C 
ATOM     76  C   UNL     1       7.731   8.984   2.266  1.00  0.00     0.034 A 
BRANCH  63  77
ATOM     77  C   UNL     1       3.356   7.760  -1.931  1.00  0.00     0.023 A 
ATOM     78  C   UNL     1       4.115   6.934  -2.794  1.00  0.00     0.031 A 
ATOM     79  C   UNL     1       2.398   8.600  -2.522  1.00  0.00     0.131 A 
ATOM     80  C   UNL     1       3.934   7.002  -4.184  1.00  0.00     0.055 A 
ATOM     81  C   UNL     1       2.161   8.601  -3.901  1.00  0.00     0.041 A 
ATOM     82  F   UNL     1       1.676   9.450  -1.774  1.00  0.00    -0.206 F 
ATOM     83  C   UNL     1       2.942   7.813  -4.739  1.00  0.00     0.022 A 
BRANCH  80  84
ATOM     84  S   UNL     1       5.051   6.146  -5.333  1.00  0.00     0.124 S 
ATOM     85  O   UNL     1       4.125   5.308  -6.092  1.00  0.00    -0.237 OA
ATOM     86  O   UNL     1       5.632   7.260  -6.078  1.00  0.00    -0.237 OA
ATOM     87  O   UNL     1       5.971   5.424  -4.460  1.00  0.00    -0.744 OA
ENDBRANCH  80  84
ENDBRANCH  63  77
BRANCH  64  88
ATOM     88  C   UNL     1       5.665   7.529   7.804  1.00  0.00     0.023 A 
ATOM     89  C   UNL     1       5.624   6.337   8.548  1.00  0.00     0.031 A 
ATOM     90  C   UNL     1       5.841   8.738   8.498  1.00  0.00     0.131 A 
ATOM     91  C   UNL     1       5.666   6.389   9.946  1.00  0.00     0.055 A 
ATOM     92  C   UNL     1       5.969   8.777   9.886  1.00  0.00     0.041 A 
ATOM     93  F   UNL     1       5.864   9.903   7.831  1.00  0.00    -0.206 F 
ATOM     94  C   UNL     1       5.858   7.600  10.619  1.00  0.00     0.022 A 
BRANCH  91  95
ATOM     95  S   UNL     1       5.296   4.915  10.937  1.00  0.00     0.124 S 
ATOM     96  O   UNL     1       6.532   4.736  11.690  1.00  0.00    -0.237 OA
ATOM     97  O   UNL     1       4.141   5.361  11.713  1.00  0.00    -0.237 OA
ATOM     98  O   UNL     1       5.010   3.892   9.937  1.00  0.00    -0.744 OA
ENDBRANCH  91  95
ENDBRANCH  64  88
BRANCH  76  99
ATOM     99  C   UNL     1       9.083   9.601   1.985  1.00  0.00     0.023 A 
ATOM    100  C   UNL     1       9.160  10.852   1.339  1.00  0.00     0.031 A 
ATOM    101  C   UNL     1      10.273   8.877   2.169  1.00  0.00     0.131 A 
ATOM    102  C   UNL     1      10.390  11.315   0.854  1.00  0.00     0.055 A 
ATOM    103  C   UNL     1      11.504   9.366   1.729  1.00  0.00     0.041 A 
ATOM    104  F   UNL     1      10.253   7.672   2.761  1.00  0.00    -0.206 F 
ATOM    105  C   UNL     1      11.564  10.581   1.052  1.00  0.00     0.022 A 
BRANCH 102 106
ATOM    106  S   UNL     1      10.497  12.826  -0.145  1.00  0.00     0.124 S 
ATOM    107  O   UNL     1      11.395  13.655   0.656  1.00  0.00    -0.237 OA
ATOM    108  O   UNL     1      11.060  12.327  -1.397  1.00  0.00    -0.237 OA
ATOM    109  O   UNL     1       9.119  13.299  -0.220  1.00  0.00    -0.744 OA
ENDBRANCH 102 106
ENDBRANCH  76  99
ENDBRANCH  50  51
ENDBRANCH  43  45
ENDBRANCH  42  43
ENDBRANCH  41  42
ENDBRANCH  40  41
ENDBRANCH  39  40
ENDBRANCH  38  39
ENDBRANCH   1  38
TORSDOF 26
