REMARK SMILES CCCC[C@H](CC)Cn1ccc(C(=O)OCCOCCOCCOC(=O)c2ccc(-c3c4nc(c(-c5cc(S(=O)(=O)[O-])ccc5F)c5ccc([nH]5)c(-c5cc(S(=O)(=O)[O-])ccc5F)c5nc(c(-c6cc(S(=O)(=O)[O-])ccc6F)c6ccc3[nH]6)C=C5)C=C4)cc2)c1
REMARK SMILES IDX 19 1 18 2 17 3 16 4 15 5 13 6 14 7 12 8 9 9 10 10 90 11
REMARK SMILES IDX 11 12 8 13 5 14 4 15 3 16 2 17 1 18 6 19 7 20 20 21 21 22
REMARK SMILES IDX 22 23 23 24 24 25 25 26 26 27 27 28 28 29 89 30 29 31 88 32
REMARK SMILES IDX 30 33 31 34 32 35 82 36 33 37 87 38 81 39 83 40 34 41 86 42
REMARK SMILES IDX 80 43 79 44 35 46 67 47 47 48 66 49 48 50 51 51 65 52 84 53
REMARK SMILES IDX 49 54 50 55 64 57 85 58 52 59 36 60 37 61 45 62 38 63 44 64
REMARK SMILES IDX 46 65 43 66 39 67 40 68 41 69 42 70 68 71 69 72 77 73 70 74
REMARK SMILES IDX 76 75 78 76 75 77 71 78 72 79 73 80 74 81 53 82 54 83 62 84
REMARK SMILES IDX 55 85 61 86 63 87 60 88 56 89 57 90 58 91 59 92
REMARK H PARENT 83 45 51 56
REMARK Flexibility Score: inf
ROOT
ATOM      1  C   UNL     1      -0.856   2.701  -5.201  1.00  0.00     0.188 C 
ENDROOT
BRANCH   1   2
ATOM      2  O   UNL     1      -0.039   2.003  -6.135  1.00  0.00    -0.376 OA
BRANCH   2   3
ATOM      3  C   UNL     1       0.568   0.764  -5.800  1.00  0.00     0.202 C 
BRANCH   3   4
ATOM      4  C   UNL     1       1.460   0.622  -4.551  1.00  0.00     0.261 C 
BRANCH   4   5
ATOM      5  O   UNL     1       0.942   1.197  -3.350  1.00  0.00    -0.460 OA
BRANCH   5   6
ATOM      6  C   UNL     1       1.436   2.419  -3.014  1.00  0.00     0.339 C 
ATOM      7  O   UNL     1       2.406   2.953  -3.544  1.00  0.00    -0.246 OA
BRANCH   6   8
ATOM      8  C   UNL     1       0.595   3.106  -2.045  1.00  0.00     0.077 A 
ATOM      9  N   UNL     1      -0.777   3.532  -0.343  1.00  0.00    -0.353 N 
ATOM     10  C   UNL     1      -0.540   4.735  -0.958  1.00  0.00     0.086 A 
ATOM     11  C   UNL     1      -0.223   2.527  -1.087  1.00  0.00     0.101 A 
ATOM     12  C   UNL     1       0.362   4.511  -1.971  1.00  0.00     0.035 A 
BRANCH   9  13
ATOM     13  C   UNL     1      -1.394   3.420   0.970  1.00  0.00     0.125 C 
BRANCH  13  14
ATOM     14  C   UNL     1      -0.936   2.242   1.853  1.00  0.00     0.008 C 
BRANCH  14  15
ATOM     15  C   UNL     1      -1.684   2.220   3.210  1.00  0.00     0.005 C 
BRANCH  15  16
ATOM     16  C   UNL     1      -1.535   3.438   4.140  1.00  0.00     0.000 C 
BRANCH  16  17
ATOM     17  C   UNL     1      -2.382   4.684   3.847  1.00  0.00    -0.003 C 
ATOM     18  C   UNL     1      -3.860   4.415   3.619  1.00  0.00     0.004 C 
ENDBRANCH  16  17
ENDBRANCH  15  16
ENDBRANCH  14  15
BRANCH  14  19
ATOM     19  C   UNL     1       0.603   2.202   2.028  1.00  0.00     0.002 C 
ATOM     20  C   UNL     1       1.111   0.861   2.541  1.00  0.00     0.004 C 
ENDBRANCH  14  19
ENDBRANCH  13  14
ENDBRANCH   9  13
ENDBRANCH   6   8
ENDBRANCH   5   6
ENDBRANCH   4   5
ENDBRANCH   3   4
ENDBRANCH   2   3
ENDBRANCH   1   2
BRANCH   1  21
ATOM     21  C   UNL     1      -1.790   1.950  -4.228  1.00  0.00     0.188 C 
BRANCH  21  22
ATOM     22  O   UNL     1      -1.592   0.550  -4.179  1.00  0.00    -0.376 OA
BRANCH  22  23
ATOM     23  C   UNL     1      -2.586  -0.301  -4.731  1.00  0.00     0.202 C 
BRANCH  23  24
ATOM     24  C   UNL     1      -3.020  -0.106  -6.188  1.00  0.00     0.261 C 
BRANCH  24  25
ATOM     25  O   UNL     1      -3.144   1.238  -6.622  1.00  0.00    -0.460 OA
BRANCH  25  26
ATOM     26  C   UNL     1      -4.208   1.862  -6.085  1.00  0.00     0.338 C 
ATOM     27  O   UNL     1      -4.895   1.493  -5.148  1.00  0.00    -0.246 OA
BRANCH  26  28
ATOM     28  C   UNL     1      -4.511   3.043  -6.877  1.00  0.00     0.060 A 
ATOM     29  C   UNL     1      -5.147   4.086  -6.201  1.00  0.00     0.016 A 
ATOM     30  C   UNL     1      -4.668   2.792  -8.243  1.00  0.00     0.016 A 
ATOM     31  C   UNL     1      -6.155   4.740  -6.862  1.00  0.00     0.010 A 
ATOM     32  C   UNL     1      -5.727   3.389  -8.874  1.00  0.00     0.010 A 
ATOM     33  C   UNL     1      -6.486   4.321  -8.158  1.00  0.00    -0.014 A 
BRANCH  33  34
ATOM     34  C   UNL     1      -7.551   5.044  -8.842  1.00  0.00     0.031 A 
ATOM     35  C   UNL     1      -6.913   6.302  -9.491  1.00  0.00     0.074 A 
ATOM     36  C   UNL     1      -8.808   4.508  -8.682  1.00  0.00     0.049 A 
ATOM     37  N   UNL     1      -7.393   7.493  -9.650  1.00  0.00    -0.248 NA
ATOM     38  C   UNL     1      -5.469   6.278  -9.902  1.00  0.00     0.031 C 
ATOM     39  C   UNL     1      -9.139   3.225  -7.992  1.00  0.00     0.029 A 
ATOM     40  N   UNL     1     -10.071   4.911  -9.049  1.00  0.00    -0.354 N 
ATOM     41  C   UNL     1      -6.457   8.234 -10.412  1.00  0.00     0.074 A 
ATOM     42  C   UNL     1      -5.238   7.500 -10.381  1.00  0.00     0.031 C 
ATOM     43  C   UNL     1     -10.481   3.031  -7.909  1.00  0.00     0.029 A 
ATOM     44  C   UNL     1     -11.168   4.140  -8.541  1.00  0.00     0.049 A 
ATOM     45  H   UNL     1     -10.214   5.691  -9.633  1.00  0.00     0.167 HD
ATOM     46  C   UNL     1      -6.814   9.315 -11.165  1.00  0.00     0.034 A 
ATOM     47  C   UNL     1     -12.513   4.439  -8.592  1.00  0.00     0.034 A 
ATOM     48  C   UNL     1      -8.203   9.569 -10.970  1.00  0.00     0.049 A 
ATOM     49  C   UNL     1     -12.526   5.670  -9.400  1.00  0.00     0.074 A 
ATOM     50  C   UNL     1      -8.905  10.030  -9.889  1.00  0.00     0.029 A 
ATOM     51  N   UNL     1      -9.065   8.944 -11.843  1.00  0.00    -0.354 N 
ATOM     52  N   UNL     1     -12.319   5.726 -10.680  1.00  0.00    -0.248 NA
ATOM     53  C   UNL     1     -12.653   6.953  -8.696  1.00  0.00     0.031 C 
ATOM     54  C   UNL     1     -10.030   9.182  -9.881  1.00  0.00     0.029 A 
ATOM     55  C   UNL     1     -10.115   8.483 -11.094  1.00  0.00     0.049 A 
ATOM     56  H   UNL     1      -8.950   8.848 -12.816  1.00  0.00     0.167 HD
ATOM     57  C   UNL     1     -11.985   7.042 -10.868  1.00  0.00     0.074 A 
ATOM     58  C   UNL     1     -12.518   7.771  -9.735  1.00  0.00     0.031 C 
ATOM     59  C   UNL     1     -10.886   7.369 -11.596  1.00  0.00     0.034 A 
BRANCH  46  60
ATOM     60  C   UNL     1      -6.150  10.055 -12.296  1.00  0.00     0.023 A 
ATOM     61  C   UNL     1      -6.840  11.206 -12.751  1.00  0.00     0.031 A 
ATOM     62  C   UNL     1      -5.154   9.555 -13.142  1.00  0.00     0.131 A 
ATOM     63  C   UNL     1      -6.686  11.686 -14.053  1.00  0.00     0.055 A 
ATOM     64  C   UNL     1      -4.935  10.096 -14.420  1.00  0.00     0.041 A 
ATOM     65  F   UNL     1      -4.420   8.483 -12.815  1.00  0.00    -0.206 F 
ATOM     66  C   UNL     1      -5.736  11.132 -14.901  1.00  0.00     0.022 A 
BRANCH  63  67
ATOM     67  S   UNL     1      -7.906  12.887 -14.656  1.00  0.00     0.124 S 
ATOM     68  O   UNL     1      -9.163  12.180 -14.438  1.00  0.00    -0.237 OA
ATOM     69  O   UNL     1      -7.660  14.033 -13.786  1.00  0.00    -0.237 OA
ATOM     70  O   UNL     1      -7.529  13.078 -16.055  1.00  0.00    -0.744 OA
ENDBRANCH  63  67
ENDBRANCH  46  60
BRANCH  47  71
ATOM     71  C   UNL     1     -13.886   4.030  -8.032  1.00  0.00     0.023 A 
ATOM     72  C   UNL     1     -14.230   2.872  -7.307  1.00  0.00     0.031 A 
ATOM     73  C   UNL     1     -14.979   4.951  -8.192  1.00  0.00     0.131 A 
ATOM     74  C   UNL     1     -15.537   2.747  -6.724  1.00  0.00     0.055 A 
ATOM     75  C   UNL     1     -16.205   4.876  -7.532  1.00  0.00     0.041 A 
ATOM     76  F   UNL     1     -14.919   5.998  -9.025  1.00  0.00    -0.206 F 
ATOM     77  C   UNL     1     -16.485   3.773  -6.772  1.00  0.00     0.022 A 
BRANCH  74  78
ATOM     78  S   UNL     1     -16.081   1.228  -5.872  1.00  0.00     0.124 S 
ATOM     79  O   UNL     1     -16.578   0.421  -6.981  1.00  0.00    -0.237 OA
ATOM     80  O   UNL     1     -14.860   0.759  -5.229  1.00  0.00    -0.237 OA
ATOM     81  O   UNL     1     -17.113   1.708  -4.950  1.00  0.00    -0.744 OA
ENDBRANCH  74  78
ENDBRANCH  47  71
BRANCH  59  82
ATOM     82  C   UNL     1     -10.431   6.313 -12.599  1.00  0.00     0.023 A 
ATOM     83  C   UNL     1     -11.314   5.886 -13.607  1.00  0.00     0.031 A 
ATOM     84  C   UNL     1      -9.197   5.636 -12.541  1.00  0.00     0.131 A 
ATOM     85  C   UNL     1     -10.971   4.832 -14.478  1.00  0.00     0.055 A 
ATOM     86  C   UNL     1      -8.851   4.587 -13.406  1.00  0.00     0.041 A 
ATOM     87  F   UNL     1      -8.282   5.958 -11.630  1.00  0.00    -0.206 F 
ATOM     88  C   UNL     1      -9.742   4.178 -14.385  1.00  0.00     0.022 A 
BRANCH  85  89
ATOM     89  S   UNL     1     -12.145   4.339 -15.769  1.00  0.00     0.124 S 
ATOM     90  O   UNL     1     -13.202   3.687 -15.005  1.00  0.00    -0.237 OA
ATOM     91  O   UNL     1     -12.493   5.617 -16.383  1.00  0.00    -0.237 OA
ATOM     92  O   UNL     1     -11.360   3.446 -16.622  1.00  0.00    -0.744 OA
ENDBRANCH  85  89
ENDBRANCH  59  82
ENDBRANCH  33  34
ENDBRANCH  26  28
ENDBRANCH  25  26
ENDBRANCH  24  25
ENDBRANCH  23  24
ENDBRANCH  22  23
ENDBRANCH  21  22
ENDBRANCH   1  21
TORSDOF 26
