REMARK SMILES O=C(CCc1ccccc1)Nc1ccccc1Oc1ccsc1C(=O)OCCOCCOCCOC(=O)c1ccc(-c2c3nc(c(-c4cc(S(=O)(=O)[O-])ccc4F)c4ccc([nH]4)c(-c4cc(S(=O)(=O)[O-])ccc4F)c4nc(c(-c5cc(S(=O)(=O)[O-])ccc5F)c5ccc2[nH]5)C=C4)C=C3)cc1
REMARK SMILES IDX 29 1 28 2 27 3 26 4 24 5 25 6 23 7 19 8 20 9 21 10 22 11
REMARK SMILES IDX 18 12 17 13 12 14 13 15 14 16 16 17 15 18 11 19 1 20 2 21
REMARK SMILES IDX 3 23 4 24 5 25 6 26 10 27 7 28 9 29 8 30 30 31 31 32 32 33
REMARK SMILES IDX 33 34 34 35 35 36 36 37 37 38 38 39 39 40 100 41 40 42 99 43
REMARK SMILES IDX 41 44 42 45 43 46 93 47 44 48 98 49 92 50 94 51 45 52 97 53
REMARK SMILES IDX 91 54 90 55 46 57 78 58 58 59 77 60 59 61 62 62 76 63 95 64
REMARK SMILES IDX 60 65 61 66 75 68 96 69 63 70 47 71 48 72 56 73 49 74 55 75
REMARK SMILES IDX 57 76 54 77 50 78 51 79 52 80 53 81 79 82 80 83 88 84 81 85
REMARK SMILES IDX 87 86 89 87 86 88 82 89 83 90 84 91 85 92 64 93 65 94 73 95
REMARK SMILES IDX 66 96 72 97 74 98 71 99 67 100 68 101 69 102 70 103
REMARK H PARENT 11 22 94 56 62 67
REMARK Flexibility Score: inf
ROOT
ATOM      1  O   UNL     1      -2.668  -1.723   1.538  1.00  0.00    -0.376 OA
ENDROOT
BRANCH   1   2
ATOM      2  C   UNL     1      -3.530  -0.744   0.974  1.00  0.00     0.202 C 
BRANCH   2   3
ATOM      3  C   UNL     1      -3.221   0.735   1.261  1.00  0.00     0.261 C 
BRANCH   3   4
ATOM      4  O   UNL     1      -1.842   1.133   1.203  1.00  0.00    -0.459 OA
BRANCH   4   5
ATOM      5  C   UNL     1      -1.205   1.242   2.418  1.00  0.00     0.352 C 
ATOM      6  O   UNL     1      -1.766   1.052   3.483  1.00  0.00    -0.245 OA
BRANCH   5   7
ATOM      7  C   UNL     1       0.197   1.629   2.263  1.00  0.00     0.155 A 
ATOM      8  C   UNL     1       0.927   2.074   1.171  1.00  0.00     0.152 A 
ATOM      9  C   UNL     1       2.275   2.410   1.511  1.00  0.00     0.060 A 
ATOM     10  C   UNL     1       2.578   2.066   2.809  1.00  0.00     0.070 A 
ATOM     11  S   UNL     1       1.213   1.482   3.648  1.00  0.00    -0.133 S 
BRANCH   8  12
ATOM     12  O   UNL     1       0.343   2.142  -0.048  1.00  0.00    -0.453 OA
BRANCH  12  13
ATOM     13  C   UNL     1       1.004   2.296  -1.241  1.00  0.00     0.151 A 
ATOM     14  C   UNL     1       2.075   1.537  -1.749  1.00  0.00     0.084 A 
ATOM     15  C   UNL     1       2.571   1.862  -3.028  1.00  0.00     0.030 A 
ATOM     16  C   UNL     1       1.992   2.863  -3.811  1.00  0.00     0.002 A 
ATOM     17  C   UNL     1       0.436   3.310  -2.038  1.00  0.00     0.049 A 
ATOM     18  C   UNL     1       0.921   3.591  -3.314  1.00  0.00     0.004 A 
BRANCH  14  19
ATOM     19  N   UNL     1       2.770   0.477  -1.121  1.00  0.00    -0.323 N 
ATOM     20  O   UNL     1       1.151  -0.553   0.125  1.00  0.00    -0.275 OA
ATOM     21  C   UNL     1       2.333  -0.367  -0.137  1.00  0.00     0.224 C 
ATOM     22  H   UNL     1       3.692   0.326  -1.434  1.00  0.00     0.170 HD
BRANCH  21  23
ATOM     23  C   UNL     1       3.401  -1.074   0.691  1.00  0.00     0.105 C 
BRANCH  23  24
ATOM     24  C   UNL     1       4.504  -1.797  -0.076  1.00  0.00     0.045 C 
BRANCH  24  25
ATOM     25  C   UNL     1       5.572  -0.960  -0.738  1.00  0.00    -0.048 A 
ATOM     26  C   UNL     1       6.354  -1.566  -1.732  1.00  0.00     0.004 A 
ATOM     27  C   UNL     1       5.797   0.390  -0.436  1.00  0.00     0.004 A 
ATOM     28  C   UNL     1       7.276  -0.820  -2.463  1.00  0.00     0.000 A 
ATOM     29  C   UNL     1       6.694   1.144  -1.191  1.00  0.00     0.000 A 
ATOM     30  C   UNL     1       7.426   0.541  -2.210  1.00  0.00     0.000 A 
ENDBRANCH  24  25
ENDBRANCH  23  24
ENDBRANCH  21  23
ENDBRANCH  14  19
ENDBRANCH  12  13
ENDBRANCH   8  12
ENDBRANCH   5   7
ENDBRANCH   4   5
ENDBRANCH   3   4
ENDBRANCH   2   3
ENDBRANCH   1   2
BRANCH   1  31
ATOM     31  C   UNL     1      -1.370  -1.801   0.954  1.00  0.00     0.188 C 
BRANCH  31  32
ATOM     32  C   UNL     1      -1.327  -2.137  -0.536  1.00  0.00     0.188 C 
BRANCH  32  33
ATOM     33  O   UNL     1      -2.002  -1.231  -1.407  1.00  0.00    -0.376 OA
BRANCH  33  34
ATOM     34  C   UNL     1      -1.729  -1.433  -2.797  1.00  0.00     0.202 C 
BRANCH  34  35
ATOM     35  C   UNL     1      -1.952  -2.859  -3.355  1.00  0.00     0.261 C 
BRANCH  35  36
ATOM     36  O   UNL     1      -1.232  -3.926  -2.694  1.00  0.00    -0.460 OA
BRANCH  36  37
ATOM     37  C   UNL     1       0.120  -3.873  -2.741  1.00  0.00     0.338 C 
ATOM     38  O   UNL     1       0.779  -3.112  -3.430  1.00  0.00    -0.246 OA
BRANCH  37  39
ATOM     39  C   UNL     1       0.694  -4.708  -1.647  1.00  0.00     0.060 A 
ATOM     40  C   UNL     1       1.683  -4.121  -0.852  1.00  0.00     0.016 A 
ATOM     41  C   UNL     1       0.301  -6.020  -1.379  1.00  0.00     0.016 A 
ATOM     42  C   UNL     1       2.326  -4.844   0.157  1.00  0.00     0.010 A 
ATOM     43  C   UNL     1       0.954  -6.754  -0.366  1.00  0.00     0.010 A 
ATOM     44  C   UNL     1       2.001  -6.185   0.387  1.00  0.00    -0.014 A 
BRANCH  44  45
ATOM     45  C   UNL     1       2.877  -6.999   1.288  1.00  0.00     0.031 A 
ATOM     46  C   UNL     1       3.864  -7.962   0.669  1.00  0.00     0.074 A 
ATOM     47  C   UNL     1       2.895  -6.818   2.625  1.00  0.00     0.049 A 
ATOM     48  N   UNL     1       4.718  -8.771   1.246  1.00  0.00    -0.248 NA
ATOM     49  C   UNL     1       3.900  -8.006  -0.801  1.00  0.00     0.031 C 
ATOM     50  C   UNL     1       2.070  -5.862   3.361  1.00  0.00     0.029 A 
ATOM     51  N   UNL     1       3.650  -7.425   3.605  1.00  0.00    -0.354 N 
ATOM     52  C   UNL     1       5.390  -9.419   0.214  1.00  0.00     0.074 A 
ATOM     53  C   UNL     1       4.817  -8.934  -1.024  1.00  0.00     0.031 C 
ATOM     54  C   UNL     1       2.364  -5.945   4.671  1.00  0.00     0.029 A 
ATOM     55  C   UNL     1       3.362  -6.993   4.882  1.00  0.00     0.049 A 
ATOM     56  H   UNL     1       4.333  -8.107   3.411  1.00  0.00     0.167 HD
ATOM     57  C   UNL     1       6.399 -10.324   0.284  1.00  0.00     0.034 A 
ATOM     58  C   UNL     1       3.825  -7.410   6.082  1.00  0.00     0.034 A 
ATOM     59  C   UNL     1       6.971 -10.814   1.516  1.00  0.00     0.049 A 
ATOM     60  C   UNL     1       4.859  -8.516   6.135  1.00  0.00     0.074 A 
ATOM     61  C   UNL     1       7.980 -11.748   1.683  1.00  0.00     0.029 A 
ATOM     62  N   UNL     1       6.590 -10.415   2.789  1.00  0.00    -0.354 N 
ATOM     63  N   UNL     1       5.463  -9.138   5.148  1.00  0.00    -0.248 NA
ATOM     64  C   UNL     1       5.279  -8.970   7.470  1.00  0.00     0.031 C 
ATOM     65  C   UNL     1       8.157 -11.968   3.053  1.00  0.00     0.029 A 
ATOM     66  C   UNL     1       7.321 -11.108   3.744  1.00  0.00     0.049 A 
ATOM     67  H   UNL     1       5.901  -9.740   2.986  1.00  0.00     0.167 HD
ATOM     68  C   UNL     1       6.356 -10.026   5.748  1.00  0.00     0.074 A 
ATOM     69  C   UNL     1       6.236  -9.836   7.176  1.00  0.00     0.031 C 
ATOM     70  C   UNL     1       7.199 -10.921   5.170  1.00  0.00     0.034 A 
BRANCH  57  71
ATOM     71  C   UNL     1       6.922 -10.886  -1.016  1.00  0.00     0.023 A 
ATOM     72  C   UNL     1       7.604 -10.086  -1.949  1.00  0.00     0.031 A 
ATOM     73  C   UNL     1       6.741 -12.247  -1.323  1.00  0.00     0.131 A 
ATOM     74  C   UNL     1       8.034 -10.640  -3.164  1.00  0.00     0.055 A 
ATOM     75  C   UNL     1       7.238 -12.810  -2.499  1.00  0.00     0.041 A 
ATOM     76  F   UNL     1       6.077 -13.054  -0.480  1.00  0.00    -0.206 F 
ATOM     77  C   UNL     1       7.880 -12.003  -3.433  1.00  0.00     0.022 A 
BRANCH  74  78
ATOM     78  S   UNL     1       8.692  -9.533  -4.440  1.00  0.00     0.124 S 
ATOM     79  O   UNL     1       7.562  -8.633  -4.662  1.00  0.00    -0.237 OA
ATOM     80  O   UNL     1       9.854  -8.946  -3.782  1.00  0.00    -0.237 OA
ATOM     81  O   UNL     1       8.992 -10.431  -5.553  1.00  0.00    -0.744 OA
ENDBRANCH  74  78
ENDBRANCH  57  71
BRANCH  58  82
ATOM     82  C   UNL     1       3.282  -6.848   7.361  1.00  0.00     0.023 A 
ATOM     83  C   UNL     1       4.125  -6.254   8.316  1.00  0.00     0.031 A 
ATOM     84  C   UNL     1       1.928  -7.019   7.703  1.00  0.00     0.131 A 
ATOM     85  C   UNL     1       3.625  -5.926   9.588  1.00  0.00     0.055 A 
ATOM     86  C   UNL     1       1.419  -6.620   8.941  1.00  0.00     0.041 A 
ATOM     87  F   UNL     1       1.077  -7.599   6.841  1.00  0.00    -0.206 F 
ATOM     88  C   UNL     1       2.274  -6.089   9.900  1.00  0.00     0.022 A 
BRANCH  85  89
ATOM     89  S   UNL     1       4.797  -5.424  10.882  1.00  0.00     0.124 S 
ATOM     90  O   UNL     1       5.716  -6.556  10.902  1.00  0.00    -0.237 OA
ATOM     91  O   UNL     1       5.327  -4.176  10.343  1.00  0.00    -0.237 OA
ATOM     92  O   UNL     1       3.955  -5.281  12.068  1.00  0.00    -0.744 OA
ENDBRANCH  85  89
ENDBRANCH  58  82
BRANCH  70  93
ATOM     93  C   UNL     1       8.095 -11.723   6.090  1.00  0.00     0.023 A 
ATOM     94  C   UNL     1       7.574 -12.624   7.035  1.00  0.00     0.031 A 
ATOM     95  C   UNL     1       9.492 -11.554   6.046  1.00  0.00     0.131 A 
ATOM     96  C   UNL     1       8.431 -13.257   7.949  1.00  0.00     0.055 A 
ATOM     97  C   UNL     1      10.346 -12.244   6.909  1.00  0.00     0.041 A 
ATOM     98  F   UNL     1      10.052 -10.708   5.167  1.00  0.00    -0.206 F 
ATOM     99  C   UNL     1       9.816 -13.086   7.881  1.00  0.00     0.022 A 
BRANCH  96 100
ATOM    100  S   UNL     1       7.702 -14.207   9.313  1.00  0.00     0.124 S 
ATOM    101  O   UNL     1       6.837 -13.216   9.944  1.00  0.00    -0.237 OA
ATOM    102  O   UNL     1       7.023 -15.290   8.610  1.00  0.00    -0.237 OA
ATOM    103  O   UNL     1       8.861 -14.614  10.106  1.00  0.00    -0.744 OA
ENDBRANCH  96 100
ENDBRANCH  70  93
ENDBRANCH  44  45
ENDBRANCH  37  39
ENDBRANCH  36  37
ENDBRANCH  35  36
ENDBRANCH  34  35
ENDBRANCH  33  34
ENDBRANCH  32  33
ENDBRANCH  31  32
ENDBRANCH   1  31
TORSDOF 26
