REMARK SMILES CC(C)(C)OC(=O)N1CCC(c2c(C(=O)OCCOCCOCCOC(=O)c3ccc(-c4c5nc(c(-c6cc(S(=O)(=O)[O-])ccc6F)c6ccc([nH]6)c(-c6cc(S(=O)(=O)[O-])ccc6F)c6nc(c(-c7cc(S(=O)(=O)[O-])ccc7F)c7ccc4[nH]7)C=C6)C=C5)cc3)cnn2-c2ccccc2)CC1
REMARK SMILES IDX 20 1 19 2 18 3 17 4 16 5 14 6 15 7 13 8 12 9 93 10 91 11
REMARK SMILES IDX 92 12 11 13 6 14 7 15 8 16 9 17 101 18 10 19 100 20 5 21
REMARK SMILES IDX 2 22 1 23 3 24 4 25 94 26 95 27 99 28 96 29 98 30 97 31
REMARK SMILES IDX 21 32 22 33 23 34 24 35 25 36 26 37 27 38 28 39 29 40 90 41
REMARK SMILES IDX 30 42 89 43 31 44 32 45 33 46 83 47 34 48 88 49 82 50 84 51
REMARK SMILES IDX 35 52 87 53 81 54 80 55 36 57 68 58 48 59 67 60 49 61 52 62
REMARK SMILES IDX 66 63 85 64 50 65 51 66 65 68 86 69 53 70 37 71 38 72 46 73
REMARK SMILES IDX 39 74 45 75 47 76 44 77 40 78 41 79 42 80 43 81 69 82 70 83
REMARK SMILES IDX 78 84 71 85 77 86 79 87 76 88 72 89 73 90 74 91 75 92 54 93
REMARK SMILES IDX 55 94 63 95 56 96 62 97 64 98 61 99 57 100 58 101 59 102
REMARK SMILES IDX 60 103
REMARK H PARENT 84 56 52 67
REMARK Flexibility Score: inf
ROOT
ATOM      1  C   UNL     1      -1.087  -6.592  -7.414  1.00  0.00     0.188 C 
ENDROOT
BRANCH   1   2
ATOM      2  O   UNL     1      -1.809  -6.948  -8.565  1.00  0.00    -0.376 OA
BRANCH   2   3
ATOM      3  C   UNL     1      -1.152  -6.918  -9.815  1.00  0.00     0.202 C 
BRANCH   3   4
ATOM      4  C   UNL     1       0.343  -7.249 -10.034  1.00  0.00     0.261 C 
BRANCH   4   5
ATOM      5  O   UNL     1       1.217  -7.411  -8.910  1.00  0.00    -0.460 OA
BRANCH   5   6
ATOM      6  C   UNL     1       1.940  -6.338  -8.476  1.00  0.00     0.341 C 
ATOM      7  O   UNL     1       1.848  -5.208  -8.947  1.00  0.00    -0.246 OA
BRANCH   6   8
ATOM      8  C   UNL     1       2.785  -6.677  -7.337  1.00  0.00     0.102 A 
ATOM      9  C   UNL     1       3.048  -5.938  -6.170  1.00  0.00     0.062 A 
ATOM     10  N   UNL     1       3.897  -6.753  -5.417  1.00  0.00    -0.237 N 
ATOM     11  C   UNL     1       3.450  -7.903  -7.144  1.00  0.00     0.151 A 
ATOM     12  N   UNL     1       4.208  -7.906  -6.055  1.00  0.00    -0.175 NA
BRANCH   9  13
ATOM     13  C   UNL     1       2.436  -4.600  -5.749  1.00  0.00     0.043 C 
ATOM     14  C   UNL     1       0.701  -2.721  -2.623  1.00  0.00     0.410 C 
ATOM     15  O   UNL     1      -0.103  -3.525  -2.186  1.00  0.00    -0.224 OA
ATOM     16  N   UNL     1       1.136  -2.762  -3.941  1.00  0.00    -0.308 N 
ATOM     17  C   UNL     1       0.355  -3.554  -4.861  1.00  0.00     0.124 C 
ATOM     18  C   UNL     1       2.457  -2.369  -4.419  1.00  0.00     0.124 C 
ATOM     19  C   UNL     1       1.077  -4.864  -5.084  1.00  0.00     0.032 C 
ATOM     20  C   UNL     1       3.261  -3.612  -4.888  1.00  0.00     0.032 C 
BRANCH  14  21
ATOM     21  O   UNL     1       1.198  -1.666  -1.921  1.00  0.00    -0.444 OA
BRANCH  21  22
ATOM     22  C   UNL     1       0.636  -1.391  -0.601  1.00  0.00     0.106 C 
ATOM     23  C   UNL     1       1.198  -0.017  -0.202  1.00  0.00     0.056 C 
ATOM     24  C   UNL     1       1.116  -2.434   0.415  1.00  0.00     0.056 C 
ATOM     25  C   UNL     1      -0.900  -1.274  -0.606  1.00  0.00     0.056 C 
ENDBRANCH  21  22
ENDBRANCH  14  21
ENDBRANCH   9  13
BRANCH  10  26
ATOM     26  C   UNL     1       4.602  -6.444  -4.240  1.00  0.00     0.065 A 
ATOM     27  C   UNL     1       5.985  -6.253  -4.342  1.00  0.00     0.028 A 
ATOM     28  C   UNL     1       3.936  -6.271  -3.024  1.00  0.00     0.028 A 
ATOM     29  C   UNL     1       6.691  -5.780  -3.240  1.00  0.00     0.002 A 
ATOM     30  C   UNL     1       4.655  -5.802  -1.923  1.00  0.00     0.002 A 
ATOM     31  C   UNL     1       6.023  -5.536  -2.039  1.00  0.00     0.000 A 
ENDBRANCH  10  26
ENDBRANCH   6   8
ENDBRANCH   5   6
ENDBRANCH   4   5
ENDBRANCH   3   4
ENDBRANCH   2   3
ENDBRANCH   1   2
BRANCH   1  32
ATOM     32  C   UNL     1      -0.520  -7.802  -6.642  1.00  0.00     0.188 C 
BRANCH  32  33
ATOM     33  O   UNL     1      -0.733  -9.126  -7.108  1.00  0.00    -0.376 OA
BRANCH  33  34
ATOM     34  C   UNL     1      -1.994  -9.547  -7.604  1.00  0.00     0.202 C 
BRANCH  34  35
ATOM     35  C   UNL     1      -3.309  -9.178  -6.921  1.00  0.00     0.261 C 
BRANCH  35  36
ATOM     36  O   UNL     1      -3.295  -7.992  -6.154  1.00  0.00    -0.460 OA
BRANCH  36  37
ATOM     37  C   UNL     1      -2.934  -8.175  -4.865  1.00  0.00     0.338 C 
ATOM     38  O   UNL     1      -2.384  -9.153  -4.389  1.00  0.00    -0.246 OA
BRANCH  37  39
ATOM     39  C   UNL     1      -3.434  -7.036  -4.088  1.00  0.00     0.060 A 
ATOM     40  C   UNL     1      -3.183  -7.063  -2.717  1.00  0.00     0.016 A 
ATOM     41  C   UNL     1      -4.421  -6.215  -4.652  1.00  0.00     0.016 A 
ATOM     42  C   UNL     1      -4.114  -6.488  -1.884  1.00  0.00     0.010 A 
ATOM     43  C   UNL     1      -5.369  -5.678  -3.819  1.00  0.00     0.010 A 
ATOM     44  C   UNL     1      -5.255  -5.911  -2.451  1.00  0.00    -0.014 A 
BRANCH  44  45
ATOM     45  C   UNL     1      -6.285  -5.407  -1.569  1.00  0.00     0.031 A 
ATOM     46  C   UNL     1      -5.923  -4.076  -1.045  1.00  0.00     0.074 A 
ATOM     47  C   UNL     1      -7.458  -6.031  -1.356  1.00  0.00     0.049 A 
ATOM     48  N   UNL     1      -5.406  -3.813   0.108  1.00  0.00    -0.248 NA
ATOM     49  C   UNL     1      -5.846  -2.960  -2.005  1.00  0.00     0.031 C 
ATOM     50  C   UNL     1      -8.003  -7.209  -2.030  1.00  0.00     0.029 A 
ATOM     51  N   UNL     1      -8.467  -5.673  -0.518  1.00  0.00    -0.354 N 
ATOM     52  C   UNL     1      -5.219  -2.439   0.106  1.00  0.00     0.074 A 
ATOM     53  C   UNL     1      -5.188  -2.060  -1.276  1.00  0.00     0.031 C 
ATOM     54  C   UNL     1      -9.322  -7.323  -1.734  1.00  0.00     0.029 A 
ATOM     55  C   UNL     1      -9.687  -6.301  -0.763  1.00  0.00     0.049 A 
ATOM     56  H   UNL     1      -8.345  -5.020   0.208  1.00  0.00     0.167 HD
ATOM     57  C   UNL     1      -5.481  -1.706   1.223  1.00  0.00     0.034 A 
ATOM     58  C   UNL     1     -10.901  -5.938  -0.254  1.00  0.00     0.034 A 
ATOM     59  C   UNL     1      -5.534  -2.570   2.390  1.00  0.00     0.049 A 
ATOM     60  C   UNL     1     -10.625  -5.117   0.958  1.00  0.00     0.074 A 
ATOM     61  C   UNL     1      -4.657  -3.478   2.957  1.00  0.00     0.029 A 
ATOM     62  N   UNL     1      -6.773  -2.883   2.912  1.00  0.00    -0.354 N 
ATOM     63  N   UNL     1     -10.088  -5.607   2.042  1.00  0.00    -0.248 NA
ATOM     64  C   UNL     1     -10.448  -3.682   0.777  1.00  0.00     0.031 C 
ATOM     65  C   UNL     1      -5.473  -4.569   3.383  1.00  0.00     0.029 A 
ATOM     66  C   UNL     1      -6.808  -4.234   3.154  1.00  0.00     0.049 A 
ATOM     67  H   UNL     1      -7.505  -2.247   3.081  1.00  0.00     0.167 HD
ATOM     68  C   UNL     1      -9.151  -4.664   2.439  1.00  0.00     0.074 A 
ATOM     69  C   UNL     1      -9.472  -3.464   1.665  1.00  0.00     0.031 C 
ATOM     70  C   UNL     1      -8.024  -5.028   3.123  1.00  0.00     0.034 A 
BRANCH  57  71
ATOM     71  C   UNL     1      -6.132  -0.332   1.196  1.00  0.00     0.023 A 
ATOM     72  C   UNL     1      -6.485   0.206   2.446  1.00  0.00     0.031 A 
ATOM     73  C   UNL     1      -6.678   0.340   0.076  1.00  0.00     0.131 A 
ATOM     74  C   UNL     1      -7.450   1.219   2.553  1.00  0.00     0.055 A 
ATOM     75  C   UNL     1      -7.596   1.388   0.186  1.00  0.00     0.041 A 
ATOM     76  F   UNL     1      -6.420   0.005  -1.191  1.00  0.00    -0.206 F 
ATOM     77  C   UNL     1      -8.021   1.807   1.430  1.00  0.00     0.022 A 
BRANCH  74  78
ATOM     78  S   UNL     1      -8.077   1.614   4.200  1.00  0.00     0.124 S 
ATOM     79  O   UNL     1      -8.541   0.306   4.648  1.00  0.00    -0.237 OA
ATOM     80  O   UNL     1      -6.880   2.135   4.854  1.00  0.00    -0.237 OA
ATOM     81  O   UNL     1      -9.122   2.599   3.935  1.00  0.00    -0.744 OA
ENDBRANCH  74  78
ENDBRANCH  57  71
BRANCH  58  82
ATOM     82  C   UNL     1     -12.236  -5.952  -0.932  1.00  0.00     0.023 A 
ATOM     83  C   UNL     1     -13.462  -5.801  -0.237  1.00  0.00     0.031 A 
ATOM     84  C   UNL     1     -12.303  -5.856  -2.341  1.00  0.00     0.131 A 
ATOM     85  C   UNL     1     -14.668  -5.561  -0.947  1.00  0.00     0.055 A 
ATOM     86  C   UNL     1     -13.492  -5.616  -3.034  1.00  0.00     0.041 A 
ATOM     87  F   UNL     1     -11.195  -5.899  -3.096  1.00  0.00    -0.206 F 
ATOM     88  C   UNL     1     -14.679  -5.456  -2.339  1.00  0.00     0.022 A 
BRANCH  85  89
ATOM     89  S   UNL     1     -16.247  -5.284  -0.070  1.00  0.00     0.124 S 
ATOM     90  O   UNL     1     -16.555  -6.614   0.443  1.00  0.00    -0.237 OA
ATOM     91  O   UNL     1     -15.890  -4.272   0.917  1.00  0.00    -0.237 OA
ATOM     92  O   UNL     1     -17.146  -4.813  -1.125  1.00  0.00    -0.744 OA
ENDBRANCH  85  89
ENDBRANCH  58  82
BRANCH  70  93
ATOM     93  C   UNL     1      -7.964  -6.412   3.743  1.00  0.00     0.023 A 
ATOM     94  C   UNL     1      -8.147  -7.634   3.054  1.00  0.00     0.031 A 
ATOM     95  C   UNL     1      -7.604  -6.480   5.101  1.00  0.00     0.131 A 
ATOM     96  C   UNL     1      -7.982  -8.858   3.737  1.00  0.00     0.055 A 
ATOM     97  C   UNL     1      -7.417  -7.690   5.764  1.00  0.00     0.041 A 
ATOM     98  F   UNL     1      -7.397  -5.356   5.808  1.00  0.00    -0.206 F 
ATOM     99  C   UNL     1      -7.614  -8.886   5.086  1.00  0.00     0.022 A 
BRANCH  96 100
ATOM    100  S   UNL     1      -8.281 -10.450   2.899  1.00  0.00     0.124 S 
ATOM    101  O   UNL     1      -9.511 -10.220   2.150  1.00  0.00    -0.237 OA
ATOM    102  O   UNL     1      -7.069 -10.617   2.102  1.00  0.00    -0.237 OA
ATOM    103  O   UNL     1      -8.413 -11.397   4.009  1.00  0.00    -0.744 OA
ENDBRANCH  96 100
ENDBRANCH  70  93
ENDBRANCH  44  45
ENDBRANCH  37  39
ENDBRANCH  36  37
ENDBRANCH  35  36
ENDBRANCH  34  35
ENDBRANCH  33  34
ENDBRANCH  32  33
ENDBRANCH   1  32
TORSDOF 24
