REMARK SMILES Cc1ccc(Nc2c(Cl)cc(Cl)cc2Cl)c(CC(=O)OCCOCCOCCOC(=O)c2ccc(-c3c4nc(c(-c5cc(S(=O)(=O)[O-])ccc5F)c5ccc([nH]5)c(-c5cc(S(=O)(=O)[O-])ccc5F)c5nc(c(-c6cc(S(=O)(=O)[O-])ccc6F)c6ccc3[nH]6)C=C5)C=C4)cc2)c1
REMARK SMILES IDX 24 1 23 2 22 3 21 4 20 5 18 6 19 7 17 8 16 9 1 10 2 11 3 12
REMARK SMILES IDX 95 13 4 14 5 15 6 16 7 18 8 19 14 20 9 21 10 22 13 23 15 24
REMARK SMILES IDX 11 25 12 26 25 27 26 28 27 29 28 30 29 31 30 32 31 33 32 34
REMARK SMILES IDX 33 35 94 36 34 37 93 38 35 39 36 40 37 41 87 42 38 43 92 44
REMARK SMILES IDX 86 45 88 46 39 47 91 48 85 49 84 50 40 52 72 53 52 54 71 55
REMARK SMILES IDX 53 56 56 57 70 58 89 59 54 60 55 61 69 63 90 64 57 65 41 66
REMARK SMILES IDX 42 67 50 68 43 69 49 70 51 71 48 72 44 73 45 74 46 75 47 76
REMARK SMILES IDX 73 77 74 78 82 79 75 80 81 81 83 82 80 83 76 84 77 85 78 86
REMARK SMILES IDX 79 87 58 88 59 89 67 90 60 91 66 92 68 93 65 94 61 95 62 96
REMARK SMILES IDX 63 97 64 98
REMARK H PARENT 6 17 88 51 56 62
REMARK Flexibility Score: inf
ROOT
ATOM      1  C   UNL     1      -4.872   0.924  -3.719  1.00  0.00     0.188 C 
ENDROOT
BRANCH   1   2
ATOM      2  O   UNL     1      -4.491   2.007  -4.518  1.00  0.00    -0.376 OA
BRANCH   2   3
ATOM      3  C   UNL     1      -3.133   2.215  -4.818  1.00  0.00     0.202 C 
BRANCH   3   4
ATOM      4  C   UNL     1      -1.821   2.614  -3.944  1.00  0.00     0.261 C 
BRANCH   4   5
ATOM      5  O   UNL     1      -1.152   2.534  -2.233  1.00  0.00    -0.463 OA
BRANCH   5   6
ATOM      6  C   UNL     1      -1.177   3.258  -0.730  1.00  0.00     0.310 C 
ATOM      7  O   UNL     1      -1.828   4.187  -0.222  1.00  0.00    -0.252 OA
BRANCH   6   8
ATOM      8  C   UNL     1      -0.553   2.475   0.276  1.00  0.00     0.160 C 
BRANCH   8   9
ATOM      9  C   UNL     1      -0.454   1.153  -0.379  1.00  0.00    -0.013 A 
ATOM     10  C   UNL     1       3.213  -0.006  -0.034  1.00  0.00     0.044 C 
ATOM     11  C   UNL     1       1.723  -0.015   0.023  1.00  0.00    -0.051 A 
ATOM     12  C   UNL     1       0.995  -0.976   0.667  1.00  0.00     0.005 A 
ATOM     13  C   UNL     1       1.002   1.034  -0.493  1.00  0.00     0.009 A 
ATOM     14  C   UNL     1      -0.420  -0.870   0.720  1.00  0.00     0.026 A 
ATOM     15  C   UNL     1      -1.405   0.145  -0.062  1.00  0.00     0.042 A 
BRANCH  15  16
ATOM     16  N   UNL     1      -3.285  -0.371  -0.655  1.00  0.00    -0.353 N 
ATOM     17  H   UNL     1      -3.587   0.096  -1.468  1.00  0.00     0.167 HD
BRANCH  16  18
ATOM     18  C   UNL     1      -4.532  -1.543   0.033  1.00  0.00     0.076 A 
ATOM     19  C   UNL     1      -4.323  -2.577   1.193  1.00  0.00     0.067 A 
ATOM     20  C   UNL     1      -5.659  -1.899  -0.751  1.00  0.00     0.067 A 
ATOM     21  Cl  UNL     1      -3.120  -2.788   2.511  1.00  0.00    -0.082 Cl
ATOM     22  C   UNL     1      -5.107  -3.747   1.341  1.00  0.00     0.043 A 
ATOM     23  C   UNL     1      -6.405  -3.109  -0.530  1.00  0.00     0.043 A 
ATOM     24  Cl  UNL     1      -6.333  -1.053  -2.027  1.00  0.00    -0.082 Cl
ATOM     25  C   UNL     1      -6.100  -4.035   0.450  1.00  0.00     0.044 A 
ATOM     26  Cl  UNL     1      -6.863  -5.576   0.515  1.00  0.00    -0.084 Cl
ENDBRANCH  16  18
ENDBRANCH  15  16
ENDBRANCH   8   9
ENDBRANCH   6   8
ENDBRANCH   5   6
ENDBRANCH   4   5
ENDBRANCH   3   4
ENDBRANCH   2   3
ENDBRANCH   1   2
BRANCH   1  27
ATOM     27  C   UNL     1      -4.366  -0.437  -4.110  1.00  0.00     0.188 C 
BRANCH  27  28
ATOM     28  O   UNL     1      -3.041  -0.476  -4.585  1.00  0.00    -0.376 OA
BRANCH  28  29
ATOM     29  C   UNL     1      -2.606  -1.792  -4.882  1.00  0.00     0.202 C 
BRANCH  29  30
ATOM     30  C   UNL     1      -2.988  -2.963  -3.882  1.00  0.00     0.261 C 
BRANCH  30  31
ATOM     31  O   UNL     1      -2.202  -3.034  -2.620  1.00  0.00    -0.460 OA
BRANCH  31  32
ATOM     32  C   UNL     1      -2.743  -3.062  -1.308  1.00  0.00     0.338 C 
ATOM     33  O   UNL     1      -3.518  -3.962  -1.038  1.00  0.00    -0.246 OA
BRANCH  32  34
ATOM     34  C   UNL     1      -2.145  -1.806  -0.256  1.00  0.00     0.060 A 
ATOM     35  C   UNL     1      -2.829  -0.540   1.099  1.00  0.00     0.016 A 
ATOM     36  C   UNL     1      -1.737  -0.999  -1.815  1.00  0.00     0.016 A 
ATOM     37  C   UNL     1      -3.247   1.233   0.550  1.00  0.00     0.010 A 
ATOM     38  C   UNL     1      -2.263   0.609  -2.191  1.00  0.00     0.010 A 
ATOM     39  C   UNL     1      -3.036   1.850  -1.163  1.00  0.00    -0.014 A 
BRANCH  39  40
ATOM     40  C   UNL     1      -3.096   3.553  -2.035  1.00  0.00     0.031 A 
ATOM     41  C   UNL     1      -1.573   4.668  -2.469  1.00  0.00     0.074 A 
ATOM     42  C   UNL     1      -4.175   4.011  -2.718  1.00  0.00     0.049 A 
ATOM     43  N   UNL     1      -1.171   5.790  -1.878  1.00  0.00    -0.248 NA
ATOM     44  C   UNL     1      -0.087   4.174  -3.142  1.00  0.00     0.031 C 
ATOM     45  C   UNL     1      -4.220   5.060  -3.758  1.00  0.00     0.029 A 
ATOM     46  N   UNL     1      -5.484   3.553  -2.729  1.00  0.00    -0.354 N 
ATOM     47  C   UNL     1       0.181   6.057  -2.284  1.00  0.00     0.074 A 
ATOM     48  C   UNL     1       0.829   4.824  -2.456  1.00  0.00     0.031 C 
ATOM     49  C   UNL     1      -5.504   5.393  -4.010  1.00  0.00     0.029 A 
ATOM     50  C   UNL     1      -6.322   4.625  -3.088  1.00  0.00     0.049 A 
ATOM     51  H   UNL     1      -5.776   2.636  -2.522  1.00  0.00     0.167 HD
ATOM     52  C   UNL     1       0.508   7.055  -3.172  1.00  0.00     0.034 A 
ATOM     53  C   UNL     1      -7.115   5.086  -2.088  1.00  0.00     0.034 A 
ATOM     54  C   UNL     1      -0.739   7.661  -3.584  1.00  0.00     0.049 A 
ATOM     55  C   UNL     1      -6.421   6.348  -1.568  1.00  0.00     0.074 A 
ATOM     56  C   UNL     1      -1.541   7.593  -4.706  1.00  0.00     0.029 A 
ATOM     57  N   UNL     1      -1.551   8.071  -2.553  1.00  0.00    -0.354 N 
ATOM     58  N   UNL     1      -5.146   6.626  -1.748  1.00  0.00    -0.248 NA
ATOM     59  C   UNL     1      -7.160   7.501  -1.073  1.00  0.00     0.031 C 
ATOM     60  C   UNL     1      -2.871   7.949  -4.289  1.00  0.00     0.029 A 
ATOM     61  C   UNL     1      -2.865   8.178  -2.919  1.00  0.00     0.049 A 
ATOM     62  H   UNL     1      -1.222   8.268  -1.647  1.00  0.00     0.167 HD
ATOM     63  C   UNL     1      -4.923   7.962  -1.578  1.00  0.00     0.074 A 
ATOM     64  C   UNL     1      -6.214   8.456  -1.114  1.00  0.00     0.031 C 
ATOM     65  C   UNL     1      -3.768   8.642  -1.879  1.00  0.00     0.034 A 
BRANCH  52  66
ATOM     66  C   UNL     1       1.848   7.199  -3.921  1.00  0.00     0.023 A 
ATOM     67  C   UNL     1       1.883   8.070  -5.023  1.00  0.00     0.031 A 
ATOM     68  C   UNL     1       3.105   6.612  -3.602  1.00  0.00     0.131 A 
ATOM     69  C   UNL     1       3.070   8.323  -5.744  1.00  0.00     0.055 A 
ATOM     70  C   UNL     1       4.276   6.810  -4.364  1.00  0.00     0.041 A 
ATOM     71  F   UNL     1       3.294   5.861  -2.507  1.00  0.00    -0.206 F 
ATOM     72  C   UNL     1       4.266   7.685  -5.435  1.00  0.00     0.022 A 
BRANCH  69  73
ATOM     73  S   UNL     1       3.026   9.587  -7.040  1.00  0.00     0.124 S 
ATOM     74  O   UNL     1       2.142   8.976  -8.026  1.00  0.00    -0.237 OA
ATOM     75  O   UNL     1       2.497  10.741  -6.321  1.00  0.00    -0.237 OA
ATOM     76  O   UNL     1       4.425   9.705  -7.448  1.00  0.00    -0.744 OA
ENDBRANCH  69  73
ENDBRANCH  52  66
BRANCH  53  77
ATOM     77  C   UNL     1      -7.724   3.864  -1.416  1.00  0.00     0.023 A 
ATOM     78  C   UNL     1      -8.525   3.006  -2.251  1.00  0.00     0.031 A 
ATOM     79  C   UNL     1      -7.160   3.269  -0.276  1.00  0.00     0.131 A 
ATOM     80  C   UNL     1      -8.688   1.635  -1.966  1.00  0.00     0.055 A 
ATOM     81  C   UNL     1      -7.363   1.907   0.023  1.00  0.00     0.041 A 
ATOM     82  F   UNL     1      -6.288   3.943   0.487  1.00  0.00    -0.206 F 
ATOM     83  C   UNL     1      -8.156   1.100  -0.797  1.00  0.00     0.022 A 
BRANCH  80  84
ATOM     84  S   UNL     1      -9.370   0.511  -3.257  1.00  0.00     0.124 S 
ATOM     85  O   UNL     1     -10.700   1.064  -3.486  1.00  0.00    -0.237 OA
ATOM     86  O   UNL     1      -8.420   0.673  -4.356  1.00  0.00    -0.237 OA
ATOM     87  O   UNL     1      -9.359  -0.810  -2.629  1.00  0.00    -0.744 OA
ENDBRANCH  80  84
ENDBRANCH  53  77
BRANCH  65  88
ATOM     88  C   UNL     1      -3.342   9.878  -1.101  1.00  0.00     0.023 A 
ATOM     89  C   UNL     1      -4.039  10.261   0.037  1.00  0.00     0.031 A 
ATOM     90  C   UNL     1      -2.176  10.645  -1.379  1.00  0.00     0.131 A 
ATOM     91  C   UNL     1      -3.741  11.453   0.693  1.00  0.00     0.055 A 
ATOM     92  C   UNL     1      -1.758  11.713  -0.588  1.00  0.00     0.041 A 
ATOM     93  F   UNL     1      -1.369  10.409  -2.422  1.00  0.00    -0.206 F 
ATOM     94  C   UNL     1      -2.582  12.167   0.422  1.00  0.00     0.022 A 
BRANCH  91  95
ATOM     95  S   UNL     1      -5.041  12.116   1.745  1.00  0.00     0.124 S 
ATOM     96  O   UNL     1      -6.134  12.281   0.788  1.00  0.00    -0.237 OA
ATOM     97  O   UNL     1      -5.222  11.057   2.731  1.00  0.00    -0.237 OA
ATOM     98  O   UNL     1      -4.465  13.358   2.252  1.00  0.00    -0.744 OA
ENDBRANCH  91  95
ENDBRANCH  65  88
ENDBRANCH  39  40
ENDBRANCH  32  34
ENDBRANCH  31  32
ENDBRANCH  30  31
ENDBRANCH  29  30
ENDBRANCH  28  29
ENDBRANCH  27  28
ENDBRANCH   1  27
TORSDOF 23
