REMARK SMILES CCC(=O)Nc1ccc(NC(=O)[C@@H]2CC=CC[C@@H]2C(=O)OCCOCCOCCOC(=O)c2ccc(-c3c4nc(c(-c5cc(S(=O)(=O)[O-])ccc5F)c5ccc([nH]5)c(-c5cc(S(=O)(=O)[O-])ccc5F)c5nc(c(-c6cc(S(=O)(=O)[O-])ccc6F)c6ccc3[nH]6)C=C5)C=C4)cc2)cc1
REMARK SMILES IDX 25 1 24 2 23 3 22 4 21 5 19 6 20 7 18 8 13 9 14 10 15 11
REMARK SMILES IDX 17 12 16 13 11 14 10 15 12 17 9 18 6 19 7 20 97 21 8 22
REMARK SMILES IDX 96 23 5 24 3 25 4 26 2 28 1 29 26 30 27 31 28 32 29 33 30 34
REMARK SMILES IDX 31 35 32 36 33 37 34 38 95 39 35 40 94 41 36 42 37 43 38 44
REMARK SMILES IDX 88 45 39 46 93 47 87 48 89 49 40 50 92 51 86 52 85 53 41 55
REMARK SMILES IDX 73 56 53 57 72 58 54 59 57 60 71 61 90 62 55 63 56 64 70 66
REMARK SMILES IDX 91 67 58 68 42 69 43 70 51 71 44 72 50 73 52 74 49 75 45 76
REMARK SMILES IDX 46 77 47 78 48 79 74 80 75 81 83 82 76 83 82 84 84 85 81 86
REMARK SMILES IDX 77 87 78 88 79 89 80 90 59 91 60 92 68 93 61 94 67 95 69 96
REMARK SMILES IDX 66 97 62 98 63 99 64 100 65 101
REMARK H PARENT 10 16 5 27 89 54 57 65
REMARK Flexibility Score: inf
ROOT
ATOM      1  C   UNL     1      10.809  -0.579  -1.737  1.00  0.00     0.188 C 
ENDROOT
BRANCH   1   2
ATOM      2  O   UNL     1      12.095  -0.178  -2.181  1.00  0.00    -0.376 OA
BRANCH   2   3
ATOM      3  C   UNL     1      12.274  -0.205  -3.591  1.00  0.00     0.202 C 
BRANCH   3   4
ATOM      4  C   UNL     1      11.431   0.837  -4.331  1.00  0.00     0.261 C 
BRANCH   4   5
ATOM      5  O   UNL     1      10.008   0.706  -4.108  1.00  0.00    -0.463 OA
BRANCH   5   6
ATOM      6  C   UNL     1       9.319  -0.166  -4.893  1.00  0.00     0.310 C 
ATOM      7  O   UNL     1       9.846  -0.812  -5.788  1.00  0.00    -0.252 OA
BRANCH   6   8
ATOM      8  C   UNL     1       7.809  -0.072  -4.620  1.00  0.00     0.116 C 
ATOM      9  C   UNL     1       7.003  -1.117  -3.798  1.00  0.00     0.097 C 
ATOM     10  C   UNL     1       6.311  -2.282  -4.533  1.00  0.00     0.041 C 
ATOM     11  C   UNL     1       6.479  -2.265  -6.016  1.00  0.00    -0.030 C 
ATOM     12  C   UNL     1       7.138   0.131  -5.991  1.00  0.00     0.043 C 
ATOM     13  C   UNL     1       6.859  -1.170  -6.686  1.00  0.00    -0.030 C 
BRANCH   9  14
ATOM     14  C   UNL     1       7.475  -1.575  -2.434  1.00  0.00     0.228 C 
ATOM     15  N   UNL     1       8.343  -2.581  -2.176  1.00  0.00    -0.326 N 
ATOM     16  H   UNL     1       8.259  -2.911  -1.252  1.00  0.00     0.169 HD
ATOM     17  O   UNL     1       7.018  -1.004  -1.432  1.00  0.00    -0.274 OA
BRANCH  15  18
ATOM     18  C   UNL     1       9.330  -3.271  -2.890  1.00  0.00     0.041 A 
ATOM     19  C   UNL     1      11.639  -4.352  -4.032  1.00  0.00     0.041 A 
ATOM     20  C   UNL     1      10.697  -3.719  -4.829  1.00  0.00     0.028 A 
ATOM     21  C   UNL     1      11.447  -4.455  -2.666  1.00  0.00     0.028 A 
ATOM     22  C   UNL     1       9.521  -3.231  -4.257  1.00  0.00     0.028 A 
ATOM     23  C   UNL     1      10.296  -3.920  -2.108  1.00  0.00     0.028 A 
BRANCH  19  24
ATOM     24  N   UNL     1      12.772  -4.899  -4.619  1.00  0.00    -0.326 N 
ATOM     25  C   UNL     1      12.976  -6.237  -4.829  1.00  0.00     0.224 C 
ATOM     26  O   UNL     1      14.020  -6.601  -5.374  1.00  0.00    -0.275 OA
ATOM     27  H   UNL     1      13.482  -4.279  -4.904  1.00  0.00     0.169 HD
BRANCH  25  28
ATOM     28  C   UNL     1      11.870  -7.223  -4.475  1.00  0.00     0.097 C 
ATOM     29  C   UNL     1      11.819  -7.607  -3.009  1.00  0.00     0.014 C 
ENDBRANCH  25  28
ENDBRANCH  19  24
ENDBRANCH  15  18
ENDBRANCH   9  14
ENDBRANCH   6   8
ENDBRANCH   5   6
ENDBRANCH   4   5
ENDBRANCH   3   4
ENDBRANCH   2   3
ENDBRANCH   1   2
BRANCH   1  30
ATOM     30  C   UNL     1       9.952   0.517  -1.080  1.00  0.00     0.188 C 
BRANCH  30  31
ATOM     31  O   UNL     1      10.575   1.666  -0.527  1.00  0.00    -0.376 OA
BRANCH  31  32
ATOM     32  C   UNL     1      11.885   1.538  -0.008  1.00  0.00     0.202 C 
BRANCH  32  33
ATOM     33  C   UNL     1      12.132   0.561   1.157  1.00  0.00     0.261 C 
BRANCH  33  34
ATOM     34  O   UNL     1      11.528  -0.749   1.072  1.00  0.00    -0.460 OA
BRANCH  34  35
ATOM     35  C   UNL     1      10.440  -0.961   1.857  1.00  0.00     0.338 C 
ATOM     36  O   UNL     1       9.933  -0.141   2.614  1.00  0.00    -0.246 OA
BRANCH  35  37
ATOM     37  C   UNL     1       9.825  -2.293   1.597  1.00  0.00     0.060 A 
ATOM     38  C   UNL     1       8.451  -2.349   1.325  1.00  0.00     0.016 A 
ATOM     39  C   UNL     1      10.546  -3.490   1.677  1.00  0.00     0.016 A 
ATOM     40  C   UNL     1       7.806  -3.580   1.102  1.00  0.00     0.010 A 
ATOM     41  C   UNL     1       9.890  -4.728   1.482  1.00  0.00     0.010 A 
ATOM     42  C   UNL     1       8.514  -4.788   1.177  1.00  0.00    -0.014 A 
BRANCH  42  43
ATOM     43  C   UNL     1       7.780  -6.096   1.142  1.00  0.00     0.031 A 
ATOM     44  C   UNL     1       7.186  -6.596   2.430  1.00  0.00     0.074 A 
ATOM     45  C   UNL     1       7.586  -6.827   0.023  1.00  0.00     0.049 A 
ATOM     46  N   UNL     1       6.522  -7.698   2.667  1.00  0.00    -0.248 NA
ATOM     47  C   UNL     1       7.345  -5.718   3.597  1.00  0.00     0.031 C 
ATOM     48  C   UNL     1       7.974  -6.428  -1.321  1.00  0.00     0.029 A 
ATOM     49  N   UNL     1       7.009  -8.066  -0.171  1.00  0.00    -0.354 N 
ATOM     50  C   UNL     1       6.148  -7.629   4.003  1.00  0.00     0.074 A 
ATOM     51  C   UNL     1       6.704  -6.400   4.531  1.00  0.00     0.031 C 
ATOM     52  C   UNL     1       7.684  -7.409  -2.192  1.00  0.00     0.029 A 
ATOM     53  C   UNL     1       7.088  -8.528  -1.470  1.00  0.00     0.049 A 
ATOM     54  H   UNL     1       6.579  -8.575   0.554  1.00  0.00     0.167 HD
ATOM     55  C   UNL     1       5.402  -8.500   4.725  1.00  0.00     0.034 A 
ATOM     56  C   UNL     1       6.739  -9.713  -2.021  1.00  0.00     0.034 A 
ATOM     57  C   UNL     1       4.915  -9.760   4.224  1.00  0.00     0.049 A 
ATOM     58  C   UNL     1       6.084 -10.759  -1.148  1.00  0.00     0.074 A 
ATOM     59  C   UNL     1       4.207 -10.738   4.900  1.00  0.00     0.029 A 
ATOM     60  N   UNL     1       5.110 -10.235   2.933  1.00  0.00    -0.354 N 
ATOM     61  N   UNL     1       5.748 -10.681   0.119  1.00  0.00    -0.248 NA
ATOM     62  C   UNL     1       5.744 -12.043  -1.779  1.00  0.00     0.031 C 
ATOM     63  C   UNL     1       4.053 -11.837   4.049  1.00  0.00     0.029 A 
ATOM     64  C   UNL     1       4.575 -11.510   2.809  1.00  0.00     0.049 A 
ATOM     65  H   UNL     1       5.561  -9.740   2.212  1.00  0.00     0.167 HD
ATOM     66  C   UNL     1       5.118 -11.887   0.421  1.00  0.00     0.074 A 
ATOM     67  C   UNL     1       5.116 -12.671  -0.796  1.00  0.00     0.031 C 
ATOM     68  C   UNL     1       4.580 -12.298   1.597  1.00  0.00     0.034 A 
BRANCH  55  69
ATOM     69  C   UNL     1       5.155  -8.133   6.166  1.00  0.00     0.023 A 
ATOM     70  C   UNL     1       4.415  -6.990   6.513  1.00  0.00     0.031 A 
ATOM     71  C   UNL     1       5.742  -8.883   7.199  1.00  0.00     0.131 A 
ATOM     72  C   UNL     1       4.361  -6.577   7.852  1.00  0.00     0.055 A 
ATOM     73  C   UNL     1       5.606  -8.516   8.538  1.00  0.00     0.041 A 
ATOM     74  F   UNL     1       6.486  -9.965   6.921  1.00  0.00    -0.206 F 
ATOM     75  C   UNL     1       4.929  -7.346   8.870  1.00  0.00     0.022 A 
BRANCH  72  76
ATOM     76  S   UNL     1       3.703  -4.927   8.220  1.00  0.00     0.124 S 
ATOM     77  O   UNL     1       4.590  -4.075   7.431  1.00  0.00    -0.237 OA
ATOM     78  O   UNL     1       2.325  -5.024   7.751  1.00  0.00    -0.237 OA
ATOM     79  O   UNL     1       3.864  -4.810   9.668  1.00  0.00    -0.744 OA
ENDBRANCH  72  76
ENDBRANCH  55  69
BRANCH  56  80
ATOM     80  C   UNL     1       7.049 -10.024  -3.455  1.00  0.00     0.023 A 
ATOM     81  C   UNL     1       6.041 -10.334  -4.385  1.00  0.00     0.031 A 
ATOM     82  C   UNL     1       8.385 -10.113  -3.890  1.00  0.00     0.131 A 
ATOM     83  C   UNL     1       6.386 -10.766  -5.679  1.00  0.00     0.055 A 
ATOM     84  C   UNL     1       8.721 -10.487  -5.193  1.00  0.00     0.041 A 
ATOM     85  F   UNL     1       9.391  -9.848  -3.043  1.00  0.00    -0.206 F 
ATOM     86  C   UNL     1       7.718 -10.830  -6.093  1.00  0.00     0.022 A 
BRANCH  83  87
ATOM     87  S   UNL     1       5.071 -11.345  -6.791  1.00  0.00     0.124 S 
ATOM     88  O   UNL     1       4.485 -12.432  -6.016  1.00  0.00    -0.237 OA
ATOM     89  O   UNL     1       4.252 -10.146  -6.939  1.00  0.00    -0.237 OA
ATOM     90  O   UNL     1       5.796 -11.754  -7.993  1.00  0.00    -0.744 OA
ENDBRANCH  83  87
ENDBRANCH  56  80
BRANCH  68  91
ATOM     91  C   UNL     1       3.888 -13.642   1.618  1.00  0.00     0.023 A 
ATOM     92  C   UNL     1       4.584 -14.845   1.411  1.00  0.00     0.031 A 
ATOM     93  C   UNL     1       2.502 -13.715   1.856  1.00  0.00     0.131 A 
ATOM     94  C   UNL     1       3.887 -16.064   1.396  1.00  0.00     0.055 A 
ATOM     95  C   UNL     1       1.826 -14.935   1.908  1.00  0.00     0.041 A 
ATOM     96  F   UNL     1       1.782 -12.599   2.052  1.00  0.00    -0.206 F 
ATOM     97  C   UNL     1       2.517 -16.118   1.665  1.00  0.00     0.022 A 
BRANCH  94  98
ATOM     98  S   UNL     1       4.776 -17.573   0.924  1.00  0.00     0.124 S 
ATOM     99  O   UNL     1       5.266 -17.231  -0.407  1.00  0.00    -0.237 OA
ATOM    100  O   UNL     1       5.790 -17.677   1.969  1.00  0.00    -0.237 OA
ATOM    101  O   UNL     1       3.743 -18.606   0.959  1.00  0.00    -0.744 OA
ENDBRANCH  94  98
ENDBRANCH  68  91
ENDBRANCH  42  43
ENDBRANCH  35  37
ENDBRANCH  34  35
ENDBRANCH  33  34
ENDBRANCH  32  33
ENDBRANCH  31  32
ENDBRANCH  30  31
ENDBRANCH   1  30
TORSDOF 24
