REMARK SMILES O=C(OCCOCCOCCOC(=O)c1cccc(Oc2ncc([N+](=O)[O-])cc2Br)c1)c1ccc(-c2c3nc(c(-c4cc(S(=O)(=O)[O-])ccc4F)c4ccc([nH]4)c(-c4cc(S(=O)(=O)[O-])ccc4F)c4nc(c(-c5cc(S(=O)(=O)[O-])ccc5F)c5ccc2[nH]5)C=C4)C=C3)cc1
REMARK SMILES IDX 7 1 6 2 5 3 4 4 3 5 2 6 1 7 32 8 33 9 94 10 34 11 93 12
REMARK SMILES IDX 35 13 36 14 37 15 87 16 38 17 92 18 86 19 88 20 39 21 91 22
REMARK SMILES IDX 85 23 84 24 40 26 72 27 52 28 71 29 53 30 56 31 70 32 89 33
REMARK SMILES IDX 54 34 55 35 69 37 90 38 57 39 41 40 42 41 50 42 43 43 49 44
REMARK SMILES IDX 51 45 48 46 44 47 45 48 46 49 47 50 73 51 74 52 82 53 75 54
REMARK SMILES IDX 81 55 83 56 80 57 76 58 77 59 78 60 79 61 58 62 59 63 67 64
REMARK SMILES IDX 60 65 66 66 68 67 65 68 61 69 62 70 63 71 64 72 8 73 9 74
REMARK SMILES IDX 10 75 11 76 12 77 13 78 14 79 15 80 16 81 31 82 17 83 19 84
REMARK SMILES IDX 18 85 20 86 21 87 22 88 29 89 23 90 28 91 30 92 24 93 25 94
REMARK SMILES IDX 26 95 27 96
REMARK H PARENT 88 25 56 36
REMARK Flexibility Score: inf
ROOT
ATOM      1  C   UNL     1       2.582   2.294   0.035  1.00  0.00     0.188 C 
ENDROOT
BRANCH   1   2
ATOM      2  O   UNL     1       3.799   1.577   0.278  1.00  0.00    -0.376 OA
BRANCH   2   3
ATOM      3  C   UNL     1       4.612   1.412  -0.884  1.00  0.00     0.202 C 
BRANCH   3   4
ATOM      4  C   UNL     1       4.343   0.112  -1.650  1.00  0.00     0.261 C 
BRANCH   4   5
ATOM      5  O   UNL     1       2.951  -0.252  -1.602  1.00  0.00    -0.460 OA
BRANCH   5   6
ATOM      6  C   UNL     1       2.372  -1.155  -0.768  1.00  0.00     0.338 C 
ATOM      7  O   UNL     1       1.156  -1.332  -0.823  1.00  0.00    -0.246 OA
BRANCH   6   8
ATOM      8  C   UNL     1       3.168  -2.013   0.154  1.00  0.00     0.060 A 
ATOM      9  C   UNL     1       4.249  -1.552   0.905  1.00  0.00     0.016 A 
ATOM     10  C   UNL     1       2.763  -3.348   0.313  1.00  0.00     0.016 A 
ATOM     11  C   UNL     1       5.014  -2.435   1.664  1.00  0.00     0.010 A 
ATOM     12  C   UNL     1       3.479  -4.218   1.145  1.00  0.00     0.010 A 
ATOM     13  C   UNL     1       4.644  -3.778   1.786  1.00  0.00    -0.014 A 
BRANCH  13  14
ATOM     14  C   UNL     1       5.538  -4.701   2.529  1.00  0.00     0.031 A 
ATOM     15  C   UNL     1       6.298  -5.763   1.783  1.00  0.00     0.074 A 
ATOM     16  C   UNL     1       5.746  -4.512   3.847  1.00  0.00     0.049 A 
ATOM     17  N   UNL     1       7.148  -6.648   2.236  1.00  0.00    -0.248 NA
ATOM     18  C   UNL     1       6.067  -5.841   0.332  1.00  0.00     0.031 C 
ATOM     19  C   UNL     1       5.079  -3.496   4.664  1.00  0.00     0.029 A 
ATOM     20  N   UNL     1       6.595  -5.137   4.723  1.00  0.00    -0.354 N 
ATOM     21  C   UNL     1       7.543  -7.396   1.133  1.00  0.00     0.074 A 
ATOM     22  C   UNL     1       6.815  -6.880  -0.007  1.00  0.00     0.031 C 
ATOM     23  C   UNL     1       5.574  -3.545   5.910  1.00  0.00     0.029 A 
ATOM     24  C   UNL     1       6.557  -4.615   5.996  1.00  0.00     0.049 A 
ATOM     25  H   UNL     1       7.178  -5.888   4.467  1.00  0.00     0.167 HD
ATOM     26  C   UNL     1       8.433  -8.417   1.075  1.00  0.00     0.034 A 
ATOM     27  C   UNL     1       7.229  -4.966   7.110  1.00  0.00     0.034 A 
ATOM     28  C   UNL     1       9.139  -8.927   2.224  1.00  0.00     0.049 A 
ATOM     29  C   UNL     1       8.214  -6.099   7.015  1.00  0.00     0.074 A 
ATOM     30  C   UNL     1       9.998 -10.009   2.309  1.00  0.00     0.029 A 
ATOM     31  N   UNL     1       9.069  -8.377   3.499  1.00  0.00    -0.354 N 
ATOM     32  N   UNL     1       8.530  -6.833   5.972  1.00  0.00    -0.248 NA
ATOM     33  C   UNL     1       8.931  -6.453   8.245  1.00  0.00     0.031 C 
ATOM     34  C   UNL     1      10.418 -10.134   3.640  1.00  0.00     0.029 A 
ATOM     35  C   UNL     1       9.863  -9.099   4.376  1.00  0.00     0.049 A 
ATOM     36  H   UNL     1       8.534  -7.588   3.743  1.00  0.00     0.167 HD
ATOM     37  C   UNL     1       9.467  -7.751   6.429  1.00  0.00     0.074 A 
ATOM     38  C   UNL     1       9.710  -7.437   7.823  1.00  0.00     0.031 C 
ATOM     39  C   UNL     1      10.056  -8.781   5.769  1.00  0.00     0.034 A 
BRANCH  26  40
ATOM     40  C   UNL     1       8.621  -9.076  -0.269  1.00  0.00     0.023 A 
ATOM     41  C   UNL     1       9.210  -8.392  -1.349  1.00  0.00     0.031 A 
ATOM     42  C   UNL     1       8.131 -10.373  -0.497  1.00  0.00     0.131 A 
ATOM     43  C   UNL     1       9.223  -8.979  -2.623  1.00  0.00     0.055 A 
ATOM     44  C   UNL     1       8.212 -10.980  -1.752  1.00  0.00     0.041 A 
ATOM     45  F   UNL     1       7.536 -11.062   0.489  1.00  0.00    -0.206 F 
ATOM     46  C   UNL     1       8.747 -10.276  -2.828  1.00  0.00     0.022 A 
BRANCH  43  47
ATOM     47  S   UNL     1       9.741  -7.970  -4.040  1.00  0.00     0.124 S 
ATOM     48  O   UNL     1       8.733  -6.912  -4.032  1.00  0.00    -0.237 OA
ATOM     49  O   UNL     1      11.091  -7.567  -3.665  1.00  0.00    -0.237 OA
ATOM     50  O   UNL     1       9.656  -8.894  -5.169  1.00  0.00    -0.744 OA
ENDBRANCH  43  47
ENDBRANCH  26  40
BRANCH  27  51
ATOM     51  C   UNL     1       6.957  -4.298   8.416  1.00  0.00     0.023 A 
ATOM     52  C   UNL     1       7.939  -3.543   9.079  1.00  0.00     0.031 A 
ATOM     53  C   UNL     1       5.707  -4.450   9.045  1.00  0.00     0.131 A 
ATOM     54  C   UNL     1       7.664  -2.995  10.345  1.00  0.00     0.055 A 
ATOM     55  C   UNL     1       5.432  -3.884  10.290  1.00  0.00     0.041 A 
ATOM     56  F   UNL     1       4.731  -5.156   8.453  1.00  0.00    -0.206 F 
ATOM     57  C   UNL     1       6.418  -3.162  10.954  1.00  0.00     0.022 A 
BRANCH  54  58
ATOM     58  S   UNL     1       8.965  -2.069  11.206  1.00  0.00     0.124 S 
ATOM     59  O   UNL     1      10.089  -2.995  11.155  1.00  0.00    -0.237 OA
ATOM     60  O   UNL     1       9.076  -0.873  10.373  1.00  0.00    -0.237 OA
ATOM     61  O   UNL     1       8.399  -1.837  12.532  1.00  0.00    -0.744 OA
ENDBRANCH  54  58
ENDBRANCH  27  51
BRANCH  39  62
ATOM     62  C   UNL     1      10.996  -9.631   6.581  1.00  0.00     0.023 A 
ATOM     63  C   UNL     1      10.514 -10.452   7.616  1.00  0.00     0.031 A 
ATOM     64  C   UNL     1      12.382  -9.576   6.362  1.00  0.00     0.131 A 
ATOM     65  C   UNL     1      11.418 -11.132   8.443  1.00  0.00     0.055 A 
ATOM     66  C   UNL     1      13.274 -10.299   7.155  1.00  0.00     0.041 A 
ATOM     67  F   UNL     1      12.890  -8.804   5.388  1.00  0.00    -0.206 F 
ATOM     68  C   UNL     1      12.794 -11.070   8.212  1.00  0.00     0.022 A 
BRANCH  65  69
ATOM     69  S   UNL     1      10.772 -12.012   9.890  1.00  0.00     0.124 S 
ATOM     70  O   UNL     1      10.109 -10.941  10.627  1.00  0.00    -0.237 OA
ATOM     71  O   UNL     1       9.894 -13.008   9.284  1.00  0.00    -0.237 OA
ATOM     72  O   UNL     1      11.973 -12.551  10.527  1.00  0.00    -0.744 OA
ENDBRANCH  65  69
ENDBRANCH  39  62
ENDBRANCH  13  14
ENDBRANCH   6   8
ENDBRANCH   5   6
ENDBRANCH   4   5
ENDBRANCH   3   4
ENDBRANCH   2   3
ENDBRANCH   1   2
BRANCH   1  73
ATOM     73  C   UNL     1       2.087   2.931   1.334  1.00  0.00     0.188 C 
BRANCH  73  74
ATOM     74  O   UNL     1       2.808   4.104   1.726  1.00  0.00    -0.376 OA
BRANCH  74  75
ATOM     75  C   UNL     1       4.180   3.934   2.074  1.00  0.00     0.202 C 
BRANCH  75  76
ATOM     76  C   UNL     1       4.458   3.436   3.495  1.00  0.00     0.261 C 
BRANCH  76  77
ATOM     77  O   UNL     1       4.016   2.096   3.764  1.00  0.00    -0.460 OA
BRANCH  77  78
ATOM     78  C   UNL     1       2.852   2.011   4.435  1.00  0.00     0.338 C 
ATOM     79  O   UNL     1       2.057   2.927   4.680  1.00  0.00    -0.246 OA
BRANCH  78  80
ATOM     80  C   UNL     1       2.643   0.662   4.956  1.00  0.00     0.063 A 
ATOM     81  C   UNL     1       1.537  -0.095   4.563  1.00  0.00     0.016 A 
ATOM     82  C   UNL     1       3.421   0.279   6.047  1.00  0.00     0.062 A 
ATOM     83  C   UNL     1       1.208  -1.243   5.283  1.00  0.00     0.005 A 
ATOM     84  C   UNL     1       3.030  -0.810   6.828  1.00  0.00     0.130 A 
ATOM     85  C   UNL     1       1.938  -1.586   6.427  1.00  0.00     0.047 A 
BRANCH  84  86
ATOM     86  O   UNL     1       3.595  -1.140   8.048  1.00  0.00    -0.438 OA
BRANCH  86  87
ATOM     87  C   UNL     1       4.645  -0.353   8.471  1.00  0.00     0.234 A 
ATOM     88  N   UNL     1       5.870  -0.818   8.134  1.00  0.00    -0.214 NA
ATOM     89  C   UNL     1       4.434   0.883   9.088  1.00  0.00     0.087 A 
ATOM     90  C   UNL     1       6.936  -0.020   8.395  1.00  0.00     0.200 A 
ATOM     91  C   UNL     1       5.536   1.709   9.303  1.00  0.00     0.108 A 
ATOM     92  Br  UNL     1       2.708   1.533   9.519  1.00  0.00    -0.045 Br
ATOM     93  C   UNL     1       6.806   1.244   8.941  1.00  0.00     0.288 A 
BRANCH  93  94
ATOM     94  N   UNL     1       7.960   2.125   9.010  1.00  0.00     0.064 N 
ATOM     95  O   UNL     1       8.889   1.924   8.215  1.00  0.00    -0.258 OA
ATOM     96  O   UNL     1       7.872   3.118   9.751  1.00  0.00    -0.258 OA
ENDBRANCH  93  94
ENDBRANCH  86  87
ENDBRANCH  84  86
ENDBRANCH  78  80
ENDBRANCH  77  78
ENDBRANCH  76  77
ENDBRANCH  75  76
ENDBRANCH  74  75
ENDBRANCH  73  74
ENDBRANCH   1  73
TORSDOF 23
