REMARK SMILES CCc1ccc2c(c1)C=C(C(=O)OCCOCCOCCOC(=O)c1ccc(-c3c4nc(c(-c5cc(S(=O)(=O)[O-])ccc5F)c5ccc([nH]5)c(-c5cc(S(=O)(=O)[O-])ccc5F)c5nc(c(-c6cc(S(=O)(=O)[O-])ccc6F)c6ccc3[nH]6)C=C5)C=C4)cc1)[C@H](C(F)(F)F)O2
REMARK SMILES IDX 18 1 17 2 16 3 15 4 14 5 13 6 11 7 12 8 10 9 3 10 4 11 8 12
REMARK SMILES IDX 5 13 7 14 6 15 9 16 93 17 88 18 2 19 1 20 89 21 90 22 91 23
REMARK SMILES IDX 92 24 19 25 20 26 21 27 22 28 23 29 24 30 25 31 26 32 87 33
REMARK SMILES IDX 27 34 86 35 28 36 29 37 30 38 80 39 31 40 85 41 79 42 81 43
REMARK SMILES IDX 32 44 84 45 78 46 77 47 33 49 65 50 45 51 64 52 46 53 49 54
REMARK SMILES IDX 63 55 82 56 47 57 48 58 62 60 83 61 50 62 34 63 35 64 43 65
REMARK SMILES IDX 36 66 42 67 44 68 41 69 37 70 38 71 39 72 40 73 66 74 67 75
REMARK SMILES IDX 75 76 68 77 74 78 76 79 73 80 69 81 70 82 71 83 72 84 51 85
REMARK SMILES IDX 52 86 60 87 53 88 59 89 61 90 58 91 54 92 55 93 56 94 57 95
REMARK H PARENT 81 48 49 59
REMARK Flexibility Score: inf
ROOT
ATOM      1  C   UNL     1      -1.278  -6.515  -4.438  1.00  0.00     0.188 C 
ENDROOT
BRANCH   1   2
ATOM      2  C   UNL     1      -0.514  -7.617  -5.200  1.00  0.00     0.188 C 
BRANCH   2   3
ATOM      3  O   UNL     1      -0.291  -8.792  -4.431  1.00  0.00    -0.376 OA
BRANCH   3   4
ATOM      4  C   UNL     1       1.065  -9.083  -4.127  1.00  0.00     0.202 C 
BRANCH   4   5
ATOM      5  C   UNL     1       1.600  -8.258  -2.955  1.00  0.00     0.261 C 
BRANCH   5   6
ATOM      6  O   UNL     1       1.521  -6.839  -3.164  1.00  0.00    -0.460 OA
BRANCH   6   7
ATOM      7  C   UNL     1       2.427  -6.289  -4.004  1.00  0.00     0.338 C 
ATOM      8  O   UNL     1       3.319  -6.886  -4.579  1.00  0.00    -0.246 OA
BRANCH   7   9
ATOM      9  C   UNL     1       2.123  -4.854  -4.181  1.00  0.00     0.087 C 
ATOM     10  C   UNL     1       0.993  -0.493  -2.430  1.00  0.00    -0.047 A 
ATOM     11  C   UNL     1       1.402   0.073  -3.648  1.00  0.00     0.007 A 
ATOM     12  C   UNL     1       1.074  -1.887  -2.273  1.00  0.00     0.015 A 
ATOM     13  C   UNL     1       1.899  -0.728  -4.678  1.00  0.00     0.047 A 
ATOM     14  C   UNL     1       1.591  -2.691  -3.295  1.00  0.00     0.018 A 
ATOM     15  C   UNL     1       1.982  -2.105  -4.503  1.00  0.00     0.128 A 
ATOM     16  C   UNL     1       1.826  -4.117  -3.096  1.00  0.00     0.027 C 
ATOM     17  O   UNL     1       2.517  -2.838  -5.530  1.00  0.00    -0.475 OA
ATOM     18  C   UNL     1       2.092  -4.230  -5.560  1.00  0.00     0.316 C 
BRANCH  10  19
ATOM     19  C   UNL     1       0.455   0.399  -1.336  1.00  0.00     0.032 C 
ATOM     20  C   UNL     1       1.034   0.106   0.044  1.00  0.00     0.009 C 
ENDBRANCH  10  19
BRANCH  18  21
ATOM     21  C   UNL     1       2.840  -4.950  -6.692  1.00  0.00     0.430 C 
ATOM     22  F   UNL     1       2.308  -6.177  -6.915  1.00  0.00    -0.167 F 
ATOM     23  F   UNL     1       2.702  -4.266  -7.856  1.00  0.00    -0.167 F 
ATOM     24  F   UNL     1       4.158  -5.082  -6.450  1.00  0.00    -0.167 F 
ENDBRANCH  18  21
ENDBRANCH   7   9
ENDBRANCH   6   7
ENDBRANCH   5   6
ENDBRANCH   4   5
ENDBRANCH   3   4
ENDBRANCH   2   3
ENDBRANCH   1   2
BRANCH   1  25
ATOM     25  O   UNL     1      -2.099  -6.851  -3.326  1.00  0.00    -0.376 OA
BRANCH  25  26
ATOM     26  C   UNL     1      -2.861  -8.049  -3.362  1.00  0.00     0.202 C 
BRANCH  26  27
ATOM     27  C   UNL     1      -3.969  -8.164  -4.413  1.00  0.00     0.261 C 
BRANCH  27  28
ATOM     28  O   UNL     1      -3.525  -7.965  -5.764  1.00  0.00    -0.460 OA
BRANCH  28  29
ATOM     29  C   UNL     1      -3.951  -6.815  -6.347  1.00  0.00     0.338 C 
ATOM     30  O   UNL     1      -4.670  -5.965  -5.851  1.00  0.00    -0.246 OA
BRANCH  29  31
ATOM     31  C   UNL     1      -3.277  -6.635  -7.649  1.00  0.00     0.060 A 
ATOM     32  C   UNL     1      -2.575  -5.442  -7.871  1.00  0.00     0.016 A 
ATOM     33  C   UNL     1      -3.388  -7.589  -8.662  1.00  0.00     0.016 A 
ATOM     34  C   UNL     1      -2.000  -5.187  -9.117  1.00  0.00     0.010 A 
ATOM     35  C   UNL     1      -2.834  -7.320  -9.918  1.00  0.00     0.010 A 
ATOM     36  C   UNL     1      -2.160  -6.108 -10.160  1.00  0.00    -0.014 A 
BRANCH  36  37
ATOM     37  C   UNL     1      -1.786  -5.737 -11.547  1.00  0.00     0.031 A 
ATOM     38  C   UNL     1      -2.846  -5.162 -12.447  1.00  0.00     0.074 A 
ATOM     39  C   UNL     1      -0.533  -5.913 -12.002  1.00  0.00     0.049 A 
ATOM     40  N   UNL     1      -2.788  -4.870 -13.720  1.00  0.00    -0.248 NA
ATOM     41  C   UNL     1      -4.148  -4.886 -11.821  1.00  0.00     0.031 C 
ATOM     42  C   UNL     1       0.593  -6.402 -11.209  1.00  0.00     0.029 A 
ATOM     43  N   UNL     1      -0.005  -5.717 -13.254  1.00  0.00    -0.354 N 
ATOM     44  C   UNL     1      -4.046  -4.378 -14.051  1.00  0.00     0.074 A 
ATOM     45  C   UNL     1      -4.852  -4.439 -12.850  1.00  0.00     0.031 C 
ATOM     46  C   UNL     1       1.675  -6.492 -12.002  1.00  0.00     0.029 A 
ATOM     47  C   UNL     1       1.308  -6.110 -13.365  1.00  0.00     0.049 A 
ATOM     48  H   UNL     1      -0.517  -5.330 -14.001  1.00  0.00     0.167 HD
ATOM     49  C   UNL     1      -4.488  -3.917 -15.248  1.00  0.00     0.034 A 
ATOM     50  C   UNL     1       2.107  -6.190 -14.450  1.00  0.00     0.034 A 
ATOM     51  C   UNL     1      -3.683  -3.886 -16.443  1.00  0.00     0.049 A 
ATOM     52  C   UNL     1       1.560  -5.779 -15.798  1.00  0.00     0.074 A 
ATOM     53  C   UNL     1      -4.029  -3.440 -17.707  1.00  0.00     0.029 A 
ATOM     54  N   UNL     1      -2.372  -4.338 -16.528  1.00  0.00    -0.354 N 
ATOM     55  N   UNL     1       0.367  -5.321 -16.103  1.00  0.00    -0.248 NA
ATOM     56  C   UNL     1       2.467  -5.897 -16.948  1.00  0.00     0.031 C 
ATOM     57  C   UNL     1      -2.954  -3.684 -18.569  1.00  0.00     0.029 A 
ATOM     58  C   UNL     1      -1.908  -4.213 -17.829  1.00  0.00     0.049 A 
ATOM     59  H   UNL     1      -1.848  -4.694 -15.775  1.00  0.00     0.167 HD
ATOM     60  C   UNL     1       0.395  -5.065 -17.472  1.00  0.00     0.074 A 
ATOM     61  C   UNL     1       1.722  -5.416 -17.933  1.00  0.00     0.031 C 
ATOM     62  C   UNL     1      -0.583  -4.574 -18.275  1.00  0.00     0.034 A 
BRANCH  49  63
ATOM     63  C   UNL     1      -5.927  -3.471 -15.324  1.00  0.00     0.023 A 
ATOM     64  C   UNL     1      -6.396  -2.358 -14.604  1.00  0.00     0.031 A 
ATOM     65  C   UNL     1      -6.853  -4.195 -16.096  1.00  0.00     0.131 A 
ATOM     66  C   UNL     1      -7.764  -2.044 -14.614  1.00  0.00     0.055 A 
ATOM     67  C   UNL     1      -8.199  -3.832 -16.162  1.00  0.00     0.041 A 
ATOM     68  F   UNL     1      -6.467  -5.280 -16.785  1.00  0.00    -0.206 F 
ATOM     69  C   UNL     1      -8.665  -2.759 -15.407  1.00  0.00     0.022 A 
BRANCH  66  70
ATOM     70  S   UNL     1      -8.372  -0.776 -13.468  1.00  0.00     0.124 S 
ATOM     71  O   UNL     1      -7.964  -1.326 -12.177  1.00  0.00    -0.237 OA
ATOM     72  O   UNL     1      -7.658   0.416 -13.909  1.00  0.00    -0.237 OA
ATOM     73  O   UNL     1      -9.814  -0.764 -13.704  1.00  0.00    -0.744 OA
ENDBRANCH  66  70
ENDBRANCH  49  63
BRANCH  50  74
ATOM     74  C   UNL     1       3.489  -6.737 -14.334  1.00  0.00     0.023 A 
ATOM     75  C   UNL     1       4.612  -5.943 -14.616  1.00  0.00     0.031 A 
ATOM     76  C   UNL     1       3.702  -8.087 -14.001  1.00  0.00     0.131 A 
ATOM     77  C   UNL     1       5.894  -6.516 -14.605  1.00  0.00     0.055 A 
ATOM     78  C   UNL     1       4.983  -8.639 -13.941  1.00  0.00     0.041 A 
ATOM     79  F   UNL     1       2.663  -8.892 -13.729  1.00  0.00    -0.206 F 
ATOM     80  C   UNL     1       6.088  -7.855 -14.257  1.00  0.00     0.022 A 
BRANCH  77  81
ATOM     81  S   UNL     1       7.303  -5.507 -15.144  1.00  0.00     0.124 S 
ATOM     82  O   UNL     1       6.910  -5.152 -16.503  1.00  0.00    -0.237 OA
ATOM     83  O   UNL     1       7.291  -4.423 -14.168  1.00  0.00    -0.237 OA
ATOM     84  O   UNL     1       8.437  -6.423 -15.041  1.00  0.00    -0.744 OA
ENDBRANCH  77  81
ENDBRANCH  50  74
BRANCH  62  85
ATOM     85  C   UNL     1      -0.234  -4.336 -19.724  1.00  0.00     0.023 A 
ATOM     86  C   UNL     1       0.002  -5.396 -20.617  1.00  0.00     0.031 A 
ATOM     87  C   UNL     1      -0.147  -3.022 -20.218  1.00  0.00     0.131 A 
ATOM     88  C   UNL     1       0.355  -5.121 -21.948  1.00  0.00     0.055 A 
ATOM     89  C   UNL     1       0.153  -2.756 -21.554  1.00  0.00     0.041 A 
ATOM     90  F   UNL     1      -0.364  -1.973 -19.408  1.00  0.00    -0.206 F 
ATOM     91  C   UNL     1       0.415  -3.809 -22.425  1.00  0.00     0.022 A 
BRANCH  88  92
ATOM     92  S   UNL     1       0.797  -6.502 -23.039  1.00  0.00     0.124 S 
ATOM     93  O   UNL     1       1.945  -7.080 -22.347  1.00  0.00    -0.237 OA
ATOM     94  O   UNL     1      -0.420  -7.306 -23.036  1.00  0.00    -0.237 OA
ATOM     95  O   UNL     1       1.104  -5.850 -24.311  1.00  0.00    -0.744 OA
ENDBRANCH  88  92
ENDBRANCH  62  85
ENDBRANCH  36  37
ENDBRANCH  29  31
ENDBRANCH  28  29
ENDBRANCH  27  28
ENDBRANCH  26  27
ENDBRANCH  25  26
ENDBRANCH   1  25
TORSDOF 22
