REMARK SMILES O=C(CCS(=O)(=O)c1ccc2[nH]c(=O)oc2c1)OCCOCCOCCOC(=O)c1ccc(-c2c3nc(c(-c4cc(S(=O)(=O)[O-])ccc4F)c4ccc([nH]4)c(-c4cc(S(=O)(=O)[O-])ccc4F)c4nc(c(-c5cc(S(=O)(=O)[O-])ccc5F)c5ccc2[nH]5)C=C4)C=C3)cc1
REMARK SMILES IDX 22 1 21 2 20 3 19 4 18 5 2 6 1 7 3 8 4 9 5 10 6 11 7 12 8 13
REMARK SMILES IDX 9 14 17 15 10 16 16 17 11 18 15 19 12 20 13 21 14 23 23 24
REMARK SMILES IDX 24 25 25 26 26 27 27 28 28 29 29 30 30 31 31 32 92 33 32 34
REMARK SMILES IDX 91 35 33 36 34 37 35 38 85 39 36 40 90 41 84 42 86 43 37 44
REMARK SMILES IDX 89 45 83 46 82 47 38 49 70 50 50 51 69 52 51 53 54 54 68 55
REMARK SMILES IDX 87 56 52 57 53 58 67 60 88 61 55 62 39 63 40 64 48 65 41 66
REMARK SMILES IDX 47 67 49 68 46 69 42 70 43 71 44 72 45 73 71 74 72 75 80 76
REMARK SMILES IDX 73 77 79 78 81 79 78 80 74 81 75 82 76 83 77 84 56 85 57 86
REMARK SMILES IDX 65 87 58 88 64 89 66 90 63 91 59 92 60 93 61 94 62 95
REMARK H PARENT 12 22 86 48 54 59
REMARK Flexibility Score: inf
ROOT
ATOM      1  C   UNL     1       2.908   1.003  -1.967  1.00  0.00     0.188 C 
ENDROOT
BRANCH   1   2
ATOM      2  O   UNL     1       4.235   1.163  -1.492  1.00  0.00    -0.376 OA
BRANCH   2   3
ATOM      3  C   UNL     1       5.036   0.047  -1.165  1.00  0.00     0.202 C 
BRANCH   3   4
ATOM      4  C   UNL     1       4.409  -1.087  -0.358  1.00  0.00     0.261 C 
BRANCH   4   5
ATOM      5  O   UNL     1       3.074  -0.901   0.152  1.00  0.00    -0.463 OA
BRANCH   5   6
ATOM      6  C   UNL     1       2.620   0.040   0.996  1.00  0.00     0.306 C 
ATOM      7  O   UNL     1       1.435   0.038   1.327  1.00  0.00    -0.252 OA
BRANCH   6   8
ATOM      8  C   UNL     1       3.562   1.043   1.580  1.00  0.00     0.139 C 
BRANCH   8   9
ATOM      9  C   UNL     1       3.794   0.784   3.054  1.00  0.00     0.154 C 
BRANCH   9  10
ATOM     10  S   UNL     1       4.886  -0.576   3.402  1.00  0.00     0.179 S 
ATOM     11  O   UNL     1       6.022  -0.441   2.505  1.00  0.00    -0.224 OA
ATOM     12  O   UNL     1       5.090  -0.638   4.835  1.00  0.00    -0.224 OA
BRANCH  10  13
ATOM     13  C   UNL     1       4.081  -2.110   2.967  1.00  0.00     0.071 A 
ATOM     14  C   UNL     1       2.676  -2.233   3.019  1.00  0.00     0.023 A 
ATOM     15  C   UNL     1       4.880  -3.141   2.443  1.00  0.00     0.069 A 
ATOM     16  C   UNL     1       2.042  -3.341   2.444  1.00  0.00     0.031 A 
ATOM     17  C   UNL     1       4.228  -4.233   1.914  1.00  0.00     0.157 A 
ATOM     18  C   UNL     1       2.851  -4.308   1.898  1.00  0.00     0.087 A 
ATOM     19  O   UNL     1       4.826  -5.323   1.302  1.00  0.00    -0.408 OA
ATOM     20  N   UNL     1       2.539  -5.464   1.245  1.00  0.00    -0.287 N 
ATOM     21  C   UNL     1       3.718  -6.080   0.893  1.00  0.00     0.417 A 
ATOM     22  H   UNL     1       1.632  -5.798   1.058  1.00  0.00     0.173 HD
ATOM     23  O   UNL     1       3.802  -7.147   0.307  1.00  0.00    -0.224 OA
ENDBRANCH  10  13
ENDBRANCH   9  10
ENDBRANCH   8   9
ENDBRANCH   6   8
ENDBRANCH   5   6
ENDBRANCH   4   5
ENDBRANCH   3   4
ENDBRANCH   2   3
ENDBRANCH   1   2
BRANCH   1  24
ATOM     24  C   UNL     1       2.469  -0.243  -2.753  1.00  0.00     0.188 C 
BRANCH  24  25
ATOM     25  O   UNL     1       3.540  -1.089  -3.147  1.00  0.00    -0.376 OA
BRANCH  25  26
ATOM     26  C   UNL     1       3.824  -1.102  -4.539  1.00  0.00     0.202 C 
BRANCH  26  27
ATOM     27  C   UNL     1       4.598   0.118  -5.054  1.00  0.00     0.261 C 
BRANCH  27  28
ATOM     28  O   UNL     1       4.037   1.406  -4.755  1.00  0.00    -0.460 OA
BRANCH  28  29
ATOM     29  C   UNL     1       2.865   1.741  -5.346  1.00  0.00     0.338 C 
ATOM     30  O   UNL     1       2.204   1.040  -6.086  1.00  0.00    -0.246 OA
BRANCH  29  31
ATOM     31  C   UNL     1       2.430   3.043  -4.775  1.00  0.00     0.060 A 
ATOM     32  C   UNL     1       1.158   3.141  -4.191  1.00  0.00     0.016 A 
ATOM     33  C   UNL     1       3.302   4.135  -4.738  1.00  0.00     0.016 A 
ATOM     34  C   UNL     1       0.755   4.335  -3.580  1.00  0.00     0.010 A 
ATOM     35  C   UNL     1       2.885   5.338  -4.157  1.00  0.00     0.010 A 
ATOM     36  C   UNL     1       1.600   5.454  -3.598  1.00  0.00    -0.014 A 
BRANCH  36  37
ATOM     37  C   UNL     1       1.054   6.802  -3.285  1.00  0.00     0.031 A 
ATOM     38  C   UNL     1       0.509   7.609  -4.435  1.00  0.00     0.074 A 
ATOM     39  C   UNL     1       1.033   7.309  -2.038  1.00  0.00     0.049 A 
ATOM     40  N   UNL     1       0.035   8.827  -4.453  1.00  0.00    -0.248 NA
ATOM     41  C   UNL     1       0.510   6.942  -5.747  1.00  0.00     0.031 C 
ATOM     42  C   UNL     1       1.486   6.619  -0.833  1.00  0.00     0.029 A 
ATOM     43  N   UNL     1       0.616   8.539  -1.583  1.00  0.00    -0.354 N 
ATOM     44  C   UNL     1      -0.320   9.072  -5.775  1.00  0.00     0.074 A 
ATOM     45  C   UNL     1       0.032   7.892  -6.534  1.00  0.00     0.031 C 
ATOM     46  C   UNL     1       1.335   7.441   0.223  1.00  0.00     0.029 A 
ATOM     47  C   UNL     1       0.811   8.729  -0.234  1.00  0.00     0.049 A 
ATOM     48  H   UNL     1       0.216   9.221  -2.169  1.00  0.00     0.167 HD
ATOM     49  C   UNL     1      -0.896  10.176  -6.311  1.00  0.00     0.034 A 
ATOM     50  C   UNL     1       0.613   9.822   0.534  1.00  0.00     0.034 A 
ATOM     51  C   UNL     1      -1.216  11.360  -5.554  1.00  0.00     0.049 A 
ATOM     52  C   UNL     1       0.068  11.084  -0.104  1.00  0.00     0.074 A 
ATOM     53  C   UNL     1      -1.801  12.532  -5.997  1.00  0.00     0.029 A 
ATOM     54  N   UNL     1      -0.959  11.530  -4.200  1.00  0.00    -0.354 N 
ATOM     55  N   UNL     1      -0.279  11.299  -1.353  1.00  0.00    -0.248 NA
ATOM     56  C   UNL     1      -0.117  12.248   0.774  1.00  0.00     0.031 C 
ATOM     57  C   UNL     1      -1.826  13.438  -4.932  1.00  0.00     0.029 A 
ATOM     58  C   UNL     1      -1.341  12.802  -3.801  1.00  0.00     0.049 A 
ATOM     59  H   UNL     1      -0.564  10.849  -3.610  1.00  0.00     0.167 HD
ATOM     60  C   UNL     1      -0.758  12.608  -1.397  1.00  0.00     0.074 A 
ATOM     61  C   UNL     1      -0.664  13.129  -0.050  1.00  0.00     0.031 C 
ATOM     62  C   UNL     1      -1.239  13.314  -2.454  1.00  0.00     0.034 A 
BRANCH  49  63
ATOM     63  C   UNL     1      -1.155  10.164  -7.797  1.00  0.00     0.023 A 
ATOM     64  C   UNL     1      -2.051   9.252  -8.383  1.00  0.00     0.031 A 
ATOM     65  C   UNL     1      -0.465  11.047  -8.645  1.00  0.00     0.131 A 
ATOM     66  C   UNL     1      -2.176   9.194  -9.779  1.00  0.00     0.055 A 
ATOM     67  C   UNL     1      -0.657  11.041 -10.027  1.00  0.00     0.041 A 
ATOM     68  F   UNL     1       0.424  11.920  -8.145  1.00  0.00    -0.206 F 
ATOM     69  C   UNL     1      -1.505  10.101 -10.604  1.00  0.00     0.022 A 
BRANCH  66  70
ATOM     70  S   UNL     1      -3.107   7.820 -10.509  1.00  0.00     0.124 S 
ATOM     71  O   UNL     1      -2.380   6.662  -9.992  1.00  0.00    -0.237 OA
ATOM     72  O   UNL     1      -4.447   8.025  -9.971  1.00  0.00    -0.237 OA
ATOM     73  O   UNL     1      -2.972   8.040 -11.948  1.00  0.00    -0.744 OA
ENDBRANCH  66  70
ENDBRANCH  49  63
BRANCH  50  74
ATOM     74  C   UNL     1       0.969   9.814   1.986  1.00  0.00     0.023 A 
ATOM     75  C   UNL     1      -0.003  10.022   2.979  1.00  0.00     0.031 A 
ATOM     76  C   UNL     1       2.307   9.679   2.398  1.00  0.00     0.131 A 
ATOM     77  C   UNL     1       0.382  10.140   4.325  1.00  0.00     0.055 A 
ATOM     78  C   UNL     1       2.678   9.740   3.744  1.00  0.00     0.041 A 
ATOM     79  F   UNL     1       3.281   9.487   1.494  1.00  0.00    -0.206 F 
ATOM     80  C   UNL     1       1.714   9.987   4.715  1.00  0.00     0.022 A 
BRANCH  77  81
ATOM     81  S   UNL     1      -0.874  10.596   5.554  1.00  0.00     0.124 S 
ATOM     82  O   UNL     1      -1.346  11.875   5.036  1.00  0.00    -0.237 OA
ATOM     83  O   UNL     1      -1.808   9.479   5.459  1.00  0.00    -0.237 OA
ATOM     84  O   UNL     1      -0.117  10.667   6.803  1.00  0.00    -0.744 OA
ENDBRANCH  77  81
ENDBRANCH  50  74
BRANCH  62  85
ATOM     85  C   UNL     1      -1.758  14.707  -2.184  1.00  0.00     0.023 A 
ATOM     86  C   UNL     1      -0.913  15.754  -1.775  1.00  0.00     0.031 A 
ATOM     87  C   UNL     1      -3.127  14.992  -2.346  1.00  0.00     0.131 A 
ATOM     88  C   UNL     1      -1.453  17.019  -1.492  1.00  0.00     0.055 A 
ATOM     89  C   UNL     1      -3.647  16.267  -2.126  1.00  0.00     0.041 A 
ATOM     90  F   UNL     1      -3.983  14.032  -2.733  1.00  0.00    -0.206 F 
ATOM     91  C   UNL     1      -2.811  17.287  -1.684  1.00  0.00     0.022 A 
BRANCH  88  92
ATOM     92  S   UNL     1      -0.371  18.291  -0.782  1.00  0.00     0.124 S 
ATOM     93  O   UNL     1       0.108  17.637   0.432  1.00  0.00    -0.237 OA
ATOM     94  O   UNL     1       0.619  18.484  -1.836  1.00  0.00    -0.237 OA
ATOM     95  O   UNL     1      -1.270  19.423  -0.562  1.00  0.00    -0.744 OA
ENDBRANCH  88  92
ENDBRANCH  62  85
ENDBRANCH  36  37
ENDBRANCH  29  31
ENDBRANCH  28  29
ENDBRANCH  27  28
ENDBRANCH  26  27
ENDBRANCH  25  26
ENDBRANCH  24  25
ENDBRANCH   1  24
TORSDOF 23
