REMARK SMILES Cc1ccc2occ(/C=N/NC(=O)CCC(=O)Nc3ccc(C(=O)OCCOCCOCCOC(=O)c4ccc(-c5c6nc(c(-c7cc(S(=O)(=O)[O-])ccc7F)c7ccc([nH]7)c(-c7cc(S(=O)(=O)[O-])ccc7F)c7nc(c(-c8cc(S(=O)(=O)[O-])ccc8F)c8ccc5[nH]8)C=C7)C=C6)cc4)cc3)c(=O)c2c1
REMARK SMILES IDX 28 1 27 2 26 3 25 4 23 5 24 6 22 7 19 8 20 9 101 10 21 11
REMARK SMILES IDX 100 12 18 13 16 14 17 15 15 17 14 18 12 19 11 20 13 22 10 23
REMARK SMILES IDX 9 24 8 25 1 26 2 27 3 28 105 29 4 30 104 31 5 32 102 33 6 34
REMARK SMILES IDX 103 35 7 36 29 37 30 38 31 39 32 40 33 41 34 42 35 43 36 44
REMARK SMILES IDX 37 45 38 46 99 47 39 48 98 49 40 50 41 51 42 52 92 53 43 54
REMARK SMILES IDX 97 55 91 56 93 57 44 58 96 59 90 60 89 61 45 63 77 64 57 65
REMARK SMILES IDX 76 66 58 67 61 68 75 69 94 70 59 71 60 72 74 74 95 75 62 76
REMARK SMILES IDX 46 77 47 78 55 79 48 80 54 81 56 82 53 83 49 84 50 85 51 86
REMARK SMILES IDX 52 87 78 88 79 89 87 90 80 91 86 92 88 93 85 94 81 95 82 96
REMARK SMILES IDX 83 97 84 98 63 99 64 100 72 101 65 102 71 103 73 104 70 105
REMARK SMILES IDX 66 106 67 107 68 108 69 109
REMARK H PARENT 18 16 11 21 93 62 61 73
REMARK Flexibility Score: inf
ROOT
ATOM      1  O   UNL     1      13.380   1.573  -0.085  1.00  0.00    -0.376 OA
ENDROOT
BRANCH   1   2
ATOM      2  C   UNL     1      13.521   2.791  -0.797  1.00  0.00     0.202 C 
BRANCH   2   3
ATOM      3  C   UNL     1      12.342   3.760  -0.904  1.00  0.00     0.261 C 
BRANCH   3   4
ATOM      4  O   UNL     1      11.072   3.183  -1.194  1.00  0.00    -0.460 OA
BRANCH   4   5
ATOM      5  C   UNL     1      10.807   2.701  -2.433  1.00  0.00     0.338 C 
ATOM      6  O   UNL     1      11.557   2.635  -3.378  1.00  0.00    -0.246 OA
BRANCH   5   7
ATOM      7  C   UNL     1       9.422   2.176  -2.352  1.00  0.00     0.060 A 
ATOM      8  C   UNL     1       6.748   1.339  -2.113  1.00  0.00     0.041 A 
ATOM      9  C   UNL     1       7.684   0.543  -2.791  1.00  0.00     0.027 A 
ATOM     10  C   UNL     1       7.200   2.507  -1.521  1.00  0.00     0.027 A 
ATOM     11  C   UNL     1       9.019   0.971  -2.933  1.00  0.00     0.018 A 
ATOM     12  C   UNL     1       8.512   2.921  -1.617  1.00  0.00     0.018 A 
BRANCH   8  13
ATOM     13  N   UNL     1       5.406   0.929  -2.071  1.00  0.00    -0.326 N 
ATOM     14  C   UNL     1       4.258   1.561  -1.682  1.00  0.00     0.224 C 
ATOM     15  O   UNL     1       3.194   0.939  -1.804  1.00  0.00    -0.275 OA
ATOM     16  H   UNL     1       5.264   0.006  -2.382  1.00  0.00     0.169 HD
BRANCH  14  17
ATOM     17  C   UNL     1       4.212   3.010  -1.230  1.00  0.00     0.110 C 
BRANCH  17  18
ATOM     18  C   UNL     1       4.360   3.379   0.253  1.00  0.00     0.112 C 
BRANCH  18  19
ATOM     19  C   UNL     1       5.486   2.815   1.129  1.00  0.00     0.240 C 
ATOM     20  N   UNL     1       5.556   1.477   1.433  1.00  0.00    -0.247 N 
ATOM     21  H   UNL     1       6.320   1.185   1.981  1.00  0.00     0.193 HD
ATOM     22  O   UNL     1       6.350   3.576   1.576  1.00  0.00    -0.273 OA
BRANCH  20  23
ATOM     23  N   UNL     1       4.674   0.518   1.048  1.00  0.00    -0.180 NA
ATOM     24  C   UNL     1       3.454   0.763   1.398  1.00  0.00     0.148 C 
BRANCH  24  25
ATOM     25  C   UNL     1       2.270   0.095   0.855  1.00  0.00     0.078 A 
ATOM     26  C   UNL     1      -3.833   0.865  -0.075  1.00  0.00     0.044 C 
ATOM     27  C   UNL     1      -2.527   0.132  -0.049  1.00  0.00    -0.050 A 
ATOM     28  C   UNL     1      -2.457  -1.262  -0.195  1.00  0.00     0.007 A 
ATOM     29  C   UNL     1      -1.348   0.855   0.133  1.00  0.00     0.019 A 
ATOM     30  C   UNL     1      -1.224  -1.926  -0.159  1.00  0.00     0.048 A 
ATOM     31  C   UNL     1      -0.131   0.178   0.217  1.00  0.00     0.066 A 
ATOM     32  C   UNL     1      -0.056  -1.203   0.057  1.00  0.00     0.137 A 
ATOM     33  C   UNL     1       1.076   0.913   0.588  1.00  0.00     0.201 A 
ATOM     34  O   UNL     1       1.127  -1.900   0.136  1.00  0.00    -0.463 OA
ATOM     35  O   UNL     1       1.074   2.132   0.728  1.00  0.00    -0.288 OA
ATOM     36  C   UNL     1       2.235  -1.213   0.585  1.00  0.00     0.209 A 
ENDBRANCH  24  25
ENDBRANCH  20  23
ENDBRANCH  18  19
ENDBRANCH  17  18
ENDBRANCH  14  17
ENDBRANCH   8  13
ENDBRANCH   5   7
ENDBRANCH   4   5
ENDBRANCH   3   4
ENDBRANCH   2   3
ENDBRANCH   1   2
BRANCH   1  37
ATOM     37  C   UNL     1      12.263   0.752  -0.369  1.00  0.00     0.188 C 
BRANCH  37  38
ATOM     38  C   UNL     1      11.169   0.834   0.716  1.00  0.00     0.188 C 
BRANCH  38  39
ATOM     39  O   UNL     1      11.392   1.637   1.864  1.00  0.00    -0.376 OA
BRANCH  39  40
ATOM     40  C   UNL     1      12.629   1.563   2.557  1.00  0.00     0.202 C 
BRANCH  40  41
ATOM     41  C   UNL     1      13.410   0.246   2.782  1.00  0.00     0.261 C 
BRANCH  41  42
ATOM     42  O   UNL     1      13.336  -0.770   1.774  1.00  0.00    -0.460 OA
BRANCH  42  43
ATOM     43  C   UNL     1      12.511  -1.813   2.040  1.00  0.00     0.338 C 
ATOM     44  O   UNL     1      11.837  -1.971   3.043  1.00  0.00    -0.246 OA
BRANCH  43  45
ATOM     45  C   UNL     1      12.390  -2.664   0.833  1.00  0.00     0.060 A 
ATOM     46  C   UNL     1      11.128  -2.806   0.239  1.00  0.00     0.016 A 
ATOM     47  C   UNL     1      13.492  -3.342   0.305  1.00  0.00     0.016 A 
ATOM     48  C   UNL     1      10.954  -3.654  -0.856  1.00  0.00     0.010 A 
ATOM     49  C   UNL     1      13.311  -4.210  -0.780  1.00  0.00     0.010 A 
ATOM     50  C   UNL     1      12.034  -4.400  -1.343  1.00  0.00    -0.014 A 
BRANCH  50  51
ATOM     51  C   UNL     1      11.782  -5.524  -2.284  1.00  0.00     0.031 A 
ATOM     52  C   UNL     1      11.717  -6.923  -1.724  1.00  0.00     0.074 A 
ATOM     53  C   UNL     1      11.574  -5.317  -3.598  1.00  0.00     0.049 A 
ATOM     54  N   UNL     1      11.557  -8.063  -2.343  1.00  0.00    -0.248 NA
ATOM     55  C   UNL     1      11.855  -7.045  -0.264  1.00  0.00     0.031 C 
ATOM     56  C   UNL     1      11.556  -4.012  -4.255  1.00  0.00     0.029 A 
ATOM     57  N   UNL     1      11.343  -6.209  -4.618  1.00  0.00    -0.354 N 
ATOM     58  C   UNL     1      11.585  -9.040  -1.352  1.00  0.00     0.074 A 
ATOM     59  C   UNL     1      11.816  -8.357  -0.097  1.00  0.00     0.031 C 
ATOM     60  C   UNL     1      11.336  -4.189  -5.571  1.00  0.00     0.029 A 
ATOM     61  C   UNL     1      11.240  -5.620  -5.858  1.00  0.00     0.049 A 
ATOM     62  H   UNL     1      11.259  -7.180  -4.475  1.00  0.00     0.167 HD
ATOM     63  C   UNL     1      11.425 -10.381  -1.474  1.00  0.00     0.034 A 
ATOM     64  C   UNL     1      11.111  -6.174  -7.082  1.00  0.00     0.034 A 
ATOM     65  C   UNL     1      11.207 -11.052  -2.733  1.00  0.00     0.049 A 
ATOM     66  C   UNL     1      11.029  -7.681  -7.205  1.00  0.00     0.074 A 
ATOM     67  C   UNL     1      11.026 -12.404  -2.967  1.00  0.00     0.029 A 
ATOM     68  N   UNL     1      11.154 -10.426  -3.972  1.00  0.00    -0.354 N 
ATOM     69  N   UNL     1      11.055  -8.593  -6.260  1.00  0.00    -0.248 NA
ATOM     70  C   UNL     1      10.888  -8.230  -8.561  1.00  0.00     0.031 C 
ATOM     71  C   UNL     1      10.948 -12.604  -4.349  1.00  0.00     0.029 A 
ATOM     72  C   UNL     1      10.977 -11.368  -4.974  1.00  0.00     0.049 A 
ATOM     73  H   UNL     1      11.231  -9.455  -4.117  1.00  0.00     0.167 HD
ATOM     74  C   UNL     1      10.887  -9.817  -6.907  1.00  0.00     0.074 A 
ATOM     75  C   UNL     1      10.750  -9.524  -8.317  1.00  0.00     0.031 C 
ATOM     76  C   UNL     1      10.841 -11.069  -6.381  1.00  0.00     0.034 A 
BRANCH  63  77
ATOM     77  C   UNL     1      11.539 -11.213  -0.219  1.00  0.00     0.023 A 
ATOM     78  C   UNL     1      10.632 -11.079   0.848  1.00  0.00     0.031 A 
ATOM     79  C   UNL     1      12.584 -12.143  -0.079  1.00  0.00     0.131 A 
ATOM     80  C   UNL     1      10.827 -11.811   2.029  1.00  0.00     0.055 A 
ATOM     81  C   UNL     1      12.723 -12.930   1.065  1.00  0.00     0.041 A 
ATOM     82  F   UNL     1      13.497 -12.297  -1.052  1.00  0.00    -0.206 F 
ATOM     83  C   UNL     1      11.850 -12.757   2.134  1.00  0.00     0.022 A 
BRANCH  80  84
ATOM     84  S   UNL     1       9.814 -11.406   3.478  1.00  0.00     0.124 S 
ATOM     85  O   UNL     1      10.125  -9.992   3.670  1.00  0.00    -0.237 OA
ATOM     86  O   UNL     1       8.465 -11.706   3.013  1.00  0.00    -0.237 OA
ATOM     87  O   UNL     1      10.329 -12.297   4.516  1.00  0.00    -0.744 OA
ENDBRANCH  80  84
ENDBRANCH  63  77
BRANCH  64  88
ATOM     88  C   UNL     1      11.095  -5.319  -8.308  1.00  0.00     0.023 A 
ATOM     89  C   UNL     1       9.990  -5.309  -9.176  1.00  0.00     0.031 A 
ATOM     90  C   UNL     1      12.222  -4.561  -8.674  1.00  0.00     0.131 A 
ATOM     91  C   UNL     1      10.058  -4.605 -10.389  1.00  0.00     0.055 A 
ATOM     92  C   UNL     1      12.259  -3.809  -9.850  1.00  0.00     0.041 A 
ATOM     93  F   UNL     1      13.311  -4.540  -7.888  1.00  0.00    -0.206 F 
ATOM     94  C   UNL     1      11.178  -3.842 -10.724  1.00  0.00     0.022 A 
BRANCH  91  95
ATOM     95  S   UNL     1       8.700  -4.792 -11.579  1.00  0.00     0.124 S 
ATOM     96  O   UNL     1       8.693  -6.234 -11.794  1.00  0.00    -0.237 OA
ATOM     97  O   UNL     1       7.569  -4.247 -10.835  1.00  0.00    -0.237 OA
ATOM     98  O   UNL     1       9.136  -3.991 -12.721  1.00  0.00    -0.744 OA
ENDBRANCH  91  95
ENDBRANCH  64  88
BRANCH  76  99
ATOM     99  C   UNL     1      10.558 -12.213  -7.330  1.00  0.00     0.023 A 
ATOM    100  C   UNL     1      11.441 -12.566  -8.365  1.00  0.00     0.031 A 
ATOM    101  C   UNL     1       9.370 -12.957  -7.198  1.00  0.00     0.131 A 
ATOM    102  C   UNL     1      11.092 -13.584  -9.267  1.00  0.00     0.055 A 
ATOM    103  C   UNL     1       9.063 -14.017  -8.052  1.00  0.00     0.041 A 
ATOM    104  F   UNL     1       8.484 -12.665  -6.232  1.00  0.00    -0.206 F 
ATOM    105  C   UNL     1       9.919 -14.325  -9.105  1.00  0.00     0.022 A 
BRANCH 102 106
ATOM    106  S   UNL     1      12.135 -13.851 -10.728  1.00  0.00     0.124 S 
ATOM    107  O   UNL     1      12.134 -12.529 -11.345  1.00  0.00    -0.237 OA
ATOM    108  O   UNL     1      13.399 -14.277 -10.135  1.00  0.00    -0.237 OA
ATOM    109  O   UNL     1      11.421 -14.885 -11.475  1.00  0.00    -0.744 OA
ENDBRANCH 102 106
ENDBRANCH  76  99
ENDBRANCH  50  51
ENDBRANCH  43  45
ENDBRANCH  42  43
ENDBRANCH  41  42
ENDBRANCH  40  41
ENDBRANCH  39  40
ENDBRANCH  38  39
ENDBRANCH  37  38
ENDBRANCH   1  37
TORSDOF 26
