REMARK SMILES CC1(C)[C@H](O)CC[C@]2(C)[C@@H]1CC[C@]1(C)Oc3oc(C(=O)OCCOCCOCCOC(=O)c4ccc(-c5c6nc(c(-c7cc(S(=O)(=O)[O-])ccc7F)c7ccc([nH]7)c(-c7cc(S(=O)(=O)[O-])ccc7F)c7nc(c(-c8cc(S(=O)(=O)[O-])ccc8F)c8ccc5[nH]8)C=C7)C=C6)cc4)cc(=O)c3C[C@H]21
REMARK SMILES IDX 26 1 25 2 24 3 23 4 22 5 21 6 19 7 20 8 18 9 1 10 2 11 3 12
REMARK SMILES IDX 4 13 10 14 6 15 8 16 11 17 7 18 9 19 101 20 12 21 13 22
REMARK SMILES IDX 100 23 14 24 15 25 99 26 16 27 97 28 17 29 96 30 98 31 5 32
REMARK SMILES IDX 27 34 28 35 29 36 30 37 31 38 32 39 33 40 34 41 95 42 35 43
REMARK SMILES IDX 94 44 36 45 37 46 38 47 88 48 39 49 93 50 87 51 89 52 40 53
REMARK SMILES IDX 92 54 86 55 85 56 41 58 73 59 53 60 72 61 54 62 57 63 71 64
REMARK SMILES IDX 90 65 55 66 56 67 70 69 91 70 58 71 42 72 43 73 51 74 44 75
REMARK SMILES IDX 50 76 52 77 49 78 45 79 46 80 47 81 48 82 74 83 75 84 83 85
REMARK SMILES IDX 76 86 82 87 84 88 81 89 77 90 78 91 79 92 80 93 59 94 60 95
REMARK SMILES IDX 68 96 61 97 67 98 69 99 66 100 62 101 63 102 64 103 65 104
REMARK H PARENT 5 33 89 57 57 68
REMARK Flexibility Score: inf
ROOT
ATOM      1  C   UNL     1       9.202   7.985  -0.663  1.00  0.00     0.188 C 
ENDROOT
BRANCH   1   2
ATOM      2  C   UNL     1       9.336   9.203   0.278  1.00  0.00     0.188 C 
BRANCH   2   3
ATOM      3  O   UNL     1      10.606   9.776   0.500  1.00  0.00    -0.376 OA
BRANCH   3   4
ATOM      4  C   UNL     1      11.631   9.040   1.142  1.00  0.00     0.202 C 
BRANCH   4   5
ATOM      5  C   UNL     1      11.357   7.962   2.201  1.00  0.00     0.261 C 
BRANCH   5   6
ATOM      6  O   UNL     1      10.276   7.068   1.913  1.00  0.00    -0.457 OA
BRANCH   6   7
ATOM      7  C   UNL     1       9.196   7.121   2.746  1.00  0.00     0.374 C 
ATOM      8  O   UNL     1       9.084   7.821   3.738  1.00  0.00    -0.242 OA
BRANCH   7   9
ATOM      9  C   UNL     1       8.109   6.258   2.208  1.00  0.00     0.219 A 
ATOM     10  C   UNL     1       1.074   1.103  -0.405  1.00  0.00     0.014 C 
ATOM     11  C   UNL     1       0.703   1.875   0.900  1.00  0.00    -0.006 C 
ATOM     12  C   UNL     1      -0.754   2.355   0.706  1.00  0.00     0.014 C 
ATOM     13  C   UNL     1       0.756   0.812   2.041  1.00  0.00     0.120 C 
ATOM     14  C   UNL     1       1.751   3.066   1.083  1.00  0.00     0.004 C 
ATOM     15  C   UNL     1       2.169   0.434   2.513  1.00  0.00     0.033 C 
ATOM     16  C   UNL     1       2.684   2.963   2.341  1.00  0.00    -0.022 C 
ATOM     17  C   UNL     1       1.261   4.505   0.810  1.00  0.00     0.009 C 
ATOM     18  C   UNL     1       3.238   1.516   2.314  1.00  0.00     0.010 C 
ATOM     19  C   UNL     1       2.043   3.179   3.739  1.00  0.00     0.012 C 
ATOM     20  C   UNL     1       3.830   4.040   2.228  1.00  0.00     0.044 C 
ATOM     21  C   UNL     1       2.421   5.533   0.731  1.00  0.00     0.049 C 
ATOM     22  C   UNL     1       3.354   5.511   1.968  1.00  0.00     0.113 C 
ATOM     23  C   UNL     1       4.904   3.696   1.172  1.00  0.00     0.055 C 
ATOM     24  C   UNL     1       2.587   6.173   3.131  1.00  0.00     0.057 C 
ATOM     25  O   UNL     1       4.484   6.424   1.790  1.00  0.00    -0.458 OA
ATOM     26  C   UNL     1       6.012   4.666   1.347  1.00  0.00     0.081 A 
ATOM     27  C   UNL     1       5.777   5.925   1.737  1.00  0.00     0.292 A 
ATOM     28  C   UNL     1       7.397   4.172   1.249  1.00  0.00     0.192 A 
ATOM     29  O   UNL     1       6.813   6.766   2.148  1.00  0.00    -0.418 OA
ATOM     30  C   UNL     1       8.450   5.042   1.768  1.00  0.00     0.107 A 
ATOM     31  O   UNL     1       7.674   3.071   0.788  1.00  0.00    -0.289 OA
BRANCH  13  32
ATOM     32  O   UNL     1      -0.055   1.163   3.164  1.00  0.00    -0.393 OA
ATOM     33  H   UNL     1       0.309   1.955   3.591  1.00  0.00     0.210 HD
ENDBRANCH  13  32
ENDBRANCH   7   9
ENDBRANCH   6   7
ENDBRANCH   5   6
ENDBRANCH   4   5
ENDBRANCH   3   4
ENDBRANCH   2   3
ENDBRANCH   1   2
BRANCH   1  34
ATOM     34  O   UNL     1      10.341   7.433  -1.285  1.00  0.00    -0.376 OA
BRANCH  34  35
ATOM     35  C   UNL     1      11.093   8.231  -2.184  1.00  0.00     0.202 C 
BRANCH  35  36
ATOM     36  C   UNL     1      10.469   9.294  -3.107  1.00  0.00     0.261 C 
BRANCH  36  37
ATOM     37  O   UNL     1       9.401  10.079  -2.563  1.00  0.00    -0.460 OA
BRANCH  37  38
ATOM     38  C   UNL     1       8.174   9.858  -3.100  1.00  0.00     0.338 C 
ATOM     39  O   UNL     1       7.886   9.062  -3.982  1.00  0.00    -0.246 OA
BRANCH  38  40
ATOM     40  C   UNL     1       7.170  10.610  -2.327  1.00  0.00     0.060 A 
ATOM     41  C   UNL     1       6.311   9.919  -1.459  1.00  0.00     0.016 A 
ATOM     42  C   UNL     1       7.065  11.992  -2.480  1.00  0.00     0.016 A 
ATOM     43  C   UNL     1       5.348  10.612  -0.730  1.00  0.00     0.010 A 
ATOM     44  C   UNL     1       6.069  12.679  -1.783  1.00  0.00     0.010 A 
ATOM     45  C   UNL     1       5.194  11.989  -0.923  1.00  0.00    -0.014 A 
BRANCH  45  46
ATOM     46  C   UNL     1       3.996  12.674  -0.390  1.00  0.00     0.031 A 
ATOM     47  C   UNL     1       2.781  12.761  -1.269  1.00  0.00     0.074 A 
ATOM     48  C   UNL     1       3.987  13.214   0.841  1.00  0.00     0.049 A 
ATOM     49  N   UNL     1       1.641  13.355  -1.044  1.00  0.00    -0.248 NA
ATOM     50  C   UNL     1       2.864  12.087  -2.577  1.00  0.00     0.031 C 
ATOM     51  C   UNL     1       5.092  13.158   1.793  1.00  0.00     0.029 A 
ATOM     52  N   UNL     1       3.014  13.932   1.491  1.00  0.00    -0.354 N 
ATOM     53  C   UNL     1       0.873  13.133  -2.179  1.00  0.00     0.074 A 
ATOM     54  C   UNL     1       1.681  12.370  -3.102  1.00  0.00     0.031 C 
ATOM     55  C   UNL     1       4.746  13.840   2.899  1.00  0.00     0.029 A 
ATOM     56  C   UNL     1       3.407  14.405   2.720  1.00  0.00     0.049 A 
ATOM     57  H   UNL     1       2.119  14.094   1.113  1.00  0.00     0.167 HD
ATOM     58  C   UNL     1      -0.397  13.527  -2.423  1.00  0.00     0.034 A 
ATOM     59  C   UNL     1       2.771  15.220   3.589  1.00  0.00     0.034 A 
ATOM     60  C   UNL     1      -1.192  14.291  -1.500  1.00  0.00     0.049 A 
ATOM     61  C   UNL     1       1.374  15.697   3.268  1.00  0.00     0.074 A 
ATOM     62  C   UNL     1      -2.501  14.711  -1.652  1.00  0.00     0.029 A 
ATOM     63  N   UNL     1      -0.760  14.755  -0.268  1.00  0.00    -0.354 N 
ATOM     64  N   UNL     1       0.631  15.427   2.220  1.00  0.00    -0.248 NA
ATOM     65  C   UNL     1       0.722  16.581   4.247  1.00  0.00     0.031 C 
ATOM     66  C   UNL     1      -2.840  15.483  -0.542  1.00  0.00     0.029 A 
ATOM     67  C   UNL     1      -1.769  15.482   0.338  1.00  0.00     0.049 A 
ATOM     68  H   UNL     1       0.131  14.592   0.118  1.00  0.00     0.167 HD
ATOM     69  C   UNL     1      -0.582  16.079   2.429  1.00  0.00     0.074 A 
ATOM     70  C   UNL     1      -0.480  16.746   3.709  1.00  0.00     0.031 C 
ATOM     71  C   UNL     1      -1.677  16.120   1.629  1.00  0.00     0.034 A 
BRANCH  58  72
ATOM     72  C   UNL     1      -1.031  13.148  -3.732  1.00  0.00     0.023 A 
ATOM     73  C   UNL     1      -1.389  14.152  -4.649  1.00  0.00     0.031 A 
ATOM     74  C   UNL     1      -1.420  11.824  -3.998  1.00  0.00     0.131 A 
ATOM     75  C   UNL     1      -2.165  13.824  -5.765  1.00  0.00     0.055 A 
ATOM     76  C   UNL     1      -2.159  11.497  -5.134  1.00  0.00     0.041 A 
ATOM     77  F   UNL     1      -1.090  10.834  -3.153  1.00  0.00    -0.206 F 
ATOM     78  C   UNL     1      -2.549  12.502  -6.015  1.00  0.00     0.022 A 
BRANCH  75  79
ATOM     79  S   UNL     1      -2.752  15.109  -6.901  1.00  0.00     0.124 S 
ATOM     80  O   UNL     1      -2.318  14.590  -8.196  1.00  0.00    -0.237 OA
ATOM     81  O   UNL     1      -4.193  15.082  -6.669  1.00  0.00    -0.237 OA
ATOM     82  O   UNL     1      -2.060  16.313  -6.455  1.00  0.00    -0.744 OA
ENDBRANCH  75  79
ENDBRANCH  58  72
BRANCH  59  83
ATOM     83  C   UNL     1       3.454  15.610   4.855  1.00  0.00     0.023 A 
ATOM     84  C   UNL     1       4.635  16.373   4.832  1.00  0.00     0.031 A 
ATOM     85  C   UNL     1       2.978  15.165   6.099  1.00  0.00     0.131 A 
ATOM     86  C   UNL     1       5.330  16.620   6.023  1.00  0.00     0.055 A 
ATOM     87  C   UNL     1       3.641  15.464   7.291  1.00  0.00     0.041 A 
ATOM     88  F   UNL     1       1.856  14.432   6.171  1.00  0.00    -0.206 F 
ATOM     89  C   UNL     1       4.832  16.184   7.254  1.00  0.00     0.022 A 
BRANCH  86  90
ATOM     90  S   UNL     1       6.947  17.441   6.003  1.00  0.00     0.124 S 
ATOM     91  O   UNL     1       6.744  18.541   6.941  1.00  0.00    -0.237 OA
ATOM     92  O   UNL     1       7.827  16.372   6.467  1.00  0.00    -0.237 OA
ATOM     93  O   UNL     1       7.120  17.830   4.608  1.00  0.00    -0.744 OA
ENDBRANCH  86  90
ENDBRANCH  59  83
BRANCH  71  94
ATOM     94  C   UNL     1      -2.894  16.884   2.089  1.00  0.00     0.023 A 
ATOM     95  C   UNL     1      -4.106  16.199   2.306  1.00  0.00     0.031 A 
ATOM     96  C   UNL     1      -2.906  18.288   2.132  1.00  0.00     0.131 A 
ATOM     97  C   UNL     1      -5.289  16.920   2.505  1.00  0.00     0.055 A 
ATOM     98  C   UNL     1      -4.080  19.001   2.379  1.00  0.00     0.041 A 
ATOM     99  F   UNL     1      -1.779  18.985   1.920  1.00  0.00    -0.206 F 
ATOM    100  C   UNL     1      -5.282  18.318   2.551  1.00  0.00     0.022 A 
BRANCH  97 101
ATOM    101  S   UNL     1      -6.890  16.075   2.633  1.00  0.00     0.124 S 
ATOM    102  O   UNL     1      -7.393  16.570   3.913  1.00  0.00    -0.237 OA
ATOM    103  O   UNL     1      -7.593  16.570   1.453  1.00  0.00    -0.237 OA
ATOM    104  O   UNL     1      -6.543  14.658   2.611  1.00  0.00    -0.744 OA
ENDBRANCH  97 101
ENDBRANCH  71  94
ENDBRANCH  45  46
ENDBRANCH  38  40
ENDBRANCH  37  38
ENDBRANCH  36  37
ENDBRANCH  35  36
ENDBRANCH  34  35
ENDBRANCH   1  34
TORSDOF 21
