REMARK SMILES Cc1cc(C(=O)N[C@H]2CCCCC[C@H]2C(=O)OCCOCCOCCOC(=O)c2ccc(-c3c4nc(c(-c5cc(S(=O)(=O)[O-])ccc5F)c5ccc([nH]5)c(-c5cc(S(=O)(=O)[O-])ccc5F)c5nc(c(-c6cc(S(=O)(=O)[O-])ccc6F)c6ccc3[nH]6)C=C5)C=C4)cc2)n(C)n1
REMARK SMILES IDX 21 1 20 2 19 3 18 4 17 5 15 6 16 7 14 8 8 9 7 10 5 11 6 12
REMARK SMILES IDX 4 14 1 15 2 16 3 17 94 18 92 19 93 20 9 21 10 22 11 23 13 25
REMARK SMILES IDX 12 26 22 28 23 29 24 30 25 31 26 32 27 33 28 34 29 35 30 36
REMARK SMILES IDX 91 37 31 38 90 39 32 40 33 41 34 42 84 43 35 44 89 45 83 46
REMARK SMILES IDX 85 47 36 48 88 49 82 50 81 51 37 53 69 54 49 55 68 56 50 57
REMARK SMILES IDX 53 58 67 59 86 60 51 61 52 62 66 64 87 65 54 66 38 67 39 68
REMARK SMILES IDX 47 69 40 70 46 71 48 72 45 73 41 74 42 75 43 76 44 77 70 78
REMARK SMILES IDX 71 79 79 80 72 81 78 82 80 83 77 84 73 85 74 86 75 87 76 88
REMARK SMILES IDX 55 89 56 90 64 91 57 92 63 93 65 94 62 95 58 96 59 97 60 98
REMARK SMILES IDX 61 99
REMARK H PARENT 7 13 85 52 53 63
REMARK Flexibility Score: 90.00
ROOT
ATOM      1  C   UNL     1      -3.615  -3.772  -2.652  1.00  0.00     0.188 C 
ENDROOT
BRANCH   1   2
ATOM      2  O   UNL     1      -4.964  -3.797  -2.184  1.00  0.00    -0.376 OA
BRANCH   2   3
ATOM      3  C   UNL     1      -5.399  -5.048  -1.672  1.00  0.00     0.202 C 
BRANCH   3   4
ATOM      4  C   UNL     1      -4.842  -5.369  -0.286  1.00  0.00     0.261 C 
BRANCH   4   5
ATOM      5  O   UNL     1      -3.403  -5.464  -0.249  1.00  0.00    -0.463 OA
BRANCH   5   6
ATOM      6  C   UNL     1      -2.898  -6.543   0.392  1.00  0.00     0.311 C 
ATOM      7  O   UNL     1      -3.549  -7.548   0.662  1.00  0.00    -0.252 OA
BRANCH   6   8
ATOM      8  C   UNL     1      -1.477  -6.350   0.911  1.00  0.00     0.121 C 
BRANCH   8   9
ATOM      9  C   UNL     1      -0.620  -5.144   0.483  1.00  0.00     0.096 C 
BRANCH   9  10
ATOM     10  N   UNL     1      -0.504  -4.788  -0.943  1.00  0.00    -0.347 N 
ATOM     11  C   UNL     1      -0.495  -5.434  -2.148  1.00  0.00     0.269 C 
ATOM     12  O   UNL     1      -0.317  -4.711  -3.127  1.00  0.00    -0.268 OA
ATOM     13  H   UNL     1      -0.406  -3.816  -1.060  1.00  0.00     0.164 HD
BRANCH  11  14
ATOM     14  C   UNL     1      -0.816  -6.817  -2.274  1.00  0.00     0.126 A 
ATOM     15  C   UNL     1      -1.504 -10.200  -1.137  1.00  0.00     0.069 C 
ATOM     16  C   UNL     1      -1.297  -8.933  -1.874  1.00  0.00     0.060 A 
ATOM     17  C   UNL     1      -0.333  -7.933  -1.620  1.00  0.00     0.059 A 
ATOM     18  N   UNL     1      -2.134  -8.564  -2.848  1.00  0.00    -0.178 NA
ATOM     19  N   UNL     1      -1.696  -7.338  -3.195  1.00  0.00    -0.263 N 
ATOM     20  C   UNL     1      -2.276  -6.720  -4.364  1.00  0.00     0.174 C 
ENDBRANCH  11  14
ENDBRANCH   9  10
BRANCH   9  21
ATOM     21  C   UNL     1      -0.807  -3.849   1.328  1.00  0.00     0.026 C 
BRANCH  21  22
ATOM     22  C   UNL     1      -2.157  -3.592   2.000  1.00  0.00     0.002 C 
BRANCH  22  23
ATOM     23  C   UNL     1      -2.355  -4.332   3.319  1.00  0.00     0.000 CG0
ATOM     24  G   UNL     1      -2.515  -5.841   3.233  1.00  0.00     0.000 G0
ENDBRANCH  22  23
ENDBRANCH  21  22
ENDBRANCH   9  21
ENDBRANCH   8   9
BRANCH   8  25
ATOM     25  C   UNL     1      -1.439  -6.568   2.437  1.00  0.00     0.017 C 
BRANCH  25  26
ATOM     26  C   UNL     1      -2.515  -5.841   3.233  1.00  0.00     0.001 CG0
ATOM     27  G   UNL     1      -2.355  -4.332   3.319  1.00  0.00     0.000 G0
ENDBRANCH  25  26
ENDBRANCH   8  25
ENDBRANCH   6   8
ENDBRANCH   5   6
ENDBRANCH   4   5
ENDBRANCH   3   4
ENDBRANCH   2   3
ENDBRANCH   1   2
BRANCH   1  28
ATOM     28  C   UNL     1      -2.859  -2.640  -1.951  1.00  0.00     0.188 C 
BRANCH  28  29
ATOM     29  O   UNL     1      -3.508  -1.367  -1.911  1.00  0.00    -0.376 OA
BRANCH  29  30
ATOM     30  C   UNL     1      -4.242  -0.977  -3.066  1.00  0.00     0.202 C 
BRANCH  30  31
ATOM     31  C   UNL     1      -3.397  -0.469  -4.234  1.00  0.00     0.261 C 
BRANCH  31  32
ATOM     32  O   UNL     1      -2.559  -1.484  -4.817  1.00  0.00    -0.460 OA
BRANCH  32  33
ATOM     33  C   UNL     1      -1.223  -1.306  -4.639  1.00  0.00     0.338 C 
ATOM     34  O   UNL     1      -0.702  -0.424  -3.973  1.00  0.00    -0.246 OA
BRANCH  33  35
ATOM     35  C   UNL     1      -0.437  -2.372  -5.312  1.00  0.00     0.060 A 
ATOM     36  C   UNL     1       0.831  -2.667  -4.795  1.00  0.00     0.016 A 
ATOM     37  C   UNL     1      -0.896  -3.056  -6.444  1.00  0.00     0.016 A 
ATOM     38  C   UNL     1       1.624  -3.659  -5.379  1.00  0.00     0.010 A 
ATOM     39  C   UNL     1      -0.082  -4.023  -7.054  1.00  0.00     0.010 A 
ATOM     40  C   UNL     1       1.185  -4.329  -6.528  1.00  0.00    -0.014 A 
BRANCH  40  41
ATOM     41  C   UNL     1       2.117  -5.226  -7.262  1.00  0.00     0.031 A 
ATOM     42  C   UNL     1       3.172  -4.606  -8.136  1.00  0.00     0.074 A 
ATOM     43  C   UNL     1       2.032  -6.567  -7.165  1.00  0.00     0.049 A 
ATOM     44  N   UNL     1       4.073  -5.183  -8.888  1.00  0.00    -0.248 NA
ATOM     45  C   UNL     1       3.224  -3.135  -8.153  1.00  0.00     0.031 C 
ATOM     46  C   UNL     1       1.105  -7.293  -6.302  1.00  0.00     0.029 A 
ATOM     47  N   UNL     1       2.731  -7.559  -7.813  1.00  0.00    -0.354 N 
ATOM     48  C   UNL     1       4.813  -4.150  -9.450  1.00  0.00     0.074 A 
ATOM     49  C   UNL     1       4.242  -2.911  -8.968  1.00  0.00     0.031 C 
ATOM     50  C   UNL     1       1.259  -8.615  -6.506  1.00  0.00     0.029 A 
ATOM     51  C   UNL     1       2.281  -8.829  -7.532  1.00  0.00     0.049 A 
ATOM     52  H   UNL     1       3.484  -7.377  -8.421  1.00  0.00     0.167 HD
ATOM     53  C   UNL     1       5.867  -4.225 -10.297  1.00  0.00     0.034 A 
ATOM     54  C   UNL     1       2.631 -10.020  -8.065  1.00  0.00     0.034 A 
ATOM     55  C   UNL     1       6.388  -5.456 -10.832  1.00  0.00     0.049 A 
ATOM     56  C   UNL     1       3.708 -10.064  -9.129  1.00  0.00     0.074 A 
ATOM     57  C   UNL     1       7.452  -5.637 -11.698  1.00  0.00     0.029 A 
ATOM     58  N   UNL     1       5.857  -6.715 -10.586  1.00  0.00    -0.354 N 
ATOM     59  N   UNL     1       4.430  -9.082  -9.618  1.00  0.00    -0.248 NA
ATOM     60  C   UNL     1       4.017 -11.378  -9.713  1.00  0.00     0.031 C 
ATOM     61  C   UNL     1       7.512  -6.992 -12.041  1.00  0.00     0.029 A 
ATOM     62  C   UNL     1       6.536  -7.670 -11.328  1.00  0.00     0.049 A 
ATOM     63  H   UNL     1       5.109  -6.902  -9.975  1.00  0.00     0.167 HD
ATOM     64  C   UNL     1       5.293  -9.666 -10.544  1.00  0.00     0.074 A 
ATOM     65  C   UNL     1       5.012 -11.085 -10.537  1.00  0.00     0.031 C 
ATOM     66  C   UNL     1       6.237  -9.083 -11.326  1.00  0.00     0.034 A 
BRANCH  53  67
ATOM     67  C   UNL     1       6.466  -2.921 -10.756  1.00  0.00     0.023 A 
ATOM     68  C   UNL     1       7.146  -2.069  -9.868  1.00  0.00     0.031 A 
ATOM     69  C   UNL     1       6.313  -2.505 -12.089  1.00  0.00     0.131 A 
ATOM     70  C   UNL     1       7.595  -0.817 -10.311  1.00  0.00     0.055 A 
ATOM     71  C   UNL     1       6.822  -1.287 -12.541  1.00  0.00     0.041 A 
ATOM     72  F   UNL     1       5.648  -3.269 -12.970  1.00  0.00    -0.206 F 
ATOM     73  C   UNL     1       7.456  -0.429 -11.647  1.00  0.00     0.022 A 
BRANCH  70  74
ATOM     74  S   UNL     1       8.247   0.355  -9.090  1.00  0.00     0.124 S 
ATOM     75  O   UNL     1       7.109   0.505  -8.186  1.00  0.00    -0.237 OA
ATOM     76  O   UNL     1       9.400  -0.358  -8.552  1.00  0.00    -0.237 OA
ATOM     77  O   UNL     1       8.561   1.540  -9.885  1.00  0.00    -0.744 OA
ENDBRANCH  70  74
ENDBRANCH  53  67
BRANCH  54  78
ATOM     78  C   UNL     1       1.911 -11.273  -7.682  1.00  0.00     0.023 A 
ATOM     79  C   UNL     1       2.586 -12.356  -7.095  1.00  0.00     0.031 A 
ATOM     80  C   UNL     1       0.551 -11.441  -8.000  1.00  0.00     0.131 A 
ATOM     81  C   UNL     1       1.915 -13.575  -6.896  1.00  0.00     0.055 A 
ATOM     82  C   UNL     1      -0.126 -12.636  -7.749  1.00  0.00     0.041 A 
ATOM     83  F   UNL     1      -0.141 -10.444  -8.575  1.00  0.00    -0.206 F 
ATOM     84  C   UNL     1       0.562 -13.718  -7.208  1.00  0.00     0.022 A 
BRANCH  81  85
ATOM     85  S   UNL     1       2.867 -15.011  -6.324  1.00  0.00     0.124 S 
ATOM     86  O   UNL     1       3.890 -15.120  -7.358  1.00  0.00    -0.237 OA
ATOM     87  O   UNL     1       3.325 -14.568  -5.012  1.00  0.00    -0.237 OA
ATOM     88  O   UNL     1       1.881 -16.089  -6.306  1.00  0.00    -0.744 OA
ENDBRANCH  81  85
ENDBRANCH  54  78
BRANCH  66  89
ATOM     89  C   UNL     1       7.059  -9.984 -12.216  1.00  0.00     0.023 A 
ATOM     90  C   UNL     1       6.498 -10.647 -13.322  1.00  0.00     0.031 A 
ATOM     91  C   UNL     1       8.431 -10.165 -11.964  1.00  0.00     0.131 A 
ATOM     92  C   UNL     1       7.297 -11.488 -14.113  1.00  0.00     0.055 A 
ATOM     93  C   UNL     1       9.232 -10.960 -12.785  1.00  0.00     0.041 A 
ATOM     94  F   UNL     1       9.020  -9.557 -10.921  1.00  0.00    -0.206 F 
ATOM     95  C   UNL     1       8.664 -11.634 -13.861  1.00  0.00     0.022 A 
BRANCH  92  96
ATOM     96  S   UNL     1       6.516 -12.438 -15.446  1.00  0.00     0.124 S 
ATOM     97  O   UNL     1       5.557 -13.259 -14.713  1.00  0.00    -0.237 OA
ATOM     98  O   UNL     1       5.946 -11.390 -16.287  1.00  0.00    -0.237 OA
ATOM     99  O   UNL     1       7.630 -13.172 -16.044  1.00  0.00    -0.744 OA
ENDBRANCH  92  96
ENDBRANCH  66  89
ENDBRANCH  40  41
ENDBRANCH  33  35
ENDBRANCH  32  33
ENDBRANCH  31  32
ENDBRANCH  30  31
ENDBRANCH  29  30
ENDBRANCH  28  29
ENDBRANCH   1  28
TORSDOF 22
