REMARK SMILES CC(C)C[C@H](NC(=O)[C@H]1CCCCC[C@H]1[NH3+])C(=O)OCCOCCOCCOC(=O)c1ccc(-c2c3nc(c(-c4cc(S(=O)(=O)[O-])ccc4F)c4ccc([nH]4)c(-c4cc(S(=O)(=O)[O-])ccc4F)c4nc(c(-c5cc(S(=O)(=O)[O-])ccc5F)c5ccc2[nH]5)C=C4)C=C3)cc1
REMARK SMILES IDX 22 1 21 2 20 3 19 4 17 5 18 6 5 7 4 8 2 9 1 10 3 11 6 12
REMARK SMILES IDX 7 13 8 15 9 16 10 17 11 18 15 20 14 21 13 22 12 23 16 25
REMARK SMILES IDX 23 29 24 30 25 31 26 32 27 33 28 34 29 35 30 36 31 37 32 38
REMARK SMILES IDX 93 39 33 40 92 41 34 42 35 43 36 44 86 45 37 46 91 47 85 48
REMARK SMILES IDX 87 49 38 50 90 51 84 52 83 53 39 55 71 56 51 57 70 58 52 59
REMARK SMILES IDX 55 60 69 61 88 62 53 63 54 64 68 66 89 67 56 68 40 69 41 70
REMARK SMILES IDX 49 71 42 72 48 73 50 74 47 75 43 76 44 77 45 78 46 79 72 80
REMARK SMILES IDX 73 81 81 82 74 83 80 84 82 85 79 86 75 87 76 88 77 89 78 90
REMARK SMILES IDX 57 91 58 92 66 93 59 94 65 95 67 96 64 97 60 98 61 99 62 100
REMARK SMILES IDX 63 101
REMARK H PARENT 6 14 16 26 16 27 16 28 87 54 55 65
REMARK Flexibility Score: 90.00
ROOT
ATOM      1  O   UNL     1      -3.291   6.479  -1.219  1.00  0.00    -0.376 OA
ENDROOT
BRANCH   1   2
ATOM      2  C   UNL     1      -3.151   4.726  -1.531  1.00  0.00     0.202 C 
BRANCH   2   3
ATOM      3  C   UNL     1      -4.180   3.368  -0.647  1.00  0.00     0.261 C 
BRANCH   3   4
ATOM      4  O   UNL     1      -5.033   3.693   1.109  1.00  0.00    -0.462 OA
BRANCH   4   5
ATOM      5  C   UNL     1      -5.002   4.093   2.530  1.00  0.00     0.328 C 
ATOM      6  O   UNL     1      -4.048   4.603   3.135  1.00  0.00    -0.250 OA
BRANCH   5   7
ATOM      7  C   UNL     1      -6.269   3.901   3.364  1.00  0.00     0.192 C 
BRANCH   7   8
ATOM      8  C   UNL     1      -5.899   3.165   4.681  1.00  0.00     0.040 C 
BRANCH   8   9
ATOM      9  C   UNL     1      -6.849   2.155   5.370  1.00  0.00    -0.015 C 
ATOM     10  C   UNL     1      -7.370   0.977   4.547  1.00  0.00     0.007 C 
ATOM     11  C   UNL     1      -6.099   1.553   6.564  1.00  0.00     0.007 C 
ENDBRANCH   8   9
ENDBRANCH   7   8
BRANCH   7  12
ATOM     12  N   UNL     1      -7.436   3.424   2.721  1.00  0.00    -0.342 N 
ATOM     13  C   UNL     1      -7.462   2.309   1.955  1.00  0.00     0.229 C 
ATOM     14  H   UNL     1      -8.272   3.931   2.836  1.00  0.00     0.164 HD
ATOM     15  O   UNL     1      -8.512   1.655   1.955  1.00  0.00    -0.275 OA
BRANCH  13  16
ATOM     16  C   UNL     1      -6.431   2.133   0.844  1.00  0.00     0.136 C 
BRANCH  16  17
ATOM     17  C   UNL     1      -7.512   3.228  -0.252  1.00  0.00     0.020 C 
BRANCH  17  18
ATOM     18  C   UNL     1      -7.332   5.134  -0.768  1.00  0.00     0.001 CG0
ATOM     19  G   UNL     1      -5.314   5.729  -1.111  1.00  0.00     0.000 G0
ENDBRANCH  17  18
ENDBRANCH  16  17
BRANCH  16  20
ATOM     20  C   UNL     1      -4.523   1.868   1.218  1.00  0.00     0.193 C 
BRANCH  20  21
ATOM     21  C   UNL     1      -3.171   3.340   1.123  1.00  0.00     0.066 C 
BRANCH  21  22
ATOM     22  C   UNL     1      -3.858   5.103   0.377  1.00  0.00     0.006 C 
BRANCH  22  23
ATOM     23  C   UNL     1      -5.314   5.729  -1.111  1.00  0.00     0.000 CG0
ATOM     24  G   UNL     1      -7.332   5.134  -0.768  1.00  0.00     0.000 G0
ENDBRANCH  22  23
ENDBRANCH  21  22
ENDBRANCH  20  21
BRANCH  20  25
ATOM     25  N   UNL     1      -4.229   1.086   2.430  1.00  0.00    -0.354 N 
ATOM     26  H   UNL     1      -4.399   1.661   3.255  1.00  0.00     0.344 HD
ATOM     27  H   UNL     1      -3.253   0.791   2.416  1.00  0.00     0.344 HD
ATOM     28  H   UNL     1      -4.833   0.264   2.459  1.00  0.00     0.344 HD
ENDBRANCH  20  25
ENDBRANCH  16  20
ENDBRANCH  13  16
ENDBRANCH   7  12
ENDBRANCH   5   7
ENDBRANCH   4   5
ENDBRANCH   3   4
ENDBRANCH   2   3
ENDBRANCH   1   2
BRANCH   1  29
ATOM     29  C   UNL     1      -4.306   7.160   0.097  1.00  0.00     0.188 C 
BRANCH  29  30
ATOM     30  C   UNL     1      -5.804   6.015   0.652  1.00  0.00     0.188 C 
BRANCH  30  31
ATOM     31  O   UNL     1      -5.885   4.332  -0.349  1.00  0.00    -0.376 OA
BRANCH  31  32
ATOM     32  C   UNL     1      -6.160   4.162  -2.232  1.00  0.00     0.202 C 
BRANCH  32  33
ATOM     33  C   UNL     1      -6.886   5.406  -3.274  1.00  0.00     0.261 C 
BRANCH  33  34
ATOM     34  O   UNL     1      -6.968   6.829  -2.820  1.00  0.00    -0.460 OA
BRANCH  34  35
ATOM     35  C   UNL     1      -8.107   7.384  -2.278  1.00  0.00     0.338 C 
ATOM     36  O   UNL     1      -9.230   6.910  -2.363  1.00  0.00    -0.246 OA
BRANCH  35  37
ATOM     37  C   UNL     1      -7.784   8.519  -1.327  1.00  0.00     0.060 A 
ATOM     38  C   UNL     1      -8.178   8.463   0.029  1.00  0.00     0.016 A 
ATOM     39  C   UNL     1      -7.100   9.655  -1.752  1.00  0.00     0.016 A 
ATOM     40  C   UNL     1      -7.825   9.476   0.952  1.00  0.00     0.010 A 
ATOM     41  C   UNL     1      -6.814  10.705  -0.845  1.00  0.00     0.010 A 
ATOM     42  C   UNL     1      -7.166  10.632   0.519  1.00  0.00    -0.014 A 
BRANCH  42  43
ATOM     43  C   UNL     1      -7.049  11.835   1.416  1.00  0.00     0.031 A 
ATOM     44  C   UNL     1      -8.125  12.897   1.326  1.00  0.00     0.074 A 
ATOM     45  C   UNL     1      -6.049  12.012   2.307  1.00  0.00     0.049 A 
ATOM     46  N   UNL     1      -8.213  14.058   1.926  1.00  0.00    -0.248 NA
ATOM     47  C   UNL     1      -9.253  12.597   0.432  1.00  0.00     0.031 C 
ATOM     48  C   UNL     1      -4.970  11.064   2.573  1.00  0.00     0.029 A 
ATOM     49  N   UNL     1      -5.773  13.068   3.157  1.00  0.00    -0.354 N 
ATOM     50  C   UNL     1      -9.405  14.627   1.485  1.00  0.00     0.074 A 
ATOM     51  C   UNL     1      -9.985  13.696   0.540  1.00  0.00     0.031 C 
ATOM     52  C   UNL     1      -4.144  11.584   3.502  1.00  0.00     0.029 A 
ATOM     53  C   UNL     1      -4.603  12.924   3.876  1.00  0.00     0.049 A 
ATOM     54  H   UNL     1      -6.359  13.854   3.242  1.00  0.00     0.167 HD
ATOM     55  C   UNL     1      -9.976  15.809   1.834  1.00  0.00     0.034 A 
ATOM     56  C   UNL     1      -3.959  13.775   4.712  1.00  0.00     0.034 A 
ATOM     57  C   UNL     1      -9.397  16.754   2.759  1.00  0.00     0.049 A 
ATOM     58  C   UNL     1      -4.557  15.143   4.993  1.00  0.00     0.074 A 
ATOM     59  C   UNL     1      -9.902  17.979   3.164  1.00  0.00     0.029 A 
ATOM     60  N   UNL     1      -8.185  16.593   3.414  1.00  0.00    -0.354 N 
ATOM     61  N   UNL     1      -5.686  15.661   4.564  1.00  0.00    -0.248 NA
ATOM     62  C   UNL     1      -3.795  16.036   5.881  1.00  0.00     0.031 C 
ATOM     63  C   UNL     1      -8.960  18.592   3.996  1.00  0.00     0.029 A 
ATOM     64  C   UNL     1      -7.911  17.710   4.191  1.00  0.00     0.049 A 
ATOM     65  H   UNL     1      -7.604  15.802   3.340  1.00  0.00     0.167 HD
ATOM     66  C   UNL     1      -5.780  16.919   5.162  1.00  0.00     0.074 A 
ATOM     67  C   UNL     1      -4.614  17.069   6.002  1.00  0.00     0.031 C 
ATOM     68  C   UNL     1      -6.745  17.866   5.027  1.00  0.00     0.034 A 
BRANCH  55  69
ATOM     69  C   UNL     1     -11.285  16.173   1.174  1.00  0.00     0.023 A 
ATOM     70  C   UNL     1     -12.457  15.430   1.398  1.00  0.00     0.031 A 
ATOM     71  C   UNL     1     -11.363  17.285   0.316  1.00  0.00     0.131 A 
ATOM     72  C   UNL     1     -13.642  15.776   0.731  1.00  0.00     0.055 A 
ATOM     73  C   UNL     1     -12.564  17.672  -0.281  1.00  0.00     0.041 A 
ATOM     74  F   UNL     1     -10.272  18.018   0.046  1.00  0.00    -0.206 F 
ATOM     75  C   UNL     1     -13.711  16.908  -0.084  1.00  0.00     0.022 A 
BRANCH  72  76
ATOM     76  S   UNL     1     -15.059  14.651   0.843  1.00  0.00     0.124 S 
ATOM     77  O   UNL     1     -14.498  13.415   0.302  1.00  0.00    -0.237 OA
ATOM     78  O   UNL     1     -15.348  14.648   2.272  1.00  0.00    -0.237 OA
ATOM     79  O   UNL     1     -16.070  15.288   0.002  1.00  0.00    -0.744 OA
ENDBRANCH  72  76
ENDBRANCH  55  69
BRANCH  56  80
ATOM     80  C   UNL     1      -2.629  13.422   5.313  1.00  0.00     0.023 A 
ATOM     81  C   UNL     1      -2.426  13.418   6.706  1.00  0.00     0.031 A 
ATOM     82  C   UNL     1      -1.503  13.213   4.495  1.00  0.00     0.131 A 
ATOM     83  C   UNL     1      -1.128  13.281   7.231  1.00  0.00     0.055 A 
ATOM     84  C   UNL     1      -0.227  13.002   5.024  1.00  0.00     0.041 A 
ATOM     85  F   UNL     1      -1.623  13.229   3.158  1.00  0.00    -0.206 F 
ATOM     86  C   UNL     1      -0.031  13.054   6.399  1.00  0.00     0.022 A 
BRANCH  83  87
ATOM     87  S   UNL     1      -0.870  13.549   9.009  1.00  0.00     0.124 S 
ATOM     88  O   UNL     1      -1.402  14.895   9.185  1.00  0.00    -0.237 OA
ATOM     89  O   UNL     1      -1.655  12.467   9.595  1.00  0.00    -0.237 OA
ATOM     90  O   UNL     1       0.577  13.423   9.167  1.00  0.00    -0.744 OA
ENDBRANCH  83  87
ENDBRANCH  56  80
BRANCH  68  91
ATOM     91  C   UNL     1      -6.606  19.130   5.851  1.00  0.00     0.023 A 
ATOM     92  C   UNL     1      -5.524  20.012   5.685  1.00  0.00     0.031 A 
ATOM     93  C   UNL     1      -7.557  19.441   6.842  1.00  0.00     0.131 A 
ATOM     94  C   UNL     1      -5.373  21.111   6.546  1.00  0.00     0.055 A 
ATOM     95  C   UNL     1      -7.445  20.581   7.642  1.00  0.00     0.041 A 
ATOM     96  F   UNL     1      -8.613  18.639   7.054  1.00  0.00    -0.206 F 
ATOM     97  C   UNL     1      -6.337  21.412   7.511  1.00  0.00     0.022 A 
BRANCH  94  98
ATOM     98  S   UNL     1      -3.828  22.061   6.482  1.00  0.00     0.124 S 
ATOM     99  O   UNL     1      -2.826  21.024   6.704  1.00  0.00    -0.237 OA
ATOM    100  O   UNL     1      -3.869  22.631   5.139  1.00  0.00    -0.237 OA
ATOM    101  O   UNL     1      -3.974  23.027   7.569  1.00  0.00    -0.744 OA
ENDBRANCH  94  98
ENDBRANCH  68  91
ENDBRANCH  42  43
ENDBRANCH  35  37
ENDBRANCH  34  35
ENDBRANCH  33  34
ENDBRANCH  32  33
ENDBRANCH  31  32
ENDBRANCH  30  31
ENDBRANCH  29  30
ENDBRANCH   1  29
TORSDOF 25
