REMARK SMILES O=C(CSc1ccc(NC(=O)c2cccc3ccccc23)cc1)OCCOCCOCCOC(=O)c1ccc(-c2c3nc(c(-c4cc(S(=O)(=O)[O-])ccc4F)c4ccc([nH]4)c(-c4cc(S(=O)(=O)[O-])ccc4F)c4nc(c(-c5cc(S(=O)(=O)[O-])ccc5F)c5ccc2[nH]5)C=C4)C=C3)cc1
REMARK SMILES IDX 28 1 27 2 26 3 25 4 24 5 2 6 1 7 3 8 4 9 5 10 6 11 23 12
REMARK SMILES IDX 7 13 22 14 8 15 9 16 10 17 11 19 12 20 13 21 21 22 14 23
REMARK SMILES IDX 16 24 20 25 15 26 17 27 19 28 18 29 29 30 30 31 31 32 32 33
REMARK SMILES IDX 33 34 34 35 35 36 36 37 37 38 98 39 38 40 97 41 39 42 40 43
REMARK SMILES IDX 41 44 91 45 42 46 96 47 90 48 92 49 43 50 95 51 89 52 88 53
REMARK SMILES IDX 44 55 76 56 56 57 75 58 57 59 60 60 74 61 93 62 58 63 59 64
REMARK SMILES IDX 73 66 94 67 61 68 45 69 46 70 54 71 47 72 53 73 55 74 52 75
REMARK SMILES IDX 48 76 49 77 50 78 51 79 77 80 78 81 86 82 79 83 85 84 87 85
REMARK SMILES IDX 84 86 80 87 81 88 82 89 83 90 62 91 63 92 71 93 64 94 70 95
REMARK SMILES IDX 72 96 69 97 65 98 66 99 67 100 68 101
REMARK H PARENT 9 18 92 54 60 65
REMARK Flexibility Score: inf
ROOT
ATOM      1  C   UNL     1       2.907   1.754  -0.141  1.00  0.00     0.188 C 
ENDROOT
BRANCH   1   2
ATOM      2  O   UNL     1       4.184   1.690   0.483  1.00  0.00    -0.376 OA
BRANCH   2   3
ATOM      3  C   UNL     1       5.153   0.741   0.035  1.00  0.00     0.202 C 
BRANCH   3   4
ATOM      4  C   UNL     1       4.778  -0.353  -0.970  1.00  0.00     0.261 C 
BRANCH   4   5
ATOM      5  O   UNL     1       3.937  -1.435  -0.531  1.00  0.00    -0.463 OA
BRANCH   5   6
ATOM      6  C   UNL     1       2.989  -1.236   0.414  1.00  0.00     0.316 C 
ATOM      7  O   UNL     1       1.821  -1.004   0.119  1.00  0.00    -0.251 OA
BRANCH   6   8
ATOM      8  C   UNL     1       3.468  -1.417   1.840  1.00  0.00     0.197 C 
BRANCH   8   9
ATOM      9  S   UNL     1       4.339  -3.004   2.082  1.00  0.00    -0.114 SA
BRANCH   9  10
ATOM     10  C   UNL     1       3.145  -4.141   1.397  1.00  0.00     0.008 A 
ATOM     11  C   UNL     1       1.766  -3.951   1.526  1.00  0.00     0.017 A 
ATOM     12  C   UNL     1       3.606  -5.231   0.658  1.00  0.00     0.017 A 
ATOM     13  C   UNL     1       0.863  -4.747   0.820  1.00  0.00     0.027 A 
ATOM     14  C   UNL     1       2.700  -6.052  -0.019  1.00  0.00     0.027 A 
ATOM     15  C   UNL     1       1.329  -5.767   0.000  1.00  0.00     0.041 A 
BRANCH  15  16
ATOM     16  N   UNL     1       0.514  -6.536  -0.839  1.00  0.00    -0.322 N 
ATOM     17  C   UNL     1      -0.743  -6.340  -1.355  1.00  0.00     0.256 C 
ATOM     18  H   UNL     1       0.925  -7.388  -1.113  1.00  0.00     0.170 HD
ATOM     19  O   UNL     1      -1.265  -7.262  -1.987  1.00  0.00    -0.269 OA
BRANCH  17  20
ATOM     20  C   UNL     1      -1.499  -5.070  -1.255  1.00  0.00     0.048 A 
ATOM     21  C   UNL     1      -2.779  -5.191  -0.689  1.00  0.00     0.014 A 
ATOM     22  C   UNL     1      -1.069  -3.840  -1.833  1.00  0.00    -0.006 A 
ATOM     23  C   UNL     1      -3.651  -4.110  -0.682  1.00  0.00     0.001 A 
ATOM     24  C   UNL     1      -1.984  -2.754  -1.829  1.00  0.00    -0.018 A 
ATOM     25  C   UNL     1       0.200  -3.611  -2.422  1.00  0.00     0.009 A 
ATOM     26  C   UNL     1      -3.258  -2.905  -1.259  1.00  0.00     0.009 A 
ATOM     27  C   UNL     1      -1.627  -1.522  -2.400  1.00  0.00     0.009 A 
ATOM     28  C   UNL     1       0.555  -2.366  -2.951  1.00  0.00     0.001 A 
ATOM     29  C   UNL     1      -0.362  -1.324  -2.950  1.00  0.00     0.001 A 
ENDBRANCH  17  20
ENDBRANCH  15  16
ENDBRANCH   9  10
ENDBRANCH   8   9
ENDBRANCH   6   8
ENDBRANCH   5   6
ENDBRANCH   4   5
ENDBRANCH   3   4
ENDBRANCH   2   3
ENDBRANCH   1   2
BRANCH   1  30
ATOM     30  C   UNL     1       2.351   3.170  -0.309  1.00  0.00     0.188 C 
BRANCH  30  31
ATOM     31  O   UNL     1       3.106   4.035  -1.149  1.00  0.00    -0.376 OA
BRANCH  31  32
ATOM     32  C   UNL     1       4.421   4.369  -0.707  1.00  0.00     0.202 C 
BRANCH  32  33
ATOM     33  C   UNL     1       4.548   5.128   0.625  1.00  0.00     0.261 C 
BRANCH  33  34
ATOM     34  O   UNL     1       4.178   4.354   1.787  1.00  0.00    -0.460 OA
BRANCH  34  35
ATOM     35  C   UNL     1       3.162   4.869   2.520  1.00  0.00     0.338 C 
ATOM     36  O   UNL     1       2.547   5.905   2.291  1.00  0.00    -0.246 OA
BRANCH  35  37
ATOM     37  C   UNL     1       2.771   3.969   3.621  1.00  0.00     0.060 A 
ATOM     38  C   UNL     1       1.505   3.370   3.581  1.00  0.00     0.016 A 
ATOM     39  C   UNL     1       3.547   3.899   4.780  1.00  0.00     0.016 A 
ATOM     40  C   UNL     1       0.986   2.749   4.721  1.00  0.00     0.010 A 
ATOM     41  C   UNL     1       3.021   3.281   5.923  1.00  0.00     0.010 A 
ATOM     42  C   UNL     1       1.719   2.745   5.916  1.00  0.00    -0.014 A 
BRANCH  42  43
ATOM     43  C   UNL     1       1.058   2.365   7.195  1.00  0.00     0.031 A 
ATOM     44  C   UNL     1       0.544   3.456   8.102  1.00  0.00     0.074 A 
ATOM     45  C   UNL     1       0.895   1.077   7.547  1.00  0.00     0.049 A 
ATOM     46  N   UNL     1      -0.009   3.366   9.285  1.00  0.00    -0.248 NA
ATOM     47  C   UNL     1       0.679   4.832   7.603  1.00  0.00     0.031 C 
ATOM     48  C   UNL     1       1.297  -0.076   6.743  1.00  0.00     0.029 A 
ATOM     49  N   UNL     1       0.353   0.523   8.682  1.00  0.00    -0.354 N 
ATOM     50  C   UNL     1      -0.286   4.673   9.676  1.00  0.00     0.074 A 
ATOM     51  C   UNL     1       0.198   5.535   8.617  1.00  0.00     0.031 C 
ATOM     52  C   UNL     1       0.998  -1.201   7.416  1.00  0.00     0.029 A 
ATOM     53  C   UNL     1       0.418  -0.850   8.713  1.00  0.00     0.049 A 
ATOM     54  H   UNL     1      -0.045   1.060   9.405  1.00  0.00     0.167 HD
ATOM     55  C   UNL     1      -0.894   5.116  10.806  1.00  0.00     0.034 A 
ATOM     56  C   UNL     1       0.075  -1.721   9.684  1.00  0.00     0.034 A 
ATOM     57  C   UNL     1      -1.362   4.253  11.864  1.00  0.00     0.049 A 
ATOM     58  C   UNL     1      -0.509  -1.201  10.978  1.00  0.00     0.074 A 
ATOM     59  C   UNL     1      -2.000   4.602  13.043  1.00  0.00     0.029 A 
ATOM     60  N   UNL     1      -1.231   2.871  11.882  1.00  0.00    -0.354 N 
ATOM     61  N   UNL     1      -0.768   0.036  11.333  1.00  0.00    -0.248 NA
ATOM     62  C   UNL     1      -0.854  -2.201  11.998  1.00  0.00     0.031 C 
ATOM     63  C   UNL     1      -2.191   3.441  13.802  1.00  0.00     0.029 A 
ATOM     64  C   UNL     1      -1.744   2.357  13.064  1.00  0.00     0.049 A 
ATOM     65  H   UNL     1      -0.833   2.333  11.160  1.00  0.00     0.167 HD
ATOM     66  C   UNL     1      -1.340  -0.044  12.602  1.00  0.00     0.074 A 
ATOM     67  C   UNL     1      -1.394  -1.449  12.945  1.00  0.00     0.031 C 
ATOM     68  C   UNL     1      -1.787   0.954  13.407  1.00  0.00     0.034 A 
BRANCH  55  69
ATOM     69  C   UNL     1      -1.034   6.611  10.972  1.00  0.00     0.023 A 
ATOM     70  C   UNL     1      -1.825   7.382  10.103  1.00  0.00     0.031 A 
ATOM     71  C   UNL     1      -0.336   7.279  11.994  1.00  0.00     0.131 A 
ATOM     72  C   UNL     1      -1.839   8.780  10.223  1.00  0.00     0.055 A 
ATOM     73  C   UNL     1      -0.417   8.664  12.158  1.00  0.00     0.041 A 
ATOM     74  F   UNL     1       0.452   6.599  12.842  1.00  0.00    -0.206 F 
ATOM     75  C   UNL     1      -1.159   9.425  11.260  1.00  0.00     0.022 A 
BRANCH  72  76
ATOM     76  S   UNL     1      -2.635   9.756   8.917  1.00  0.00     0.124 S 
ATOM     77  O   UNL     1      -1.905   9.314   7.732  1.00  0.00    -0.237 OA
ATOM     78  O   UNL     1      -4.026   9.328   9.008  1.00  0.00    -0.237 OA
ATOM     79  O   UNL     1      -2.380  11.138   9.318  1.00  0.00    -0.744 OA
ENDBRANCH  72  76
ENDBRANCH  55  69
BRANCH  56  80
ATOM     80  C   UNL     1       0.308  -3.183   9.505  1.00  0.00     0.023 A 
ATOM     81  C   UNL     1      -0.763  -4.090   9.475  1.00  0.00     0.031 A 
ATOM     82  C   UNL     1       1.613  -3.701   9.432  1.00  0.00     0.131 A 
ATOM     83  C   UNL     1      -0.509  -5.470   9.425  1.00  0.00     0.055 A 
ATOM     84  C   UNL     1       1.859  -5.071   9.329  1.00  0.00     0.041 A 
ATOM     85  F   UNL     1       2.673  -2.877   9.459  1.00  0.00    -0.206 F 
ATOM     86  C   UNL     1       0.794  -5.965   9.339  1.00  0.00     0.022 A 
BRANCH  83  87
ATOM     87  S   UNL     1      -1.909  -6.616   9.561  1.00  0.00     0.124 S 
ATOM     88  O   UNL     1      -2.467  -6.250  10.857  1.00  0.00    -0.237 OA
ATOM     89  O   UNL     1      -2.708  -6.257   8.393  1.00  0.00    -0.237 OA
ATOM     90  O   UNL     1      -1.278  -7.932   9.500  1.00  0.00    -0.744 OA
ENDBRANCH  83  87
ENDBRANCH  56  80
BRANCH  68  91
ATOM     91  C   UNL     1      -2.427   0.552  14.716  1.00  0.00     0.023 A 
ATOM     92  C   UNL     1      -1.691  -0.050  15.752  1.00  0.00     0.031 A 
ATOM     93  C   UNL     1      -3.803   0.762  14.921  1.00  0.00     0.131 A 
ATOM     94  C   UNL     1      -2.344  -0.472  16.922  1.00  0.00     0.055 A 
ATOM     95  C   UNL     1      -4.436   0.393  16.109  1.00  0.00     0.041 A 
ATOM     96  F   UNL     1      -4.558   1.331  13.967  1.00  0.00    -0.206 F 
ATOM     97  C   UNL     1      -3.709  -0.241  17.113  1.00  0.00     0.022 A 
BRANCH  94  98
ATOM     98  S   UNL     1      -1.405  -1.415  18.155  1.00  0.00     0.124 S 
ATOM     99  O   UNL     1      -0.922  -2.546  17.371  1.00  0.00    -0.237 OA
ATOM    100  O   UNL     1      -0.392  -0.453  18.578  1.00  0.00    -0.237 OA
ATOM    101  O   UNL     1      -2.405  -1.745  19.169  1.00  0.00    -0.744 OA
ENDBRANCH  94  98
ENDBRANCH  68  91
ENDBRANCH  42  43
ENDBRANCH  35  37
ENDBRANCH  34  35
ENDBRANCH  33  34
ENDBRANCH  32  33
ENDBRANCH  31  32
ENDBRANCH  30  31
ENDBRANCH   1  30
TORSDOF 24
