REMARK SMILES O=C(/C=C/c1ccc(NC(=O)c2cc(C(F)(F)F)cc(C(F)(F)F)c2)cc1)OCCOCCOCCOC(=O)c1ccc(-c2c3nc(c(-c4cc(S(=O)(=O)[O-])ccc4F)c4ccc([nH]4)c(-c4cc(S(=O)(=O)[O-])ccc4F)c4nc(c(-c5cc(S(=O)(=O)[O-])ccc5F)c5ccc2[nH]5)C=C4)C=C3)cc1
REMARK SMILES IDX 32 1 31 2 30 3 29 4 28 5 2 6 1 7 3 8 4 9 5 10 6 11 27 12
REMARK SMILES IDX 7 13 26 14 8 15 9 16 10 17 11 19 12 20 13 21 25 22 14 23
REMARK SMILES IDX 20 24 19 25 15 26 16 27 17 28 18 29 21 30 22 31 23 32 24 33
REMARK SMILES IDX 33 34 34 35 35 36 36 37 37 38 38 39 39 40 40 41 41 42 102 43
REMARK SMILES IDX 42 44 101 45 43 46 44 47 45 48 95 49 46 50 100 51 94 52
REMARK SMILES IDX 96 53 47 54 99 55 93 56 92 57 48 59 80 60 60 61 79 62 61 63
REMARK SMILES IDX 64 64 78 65 97 66 62 67 63 68 77 70 98 71 65 72 49 73 50 74
REMARK SMILES IDX 58 75 51 76 57 77 59 78 56 79 52 80 53 81 54 82 55 83 81 84
REMARK SMILES IDX 82 85 90 86 83 87 89 88 91 89 88 90 84 91 85 92 86 93 87 94
REMARK SMILES IDX 66 95 67 96 75 97 68 98 74 99 76 100 73 101 69 102 70 103
REMARK SMILES IDX 71 104 72 105
REMARK H PARENT 9 18 96 58 64 69
REMARK Flexibility Score: inf
ROOT
ATOM      1  C   UNL     1       3.087   1.548  -0.811  1.00  0.00     0.188 C 
ENDROOT
BRANCH   1   2
ATOM      2  O   UNL     1       4.375   1.019  -0.547  1.00  0.00    -0.376 OA
BRANCH   2   3
ATOM      3  C   UNL     1       4.726  -0.295  -0.930  1.00  0.00     0.202 C 
BRANCH   3   4
ATOM      4  C   UNL     1       3.749  -1.459  -0.738  1.00  0.00     0.261 C 
BRANCH   4   5
ATOM      5  O   UNL     1       2.542  -1.147  -0.040  1.00  0.00    -0.460 OA
BRANCH   5   6
ATOM      6  C   UNL     1       2.488  -1.494   1.268  1.00  0.00     0.330 C 
ATOM      7  O   UNL     1       1.800  -2.400   1.705  1.00  0.00    -0.247 OA
BRANCH   6   8
ATOM      8  C   UNL     1       3.117  -0.472   2.118  1.00  0.00     0.094 C 
ATOM      9  C   UNL     1       4.421  -0.562   2.407  1.00  0.00     0.015 C 
BRANCH   9  10
ATOM     10  C   UNL     1       5.163   0.476   3.126  1.00  0.00    -0.025 A 
ATOM     11  C   UNL     1       6.435   0.824   2.662  1.00  0.00     0.010 A 
ATOM     12  C   UNL     1       4.682   1.087   4.285  1.00  0.00     0.010 A 
ATOM     13  C   UNL     1       7.216   1.762   3.344  1.00  0.00     0.027 A 
ATOM     14  C   UNL     1       5.460   2.039   4.958  1.00  0.00     0.027 A 
ATOM     15  C   UNL     1       6.729   2.398   4.486  1.00  0.00     0.041 A 
BRANCH  15  16
ATOM     16  N   UNL     1       7.459   3.332   5.246  1.00  0.00    -0.322 N 
ATOM     17  C   UNL     1       8.631   4.010   5.002  1.00  0.00     0.255 C 
ATOM     18  H   UNL     1       7.053   3.538   6.119  1.00  0.00     0.170 HD
ATOM     19  O   UNL     1       9.270   4.500   5.932  1.00  0.00    -0.269 OA
BRANCH  17  20
ATOM     20  C   UNL     1       9.136   4.228   3.629  1.00  0.00     0.041 A 
ATOM     21  C   UNL     1      10.499   4.027   3.379  1.00  0.00     0.027 A 
ATOM     22  C   UNL     1       8.286   4.659   2.603  1.00  0.00     0.027 A 
ATOM     23  C   UNL     1      11.017   4.195   2.086  1.00  0.00     0.057 A 
ATOM     24  C   UNL     1       8.777   4.813   1.298  1.00  0.00     0.057 A 
ATOM     25  C   UNL     1      10.143   4.578   1.053  1.00  0.00     0.026 A 
BRANCH  23  26
ATOM     26  C   UNL     1      12.484   3.948   1.826  1.00  0.00     0.416 C 
ATOM     27  F   UNL     1      13.294   4.762   2.555  1.00  0.00    -0.166 F 
ATOM     28  F   UNL     1      12.856   2.674   2.132  1.00  0.00    -0.166 F 
ATOM     29  F   UNL     1      12.841   4.133   0.524  1.00  0.00    -0.166 F 
ENDBRANCH  23  26
BRANCH  24  30
ATOM     30  C   UNL     1       7.860   5.191   0.157  1.00  0.00     0.416 C 
ATOM     31  F   UNL     1       8.280   6.309  -0.495  1.00  0.00    -0.166 F 
ATOM     32  F   UNL     1       7.797   4.211  -0.788  1.00  0.00    -0.166 F 
ATOM     33  F   UNL     1       6.577   5.433   0.536  1.00  0.00    -0.166 F 
ENDBRANCH  24  30
ENDBRANCH  17  20
ENDBRANCH  15  16
ENDBRANCH   9  10
ENDBRANCH   6   8
ENDBRANCH   5   6
ENDBRANCH   4   5
ENDBRANCH   3   4
ENDBRANCH   2   3
ENDBRANCH   1   2
BRANCH   1  34
ATOM     34  C   UNL     1       2.450   1.409  -2.200  1.00  0.00     0.188 C 
BRANCH  34  35
ATOM     35  O   UNL     1       3.265   1.321  -3.359  1.00  0.00    -0.376 OA
BRANCH  35  36
ATOM     36  C   UNL     1       4.440   2.111  -3.463  1.00  0.00     0.202 C 
BRANCH  36  37
ATOM     37  C   UNL     1       4.306   3.633  -3.494  1.00  0.00     0.261 C 
BRANCH  37  38
ATOM     38  O   UNL     1       3.887   4.187  -2.235  1.00  0.00    -0.460 OA
BRANCH  38  39
ATOM     39  C   UNL     1       2.710   4.855  -2.275  1.00  0.00     0.338 C 
ATOM     40  O   UNL     1       1.995   5.013  -3.248  1.00  0.00    -0.246 OA
BRANCH  39  41
ATOM     41  C   UNL     1       2.300   5.277  -0.920  1.00  0.00     0.060 A 
ATOM     42  C   UNL     1       0.994   4.967  -0.525  1.00  0.00     0.016 A 
ATOM     43  C   UNL     1       3.121   6.057  -0.098  1.00  0.00     0.016 A 
ATOM     44  C   UNL     1       0.479   5.494   0.657  1.00  0.00     0.010 A 
ATOM     45  C   UNL     1       2.598   6.592   1.088  1.00  0.00     0.010 A 
ATOM     46  C   UNL     1       1.260   6.350   1.447  1.00  0.00    -0.014 A 
BRANCH  46  47
ATOM     47  C   UNL     1       0.596   7.104   2.542  1.00  0.00     0.031 A 
ATOM     48  C   UNL     1       0.113   8.506   2.277  1.00  0.00     0.074 A 
ATOM     49  C   UNL     1       0.344   6.518   3.727  1.00  0.00     0.049 A 
ATOM     50  N   UNL     1      -0.568   9.312   3.052  1.00  0.00    -0.248 NA
ATOM     51  C   UNL     1       0.440   9.071   0.959  1.00  0.00     0.031 C 
ATOM     52  C   UNL     1       0.737   5.159   4.096  1.00  0.00     0.029 A 
ATOM     53  N   UNL     1      -0.315   6.990   4.834  1.00  0.00    -0.354 N 
ATOM     54  C   UNL     1      -0.772  10.471   2.309  1.00  0.00     0.074 A 
ATOM     55  C   UNL     1      -0.093  10.281   1.044  1.00  0.00     0.031 C 
ATOM     56  C   UNL     1       0.313   4.908   5.347  1.00  0.00     0.029 A 
ATOM     57  C   UNL     1      -0.366   6.091   5.873  1.00  0.00     0.049 A 
ATOM     58  H   UNL     1      -0.713   7.890   4.881  1.00  0.00     0.167 HD
ATOM     59  C   UNL     1      -1.475  11.583   2.640  1.00  0.00     0.034 A 
ATOM     60  C   UNL     1      -0.894   6.211   7.108  1.00  0.00     0.034 A 
ATOM     61  C   UNL     1      -2.124  11.778   3.914  1.00  0.00     0.049 A 
ATOM     62  C   UNL     1      -1.617   7.484   7.479  1.00  0.00     0.074 A 
ATOM     63  C   UNL     1      -2.846  12.873   4.358  1.00  0.00     0.029 A 
ATOM     64  N   UNL     1      -2.120  10.861   4.957  1.00  0.00    -0.354 N 
ATOM     65  N   UNL     1      -1.815   8.565   6.759  1.00  0.00    -0.248 NA
ATOM     66  C   UNL     1      -2.206   7.541   8.823  1.00  0.00     0.031 C 
ATOM     67  C   UNL     1      -3.227  12.642   5.685  1.00  0.00     0.029 A 
ATOM     68  C   UNL     1      -2.805  11.374   6.049  1.00  0.00     0.049 A 
ATOM     69  H   UNL     1      -1.694   9.974   4.925  1.00  0.00     0.167 HD
ATOM     70  C   UNL     1      -2.570   9.420   7.559  1.00  0.00     0.074 A 
ATOM     71  C   UNL     1      -2.813   8.718   8.802  1.00  0.00     0.031 C 
ATOM     72  C   UNL     1      -3.021  10.674   7.293  1.00  0.00     0.034 A 
BRANCH  59  73
ATOM     73  C   UNL     1      -1.539  12.687   1.612  1.00  0.00     0.023 A 
ATOM     74  C   UNL     1      -2.199  12.510   0.383  1.00  0.00     0.031 A 
ATOM     75  C   UNL     1      -0.908  13.920   1.850  1.00  0.00     0.131 A 
ATOM     76  C   UNL     1      -2.159  13.524  -0.586  1.00  0.00     0.055 A 
ATOM     77  C   UNL     1      -0.933  14.952   0.910  1.00  0.00     0.041 A 
ATOM     78  F   UNL     1      -0.244  14.138   2.996  1.00  0.00    -0.206 F 
ATOM     79  C   UNL     1      -1.550  14.753  -0.322  1.00  0.00     0.022 A 
BRANCH  76  80
ATOM     80  S   UNL     1      -2.803  13.168  -2.244  1.00  0.00     0.124 S 
ATOM     81  O   UNL     1      -1.959  12.049  -2.655  1.00  0.00    -0.237 OA
ATOM     82  O   UNL     1      -4.201  12.851  -1.978  1.00  0.00    -0.237 OA
ATOM     83  O   UNL     1      -2.574  14.413  -2.975  1.00  0.00    -0.744 OA
ENDBRANCH  76  80
ENDBRANCH  59  73
BRANCH  60  84
ATOM     84  C   UNL     1      -0.734   5.115   8.106  1.00  0.00     0.023 A 
ATOM     85  C   UNL     1      -1.840   4.417   8.614  1.00  0.00     0.031 A 
ATOM     86  C   UNL     1       0.538   4.799   8.616  1.00  0.00     0.131 A 
ATOM     87  C   UNL     1      -1.660   3.474   9.639  1.00  0.00     0.055 A 
ATOM     88  C   UNL     1       0.718   3.825   9.600  1.00  0.00     0.041 A 
ATOM     89  F   UNL     1       1.631   5.433   8.160  1.00  0.00    -0.206 F 
ATOM     90  C   UNL     1      -0.388   3.167  10.127  1.00  0.00     0.022 A 
BRANCH  87  91
ATOM     91  S   UNL     1      -3.127   2.716  10.390  1.00  0.00     0.124 S 
ATOM     92  O   UNL     1      -3.865   3.887  10.851  1.00  0.00    -0.237 OA
ATOM     93  O   UNL     1      -3.705   1.996   9.261  1.00  0.00    -0.237 OA
ATOM     94  O   UNL     1      -2.570   1.872  11.445  1.00  0.00    -0.744 OA
ENDBRANCH  87  91
ENDBRANCH  60  84
BRANCH  72  95
ATOM     95  C   UNL     1      -3.845  11.344   8.367  1.00  0.00     0.023 A 
ATOM     96  C   UNL     1      -3.289  11.698   9.609  1.00  0.00     0.031 A 
ATOM     97  C   UNL     1      -5.212  11.599   8.159  1.00  0.00     0.131 A 
ATOM     98  C   UNL     1      -4.110  12.222  10.620  1.00  0.00     0.055 A 
ATOM     99  C   UNL     1      -6.011  12.177   9.147  1.00  0.00     0.041 A 
ATOM    100  F   UNL     1      -5.797  11.283   6.992  1.00  0.00    -0.206 F 
ATOM    101  C   UNL     1      -5.465  12.476  10.392  1.00  0.00     0.022 A 
BRANCH  98 102
ATOM    102  S   UNL     1      -3.407  12.460  12.276  1.00  0.00     0.124 S 
ATOM    103  O   UNL     1      -2.895  11.129  12.584  1.00  0.00    -0.237 OA
ATOM    104  O   UNL     1      -2.402  13.492  12.041  1.00  0.00    -0.237 OA
ATOM    105  O   UNL     1      -4.554  12.884  13.078  1.00  0.00    -0.744 OA
ENDBRANCH  98 102
ENDBRANCH  72  95
ENDBRANCH  46  47
ENDBRANCH  39  41
ENDBRANCH  38  39
ENDBRANCH  37  38
ENDBRANCH  36  37
ENDBRANCH  35  36
ENDBRANCH  34  35
ENDBRANCH   1  34
TORSDOF 25
