REMARK SMILES COc1ccc(-c2nc(SCC(=O)OCCOCCOCCOC(=O)c3ccc(-c4c5nc(c(-c6cc(S(=O)(=O)[O-])ccc6F)c6ccc([nH]6)c(-c6cc(S(=O)(=O)[O-])ccc6F)c6nc(c(-c7cc(S(=O)(=O)[O-])ccc7F)c7ccc4[nH]7)C=C6)C=C5)cc3)[nH]c2C)cc1
REMARK SMILES IDX 18 1 17 2 16 3 15 4 14 5 12 6 13 7 11 8 10 9 9 10 7 11 8 12
REMARK SMILES IDX 90 13 89 14 91 15 6 17 3 18 4 19 93 20 5 21 92 22 2 23 1 24
REMARK SMILES IDX 19 25 20 26 21 27 22 28 23 29 24 30 25 31 26 32 27 33 88 34
REMARK SMILES IDX 28 35 87 36 29 37 30 38 31 39 81 40 32 41 86 42 80 43 82 44
REMARK SMILES IDX 33 45 85 46 79 47 78 48 34 50 66 51 46 52 65 53 47 54 50 55
REMARK SMILES IDX 64 56 83 57 48 58 49 59 63 61 84 62 51 63 35 64 36 65 44 66
REMARK SMILES IDX 37 67 43 68 45 69 42 70 38 71 39 72 40 73 41 74 67 75 68 76
REMARK SMILES IDX 76 77 69 78 75 79 77 80 74 81 70 82 71 83 72 84 73 85 52 86
REMARK SMILES IDX 53 87 61 88 54 89 60 90 62 91 59 92 55 93 56 94 57 95 58 96
REMARK H PARENT 89 16 82 49 50 60
REMARK Flexibility Score: inf
ROOT
ATOM      1  C   UNL     1      -2.186   0.752  -8.011  1.00  0.00     0.188 C 
ENDROOT
BRANCH   1   2
ATOM      2  O   UNL     1      -3.389   1.174  -8.662  1.00  0.00    -0.376 OA
BRANCH   2   3
ATOM      3  C   UNL     1      -3.410   1.001 -10.079  1.00  0.00     0.202 C 
BRANCH   3   4
ATOM      4  C   UNL     1      -2.349   1.826 -10.835  1.00  0.00     0.261 C 
BRANCH   4   5
ATOM      5  O   UNL     1      -0.998   1.408 -10.493  1.00  0.00    -0.463 OA
BRANCH   5   6
ATOM      6  C   UNL     1      -0.070   2.380 -10.257  1.00  0.00     0.316 C 
ATOM      7  O   UNL     1      -0.250   3.556 -10.557  1.00  0.00    -0.251 OA
BRANCH   6   8
ATOM      8  C   UNL     1       1.133   1.915  -9.417  1.00  0.00     0.200 C 
BRANCH   8   9
ATOM      9  S   UNL     1       1.832   0.306  -9.880  1.00  0.00    -0.076 SA
BRANCH   9  10
ATOM     10  C   UNL     1       2.663  -0.327  -8.475  1.00  0.00     0.166 A 
ATOM     11  C   UNL     1       3.064  -1.303  -6.570  1.00  0.00     0.092 A 
ATOM     12  N   UNL     1       2.344  -0.278  -7.203  1.00  0.00    -0.222 NA
ATOM     13  C   UNL     1       3.928  -1.877  -7.478  1.00  0.00     0.040 A 
ATOM     14  N   UNL     1       3.686  -1.217  -8.665  1.00  0.00    -0.337 N 
ATOM     15  C   UNL     1       4.883  -2.998  -7.362  1.00  0.00     0.067 C 
ATOM     16  H   UNL     1       4.170  -1.363  -9.510  1.00  0.00     0.168 HD
BRANCH  11  17
ATOM     17  C   UNL     1       2.838  -1.790  -5.198  1.00  0.00     0.002 A 
ATOM     18  C   UNL     1       2.095  -2.362  -2.511  1.00  0.00     0.118 A 
ATOM     19  C   UNL     1       1.382  -2.910  -3.569  1.00  0.00     0.047 A 
ATOM     20  C   UNL     1       3.286  -1.707  -2.798  1.00  0.00     0.047 A 
ATOM     21  C   UNL     1       1.776  -2.655  -4.896  1.00  0.00     0.014 A 
ATOM     22  C   UNL     1       3.655  -1.424  -4.133  1.00  0.00     0.014 A 
BRANCH  18  23
ATOM     23  O   UNL     1       1.639  -2.602  -1.244  1.00  0.00    -0.497 OA
ATOM     24  C   UNL     1       1.551  -1.444  -0.407  1.00  0.00     0.278 C 
ENDBRANCH  18  23
ENDBRANCH  11  17
ENDBRANCH   9  10
ENDBRANCH   8   9
ENDBRANCH   6   8
ENDBRANCH   5   6
ENDBRANCH   4   5
ENDBRANCH   3   4
ENDBRANCH   2   3
ENDBRANCH   1   2
BRANCH   1  25
ATOM     25  C   UNL     1      -1.607  -0.572  -8.525  1.00  0.00     0.188 C 
BRANCH  25  26
ATOM     26  O   UNL     1      -2.469  -1.650  -8.166  1.00  0.00    -0.376 OA
BRANCH  26  27
ATOM     27  C   UNL     1      -1.851  -2.603  -7.309  1.00  0.00     0.202 C 
BRANCH  27  28
ATOM     28  C   UNL     1      -2.209  -2.385  -5.813  1.00  0.00     0.261 C 
BRANCH  28  29
ATOM     29  O   UNL     1      -1.850  -1.155  -5.108  1.00  0.00    -0.460 OA
BRANCH  29  30
ATOM     30  C   UNL     1      -0.640  -0.661  -5.376  1.00  0.00     0.338 C 
ATOM     31  O   UNL     1       0.062  -1.122  -6.292  1.00  0.00    -0.246 OA
BRANCH  30  32
ATOM     32  C   UNL     1      -0.086   0.444  -4.581  1.00  0.00     0.060 A 
ATOM     33  C   UNL     1       0.774   1.332  -5.245  1.00  0.00     0.016 A 
ATOM     34  C   UNL     1      -0.125   0.459  -3.191  1.00  0.00     0.016 A 
ATOM     35  C   UNL     1       1.686   2.126  -4.551  1.00  0.00     0.010 A 
ATOM     36  C   UNL     1       0.763   1.298  -2.489  1.00  0.00     0.010 A 
ATOM     37  C   UNL     1       1.713   2.093  -3.157  1.00  0.00    -0.014 A 
BRANCH  37  38
ATOM     38  C   UNL     1       2.649   2.960  -2.396  1.00  0.00     0.031 A 
ATOM     39  C   UNL     1       3.912   2.453  -1.766  1.00  0.00     0.074 A 
ATOM     40  C   UNL     1       2.364   4.261  -2.275  1.00  0.00     0.049 A 
ATOM     41  N   UNL     1       4.575   2.853  -0.713  1.00  0.00    -0.248 NA
ATOM     42  C   UNL     1       4.514   1.314  -2.437  1.00  0.00     0.031 C 
ATOM     43  C   UNL     1       1.263   4.949  -2.941  1.00  0.00     0.029 A 
ATOM     44  N   UNL     1       2.983   5.222  -1.530  1.00  0.00    -0.354 N 
ATOM     45  C   UNL     1       5.586   1.906  -0.513  1.00  0.00     0.074 A 
ATOM     46  C   UNL     1       5.448   0.933  -1.575  1.00  0.00     0.031 C 
ATOM     47  C   UNL     1       1.263   6.229  -2.548  1.00  0.00     0.029 A 
ATOM     48  C   UNL     1       2.316   6.416  -1.554  1.00  0.00     0.049 A 
ATOM     49  H   UNL     1       3.819   5.073  -1.030  1.00  0.00     0.167 HD
ATOM     50  C   UNL     1       6.542   1.885   0.455  1.00  0.00     0.034 A 
ATOM     51  C   UNL     1       2.505   7.516  -0.810  1.00  0.00     0.034 A 
ATOM     52  C   UNL     1       6.814   3.035   1.295  1.00  0.00     0.049 A 
ATOM     53  C   UNL     1       3.625   7.541   0.189  1.00  0.00     0.074 A 
ATOM     54  C   UNL     1       7.803   3.203   2.250  1.00  0.00     0.029 A 
ATOM     55  N   UNL     1       6.146   4.251   1.206  1.00  0.00    -0.354 N 
ATOM     56  N   UNL     1       4.433   6.571   0.554  1.00  0.00    -0.248 NA
ATOM     57  C   UNL     1       3.873   8.822   0.855  1.00  0.00     0.031 C 
ATOM     58  C   UNL     1       7.721   4.510   2.748  1.00  0.00     0.029 A 
ATOM     59  C   UNL     1       6.719   5.177   2.063  1.00  0.00     0.049 A 
ATOM     60  H   UNL     1       5.377   4.429   0.618  1.00  0.00     0.167 HD
ATOM     61  C   UNL     1       5.311   7.138   1.473  1.00  0.00     0.074 A 
ATOM     62  C   UNL     1       4.939   8.536   1.587  1.00  0.00     0.031 C 
ATOM     63  C   UNL     1       6.332   6.563   2.160  1.00  0.00     0.034 A 
BRANCH  50  64
ATOM     64  C   UNL     1       7.345   0.616   0.692  1.00  0.00     0.023 A 
ATOM     65  C   UNL     1       8.164   0.013  -0.275  1.00  0.00     0.031 A 
ATOM     66  C   UNL     1       7.295  -0.001   1.962  1.00  0.00     0.131 A 
ATOM     67  C   UNL     1       8.830  -1.195   0.011  1.00  0.00     0.055 A 
ATOM     68  C   UNL     1       8.037  -1.145   2.272  1.00  0.00     0.041 A 
ATOM     69  F   UNL     1       6.522   0.505   2.938  1.00  0.00    -0.206 F 
ATOM     70  C   UNL     1       8.798  -1.760   1.287  1.00  0.00     0.022 A 
BRANCH  67  71
ATOM     71  S   UNL     1       9.625  -2.094  -1.351  1.00  0.00     0.124 S 
ATOM     72  O   UNL     1       8.509  -2.274  -2.276  1.00  0.00    -0.237 OA
ATOM     73  O   UNL     1      10.663  -1.163  -1.779  1.00  0.00    -0.237 OA
ATOM     74  O   UNL     1      10.108  -3.321  -0.720  1.00  0.00    -0.744 OA
ENDBRANCH  67  71
ENDBRANCH  50  64
BRANCH  51  75
ATOM     75  C   UNL     1       1.603   8.672  -1.011  1.00  0.00     0.023 A 
ATOM     76  C   UNL     1       2.080   9.839  -1.615  1.00  0.00     0.031 A 
ATOM     77  C   UNL     1       0.242   8.601  -0.662  1.00  0.00     0.131 A 
ATOM     78  C   UNL     1       1.208  10.912  -1.830  1.00  0.00     0.055 A 
ATOM     79  C   UNL     1      -0.633   9.652  -0.924  1.00  0.00     0.041 A 
ATOM     80  F   UNL     1      -0.260   7.486  -0.106  1.00  0.00    -0.206 F 
ATOM     81  C   UNL     1      -0.148  10.822  -1.503  1.00  0.00     0.022 A 
BRANCH  78  82
ATOM     82  S   UNL     1       1.893  12.446  -2.501  1.00  0.00     0.124 S 
ATOM     83  O   UNL     1       2.929  12.762  -1.524  1.00  0.00    -0.237 OA
ATOM     84  O   UNL     1       2.362  12.018  -3.815  1.00  0.00    -0.237 OA
ATOM     85  O   UNL     1       0.747  13.352  -2.513  1.00  0.00    -0.744 OA
ENDBRANCH  78  82
ENDBRANCH  51  75
BRANCH  63  86
ATOM     86  C   UNL     1       7.146   7.477   3.039  1.00  0.00     0.023 A 
ATOM     87  C   UNL     1       6.593   8.081   4.181  1.00  0.00     0.031 A 
ATOM     88  C   UNL     1       8.471   7.796   2.694  1.00  0.00     0.131 A 
ATOM     89  C   UNL     1       7.331   9.041   4.887  1.00  0.00     0.055 A 
ATOM     90  C   UNL     1       9.225   8.703   3.441  1.00  0.00     0.041 A 
ATOM     91  F   UNL     1       9.049   7.244   1.615  1.00  0.00    -0.206 F 
ATOM     92  C   UNL     1       8.648   9.347   4.532  1.00  0.00     0.022 A 
BRANCH  89  93
ATOM     93  S   UNL     1       6.498   9.981   6.194  1.00  0.00     0.124 S 
ATOM     94  O   UNL     1       5.350  10.536   5.483  1.00  0.00    -0.237 OA
ATOM     95  O   UNL     1       6.198   8.946   7.178  1.00  0.00    -0.237 OA
ATOM     96  O   UNL     1       7.503  10.959   6.607  1.00  0.00    -0.744 OA
ENDBRANCH  89  93
ENDBRANCH  63  86
ENDBRANCH  37  38
ENDBRANCH  30  32
ENDBRANCH  29  30
ENDBRANCH  28  29
ENDBRANCH  27  28
ENDBRANCH  26  27
ENDBRANCH  25  26
ENDBRANCH   1  25
TORSDOF 24
