REMARK SMILES Cc1cc2nc(NC3=[NH+][C@H](CC(=O)OCCOCCOCCOC(=O)c4ccc(-c5c6nc(c(-c7cc(S(=O)(=O)[O-])ccc7F)c7ccc([nH]7)c(-c7cc(S(=O)(=O)[O-])ccc7F)c7nc(c(-c8cc(S(=O)(=O)[O-])ccc8F)c8ccc5[nH]8)C=C7)C=C6)cc4)C(=O)N3)nc(C)c2cc1C
REMARK SMILES IDX 19 1 18 2 17 3 16 4 15 5 14 6 12 7 13 8 11 9 10 10 7 11 8 12
REMARK SMILES IDX 9 14 91 15 89 17 90 19 6 20 1 21 2 22 3 23 97 24 4 25 96 26
REMARK SMILES IDX 98 27 5 28 95 29 93 30 92 31 94 32 20 33 21 34 22 35 23 36
REMARK SMILES IDX 24 37 25 38 26 39 27 40 88 41 28 42 87 43 29 44 30 45 31 46
REMARK SMILES IDX 81 47 32 48 86 49 80 50 82 51 33 52 85 53 79 54 78 55 34 57
REMARK SMILES IDX 66 58 46 59 65 60 47 61 50 62 64 63 83 64 48 65 49 66 63 68
REMARK SMILES IDX 84 69 51 70 35 71 36 72 44 73 37 74 43 75 45 76 42 77 38 78
REMARK SMILES IDX 39 79 40 80 41 81 67 82 68 83 76 84 69 85 75 86 77 87 74 88
REMARK SMILES IDX 70 89 71 90 72 91 73 92 52 93 53 94 61 95 54 96 60 97 62 98
REMARK SMILES IDX 59 99 55 100 56 101 57 102 58 103
REMARK H PARENT 7 13 9 16 91 18 82 56 50 67
REMARK Flexibility Score: inf
ROOT
ATOM      1  C   UNL     1       3.684  -6.261   4.929  1.00  0.00     0.188 C 
ENDROOT
BRANCH   1   2
ATOM      2  C   UNL     1       4.400  -4.914   4.816  1.00  0.00     0.188 C 
BRANCH   2   3
ATOM      3  O   UNL     1       3.690  -3.786   5.319  1.00  0.00    -0.376 OA
BRANCH   3   4
ATOM      4  C   UNL     1       2.430  -3.508   4.705  1.00  0.00     0.202 C 
BRANCH   4   5
ATOM      5  C   UNL     1       2.470  -3.188   3.204  1.00  0.00     0.261 C 
BRANCH   5   6
ATOM      6  O   UNL     1       3.116  -4.214   2.427  1.00  0.00    -0.463 OA
BRANCH   6   7
ATOM      7  C   UNL     1       4.026  -3.794   1.510  1.00  0.00     0.310 C 
ATOM      8  O   UNL     1       4.233  -2.615   1.236  1.00  0.00    -0.252 OA
BRANCH   7   9
ATOM      9  C   UNL     1       4.890  -4.899   0.939  1.00  0.00     0.175 C 
BRANCH   9  10
ATOM     10  C   UNL     1       4.326  -6.313   0.934  1.00  0.00     0.262 C 
ATOM     11  N   UNL     1       1.867  -6.941  -1.546  1.00  0.00    -0.212 N 
ATOM     12  C   UNL     1       2.925  -6.901  -0.702  1.00  0.00     0.358 C 
ATOM     13  H   UNL     1       1.671  -7.770  -2.039  1.00  0.00     0.270 HD
ATOM     14  N   UNL     1       2.937  -6.298   0.444  1.00  0.00    -0.263 N 
ATOM     15  N   UNL     1       4.087  -7.492  -1.032  1.00  0.00    -0.211 N 
ATOM     16  H   UNL     1       2.160  -5.903   0.903  1.00  0.00     0.261 HD
ATOM     17  C   UNL     1       5.029  -7.157  -0.114  1.00  0.00     0.320 C 
ATOM     18  H   UNL     1       4.231  -8.073  -1.813  1.00  0.00     0.270 HD
ATOM     19  O   UNL     1       6.216  -7.427  -0.181  1.00  0.00    -0.252 OA
BRANCH  11  20
ATOM     20  C   UNL     1       1.054  -5.827  -1.727  1.00  0.00     0.291 A 
ATOM     21  C   UNL     1       0.954  -0.003  -0.145  1.00  0.00     0.044 C 
ATOM     22  C   UNL     1       0.423  -1.201  -0.885  1.00  0.00    -0.046 A 
ATOM     23  C   UNL     1       1.136  -2.402  -0.784  1.00  0.00     0.033 A 
ATOM     24  C   UNL     1      -0.780  -1.193  -1.606  1.00  0.00    -0.047 A 
ATOM     25  C   UNL     1       0.704  -3.576  -1.376  1.00  0.00     0.078 A 
ATOM     26  C   UNL     1      -1.215  -2.383  -2.219  1.00  0.00     0.016 A 
ATOM     27  C   UNL     1      -1.612   0.052  -1.725  1.00  0.00     0.044 C 
ATOM     28  N   UNL     1       1.450  -4.658  -1.212  1.00  0.00    -0.198 NA
ATOM     29  C   UNL     1      -0.476  -3.589  -2.105  1.00  0.00     0.022 A 
ATOM     30  C   UNL     1      -0.803  -4.843  -2.653  1.00  0.00     0.052 A 
ATOM     31  N   UNL     1      -0.040  -5.954  -2.485  1.00  0.00    -0.203 NA
ATOM     32  C   UNL     1      -2.042  -5.033  -3.477  1.00  0.00     0.067 C 
ENDBRANCH  11  20
ENDBRANCH   9  10
ENDBRANCH   7   9
ENDBRANCH   6   7
ENDBRANCH   5   6
ENDBRANCH   4   5
ENDBRANCH   3   4
ENDBRANCH   2   3
ENDBRANCH   1   2
BRANCH   1  33
ATOM     33  O   UNL     1       2.326  -6.297   4.512  1.00  0.00    -0.376 OA
BRANCH  33  34
ATOM     34  C   UNL     1       1.673  -7.566   4.617  1.00  0.00     0.202 C 
BRANCH  34  35
ATOM     35  C   UNL     1       1.679  -8.234   6.009  1.00  0.00     0.261 C 
BRANCH  35  36
ATOM     36  O   UNL     1       2.976  -8.519   6.575  1.00  0.00    -0.460 OA
BRANCH  36  37
ATOM     37  C   UNL     1       3.872  -9.206   5.824  1.00  0.00     0.338 C 
ATOM     38  O   UNL     1       3.621  -9.841   4.814  1.00  0.00    -0.246 OA
BRANCH  37  39
ATOM     39  C   UNL     1       5.246  -8.812   6.266  1.00  0.00     0.060 A 
ATOM     40  C   UNL     1       5.526  -8.466   7.592  1.00  0.00     0.016 A 
ATOM     41  C   UNL     1       6.248  -8.671   5.293  1.00  0.00     0.016 A 
ATOM     42  C   UNL     1       6.803  -8.007   7.944  1.00  0.00     0.010 A 
ATOM     43  C   UNL     1       7.524  -8.209   5.646  1.00  0.00     0.010 A 
ATOM     44  C   UNL     1       7.821  -7.891   6.979  1.00  0.00    -0.014 A 
BRANCH  44  45
ATOM     45  C   UNL     1       9.230  -7.662   7.410  1.00  0.00     0.031 A 
ATOM     46  C   UNL     1       9.941  -6.349   7.246  1.00  0.00     0.074 A 
ATOM     47  C   UNL     1       9.889  -8.707   7.948  1.00  0.00     0.049 A 
ATOM     48  N   UNL     1      11.131  -6.007   7.673  1.00  0.00    -0.248 NA
ATOM     49  C   UNL     1       9.242  -5.290   6.506  1.00  0.00     0.031 C 
ATOM     50  C   UNL     1       9.322 -10.047   8.108  1.00  0.00     0.029 A 
ATOM     51  N   UNL     1      11.158  -8.817   8.459  1.00  0.00    -0.354 N 
ATOM     52  C   UNL     1      11.324  -4.689   7.275  1.00  0.00     0.074 A 
ATOM     53  C   UNL     1      10.141  -4.310   6.527  1.00  0.00     0.031 C 
ATOM     54  C   UNL     1      10.228 -10.836   8.700  1.00  0.00     0.029 A 
ATOM     55  C   UNL     1      11.452 -10.074   8.937  1.00  0.00     0.049 A 
ATOM     56  H   UNL     1      11.798  -8.069   8.481  1.00  0.00     0.167 HD
ATOM     57  C   UNL     1      12.380  -3.874   7.528  1.00  0.00     0.034 A 
ATOM     58  C   UNL     1      12.570 -10.566   9.508  1.00  0.00     0.034 A 
ATOM     59  C   UNL     1      13.558  -4.275   8.265  1.00  0.00     0.049 A 
ATOM     60  C   UNL     1      13.733  -9.644   9.767  1.00  0.00     0.074 A 
ATOM     61  C   UNL     1      14.640  -3.492   8.634  1.00  0.00     0.029 A 
ATOM     62  N   UNL     1      13.825  -5.555   8.731  1.00  0.00    -0.354 N 
ATOM     63  N   UNL     1      13.839  -8.362   9.512  1.00  0.00    -0.248 NA
ATOM     64  C   UNL     1      14.920 -10.225  10.410  1.00  0.00     0.031 C 
ATOM     65  C   UNL     1      15.592  -4.310   9.242  1.00  0.00     0.029 A 
ATOM     66  C   UNL     1      15.071  -5.589   9.342  1.00  0.00     0.049 A 
ATOM     67  H   UNL     1      13.219  -6.326   8.641  1.00  0.00     0.167 HD
ATOM     68  C   UNL     1      15.091  -7.978   9.988  1.00  0.00     0.074 A 
ATOM     69  C   UNL     1      15.693  -9.158  10.569  1.00  0.00     0.031 C 
ATOM     70  C   UNL     1      15.680  -6.756   9.939  1.00  0.00     0.034 A 
BRANCH  57  71
ATOM     71  C   UNL     1      12.332  -2.437   7.055  1.00  0.00     0.023 A 
ATOM     72  C   UNL     1      13.321  -1.940   6.183  1.00  0.00     0.031 A 
ATOM     73  C   UNL     1      11.428  -1.518   7.620  1.00  0.00     0.131 A 
ATOM     74  C   UNL     1      13.411  -0.562   5.938  1.00  0.00     0.055 A 
ATOM     75  C   UNL     1      11.493  -0.153   7.336  1.00  0.00     0.041 A 
ATOM     76  F   UNL     1      10.477  -1.934   8.473  1.00  0.00    -0.206 F 
ATOM     77  C   UNL     1      12.497   0.333   6.504  1.00  0.00     0.022 A 
BRANCH  74  78
ATOM     78  S   UNL     1      14.768   0.136   4.955  1.00  0.00     0.124 S 
ATOM     79  O   UNL     1      14.044   0.800   3.872  1.00  0.00    -0.237 OA
ATOM     80  O   UNL     1      15.411   1.031   5.912  1.00  0.00    -0.237 OA
ATOM     81  O   UNL     1      15.549  -1.029   4.556  1.00  0.00    -0.744 OA
ENDBRANCH  74  78
ENDBRANCH  57  71
BRANCH  58  82
ATOM     82  C   UNL     1      12.584 -11.994   9.943  1.00  0.00     0.023 A 
ATOM     83  C   UNL     1      12.420 -13.034   9.010  1.00  0.00     0.031 A 
ATOM     84  C   UNL     1      12.635 -12.329  11.306  1.00  0.00     0.131 A 
ATOM     85  C   UNL     1      12.235 -14.348   9.459  1.00  0.00     0.055 A 
ATOM     86  C   UNL     1      12.530 -13.650  11.743  1.00  0.00     0.041 A 
ATOM     87  F   UNL     1      12.772 -11.369  12.234  1.00  0.00    -0.206 F 
ATOM     88  C   UNL     1      12.309 -14.665  10.818  1.00  0.00     0.022 A 
BRANCH  85  89
ATOM     89  S   UNL     1      11.746 -15.662   8.307  1.00  0.00     0.124 S 
ATOM     90  O   UNL     1      12.832 -16.624   8.463  1.00  0.00    -0.237 OA
ATOM     91  O   UNL     1      10.456 -16.072   8.855  1.00  0.00    -0.237 OA
ATOM     92  O   UNL     1      11.684 -14.985   7.016  1.00  0.00    -0.744 OA
ENDBRANCH  85  89
ENDBRANCH  58  82
BRANCH  70  93
ATOM     93  C   UNL     1      17.064  -6.587  10.530  1.00  0.00     0.023 A 
ATOM     94  C   UNL     1      17.276  -5.671  11.581  1.00  0.00     0.031 A 
ATOM     95  C   UNL     1      18.189  -7.204   9.957  1.00  0.00     0.131 A 
ATOM     96  C   UNL     1      18.580  -5.363  11.990  1.00  0.00     0.055 A 
ATOM     97  C   UNL     1      19.484  -6.935  10.405  1.00  0.00     0.041 A 
ATOM     98  F   UNL     1      18.048  -8.076   8.945  1.00  0.00    -0.206 F 
ATOM     99  C   UNL     1      19.685  -5.998  11.415  1.00  0.00     0.022 A 
BRANCH  96 100
ATOM    100  S   UNL     1      18.899  -4.061  13.213  1.00  0.00     0.124 S 
ATOM    101  O   UNL     1      19.593  -4.798  14.267  1.00  0.00    -0.237 OA
ATOM    102  O   UNL     1      19.729  -3.126  12.458  1.00  0.00    -0.237 OA
ATOM    103  O   UNL     1      17.569  -3.576  13.568  1.00  0.00    -0.744 OA
ENDBRANCH  96 100
ENDBRANCH  70  93
ENDBRANCH  44  45
ENDBRANCH  37  39
ENDBRANCH  36  37
ENDBRANCH  35  36
ENDBRANCH  34  35
ENDBRANCH  33  34
ENDBRANCH   1  33
TORSDOF 22
