REMARK SMILES O=C(OCCOCCOCCOC(=O)c1cc(Br)ccc1OCc1ccccc1F)c1ccc(-c2c3nc(c(-c4cc(S(=O)(=O)[O-])ccc4F)c4ccc([nH]4)c(-c4cc(S(=O)(=O)[O-])ccc4F)c4nc(c(-c5cc(S(=O)(=O)[O-])ccc5F)c5ccc2[nH]5)C=C4)C=C3)cc1
REMARK SMILES IDX 7 1 6 2 5 3 4 4 3 5 2 6 1 7 31 8 32 9 93 10 33 11 92 12
REMARK SMILES IDX 34 13 35 14 36 15 86 16 37 17 91 18 85 19 87 20 38 21 90 22
REMARK SMILES IDX 84 23 83 24 39 26 71 27 51 28 70 29 52 30 55 31 69 32 88 33
REMARK SMILES IDX 53 34 54 35 68 37 89 38 56 39 40 40 41 41 49 42 42 43 48 44
REMARK SMILES IDX 50 45 47 46 43 47 44 48 45 49 46 50 72 51 73 52 81 53 74 54
REMARK SMILES IDX 80 55 82 56 79 57 75 58 76 59 77 60 78 61 57 62 58 63 66 64
REMARK SMILES IDX 59 65 65 66 67 67 64 68 60 69 61 70 62 71 63 72 8 73 9 74
REMARK SMILES IDX 10 75 11 76 12 77 13 78 14 79 15 80 16 81 21 82 17 83 20 84
REMARK SMILES IDX 18 85 19 86 22 87 23 88 24 89 25 90 29 91 26 92 28 93 30 94
REMARK SMILES IDX 27 95
REMARK H PARENT 87 25 55 36
REMARK Flexibility Score: inf
ROOT
ATOM      1  C   UNL     1       3.415  -0.220  -1.850  1.00  0.00     0.188 C 
ENDROOT
BRANCH   1   2
ATOM      2  O   UNL     1       4.732  -0.262  -1.317  1.00  0.00    -0.376 OA
BRANCH   2   3
ATOM      3  C   UNL     1       5.106  -1.520  -0.767  1.00  0.00     0.202 C 
BRANCH   3   4
ATOM      4  C   UNL     1       4.652  -1.705   0.691  1.00  0.00     0.261 C 
BRANCH   4   5
ATOM      5  O   UNL     1       3.232  -1.483   0.840  1.00  0.00    -0.460 OA
BRANCH   5   6
ATOM      6  C   UNL     1       2.571  -0.395   1.306  1.00  0.00     0.338 C 
ATOM      7  O   UNL     1       1.343  -0.452   1.386  1.00  0.00    -0.246 OA
BRANCH   6   8
ATOM      8  C   UNL     1       3.235   0.872   1.747  1.00  0.00     0.060 A 
ATOM      9  C   UNL     1       4.482   1.315   1.308  1.00  0.00     0.016 A 
ATOM     10  C   UNL     1       2.521   1.703   2.633  1.00  0.00     0.016 A 
ATOM     11  C   UNL     1       5.060   2.473   1.813  1.00  0.00     0.010 A 
ATOM     12  C   UNL     1       3.080   2.891   3.124  1.00  0.00     0.010 A 
ATOM     13  C   UNL     1       4.379   3.248   2.750  1.00  0.00    -0.014 A 
BRANCH  13  14
ATOM     14  C   UNL     1       5.160   4.285   3.454  1.00  0.00     0.031 A 
ATOM     15  C   UNL     1       5.760   3.922   4.784  1.00  0.00     0.074 A 
ATOM     16  C   UNL     1       5.499   5.423   2.821  1.00  0.00     0.049 A 
ATOM     17  N   UNL     1       6.577   4.606   5.537  1.00  0.00    -0.248 NA
ATOM     18  C   UNL     1       5.420   2.591   5.319  1.00  0.00     0.031 C 
ATOM     19  C   UNL     1       5.075   5.790   1.469  1.00  0.00     0.029 A 
ATOM     20  N   UNL     1       6.320   6.450   3.205  1.00  0.00    -0.354 N 
ATOM     21  C   UNL     1       6.861   3.785   6.622  1.00  0.00     0.074 A 
ATOM     22  C   UNL     1       6.109   2.564   6.448  1.00  0.00     0.031 C 
ATOM     23  C   UNL     1       5.666   6.946   1.125  1.00  0.00     0.029 A 
ATOM     24  C   UNL     1       6.470   7.425   2.246  1.00  0.00     0.049 A 
ATOM     25  H   UNL     1       6.761   6.487   4.084  1.00  0.00     0.167 HD
ATOM     26  C   UNL     1       7.686   4.028   7.666  1.00  0.00     0.034 A 
ATOM     27  C   UNL     1       7.166   8.579   2.282  1.00  0.00     0.034 A 
ATOM     28  C   UNL     1       8.409   5.258   7.830  1.00  0.00     0.049 A 
ATOM     29  C   UNL     1       7.949   8.897   3.529  1.00  0.00     0.074 A 
ATOM     30  C   UNL     1       9.209   5.656   8.885  1.00  0.00     0.029 A 
ATOM     31  N   UNL     1       8.411   6.295   6.907  1.00  0.00    -0.354 N 
ATOM     32  N   UNL     1       8.142   8.147   4.591  1.00  0.00    -0.248 NA
ATOM     33  C   UNL     1       8.591  10.216   3.597  1.00  0.00     0.031 C 
ATOM     34  C   UNL     1       9.650   6.957   8.623  1.00  0.00     0.029 A 
ATOM     35  C   UNL     1       9.169   7.348   7.382  1.00  0.00     0.049 A 
ATOM     36  H   UNL     1       7.940   6.282   6.042  1.00  0.00     0.167 HD
ATOM     37  C   UNL     1       8.926   8.905   5.454  1.00  0.00     0.074 A 
ATOM     38  C   UNL     1       9.186  10.163   4.782  1.00  0.00     0.031 C 
ATOM     39  C   UNL     1       9.388   8.594   6.690  1.00  0.00     0.034 A 
BRANCH  26  40
ATOM     40  C   UNL     1       7.775   2.970   8.729  1.00  0.00     0.023 A 
ATOM     41  C   UNL     1       8.452   1.758   8.509  1.00  0.00     0.031 A 
ATOM     42  C   UNL     1       7.135   3.162   9.965  1.00  0.00     0.131 A 
ATOM     43  C   UNL     1       8.437   0.764   9.499  1.00  0.00     0.055 A 
ATOM     44  C   UNL     1       7.170   2.191  10.967  1.00  0.00     0.041 A 
ATOM     45  F   UNL     1       6.449   4.289  10.210  1.00  0.00    -0.206 F 
ATOM     46  C   UNL     1       7.818   0.981  10.734  1.00  0.00     0.022 A 
BRANCH  43  47
ATOM     47  S   UNL     1       9.170  -0.853   9.129  1.00  0.00     0.124 S 
ATOM     48  O   UNL     1       8.242  -1.375   8.129  1.00  0.00    -0.237 OA
ATOM     49  O   UNL     1      10.498  -0.499   8.642  1.00  0.00    -0.237 OA
ATOM     50  O   UNL     1       9.144  -1.543  10.417  1.00  0.00    -0.744 OA
ENDBRANCH  43  47
ENDBRANCH  26  40
BRANCH  27  51
ATOM     51  C   UNL     1       7.090   9.546   1.150  1.00  0.00     0.023 A 
ATOM     52  C   UNL     1       8.215   9.871   0.376  1.00  0.00     0.031 A 
ATOM     53  C   UNL     1       5.875  10.192   0.851  1.00  0.00     0.131 A 
ATOM     54  C   UNL     1       8.106  10.829  -0.647  1.00  0.00     0.055 A 
ATOM     55  C   UNL     1       5.763  11.114  -0.190  1.00  0.00     0.041 A 
ATOM     56  F   UNL     1       4.772   9.925   1.568  1.00  0.00    -0.206 F 
ATOM     57  C   UNL     1       6.885  11.443  -0.942  1.00  0.00     0.022 A 
BRANCH  54  58
ATOM     58  S   UNL     1       9.597  11.305  -1.567  1.00  0.00     0.124 S 
ATOM     59  O   UNL     1      10.421  11.889  -0.515  1.00  0.00    -0.237 OA
ATOM     60  O   UNL     1      10.049  10.024  -2.099  1.00  0.00    -0.237 OA
ATOM     61  O   UNL     1       9.096  12.248  -2.564  1.00  0.00    -0.744 OA
ENDBRANCH  54  58
ENDBRANCH  27  51
BRANCH  39  62
ATOM     62  C   UNL     1      10.211   9.631   7.397  1.00  0.00     0.023 A 
ATOM     63  C   UNL     1       9.604  10.751   7.986  1.00  0.00     0.031 A 
ATOM     64  C   UNL     1      11.596   9.455   7.549  1.00  0.00     0.131 A 
ATOM     65  C   UNL     1      10.389  11.669   8.696  1.00  0.00     0.055 A 
ATOM     66  C   UNL     1      12.366  10.352   8.289  1.00  0.00     0.041 A 
ATOM     67  F   UNL     1      12.212   8.392   7.009  1.00  0.00    -0.206 F 
ATOM     68  C   UNL     1      11.762  11.467   8.866  1.00  0.00     0.022 A 
BRANCH  65  69
ATOM     69  S   UNL     1       9.591  13.135   9.402  1.00  0.00     0.124 S 
ATOM     70  O   UNL     1       9.239  13.892   8.204  1.00  0.00    -0.237 OA
ATOM     71  O   UNL     1       8.473  12.563  10.146  1.00  0.00    -0.237 OA
ATOM     72  O   UNL     1      10.640  13.731  10.227  1.00  0.00    -0.744 OA
ENDBRANCH  65  69
ENDBRANCH  39  62
ENDBRANCH  13  14
ENDBRANCH   6   8
ENDBRANCH   5   6
ENDBRANCH   4   5
ENDBRANCH   3   4
ENDBRANCH   2   3
ENDBRANCH   1   2
BRANCH   1  73
ATOM     73  C   UNL     1       3.354  -0.115  -3.375  1.00  0.00     0.188 C 
BRANCH  73  74
ATOM     74  O   UNL     1       4.567  -0.325  -4.085  1.00  0.00    -0.376 OA
BRANCH  74  75
ATOM     75  C   UNL     1       5.555   0.705  -3.944  1.00  0.00     0.202 C 
BRANCH  75  76
ATOM     76  C   UNL     1       5.080   2.123  -4.271  1.00  0.00     0.261 C 
BRANCH  76  77
ATOM     77  O   UNL     1       4.311   2.707  -3.196  1.00  0.00    -0.460 OA
BRANCH  77  78
ATOM     78  C   UNL     1       3.523   3.729  -3.608  1.00  0.00     0.342 C 
ATOM     79  O   UNL     1       3.396   4.118  -4.768  1.00  0.00    -0.246 OA
BRANCH  78  80
ATOM     80  C   UNL     1       2.931   4.478  -2.490  1.00  0.00     0.103 A 
ATOM     81  C   UNL     1       3.267   5.839  -2.432  1.00  0.00     0.035 A 
ATOM     82  C   UNL     1       1.941   3.962  -1.640  1.00  0.00     0.134 A 
ATOM     83  C   UNL     1       2.624   6.674  -1.524  1.00  0.00     0.019 A 
ATOM     84  C   UNL     1       1.341   4.803  -0.694  1.00  0.00     0.048 A 
ATOM     85  Br  UNL     1       3.014   8.522  -1.518  1.00  0.00    -0.051 Br
ATOM     86  C   UNL     1       1.670   6.161  -0.648  1.00  0.00     0.019 A 
BRANCH  82  87
ATOM     87  O   UNL     1       1.572   2.646  -1.720  1.00  0.00    -0.488 OA
BRANCH  87  88
ATOM     88  C   UNL     1       0.197   2.437  -2.093  1.00  0.00     0.268 C 
BRANCH  88  89
ATOM     89  C   UNL     1       0.110   2.312  -3.591  1.00  0.00     0.025 A 
ATOM     90  C   UNL     1       0.216   1.067  -4.225  1.00  0.00     0.010 A 
ATOM     91  C   UNL     1       0.061   3.462  -4.380  1.00  0.00     0.129 A 
ATOM     92  C   UNL     1       0.356   0.995  -5.614  1.00  0.00     0.001 A 
ATOM     93  C   UNL     1       0.207   3.398  -5.761  1.00  0.00     0.039 A 
ATOM     94  F   UNL     1      -0.085   4.663  -3.802  1.00  0.00    -0.207 F 
ATOM     95  C   UNL     1       0.374   2.161  -6.378  1.00  0.00     0.003 A 
ENDBRANCH  88  89
ENDBRANCH  87  88
ENDBRANCH  82  87
ENDBRANCH  78  80
ENDBRANCH  77  78
ENDBRANCH  76  77
ENDBRANCH  75  76
ENDBRANCH  74  75
ENDBRANCH  73  74
ENDBRANCH   1  73
TORSDOF 23
