REMARK SMILES O=C(OCCOCCOCCOC(=O)c1c[nH]c(=O)c(-c2cccc([N+](=O)[O-])c2)c1)c1ccc(-c2c3nc(c(-c4cc(S(=O)(=O)[O-])ccc4F)c4ccc([nH]4)c(-c4cc(S(=O)(=O)[O-])ccc4F)c4nc(c(-c5cc(S(=O)(=O)[O-])ccc5F)c5ccc2[nH]5)C=C4)C=C3)cc1
REMARK SMILES IDX 7 1 6 2 5 3 4 4 3 5 2 6 1 7 31 8 32 9 93 10 33 11 92 12
REMARK SMILES IDX 34 13 35 14 36 15 86 16 37 17 91 18 85 19 87 20 38 21 90 22
REMARK SMILES IDX 84 23 83 24 39 26 71 27 51 28 70 29 52 30 55 31 69 32 88 33
REMARK SMILES IDX 53 34 54 35 68 37 89 38 56 39 40 40 41 41 49 42 42 43 48 44
REMARK SMILES IDX 50 45 47 46 43 47 44 48 45 49 46 50 72 51 73 52 81 53 74 54
REMARK SMILES IDX 80 55 82 56 79 57 75 58 76 59 77 60 78 61 57 62 58 63 66 64
REMARK SMILES IDX 59 65 65 66 67 67 64 68 60 69 61 70 62 71 63 72 8 73 9 74
REMARK SMILES IDX 10 75 11 76 12 77 13 78 14 79 15 80 16 81 30 82 17 83 20 84
REMARK SMILES IDX 18 85 19 87 21 88 22 89 29 90 23 91 25 92 24 93 26 94 27 95
REMARK SMILES IDX 28 96
REMARK H PARENT 87 25 55 36 17 86
REMARK Flexibility Score: inf
ROOT
ATOM      1  C   UNL     1       2.605   0.180  -2.043  1.00  0.00     0.188 C 
ENDROOT
BRANCH   1   2
ATOM      2  O   UNL     1       3.922   0.525  -1.607  1.00  0.00    -0.376 OA
BRANCH   2   3
ATOM      3  C   UNL     1       4.770  -0.614  -1.390  1.00  0.00     0.202 C 
BRANCH   3   4
ATOM      4  C   UNL     1       4.488  -1.417  -0.106  1.00  0.00     0.261 C 
BRANCH   4   5
ATOM      5  O   UNL     1       3.102  -1.393   0.281  1.00  0.00    -0.460 OA
BRANCH   5   6
ATOM      6  C   UNL     1       2.477  -0.540   1.133  1.00  0.00     0.338 C 
ATOM      7  O   UNL     1       1.278  -0.712   1.355  1.00  0.00    -0.246 OA
BRANCH   6   8
ATOM      8  C   UNL     1       3.154   0.610   1.811  1.00  0.00     0.060 A 
ATOM      9  C   UNL     1       4.330   1.212   1.372  1.00  0.00     0.016 A 
ATOM     10  C   UNL     1       2.537   1.143   2.958  1.00  0.00     0.016 A 
ATOM     11  C   UNL     1       4.967   2.190   2.119  1.00  0.00     0.010 A 
ATOM     12  C   UNL     1       3.139   2.179   3.686  1.00  0.00     0.010 A 
ATOM     13  C   UNL     1       4.395   2.658   3.298  1.00  0.00    -0.014 A 
BRANCH  13  14
ATOM     14  C   UNL     1       5.268   3.454   4.188  1.00  0.00     0.031 A 
ATOM     15  C   UNL     1       5.853   2.759   5.389  1.00  0.00     0.074 A 
ATOM     16  C   UNL     1       5.706   4.665   3.792  1.00  0.00     0.049 A 
ATOM     17  N   UNL     1       6.685   3.208   6.289  1.00  0.00    -0.248 NA
ATOM     18  C   UNL     1       5.463   1.351   5.586  1.00  0.00     0.031 C 
ATOM     19  C   UNL     1       5.319   5.338   2.546  1.00  0.00     0.029 A 
ATOM     20  N   UNL     1       6.624   5.513   4.351  1.00  0.00    -0.354 N 
ATOM     21  C   UNL     1       6.899   2.148   7.167  1.00  0.00     0.074 A 
ATOM     22  C   UNL     1       6.093   1.043   6.706  1.00  0.00     0.031 C 
ATOM     23  C   UNL     1       6.046   6.460   2.408  1.00  0.00     0.029 A 
ATOM     24  C   UNL     1       6.880   6.633   3.592  1.00  0.00     0.049 A 
ATOM     25  H   UNL     1       7.060   5.338   5.216  1.00  0.00     0.167 HD
ATOM     26  C   UNL     1       7.702   2.107   8.258  1.00  0.00     0.034 A 
ATOM     27  C   UNL     1       7.677   7.687   3.857  1.00  0.00     0.034 A 
ATOM     28  C   UNL     1       8.487   3.236   8.687  1.00  0.00     0.049 A 
ATOM     29  C   UNL     1       8.387   7.697   5.188  1.00  0.00     0.074 A 
ATOM     30  C   UNL     1       9.282   3.366   9.810  1.00  0.00     0.029 A 
ATOM     31  N   UNL     1       8.567   4.443   7.999  1.00  0.00    -0.354 N 
ATOM     32  N   UNL     1       8.492   6.737   6.080  1.00  0.00    -0.248 NA
ATOM     33  C   UNL     1       9.052   8.948   5.563  1.00  0.00     0.031 C 
ATOM     34  C   UNL     1       9.785   4.673   9.836  1.00  0.00     0.029 A 
ATOM     35  C   UNL     1       9.372   5.332   8.687  1.00  0.00     0.049 A 
ATOM     36  H   UNL     1       8.115   4.636   7.146  1.00  0.00     0.167 HD
ATOM     37  C   UNL     1       9.277   7.258   7.104  1.00  0.00     0.074 A 
ATOM     38  C   UNL     1       9.613   8.614   6.714  1.00  0.00     0.031 C 
ATOM     39  C   UNL     1       9.695   6.673   8.257  1.00  0.00     0.034 A 
BRANCH  26  40
ATOM     40  C   UNL     1       7.667   0.847   9.088  1.00  0.00     0.023 A 
ATOM     41  C   UNL     1       8.097  -0.396   8.586  1.00  0.00     0.031 A 
ATOM     42  C   UNL     1       7.097   0.872  10.374  1.00  0.00     0.131 A 
ATOM     43  C   UNL     1       7.868  -1.568   9.325  1.00  0.00     0.055 A 
ATOM     44  C   UNL     1       6.950  -0.287  11.139  1.00  0.00     0.041 A 
ATOM     45  F   UNL     1       6.638   2.021  10.895  1.00  0.00    -0.206 F 
ATOM     46  C   UNL     1       7.319  -1.519  10.609  1.00  0.00     0.022 A 
BRANCH  43  47
ATOM     47  S   UNL     1       8.135  -3.172   8.518  1.00  0.00     0.124 S 
ATOM     48  O   UNL     1       7.224  -3.085   7.379  1.00  0.00    -0.237 OA
ATOM     49  O   UNL     1       9.558  -3.135   8.201  1.00  0.00    -0.237 OA
ATOM     50  O   UNL     1       7.749  -4.141   9.542  1.00  0.00    -0.744 OA
ENDBRANCH  43  47
ENDBRANCH  26  40
BRANCH  27  51
ATOM     51  C   UNL     1       7.769   8.867   2.943  1.00  0.00     0.023 A 
ATOM     52  C   UNL     1       8.999   9.318   2.430  1.00  0.00     0.031 A 
ATOM     53  C   UNL     1       6.631   9.648   2.679  1.00  0.00     0.131 A 
ATOM     54  C   UNL     1       9.063  10.530   1.716  1.00  0.00     0.055 A 
ATOM     55  C   UNL     1       6.696  10.828   1.938  1.00  0.00     0.041 A 
ATOM     56  F   UNL     1       5.433   9.283   3.159  1.00  0.00    -0.206 F 
ATOM     57  C   UNL     1       7.916  11.278   1.455  1.00  0.00     0.022 A 
BRANCH  54  58
ATOM     58  S   UNL     1      10.681  11.193   1.231  1.00  0.00     0.124 S 
ATOM     59  O   UNL     1      11.358  11.296   2.518  1.00  0.00    -0.237 OA
ATOM     60  O   UNL     1      11.171  10.159   0.326  1.00  0.00    -0.237 OA
ATOM     61  O   UNL     1      10.349  12.466   0.595  1.00  0.00    -0.744 OA
ENDBRANCH  54  58
ENDBRANCH  27  51
BRANCH  39  62
ATOM     62  C   UNL     1      10.647   7.474   9.106  1.00  0.00     0.023 A 
ATOM     63  C   UNL     1      10.252   8.650   9.763  1.00  0.00     0.031 A 
ATOM     64  C   UNL     1      11.988   7.065   9.216  1.00  0.00     0.131 A 
ATOM     65  C   UNL     1      11.208   9.419  10.441  1.00  0.00     0.055 A 
ATOM     66  C   UNL     1      12.918   7.796   9.953  1.00  0.00     0.041 A 
ATOM     67  F   UNL     1      12.415   5.950   8.602  1.00  0.00    -0.206 F 
ATOM     68  C   UNL     1      12.534   8.990  10.556  1.00  0.00     0.022 A 
BRANCH  65  69
ATOM     69  S   UNL     1      10.726  11.053  11.062  1.00  0.00     0.124 S 
ATOM     70  O   UNL     1      10.250  11.709   9.849  1.00  0.00    -0.237 OA
ATOM     71  O   UNL     1       9.706  10.721  12.051  1.00  0.00    -0.237 OA
ATOM     72  O   UNL     1      11.970  11.590  11.611  1.00  0.00    -0.744 OA
ENDBRANCH  65  69
ENDBRANCH  39  62
ENDBRANCH  13  14
ENDBRANCH   6   8
ENDBRANCH   5   6
ENDBRANCH   4   5
ENDBRANCH   3   4
ENDBRANCH   2   3
ENDBRANCH   1   2
BRANCH   1  73
ATOM     73  C   UNL     1       2.088   1.058  -3.184  1.00  0.00     0.188 C 
BRANCH  73  74
ATOM     74  O   UNL     1       2.807   1.014  -4.412  1.00  0.00    -0.376 OA
BRANCH  74  75
ATOM     75  C   UNL     1       4.186   1.368  -4.371  1.00  0.00     0.202 C 
BRANCH  75  76
ATOM     76  C   UNL     1       4.547   2.822  -4.034  1.00  0.00     0.261 C 
BRANCH  76  77
ATOM     77  O   UNL     1       4.026   3.306  -2.783  1.00  0.00    -0.460 OA
BRANCH  77  78
ATOM     78  C   UNL     1       3.111   4.298  -2.899  1.00  0.00     0.339 C 
ATOM     79  O   UNL     1       2.658   4.755  -3.942  1.00  0.00    -0.246 OA
BRANCH  78  80
ATOM     80  C   UNL     1       2.714   4.843  -1.584  1.00  0.00     0.077 A 
ATOM     81  C   UNL     1       1.730   4.258  -0.885  1.00  0.00     0.101 A 
ATOM     82  C   UNL     1       3.169   6.162  -1.203  1.00  0.00     0.031 A 
ATOM     83  N   UNL     1       1.135   4.928   0.153  1.00  0.00    -0.328 N 
ATOM     84  C   UNL     1       2.543   6.897  -0.263  1.00  0.00     0.048 A 
ATOM     85  C   UNL     1       1.411   6.238   0.498  1.00  0.00     0.255 A 
ATOM     86  H   UNL     1       0.467   4.444   0.690  1.00  0.00     0.169 HD
ATOM     87  O   UNL     1       0.740   6.811   1.337  1.00  0.00    -0.269 OA
BRANCH  84  88
ATOM     88  C   UNL     1       2.908   8.319  -0.059  1.00  0.00    -0.006 A 
ATOM     89  C   UNL     1       3.266   9.118  -1.166  1.00  0.00     0.009 A 
ATOM     90  C   UNL     1       2.832   8.928   1.201  1.00  0.00     0.094 A 
ATOM     91  C   UNL     1       3.551  10.476  -1.027  1.00  0.00     0.008 A 
ATOM     92  C   UNL     1       3.078  10.302   1.331  1.00  0.00     0.270 A 
ATOM     93  C   UNL     1       3.445  11.077   0.222  1.00  0.00     0.085 A 
BRANCH  92  94
ATOM     94  N   UNL     1       2.925  10.952   2.640  1.00  0.00     0.062 N 
ATOM     95  O   UNL     1       3.251  12.147   2.724  1.00  0.00    -0.258 OA
ATOM     96  O   UNL     1       2.437  10.291   3.566  1.00  0.00    -0.258 OA
ENDBRANCH  92  94
ENDBRANCH  84  88
ENDBRANCH  78  80
ENDBRANCH  77  78
ENDBRANCH  76  77
ENDBRANCH  75  76
ENDBRANCH  74  75
ENDBRANCH  73  74
ENDBRANCH   1  73
TORSDOF 22
