REMARK SMILES O=C(OCCOCCOCCOC(=O)c1cccc2cccc([S@](=O)c3ccccc3CO)c12)c1ccc(-c2c3nc(c(-c4cc(S(=O)(=O)[O-])ccc4F)c4ccc([nH]4)c(-c4cc(S(=O)(=O)[O-])ccc4F)c4nc(c(-c5cc(S(=O)(=O)[O-])ccc5F)c5ccc2[nH]5)C=C4)C=C3)cc1
REMARK SMILES IDX 8 1 7 2 6 3 5 4 4 5 3 6 2 7 1 8 35 9 36 10 97 11 37 12 96 13
REMARK SMILES IDX 38 14 39 15 40 16 90 17 41 18 95 19 89 20 91 21 42 22 94 23
REMARK SMILES IDX 88 24 87 25 43 27 75 28 55 29 74 30 56 31 59 32 73 33 92 34
REMARK SMILES IDX 57 35 58 36 72 38 93 39 60 40 44 41 45 42 53 43 46 44 52 45
REMARK SMILES IDX 54 46 51 47 47 48 48 49 49 50 50 51 76 52 77 53 85 54 78 55
REMARK SMILES IDX 84 56 86 57 83 58 79 59 80 60 81 61 82 62 61 63 62 64 70 65
REMARK SMILES IDX 63 66 69 67 71 68 68 69 64 70 65 71 66 72 67 73 9 74 10 75
REMARK SMILES IDX 11 76 12 77 13 78 14 79 15 80 16 81 34 82 17 83 19 84 23 85
REMARK SMILES IDX 18 86 20 87 22 88 21 89 24 90 25 91 26 92 27 93 31 94 28 95
REMARK SMILES IDX 30 96 29 97 32 98 33 99
REMARK H PARENT 91 26 59 37 33 100
REMARK Flexibility Score: inf
ROOT
ATOM      1  C   UNL     1       0.975  -1.694   1.401  1.00  0.00     0.188 C 
ENDROOT
BRANCH   1   2
ATOM      2  C   UNL     1       1.928  -1.390   0.272  1.00  0.00     0.188 C 
BRANCH   2   3
ATOM      3  O   UNL     1       1.710  -2.330  -0.775  1.00  0.00    -0.376 OA
BRANCH   3   4
ATOM      4  C   UNL     1       2.687  -2.280  -1.811  1.00  0.00     0.202 C 
BRANCH   4   5
ATOM      5  C   UNL     1       2.686  -1.025  -2.712  1.00  0.00     0.261 C 
BRANCH   5   6
ATOM      6  O   UNL     1       2.707   0.221  -1.982  1.00  0.00    -0.460 OA
BRANCH   6   7
ATOM      7  C   UNL     1       1.743   1.185  -1.979  1.00  0.00     0.338 C 
ATOM      8  O   UNL     1       2.070   2.341  -1.715  1.00  0.00    -0.246 OA
BRANCH   7   9
ATOM      9  C   UNL     1       0.277   0.875  -2.114  1.00  0.00     0.060 A 
ATOM     10  C   UNL     1      -0.253  -0.413  -2.117  1.00  0.00     0.016 A 
ATOM     11  C   UNL     1      -0.634   1.948  -2.143  1.00  0.00     0.016 A 
ATOM     12  C   UNL     1      -1.616  -0.651  -2.154  1.00  0.00     0.010 A 
ATOM     13  C   UNL     1      -2.020   1.723  -2.194  1.00  0.00     0.010 A 
ATOM     14  C   UNL     1      -2.508   0.412  -2.212  1.00  0.00    -0.014 A 
BRANCH  14  15
ATOM     15  C   UNL     1      -3.909   0.052  -2.502  1.00  0.00     0.031 A 
ATOM     16  C   UNL     1      -4.332   0.042  -3.941  1.00  0.00     0.074 A 
ATOM     17  C   UNL     1      -4.667  -0.510  -1.542  1.00  0.00     0.049 A 
ATOM     18  N   UNL     1      -5.457  -0.350  -4.471  1.00  0.00    -0.248 NA
ATOM     19  C   UNL     1      -3.324   0.487  -4.920  1.00  0.00     0.031 C 
ATOM     20  C   UNL     1      -4.237  -0.731  -0.159  1.00  0.00     0.029 A 
ATOM     21  N   UNL     1      -5.924  -1.051  -1.589  1.00  0.00    -0.354 N 
ATOM     22  C   UNL     1      -5.287  -0.220  -5.845  1.00  0.00     0.074 A 
ATOM     23  C   UNL     1      -3.963   0.315  -6.066  1.00  0.00     0.031 C 
ATOM     24  C   UNL     1      -5.216  -1.366   0.506  1.00  0.00     0.029 A 
ATOM     25  C   UNL     1      -6.362  -1.533  -0.376  1.00  0.00     0.049 A 
ATOM     26  H   UNL     1      -6.463  -1.091  -2.411  1.00  0.00     0.167 HD
ATOM     27  C   UNL     1      -6.163  -0.528  -6.829  1.00  0.00     0.034 A 
ATOM     28  C   UNL     1      -7.570  -2.017  -0.021  1.00  0.00     0.034 A 
ATOM     29  C   UNL     1      -7.490  -1.016  -6.564  1.00  0.00     0.049 A 
ATOM     30  C   UNL     1      -8.605  -2.150  -1.113  1.00  0.00     0.074 A 
ATOM     31  C   UNL     1      -8.524  -1.243  -7.452  1.00  0.00     0.029 A 
ATOM     32  N   UNL     1      -7.969  -1.343  -5.299  1.00  0.00    -0.354 N 
ATOM     33  N   UNL     1      -8.471  -1.934  -2.404  1.00  0.00    -0.248 NA
ATOM     34  C   UNL     1      -9.941  -2.597  -0.711  1.00  0.00     0.031 C 
ATOM     35  C   UNL     1      -9.648  -1.633  -6.715  1.00  0.00     0.029 A 
ATOM     36  C   UNL     1      -9.293  -1.737  -5.378  1.00  0.00     0.049 A 
ATOM     37  H   UNL     1      -7.442  -1.301  -4.468  1.00  0.00     0.167 HD
ATOM     38  C   UNL     1      -9.701  -2.250  -2.971  1.00  0.00     0.074 A 
ATOM     39  C   UNL     1     -10.549  -2.700  -1.883  1.00  0.00     0.031 C 
ATOM     40  C   UNL     1     -10.104  -2.173  -4.266  1.00  0.00     0.034 A 
BRANCH  27  41
ATOM     41  C   UNL     1      -5.732  -0.235  -8.242  1.00  0.00     0.023 A 
ATOM     42  C   UNL     1      -4.678  -0.934  -8.858  1.00  0.00     0.031 A 
ATOM     43  C   UNL     1      -6.328   0.822  -8.952  1.00  0.00     0.131 A 
ATOM     44  C   UNL     1      -4.208  -0.522 -10.115  1.00  0.00     0.055 A 
ATOM     45  C   UNL     1      -5.906   1.176 -10.235  1.00  0.00     0.041 A 
ATOM     46  F   UNL     1      -7.310   1.548  -8.397  1.00  0.00    -0.206 F 
ATOM     47  C   UNL     1      -4.832   0.512 -10.818  1.00  0.00     0.022 A 
BRANCH  44  48
ATOM     48  S   UNL     1      -2.676  -1.255 -10.756  1.00  0.00     0.124 S 
ATOM     49  O   UNL     1      -1.708  -0.847  -9.740  1.00  0.00    -0.237 OA
ATOM     50  O   UNL     1      -2.997  -2.677 -10.796  1.00  0.00    -0.237 OA
ATOM     51  O   UNL     1      -2.509  -0.616 -12.059  1.00  0.00    -0.744 OA
ENDBRANCH  44  48
ENDBRANCH  27  41
BRANCH  28  52
ATOM     52  C   UNL     1      -7.906  -2.311   1.407  1.00  0.00     0.023 A 
ATOM     53  C   UNL     1      -8.407  -3.559   1.811  1.00  0.00     0.031 A 
ATOM     54  C   UNL     1      -7.844  -1.292   2.380  1.00  0.00     0.131 A 
ATOM     55  C   UNL     1      -8.892  -3.733   3.119  1.00  0.00     0.055 A 
ATOM     56  C   UNL     1      -8.262  -1.491   3.697  1.00  0.00     0.041 A 
ATOM     57  F   UNL     1      -7.384  -0.071   2.061  1.00  0.00    -0.206 F 
ATOM     58  C   UNL     1      -8.811  -2.712   4.068  1.00  0.00     0.022 A 
BRANCH  55  59
ATOM     59  S   UNL     1      -9.770  -5.270   3.525  1.00  0.00     0.124 S 
ATOM     60  O   UNL     1     -10.791  -5.310   2.485  1.00  0.00    -0.237 OA
ATOM     61  O   UNL     1      -8.704  -6.261   3.417  1.00  0.00    -0.237 OA
ATOM     62  O   UNL     1     -10.264  -5.032   4.879  1.00  0.00    -0.744 OA
ENDBRANCH  55  59
ENDBRANCH  28  52
BRANCH  40  63
ATOM     63  C   UNL     1     -11.510  -2.627  -4.560  1.00  0.00     0.023 A 
ATOM     64  C   UNL     1     -12.623  -1.946  -4.041  1.00  0.00     0.031 A 
ATOM     65  C   UNL     1     -11.736  -3.767  -5.350  1.00  0.00     0.131 A 
ATOM     66  C   UNL     1     -13.910  -2.456  -4.252  1.00  0.00     0.055 A 
ATOM     67  C   UNL     1     -13.024  -4.223  -5.625  1.00  0.00     0.041 A 
ATOM     68  F   UNL     1     -10.706  -4.456  -5.867  1.00  0.00    -0.206 F 
ATOM     69  C   UNL     1     -14.120  -3.577  -5.059  1.00  0.00     0.022 A 
BRANCH  66  70
ATOM     70  S   UNL     1     -15.292  -1.708  -3.349  1.00  0.00     0.124 S 
ATOM     71  O   UNL     1     -14.864  -1.863  -1.962  1.00  0.00    -0.237 OA
ATOM     72  O   UNL     1     -15.298  -0.343  -3.864  1.00  0.00    -0.237 OA
ATOM     73  O   UNL     1     -16.438  -2.525  -3.741  1.00  0.00    -0.744 OA
ENDBRANCH  66  70
ENDBRANCH  40  63
ENDBRANCH  14  15
ENDBRANCH   7   9
ENDBRANCH   6   7
ENDBRANCH   5   6
ENDBRANCH   4   5
ENDBRANCH   3   4
ENDBRANCH   2   3
ENDBRANCH   1   2
BRANCH   1  74
ATOM     74  O   UNL     1       1.689  -2.367   2.440  1.00  0.00    -0.376 OA
BRANCH  74  75
ATOM     75  C   UNL     1       1.095  -3.626   2.741  1.00  0.00     0.202 C 
BRANCH  75  76
ATOM     76  C   UNL     1      -0.135  -3.495   3.646  1.00  0.00     0.261 C 
BRANCH  76  77
ATOM     77  O   UNL     1      -0.919  -2.327   3.330  1.00  0.00    -0.460 OA
BRANCH  77  78
ATOM     78  C   UNL     1      -0.792  -1.274   4.184  1.00  0.00     0.338 C 
ATOM     79  O   UNL     1      -0.170  -1.277   5.236  1.00  0.00    -0.246 OA
BRANCH  78  80
ATOM     80  C   UNL     1      -1.656  -0.168   3.698  1.00  0.00     0.069 A 
ATOM     81  C   UNL     1      -3.022  -0.507   3.804  1.00  0.00     0.016 A 
ATOM     82  C   UNL     1      -1.202   1.087   3.110  1.00  0.00     0.013 A 
ATOM     83  C   UNL     1      -3.997   0.353   3.343  1.00  0.00     0.002 A 
ATOM     84  C   UNL     1      -2.262   1.889   2.580  1.00  0.00    -0.016 A 
ATOM     85  C   UNL     1       0.151   1.645   2.956  1.00  0.00     0.052 A 
ATOM     86  C   UNL     1      -3.614   1.531   2.722  1.00  0.00     0.009 A 
ATOM     87  C   UNL     1      -2.007   3.072   1.878  1.00  0.00     0.009 A 
ATOM     88  C   UNL     1       0.361   2.790   2.164  1.00  0.00     0.019 A 
ATOM     89  C   UNL     1      -0.711   3.502   1.638  1.00  0.00     0.002 A 
BRANCH  85  90
ATOM     90  S   UNL     1       1.532   0.878   3.888  1.00  0.00     0.086 S 
ATOM     91  O   UNL     1       1.169   1.175   5.316  1.00  0.00    -0.249 OA
BRANCH  90  92
ATOM     92  C   UNL     1       2.998   1.934   3.645  1.00  0.00     0.049 A 
ATOM     93  C   UNL     1       2.961   3.256   4.125  1.00  0.00     0.018 A 
ATOM     94  C   UNL     1       4.259   1.340   3.384  1.00  0.00    -0.006 A 
ATOM     95  C   UNL     1       4.134   3.951   4.421  1.00  0.00     0.001 A 
ATOM     96  C   UNL     1       5.429   2.046   3.732  1.00  0.00     0.007 A 
ATOM     97  C   UNL     1       5.367   3.330   4.266  1.00  0.00     0.000 A 
BRANCH  94  98
ATOM     98  C   UNL     1       4.427  -0.076   2.891  1.00  0.00     0.192 C 
BRANCH  98  99
ATOM     99  O   UNL     1       5.435  -0.140   1.881  1.00  0.00    -0.392 OA
ATOM    100  H   UNL     1       5.178   0.418   1.131  1.00  0.00     0.211 HD
ENDBRANCH  98  99
ENDBRANCH  94  98
ENDBRANCH  90  92
ENDBRANCH  85  90
ENDBRANCH  78  80
ENDBRANCH  77  78
ENDBRANCH  76  77
ENDBRANCH  75  76
ENDBRANCH  74  75
ENDBRANCH   1  74
TORSDOF 24
