REMARK SMILES Cc1ccc(C[C@H](C(=O)OCCOCCOCCOC(=O)c2ccc(-c3c4nc(c(-c5cc(S(=O)(=O)[O-])ccc5F)c5ccc([nH]5)c(-c5cc(S(=O)(=O)[O-])ccc5F)c5nc(c(-c6cc(S(=O)(=O)[O-])ccc6F)c6ccc3[nH]6)C=C5)C=C4)cc2)[C@@H]2CCCC[C@@H]2O)cc1
REMARK SMILES IDX 15 1 14 2 13 3 12 4 11 5 10 6 8 7 9 8 7 9 6 10 5 11 1 12
REMARK SMILES IDX 2 13 3 14 93 15 4 16 92 17 85 18 86 19 90 20 87 21 89 22
REMARK SMILES IDX 88 23 91 24 16 26 17 27 18 28 19 29 20 30 21 31 22 32 23 33
REMARK SMILES IDX 84 34 24 35 83 36 25 37 26 38 27 39 77 40 28 41 82 42 76 43
REMARK SMILES IDX 78 44 29 45 81 46 75 47 74 48 30 50 62 51 42 52 61 53 43 54
REMARK SMILES IDX 46 55 60 56 79 57 44 58 45 59 59 61 80 62 47 63 31 64 32 65
REMARK SMILES IDX 40 66 33 67 39 68 41 69 38 70 34 71 35 72 36 73 37 74 63 75
REMARK SMILES IDX 64 76 72 77 65 78 71 79 73 80 70 81 66 82 67 83 68 84 69 85
REMARK SMILES IDX 48 86 49 87 57 88 50 89 56 90 58 91 55 92 51 93 52 94 53 95
REMARK SMILES IDX 54 96
REMARK H PARENT 91 25 78 49 46 60
REMARK Flexibility Score: inf
ROOT
ATOM      1  C   UNL     1      -0.159  -1.367   0.614  1.00  0.00     0.188 C 
ENDROOT
BRANCH   1   2
ATOM      2  C   UNL     1      -0.400  -1.739   2.079  1.00  0.00     0.188 C 
BRANCH   2   3
ATOM      3  O   UNL     1      -0.092  -3.090   2.315  1.00  0.00    -0.376 OA
BRANCH   3   4
ATOM      4  C   UNL     1      -1.144  -3.979   2.047  1.00  0.00     0.202 C 
BRANCH   4   5
ATOM      5  C   UNL     1      -2.496  -3.641   1.395  1.00  0.00     0.261 C 
BRANCH   5   6
ATOM      6  O   UNL     1      -3.044  -2.399   0.820  1.00  0.00    -0.463 OA
BRANCH   6   7
ATOM      7  C   UNL     1      -3.105  -1.049   0.684  1.00  0.00     0.309 C 
ATOM      8  O   UNL     1      -2.471  -0.227   1.331  1.00  0.00    -0.252 OA
BRANCH   7   9
ATOM      9  C   UNL     1      -4.510  -0.539  -0.054  1.00  0.00     0.109 C 
BRANCH   9  10
ATOM     10  C   UNL     1      -4.888   0.937   1.096  1.00  0.00     0.051 C 
BRANCH  10  11
ATOM     11  C   UNL     1      -4.598   2.406   0.854  1.00  0.00    -0.047 A 
ATOM     12  C   UNL     1      -3.273   6.433   1.322  1.00  0.00     0.044 C 
ATOM     13  C   UNL     1      -3.813   5.089   0.941  1.00  0.00    -0.051 A 
ATOM     14  C   UNL     1      -2.903   4.096   0.572  1.00  0.00     0.004 A 
ATOM     15  C   UNL     1      -5.158   4.754   1.131  1.00  0.00     0.004 A 
ATOM     16  C   UNL     1      -3.294   2.769   0.528  1.00  0.00     0.004 A 
ATOM     17  C   UNL     1      -5.554   3.413   1.091  1.00  0.00     0.004 A 
ENDBRANCH  10  11
ENDBRANCH   9  10
BRANCH   9  18
ATOM     18  C   UNL     1      -5.519  -0.920  -1.991  1.00  0.00     0.032 C 
ATOM     19  C   UNL     1      -6.494   0.303  -2.982  1.00  0.00     0.007 C 
ATOM     20  C   UNL     1      -6.367  -2.235  -2.774  1.00  0.00     0.118 C 
ATOM     21  C   UNL     1      -8.020   0.236  -2.935  1.00  0.00     0.001 C 
ATOM     22  C   UNL     1      -7.904  -2.264  -2.661  1.00  0.00     0.032 C 
ATOM     23  C   UNL     1      -8.546  -1.098  -3.406  1.00  0.00     0.003 C 
BRANCH  20  24
ATOM     24  O   UNL     1      -5.784  -3.533  -2.825  1.00  0.00    -0.393 OA
ATOM     25  H   UNL     1      -5.909  -3.977  -1.972  1.00  0.00     0.210 HD
ENDBRANCH  20  24
ENDBRANCH   9  18
ENDBRANCH   7   9
ENDBRANCH   6   7
ENDBRANCH   5   6
ENDBRANCH   4   5
ENDBRANCH   3   4
ENDBRANCH   2   3
ENDBRANCH   1   2
BRANCH   1  26
ATOM     26  O   UNL     1      -0.779  -2.329  -0.248  1.00  0.00    -0.376 OA
BRANCH  26  27
ATOM     27  C   UNL     1      -0.149  -2.497  -1.496  1.00  0.00     0.202 C 
BRANCH  27  28
ATOM     28  C   UNL     1      -0.154  -1.200  -2.330  1.00  0.00     0.261 C 
BRANCH  28  29
ATOM     29  O   UNL     1      -1.518  -0.838  -2.690  1.00  0.00    -0.460 OA
BRANCH  29  30
ATOM     30  C   UNL     1      -2.121   0.312  -2.254  1.00  0.00     0.338 C 
ATOM     31  O   UNL     1      -1.615   1.408  -2.152  1.00  0.00    -0.246 OA
BRANCH  30  32
ATOM     32  C   UNL     1      -3.503  -0.079  -1.827  1.00  0.00     0.060 A 
ATOM     33  C   UNL     1      -4.931   0.904  -1.327  1.00  0.00     0.016 A 
ATOM     34  C   UNL     1      -3.594  -1.823  -1.583  1.00  0.00     0.016 A 
ATOM     35  C   UNL     1      -6.383   0.065  -0.473  1.00  0.00     0.010 A 
ATOM     36  C   UNL     1      -4.900  -2.574  -0.734  1.00  0.00     0.010 A 
ATOM     37  C   UNL     1      -6.288  -1.706  -0.084  1.00  0.00    -0.014 A 
BRANCH  37  38
ATOM     38  C   UNL     1      -6.319  -2.461   1.399  1.00  0.00     0.031 A 
ATOM     39  C   UNL     1      -7.220  -3.609   1.283  1.00  0.00     0.074 A 
ATOM     40  C   UNL     1      -5.455  -2.460   2.509  1.00  0.00     0.049 A 
ATOM     41  N   UNL     1      -8.374  -3.681   1.867  1.00  0.00    -0.248 NA
ATOM     42  C   UNL     1      -6.977  -4.642   0.262  1.00  0.00     0.031 C 
ATOM     43  C   UNL     1      -5.163  -3.639   3.372  1.00  0.00     0.029 A 
ATOM     44  N   UNL     1      -4.507  -1.572   3.053  1.00  0.00    -0.354 N 
ATOM     45  C   UNL     1      -8.795  -4.943   1.514  1.00  0.00     0.074 A 
ATOM     46  C   UNL     1      -8.197  -5.160   0.210  1.00  0.00     0.031 C 
ATOM     47  C   UNL     1      -4.223  -3.368   4.312  1.00  0.00     0.029 A 
ATOM     48  C   UNL     1      -3.850  -1.966   4.225  1.00  0.00     0.049 A 
ATOM     49  H   UNL     1      -4.314  -0.707   2.625  1.00  0.00     0.167 HD
ATOM     50  C   UNL     1      -8.789  -5.966   2.428  1.00  0.00     0.034 A 
ATOM     51  C   UNL     1      -3.669  -1.119   5.288  1.00  0.00     0.034 A 
ATOM     52  C   UNL     1      -8.124  -5.622   3.711  1.00  0.00     0.049 A 
ATOM     53  C   UNL     1      -4.977  -1.253   6.090  1.00  0.00     0.074 A 
ATOM     54  C   UNL     1      -7.108  -6.193   4.470  1.00  0.00     0.029 A 
ATOM     55  N   UNL     1      -8.332  -4.374   4.305  1.00  0.00    -0.354 N 
ATOM     56  N   UNL     1      -5.796  -2.249   5.870  1.00  0.00    -0.248 NA
ATOM     57  C   UNL     1      -5.502  -0.382   7.132  1.00  0.00     0.031 C 
ATOM     58  C   UNL     1      -6.818  -5.335   5.577  1.00  0.00     0.029 A 
ATOM     59  C   UNL     1      -7.635  -4.223   5.491  1.00  0.00     0.049 A 
ATOM     60  H   UNL     1      -8.912  -3.678   3.921  1.00  0.00     0.167 HD
ATOM     61  C   UNL     1      -6.945  -2.152   6.577  1.00  0.00     0.074 A 
ATOM     62  C   UNL     1      -6.706  -0.948   7.374  1.00  0.00     0.031 C 
ATOM     63  C   UNL     1      -7.935  -3.090   6.379  1.00  0.00     0.034 A 
BRANCH  50  64
ATOM     64  C   UNL     1      -9.066  -7.386   1.943  1.00  0.00     0.023 A 
ATOM     65  C   UNL     1      -8.769  -8.471   2.772  1.00  0.00     0.031 A 
ATOM     66  C   UNL     1      -9.677  -7.730   0.707  1.00  0.00     0.131 A 
ATOM     67  C   UNL     1      -8.996  -9.795   2.358  1.00  0.00     0.055 A 
ATOM     68  C   UNL     1      -9.811  -9.047   0.250  1.00  0.00     0.041 A 
ATOM     69  F   UNL     1     -10.222  -6.803  -0.099  1.00  0.00    -0.206 F 
ATOM     70  C   UNL     1      -9.475 -10.095   1.085  1.00  0.00     0.022 A 
BRANCH  67  71
ATOM     71  S   UNL     1      -8.780 -11.112   3.577  1.00  0.00     0.124 S 
ATOM     72  O   UNL     1      -7.332 -11.121   3.754  1.00  0.00    -0.237 OA
ATOM     73  O   UNL     1      -9.566 -10.618   4.702  1.00  0.00    -0.237 OA
ATOM     74  O   UNL     1      -9.335 -12.285   2.905  1.00  0.00    -0.744 OA
ENDBRANCH  67  71
ENDBRANCH  50  64
BRANCH  51  75
ATOM     75  C   UNL     1      -2.891   0.147   4.972  1.00  0.00     0.023 A 
ATOM     76  C   UNL     1      -1.465   0.128   4.782  1.00  0.00     0.031 A 
ATOM     77  C   UNL     1      -3.556   1.294   4.530  1.00  0.00     0.131 A 
ATOM     78  C   UNL     1      -0.814   1.134   4.016  1.00  0.00     0.055 A 
ATOM     79  C   UNL     1      -2.905   2.274   3.771  1.00  0.00     0.041 A 
ATOM     80  F   UNL     1      -4.880   1.422   4.697  1.00  0.00    -0.206 F 
ATOM     81  C   UNL     1      -1.558   2.156   3.443  1.00  0.00     0.022 A 
BRANCH  78  82
ATOM     82  S   UNL     1       0.982   1.148   3.595  1.00  0.00     0.124 S 
ATOM     83  O   UNL     1       1.446   2.392   4.201  1.00  0.00    -0.237 OA
ATOM     84  O   UNL     1       1.504  -0.065   4.215  1.00  0.00    -0.237 OA
ATOM     85  O   UNL     1       0.971   1.149   2.131  1.00  0.00    -0.744 OA
ENDBRANCH  78  82
ENDBRANCH  51  75
BRANCH  63  86
ATOM     86  C   UNL     1      -9.301  -3.085   7.021  1.00  0.00     0.023 A 
ATOM     87  C   UNL     1      -9.616  -2.216   8.055  1.00  0.00     0.031 A 
ATOM     88  C   UNL     1     -10.348  -3.966   6.636  1.00  0.00     0.131 A 
ATOM     89  C   UNL     1     -10.904  -2.153   8.596  1.00  0.00     0.055 A 
ATOM     90  C   UNL     1     -11.629  -3.920   7.183  1.00  0.00     0.041 A 
ATOM     91  F   UNL     1     -10.197  -4.926   5.715  1.00  0.00    -0.206 F 
ATOM     92  C   UNL     1     -11.922  -2.993   8.164  1.00  0.00     0.022 A 
BRANCH  89  93
ATOM     93  S   UNL     1     -11.175  -0.912   9.872  1.00  0.00     0.124 S 
ATOM     94  O   UNL     1     -10.148  -1.250  10.853  1.00  0.00    -0.237 OA
ATOM     95  O   UNL     1     -10.955   0.328   9.132  1.00  0.00    -0.237 OA
ATOM     96  O   UNL     1     -12.551  -1.154  10.296  1.00  0.00    -0.744 OA
ENDBRANCH  89  93
ENDBRANCH  63  86
ENDBRANCH  37  38
ENDBRANCH  30  32
ENDBRANCH  29  30
ENDBRANCH  28  29
ENDBRANCH  27  28
ENDBRANCH  26  27
ENDBRANCH   1  26
TORSDOF 24
