REMARK SMILES O=C(N[C@@H](Cc1c[nH]c2ccccc12)C(=O)N[C@@H](CO)C(=O)OCCOCCOCCOC(=O)c1ccc(-c2c3nc(c(-c4cc(S(=O)(=O)[O-])ccc4F)c4ccc([nH]4)c(-c4cc(S(=O)(=O)[O-])ccc4F)c4nc(c(-c5cc(S(=O)(=O)[O-])ccc5F)c5ccc2[nH]5)C=C4)C=C3)cc1)c1ccc(F)cc1
REMARK SMILES IDX 27 1 26 2 25 3 24 4 23 5 21 6 22 7 18 8 17 9 15 10 16 11
REMARK SMILES IDX 4 13 3 14 1 15 2 16 98 18 99 19 104 20 100 21 103 22 101 23
REMARK SMILES IDX 102 24 5 25 6 26 7 27 14 28 8 29 9 30 13 31 10 33 12 34
REMARK SMILES IDX 11 35 19 36 20 37 28 39 29 40 30 41 31 42 32 43 33 44 34 45
REMARK SMILES IDX 35 46 36 47 97 48 37 49 96 50 38 51 39 52 40 53 90 54 41 55
REMARK SMILES IDX 95 56 89 57 91 58 42 59 94 60 88 61 87 62 43 64 75 65 55 66
REMARK SMILES IDX 74 67 56 68 59 69 73 70 92 71 57 72 58 73 72 75 93 76 60 77
REMARK SMILES IDX 44 78 45 79 53 80 46 81 52 82 54 83 51 84 47 85 48 86 49 87
REMARK SMILES IDX 50 88 76 89 77 90 85 91 78 92 84 93 86 94 83 95 79 96 80 97
REMARK SMILES IDX 81 98 82 99 61 100 62 101 70 102 63 103 69 104 71 105 68 106
REMARK SMILES IDX 64 107 65 108 66 109 67 110
REMARK H PARENT 17 12 3 17 8 32 20 38 91 63 59 74
REMARK Flexibility Score: inf
ROOT
ATOM      1  C   UNL     1       6.908  -0.120   5.678  1.00  0.00     0.188 C 
ENDROOT
BRANCH   1   2
ATOM      2  O   UNL     1       7.075  -0.803   6.916  1.00  0.00    -0.376 OA
BRANCH   2   3
ATOM      3  C   UNL     1       5.901  -0.993   7.680  1.00  0.00     0.202 C 
BRANCH   3   4
ATOM      4  C   UNL     1       5.066  -2.232   7.303  1.00  0.00     0.261 C 
BRANCH   4   5
ATOM      5  O   UNL     1       4.601  -2.283   5.930  1.00  0.00    -0.462 OA
BRANCH   5   6
ATOM      6  C   UNL     1       3.264  -2.499   5.714  1.00  0.00     0.331 C 
ATOM      7  O   UNL     1       2.444  -2.559   6.626  1.00  0.00    -0.250 OA
BRANCH   6   8
ATOM      8  C   UNL     1       2.855  -2.559   4.192  1.00  0.00     0.218 C 
BRANCH   8   9
ATOM      9  N   UNL     1       3.953  -2.464   3.197  1.00  0.00    -0.339 N 
ATOM     10  C   UNL     1       4.327  -1.584   2.224  1.00  0.00     0.243 C 
ATOM     11  O   UNL     1       5.442  -1.830   1.733  1.00  0.00    -0.273 OA
ATOM     12  H   UNL     1       4.567  -3.232   3.253  1.00  0.00     0.164 HD
BRANCH  10  13
ATOM     13  C   UNL     1       3.553  -0.332   1.673  1.00  0.00     0.176 C 
BRANCH  13  14
ATOM     14  N   UNL     1       2.222  -0.636   1.153  1.00  0.00    -0.340 N 
ATOM     15  O   UNL     1       0.576  -0.687  -0.389  1.00  0.00    -0.269 OA
ATOM     16  C   UNL     1       1.763  -0.490  -0.143  1.00  0.00     0.251 C 
ATOM     17  H   UNL     1       1.573  -0.987   1.805  1.00  0.00     0.164 HD
BRANCH  16  18
ATOM     18  C   UNL     1       2.667  -0.083  -1.254  1.00  0.00     0.040 A 
ATOM     19  C   UNL     1       3.765  -0.873  -1.629  1.00  0.00     0.017 A 
ATOM     20  C   UNL     1       2.357   1.069  -1.993  1.00  0.00     0.017 A 
ATOM     21  C   UNL     1       4.565  -0.488  -2.711  1.00  0.00     0.040 A 
ATOM     22  C   UNL     1       3.158   1.447  -3.076  1.00  0.00     0.040 A 
ATOM     23  C   UNL     1       4.254   0.665  -3.425  1.00  0.00     0.123 A 
ATOM     24  F   UNL     1       5.010   1.012  -4.474  1.00  0.00    -0.207 F 
ENDBRANCH  16  18
ENDBRANCH  13  14
BRANCH  13  25
ATOM     25  C   UNL     1       3.676   1.071   2.338  1.00  0.00     0.072 C 
BRANCH  25  26
ATOM     26  C   UNL     1       3.263   1.245   3.763  1.00  0.00    -0.020 A 
ATOM     27  C   UNL     1       3.586   0.355   4.746  1.00  0.00     0.087 A 
ATOM     28  C   UNL     1       2.768   2.390   4.485  1.00  0.00     0.003 A 
ATOM     29  N   UNL     1       3.015   0.711   5.920  1.00  0.00    -0.361 N 
ATOM     30  C   UNL     1       2.670   2.027   5.836  1.00  0.00     0.046 A 
ATOM     31  C   UNL     1       2.465   3.724   4.159  1.00  0.00     0.010 A 
ATOM     32  H   UNL     1       2.873   0.123   6.697  1.00  0.00     0.166 HD
ATOM     33  C   UNL     1       2.321   2.899   6.868  1.00  0.00     0.026 A 
ATOM     34  C   UNL     1       2.121   4.620   5.188  1.00  0.00     0.001 A 
ATOM     35  C   UNL     1       2.073   4.220   6.521  1.00  0.00     0.002 A 
ENDBRANCH  25  26
ENDBRANCH  13  25
ENDBRANCH  10  13
ENDBRANCH   8   9
BRANCH   8  36
ATOM     36  C   UNL     1       2.072  -3.868   4.019  1.00  0.00     0.193 C 
BRANCH  36  37
ATOM     37  O   UNL     1       2.898  -5.007   4.267  1.00  0.00    -0.394 OA
ATOM     38  H   UNL     1       3.633  -5.017   3.634  1.00  0.00     0.210 HD
ENDBRANCH  36  37
ENDBRANCH   8  36
ENDBRANCH   6   8
ENDBRANCH   5   6
ENDBRANCH   4   5
ENDBRANCH   3   4
ENDBRANCH   2   3
ENDBRANCH   1   2
BRANCH   1  39
ATOM     39  C   UNL     1       7.139  -1.062   4.491  1.00  0.00     0.188 C 
BRANCH  39  40
ATOM     40  O   UNL     1       8.134  -2.075   4.646  1.00  0.00    -0.376 OA
BRANCH  40  41
ATOM     41  C   UNL     1       9.349  -1.687   5.276  1.00  0.00     0.202 C 
BRANCH  41  42
ATOM     42  C   UNL     1      10.206  -0.690   4.498  1.00  0.00     0.261 C 
BRANCH  42  43
ATOM     43  O   UNL     1       9.485   0.503   4.134  1.00  0.00    -0.460 OA
BRANCH  43  44
ATOM     44  C   UNL     1       9.829   1.028   2.938  1.00  0.00     0.338 C 
ATOM     45  O   UNL     1      10.736   0.643   2.203  1.00  0.00    -0.246 OA
BRANCH  44  46
ATOM     46  C   UNL     1       8.997   2.200   2.619  1.00  0.00     0.060 A 
ATOM     47  C   UNL     1       7.683   2.044   2.166  1.00  0.00     0.016 A 
ATOM     48  C   UNL     1       9.590   3.465   2.625  1.00  0.00     0.016 A 
ATOM     49  C   UNL     1       6.967   3.158   1.710  1.00  0.00     0.010 A 
ATOM     50  C   UNL     1       8.870   4.577   2.174  1.00  0.00     0.010 A 
ATOM     51  C   UNL     1       7.558   4.429   1.697  1.00  0.00    -0.014 A 
BRANCH  51  52
ATOM     52  C   UNL     1       6.833   5.582   1.101  1.00  0.00     0.031 A 
ATOM     53  C   UNL     1       7.174   6.039  -0.287  1.00  0.00     0.074 A 
ATOM     54  C   UNL     1       5.861   6.209   1.788  1.00  0.00     0.049 A 
ATOM     55  N   UNL     1       6.759   7.097  -0.933  1.00  0.00    -0.248 NA
ATOM     56  C   UNL     1       8.120   5.200  -1.035  1.00  0.00     0.031 C 
ATOM     57  C   UNL     1       5.427   5.838   3.130  1.00  0.00     0.029 A 
ATOM     58  N   UNL     1       5.065   7.280   1.460  1.00  0.00    -0.354 N 
ATOM     59  C   UNL     1       7.439   7.090  -2.145  1.00  0.00     0.074 A 
ATOM     60  C   UNL     1       8.269   5.901  -2.151  1.00  0.00     0.031 C 
ATOM     61  C   UNL     1       4.424   6.651   3.498  1.00  0.00     0.029 A 
ATOM     62  C   UNL     1       4.156   7.617   2.438  1.00  0.00     0.049 A 
ATOM     63  H   UNL     1       5.137   7.761   0.605  1.00  0.00     0.167 HD
ATOM     64  C   UNL     1       7.400   8.013  -3.138  1.00  0.00     0.034 A 
ATOM     65  C   UNL     1       3.232   8.600   2.484  1.00  0.00     0.034 A 
ATOM     66  C   UNL     1       6.571   9.195  -3.110  1.00  0.00     0.049 A 
ATOM     67  C   UNL     1       3.203   9.609   1.360  1.00  0.00     0.074 A 
ATOM     68  C   UNL     1       6.487  10.214  -4.043  1.00  0.00     0.029 A 
ATOM     69  N   UNL     1       5.683   9.521  -2.092  1.00  0.00    -0.354 N 
ATOM     70  N   UNL     1       3.916   9.638   0.257  1.00  0.00    -0.248 NA
ATOM     71  C   UNL     1       2.287  10.748   1.514  1.00  0.00     0.031 C 
ATOM     72  C   UNL     1       5.597  11.183  -3.561  1.00  0.00     0.029 A 
ATOM     73  C   UNL     1       5.071  10.737  -2.360  1.00  0.00     0.049 A 
ATOM     74  H   UNL     1       5.512   8.968  -1.296  1.00  0.00     0.167 HD
ATOM     75  C   UNL     1       3.564  10.819  -0.390  1.00  0.00     0.074 A 
ATOM     76  C   UNL     1       2.525  11.437   0.408  1.00  0.00     0.031 C 
ATOM     77  C   UNL     1       4.077  11.365  -1.522  1.00  0.00     0.034 A 
BRANCH  64  78
ATOM     78  C   UNL     1       8.373   7.829  -4.275  1.00  0.00     0.023 A 
ATOM     79  C   UNL     1       8.280   6.758  -5.178  1.00  0.00     0.031 A 
ATOM     80  C   UNL     1       9.457   8.717  -4.412  1.00  0.00     0.131 A 
ATOM     81  C   UNL     1       9.292   6.560  -6.131  1.00  0.00     0.055 A 
ATOM     82  C   UNL     1      10.419   8.558  -5.410  1.00  0.00     0.041 A 
ATOM     83  F   UNL     1       9.611   9.742  -3.559  1.00  0.00    -0.206 F 
ATOM     84  C   UNL     1      10.348   7.465  -6.267  1.00  0.00     0.022 A 
BRANCH  81  85
ATOM     85  S   UNL     1       9.291   5.022  -7.093  1.00  0.00     0.124 S 
ATOM     86  O   UNL     1       9.373   4.016  -6.038  1.00  0.00    -0.237 OA
ATOM     87  O   UNL     1       8.023   5.100  -7.809  1.00  0.00    -0.237 OA
ATOM     88  O   UNL     1      10.486   5.139  -7.927  1.00  0.00    -0.744 OA
ENDBRANCH  81  85
ENDBRANCH  64  78
BRANCH  65  89
ATOM     89  C   UNL     1       2.299   8.738   3.646  1.00  0.00     0.023 A 
ATOM     90  C   UNL     1       0.905   8.694   3.463  1.00  0.00     0.031 A 
ATOM     91  C   UNL     1       2.776   8.969   4.949  1.00  0.00     0.131 A 
ATOM     92  C   UNL     1       0.044   8.909   4.554  1.00  0.00     0.055 A 
ATOM     93  C   UNL     1       1.917   9.107   6.041  1.00  0.00     0.041 A 
ATOM     94  F   UNL     1       4.095   9.052   5.186  1.00  0.00    -0.206 F 
ATOM     95  C   UNL     1       0.541   9.088   5.845  1.00  0.00     0.022 A 
BRANCH  92  96
ATOM     96  S   UNL     1      -1.740   9.056   4.247  1.00  0.00     0.124 S 
ATOM     97  O   UNL     1      -1.789  10.182   3.322  1.00  0.00    -0.237 OA
ATOM     98  O   UNL     1      -2.060   7.749   3.686  1.00  0.00    -0.237 OA
ATOM     99  O   UNL     1      -2.292   9.315   5.576  1.00  0.00    -0.744 OA
ENDBRANCH  92  96
ENDBRANCH  65  89
BRANCH  77 100
ATOM    100  C   UNL     1       3.537  12.716  -1.925  1.00  0.00     0.023 A 
ATOM    101  C   UNL     1       3.798  13.863  -1.151  1.00  0.00     0.031 A 
ATOM    102  C   UNL     1       2.737  12.859  -3.071  1.00  0.00     0.131 A 
ATOM    103  C   UNL     1       3.220  15.091  -1.502  1.00  0.00     0.055 A 
ATOM    104  C   UNL     1       2.208  14.096  -3.445  1.00  0.00     0.041 A 
ATOM    105  F   UNL     1       2.454  11.798  -3.843  1.00  0.00    -0.206 F 
ATOM    106  C   UNL     1       2.438  15.218  -2.653  1.00  0.00     0.022 A 
BRANCH 103 107
ATOM    107  S   UNL     1       3.437  16.508  -0.390  1.00  0.00     0.124 S 
ATOM    108  O   UNL     1       2.817  16.026   0.840  1.00  0.00    -0.237 OA
ATOM    109  O   UNL     1       4.888  16.661  -0.355  1.00  0.00    -0.237 OA
ATOM    110  O   UNL     1       2.717  17.587  -1.064  1.00  0.00    -0.744 OA
ENDBRANCH 103 107
ENDBRANCH  77 100
ENDBRANCH  51  52
ENDBRANCH  44  46
ENDBRANCH  43  44
ENDBRANCH  42  43
ENDBRANCH  41  42
ENDBRANCH  40  41
ENDBRANCH  39  40
ENDBRANCH   1  39
TORSDOF 28
