REMARK SMILES Cc1cc(C(=O)N[C@@H]2C(=O)N3C(C(=O)OCCOCCOCCOC(=O)c4ccc(-c5c6nc(c(-c7cc(S(=O)(=O)[O-])ccc7F)c7ccc([nH]7)c(-c7cc(S(=O)(=O)[O-])ccc7F)c7nc(c(-c8cc(S(=O)(=O)[O-])ccc8F)c8ccc5[nH]8)C=C7)C=C6)cc4)=C(CSc4nnc(C)s4)CS[C@H]23)n(C)n1
REMARK SMILES IDX 19 1 18 2 17 3 16 4 15 5 13 6 14 7 12 8 8 9 9 10 101 11
REMARK SMILES IDX 10 12 11 13 100 14 99 15 90 16 7 17 5 18 6 19 4 21 1 22 2 23
REMARK SMILES IDX 3 24 104 25 102 26 103 27 91 28 92 29 93 30 94 31 98 32
REMARK SMILES IDX 95 33 96 34 97 35 20 36 21 37 22 38 23 39 24 40 25 41 26 42
REMARK SMILES IDX 27 43 28 44 89 45 29 46 88 47 30 48 31 49 32 50 82 51 33 52
REMARK SMILES IDX 87 53 81 54 83 55 34 56 86 57 80 58 79 59 35 61 67 62 47 63
REMARK SMILES IDX 66 64 48 65 51 66 65 67 84 68 49 69 50 70 64 72 85 73 52 74
REMARK SMILES IDX 36 75 37 76 45 77 38 78 44 79 46 80 43 81 39 82 40 83 41 84
REMARK SMILES IDX 42 85 68 86 69 87 77 88 70 89 76 90 78 91 75 92 71 93 72 94
REMARK SMILES IDX 73 95 74 96 53 97 54 98 62 99 55 100 61 101 63 102 60 103
REMARK SMILES IDX 56 104 57 105 58 106 59 107
REMARK H PARENT 7 20 83 60 51 71
REMARK Flexibility Score: inf
ROOT
ATOM      1  C   UNL     1      -3.142   0.484  -0.774  1.00  0.00     0.188 C 
ENDROOT
BRANCH   1   2
ATOM      2  O   UNL     1      -3.310   1.765  -1.360  1.00  0.00    -0.376 OA
BRANCH   2   3
ATOM      3  C   UNL     1      -3.650   1.849  -2.737  1.00  0.00     0.202 C 
BRANCH   3   4
ATOM      4  C   UNL     1      -3.071   0.868  -3.769  1.00  0.00     0.261 C 
BRANCH   4   5
ATOM      5  O   UNL     1      -3.311  -0.519  -3.467  1.00  0.00    -0.459 OA
BRANCH   5   6
ATOM      6  C   UNL     1      -2.206  -1.297  -3.378  1.00  0.00     0.355 C 
ATOM      7  O   UNL     1      -1.067  -0.952  -3.670  1.00  0.00    -0.244 OA
BRANCH   6   8
ATOM      8  C   UNL     1      -2.484  -2.671  -2.840  1.00  0.00     0.132 C 
ATOM      9  C   UNL     1      -0.215  -4.065  -0.683  1.00  0.00     0.206 C 
ATOM     10  C   UNL     1      -0.905  -2.676  -0.836  1.00  0.00     0.253 C 
ATOM     11  C   UNL     1      -1.218  -4.507  -1.792  1.00  0.00     0.181 C 
ATOM     12  O   UNL     1      -0.896  -1.624  -0.251  1.00  0.00    -0.272 OA
ATOM     13  N   UNL     1      -1.574  -3.124  -1.928  1.00  0.00    -0.289 N 
ATOM     14  S   UNL     1      -2.737  -5.364  -1.317  1.00  0.00    -0.129 SA
ATOM     15  C   UNL     1      -3.506  -4.989  -2.912  1.00  0.00     0.106 C 
ATOM     16  C   UNL     1      -3.455  -3.508  -3.300  1.00  0.00    -0.019 C 
BRANCH   9  17
ATOM     17  N   UNL     1      -0.227  -4.824   0.590  1.00  0.00    -0.336 N 
ATOM     18  C   UNL     1       0.004  -6.184   0.751  1.00  0.00     0.270 C 
ATOM     19  O   UNL     1      -0.118  -6.660   1.876  1.00  0.00    -0.268 OA
ATOM     20  H   UNL     1      -0.418  -4.311   1.408  1.00  0.00     0.164 HD
BRANCH  18  21
ATOM     21  C   UNL     1       0.281  -6.984  -0.428  1.00  0.00     0.126 A 
ATOM     22  C   UNL     1       0.395  -7.481  -4.029  1.00  0.00     0.069 C 
ATOM     23  C   UNL     1       0.411  -7.602  -2.553  1.00  0.00     0.060 A 
ATOM     24  C   UNL     1       0.917  -6.673  -1.621  1.00  0.00     0.059 A 
ATOM     25  N   UNL     1      -0.176  -8.628  -1.933  1.00  0.00    -0.178 NA
ATOM     26  N   UNL     1      -0.090  -8.297  -0.620  1.00  0.00    -0.263 N 
ATOM     27  C   UNL     1      -0.373  -9.322   0.355  1.00  0.00     0.174 C 
ENDBRANCH  18  21
ENDBRANCH   9  17
BRANCH  16  28
ATOM     28  C   UNL     1      -4.485  -3.171  -4.349  1.00  0.00     0.111 C 
BRANCH  28  29
ATOM     29  S   UNL     1      -6.064  -2.457  -3.842  1.00  0.00    -0.089 SA
BRANCH  29  30
ATOM     30  C   UNL     1      -6.545  -3.102  -2.293  1.00  0.00     0.174 A 
ATOM     31  N   UNL     1      -5.934  -4.072  -1.658  1.00  0.00    -0.132 NA
ATOM     32  S   UNL     1      -7.922  -2.505  -1.444  1.00  0.00    -0.091 S 
ATOM     33  N   UNL     1      -6.446  -4.297  -0.396  1.00  0.00    -0.143 NA
ATOM     34  C   UNL     1      -7.445  -3.488  -0.118  1.00  0.00     0.115 A 
ATOM     35  C   UNL     1      -8.137  -3.401   1.194  1.00  0.00     0.081 C 
ENDBRANCH  29  30
ENDBRANCH  28  29
ENDBRANCH  16  28
ENDBRANCH   6   8
ENDBRANCH   5   6
ENDBRANCH   4   5
ENDBRANCH   3   4
ENDBRANCH   2   3
ENDBRANCH   1   2
BRANCH   1  36
ATOM     36  C   UNL     1      -4.329  -0.496  -0.793  1.00  0.00     0.188 C 
BRANCH  36  37
ATOM     37  O   UNL     1      -5.514  -0.106  -1.444  1.00  0.00    -0.376 OA
BRANCH  37  38
ATOM     38  C   UNL     1      -6.368   0.866  -0.873  1.00  0.00     0.202 C 
BRANCH  38  39
ATOM     39  C   UNL     1      -6.354   1.322   0.596  1.00  0.00     0.261 C 
BRANCH  39  40
ATOM     40  O   UNL     1      -5.198   1.046   1.385  1.00  0.00    -0.460 OA
BRANCH  40  41
ATOM     41  C   UNL     1      -5.294  -0.034   2.206  1.00  0.00     0.338 C 
ATOM     42  O   UNL     1      -6.245  -0.789   2.310  1.00  0.00    -0.246 OA
BRANCH  41  43
ATOM     43  C   UNL     1      -3.965  -0.267   2.812  1.00  0.00     0.060 A 
ATOM     44  C   UNL     1      -3.295  -1.469   2.549  1.00  0.00     0.016 A 
ATOM     45  C   UNL     1      -3.385   0.703   3.631  1.00  0.00     0.016 A 
ATOM     46  C   UNL     1      -2.046  -1.711   3.123  1.00  0.00     0.010 A 
ATOM     47  C   UNL     1      -2.144   0.449   4.221  1.00  0.00     0.010 A 
ATOM     48  C   UNL     1      -1.478  -0.769   3.990  1.00  0.00    -0.014 A 
BRANCH  48  49
ATOM     49  C   UNL     1      -0.288  -1.125   4.803  1.00  0.00     0.031 A 
ATOM     50  C   UNL     1      -0.505  -1.577   6.222  1.00  0.00     0.074 A 
ATOM     51  C   UNL     1       0.959  -1.052   4.303  1.00  0.00     0.049 A 
ATOM     52  N   UNL     1       0.369  -1.852   7.154  1.00  0.00    -0.248 NA
ATOM     53  C   UNL     1      -1.907  -1.730   6.642  1.00  0.00     0.031 C 
ATOM     54  C   UNL     1       1.300  -0.682   2.930  1.00  0.00     0.029 A 
ATOM     55  N   UNL     1       2.174  -1.272   4.905  1.00  0.00    -0.354 N 
ATOM     56  C   UNL     1      -0.375  -2.207   8.275  1.00  0.00     0.074 A 
ATOM     57  C   UNL     1      -1.770  -2.070   7.914  1.00  0.00     0.031 C 
ATOM     58  C   UNL     1       2.639  -0.681   2.802  1.00  0.00     0.029 A 
ATOM     59  C   UNL     1       3.251  -1.009   4.090  1.00  0.00     0.049 A 
ATOM     60  H   UNL     1       2.266  -1.589   5.832  1.00  0.00     0.167 HD
ATOM     61  C   UNL     1       0.065  -2.614   9.492  1.00  0.00     0.034 A 
ATOM     62  C   UNL     1       4.573  -1.000   4.364  1.00  0.00     0.034 A 
ATOM     63  C   UNL     1       1.460  -2.724   9.845  1.00  0.00     0.049 A 
ATOM     64  C   UNL     1       5.041  -1.350   5.760  1.00  0.00     0.074 A 
ATOM     65  C   UNL     1       2.015  -3.136  11.044  1.00  0.00     0.029 A 
ATOM     66  N   UNL     1       2.522  -2.401   9.009  1.00  0.00    -0.354 N 
ATOM     67  N   UNL     1       4.332  -1.690   6.812  1.00  0.00    -0.248 NA
ATOM     68  C   UNL     1       6.490  -1.319   6.000  1.00  0.00     0.031 C 
ATOM     69  C   UNL     1       3.402  -2.978  10.963  1.00  0.00     0.029 A 
ATOM     70  C   UNL     1       3.725  -2.563   9.681  1.00  0.00     0.049 A 
ATOM     71  H   UNL     1       2.434  -2.102   8.075  1.00  0.00     0.167 HD
ATOM     72  C   UNL     1       5.254  -1.950   7.826  1.00  0.00     0.074 A 
ATOM     73  C   UNL     1       6.567  -1.738   7.255  1.00  0.00     0.031 C 
ATOM     74  C   UNL     1       5.034  -2.339   9.110  1.00  0.00     0.034 A 
BRANCH  61  75
ATOM     75  C   UNL     1      -0.980  -2.904  10.543  1.00  0.00     0.023 A 
ATOM     76  C   UNL     1      -1.933  -3.927  10.384  1.00  0.00     0.031 A 
ATOM     77  C   UNL     1      -1.052  -2.116  11.705  1.00  0.00     0.131 A 
ATOM     78  C   UNL     1      -2.959  -4.080  11.328  1.00  0.00     0.055 A 
ATOM     79  C   UNL     1      -2.022  -2.333  12.685  1.00  0.00     0.041 A 
ATOM     80  F   UNL     1      -0.189  -1.106  11.901  1.00  0.00    -0.206 F 
ATOM     81  C   UNL     1      -2.994  -3.309  12.491  1.00  0.00     0.022 A 
BRANCH  78  82
ATOM     82  S   UNL     1      -4.342  -5.187  10.934  1.00  0.00     0.124 S 
ATOM     83  O   UNL     1      -4.824  -4.622   9.675  1.00  0.00    -0.237 OA
ATOM     84  O   UNL     1      -3.690  -6.488  10.844  1.00  0.00    -0.237 OA
ATOM     85  O   UNL     1      -5.248  -5.020  12.068  1.00  0.00    -0.744 OA
ENDBRANCH  78  82
ENDBRANCH  61  75
BRANCH  62  86
ATOM     86  C   UNL     1       5.560  -0.603   3.317  1.00  0.00     0.023 A 
ATOM     87  C   UNL     1       6.540  -1.499   2.860  1.00  0.00     0.031 A 
ATOM     88  C   UNL     1       5.578   0.707   2.804  1.00  0.00     0.131 A 
ATOM     89  C   UNL     1       7.523  -1.062   1.956  1.00  0.00     0.055 A 
ATOM     90  C   UNL     1       6.521   1.120   1.862  1.00  0.00     0.041 A 
ATOM     91  F   UNL     1       4.672   1.609   3.214  1.00  0.00    -0.206 F 
ATOM     92  C   UNL     1       7.510   0.236   1.442  1.00  0.00     0.022 A 
BRANCH  89  93
ATOM     93  S   UNL     1       8.876  -2.192   1.528  1.00  0.00     0.124 S 
ATOM     94  O   UNL     1       9.470  -2.453   2.834  1.00  0.00    -0.237 OA
ATOM     95  O   UNL     1       8.159  -3.305   0.913  1.00  0.00    -0.237 OA
ATOM     96  O   UNL     1       9.700  -1.405   0.613  1.00  0.00    -0.744 OA
ENDBRANCH  89  93
ENDBRANCH  62  86
BRANCH  74  97
ATOM     97  C   UNL     1       6.246  -2.617   9.972  1.00  0.00     0.023 A 
ATOM     98  C   UNL     1       7.157  -1.607  10.332  1.00  0.00     0.031 A 
ATOM     99  C   UNL     1       6.494  -3.921  10.439  1.00  0.00     0.131 A 
ATOM    100  C   UNL     1       8.299  -1.929  11.083  1.00  0.00     0.055 A 
ATOM    101  C   UNL     1       7.594  -4.221  11.245  1.00  0.00     0.041 A 
ATOM    102  F   UNL     1       5.665  -4.929  10.125  1.00  0.00    -0.206 F 
ATOM    103  C   UNL     1       8.512  -3.225  11.559  1.00  0.00     0.022 A 
BRANCH 100 104
ATOM    104  S   UNL     1       9.563  -0.652  11.342  1.00  0.00     0.124 S 
ATOM    105  O   UNL     1       9.903  -0.280   9.973  1.00  0.00    -0.237 OA
ATOM    106  O   UNL     1       8.839   0.352  12.115  1.00  0.00    -0.237 OA
ATOM    107  O   UNL     1      10.616  -1.355  12.073  1.00  0.00    -0.744 OA
ENDBRANCH 100 104
ENDBRANCH  74  97
ENDBRANCH  48  49
ENDBRANCH  41  43
ENDBRANCH  40  41
ENDBRANCH  39  40
ENDBRANCH  38  39
ENDBRANCH  37  38
ENDBRANCH  36  37
ENDBRANCH   1  36
TORSDOF 25
