REMARK SMILES COc1ccc(-n2nc(C(=O)OCCOCCOCCOC(=O)c3ccc(-c4c5nc(c(-c6cc(S(=O)(=O)[O-])ccc6F)c6ccc([nH]6)c(-c6cc(S(=O)(=O)[O-])ccc6F)c6nc(c(-c7cc(S(=O)(=O)[O-])ccc7F)c7ccc4[nH]7)C=C6)C=C5)cc3)c(=O)cc2C)cc1
REMARK SMILES IDX 17 1 16 2 15 3 14 4 13 5 12 6 10 7 11 8 9 9 7 10 8 11 90 12
REMARK SMILES IDX 89 13 91 14 87 15 88 16 6 17 3 18 4 19 93 20 5 21 92 22 2 23
REMARK SMILES IDX 1 24 18 25 19 26 20 27 21 28 22 29 23 30 24 31 25 32 86 33
REMARK SMILES IDX 26 34 85 35 27 36 28 37 29 38 79 39 30 40 84 41 78 42 80 43
REMARK SMILES IDX 31 44 83 45 77 46 76 47 32 49 64 50 44 51 63 52 45 53 48 54
REMARK SMILES IDX 62 55 81 56 46 57 47 58 61 60 82 61 49 62 33 63 34 64 42 65
REMARK SMILES IDX 35 66 41 67 43 68 40 69 36 70 37 71 38 72 39 73 65 74 66 75
REMARK SMILES IDX 74 76 67 77 73 78 75 79 72 80 68 81 69 82 70 83 71 84 50 85
REMARK SMILES IDX 51 86 59 87 52 88 58 89 60 90 57 91 53 92 54 93 55 94 56 95
REMARK H PARENT 80 48 48 59
REMARK Flexibility Score: inf
ROOT
ATOM      1  C   UNL     1      -0.448   8.587  -4.831  1.00  0.00     0.188 C 
ENDROOT
BRANCH   1   2
ATOM      2  C   UNL     1      -0.946   8.489  -3.371  1.00  0.00     0.188 C 
BRANCH   2   3
ATOM      3  O   UNL     1      -1.337   9.673  -2.678  1.00  0.00    -0.376 OA
BRANCH   3   4
ATOM      4  C   UNL     1      -0.509  10.828  -2.746  1.00  0.00     0.202 C 
BRANCH   4   5
ATOM      5  C   UNL     1       0.968  10.671  -2.365  1.00  0.00     0.261 C 
BRANCH   5   6
ATOM      6  O   UNL     1       1.609   9.607  -3.081  1.00  0.00    -0.458 OA
BRANCH   6   7
ATOM      7  C   UNL     1       2.394   8.789  -2.348  1.00  0.00     0.363 C 
ATOM      8  O   UNL     1       2.755   8.932  -1.202  1.00  0.00    -0.244 OA
BRANCH   7   9
ATOM      9  C   UNL     1       2.742   7.558  -3.162  1.00  0.00     0.216 A 
ATOM     10  N   UNL     1       2.636   5.278  -3.435  1.00  0.00    -0.237 N 
ATOM     11  N   UNL     1       2.253   6.416  -2.763  1.00  0.00    -0.156 NA
ATOM     12  C   UNL     1       3.509   5.276  -4.529  1.00  0.00     0.044 A 
ATOM     13  C   UNL     1       3.995   6.415  -5.045  1.00  0.00     0.078 A 
ATOM     14  C   UNL     1       3.919   3.976  -5.182  1.00  0.00     0.067 C 
ATOM     15  C   UNL     1       3.625   7.663  -4.371  1.00  0.00     0.215 A 
ATOM     16  O   UNL     1       4.025   8.749  -4.763  1.00  0.00    -0.287 OA
BRANCH  10  17
ATOM     17  C   UNL     1       2.129   4.083  -2.848  1.00  0.00     0.065 A 
ATOM     18  C   UNL     1       1.142   1.683  -1.748  1.00  0.00     0.119 A 
ATOM     19  C   UNL     1       0.311   2.504  -2.511  1.00  0.00     0.048 A 
ATOM     20  C   UNL     1       2.469   2.052  -1.539  1.00  0.00     0.048 A 
ATOM     21  C   UNL     1       0.793   3.706  -3.040  1.00  0.00     0.032 A 
ATOM     22  C   UNL     1       2.959   3.245  -2.087  1.00  0.00     0.032 A 
BRANCH  18  23
ATOM     23  O   UNL     1       0.586   0.512  -1.315  1.00  0.00    -0.497 OA
ATOM     24  C   UNL     1       0.973   0.101  -0.003  1.00  0.00     0.278 C 
ENDBRANCH  18  23
ENDBRANCH  10  17
ENDBRANCH   7   9
ENDBRANCH   6   7
ENDBRANCH   5   6
ENDBRANCH   4   5
ENDBRANCH   3   4
ENDBRANCH   2   3
ENDBRANCH   1   2
BRANCH   1  25
ATOM     25  O   UNL     1      -0.480   9.899  -5.370  1.00  0.00    -0.376 OA
BRANCH  25  26
ATOM     26  C   UNL     1      -1.421  10.122  -6.411  1.00  0.00     0.202 C 
BRANCH  26  27
ATOM     27  C   UNL     1      -2.906  10.060  -6.017  1.00  0.00     0.261 C 
BRANCH  27  28
ATOM     28  O   UNL     1      -3.328   8.868  -5.335  1.00  0.00    -0.460 OA
BRANCH  28  29
ATOM     29  C   UNL     1      -3.377   7.734  -6.072  1.00  0.00     0.338 C 
ATOM     30  O   UNL     1      -3.088   7.624  -7.250  1.00  0.00    -0.246 OA
BRANCH  29  31
ATOM     31  C   UNL     1      -3.652   6.601  -5.161  1.00  0.00     0.060 A 
ATOM     32  C   UNL     1      -2.737   5.541  -5.116  1.00  0.00     0.016 A 
ATOM     33  C   UNL     1      -4.809   6.568  -4.376  1.00  0.00     0.016 A 
ATOM     34  C   UNL     1      -3.002   4.425  -4.322  1.00  0.00     0.010 A 
ATOM     35  C   UNL     1      -5.080   5.440  -3.592  1.00  0.00     0.010 A 
ATOM     36  C   UNL     1      -4.196   4.346  -3.591  1.00  0.00    -0.014 A 
BRANCH  36  37
ATOM     37  C   UNL     1      -4.620   3.030  -3.045  1.00  0.00     0.031 A 
ATOM     38  C   UNL     1      -5.525   2.175  -3.894  1.00  0.00     0.074 A 
ATOM     39  C   UNL     1      -4.171   2.570  -1.863  1.00  0.00     0.049 A 
ATOM     40  N   UNL     1      -6.032   0.995  -3.649  1.00  0.00    -0.248 NA
ATOM     41  C   UNL     1      -5.902   2.733  -5.202  1.00  0.00     0.031 C 
ATOM     42  C   UNL     1      -3.244   3.272  -0.977  1.00  0.00     0.029 A 
ATOM     43  N   UNL     1      -4.434   1.392  -1.209  1.00  0.00    -0.354 N 
ATOM     44  C   UNL     1      -6.785   0.667  -4.772  1.00  0.00     0.074 A 
ATOM     45  C   UNL     1      -6.700   1.792  -5.678  1.00  0.00     0.031 C 
ATOM     46  C   UNL     1      -3.018   2.510   0.108  1.00  0.00     0.029 A 
ATOM     47  C   UNL     1      -3.811   1.284   0.013  1.00  0.00     0.049 A 
ATOM     48  H   UNL     1      -5.015   0.689  -1.580  1.00  0.00     0.167 HD
ATOM     49  C   UNL     1      -7.476  -0.470  -5.032  1.00  0.00     0.034 A 
ATOM     50  C   UNL     1      -3.890   0.317   0.950  1.00  0.00     0.034 A 
ATOM     51  C   UNL     1      -7.574  -1.576  -4.112  1.00  0.00     0.049 A 
ATOM     52  C   UNL     1      -4.748  -0.901   0.684  1.00  0.00     0.074 A 
ATOM     53  C   UNL     1      -8.264  -2.766  -4.264  1.00  0.00     0.029 A 
ATOM     54  N   UNL     1      -6.974  -1.624  -2.860  1.00  0.00    -0.354 N 
ATOM     55  N   UNL     1      -5.463  -1.196  -0.378  1.00  0.00    -0.248 NA
ATOM     56  C   UNL     1      -4.798  -1.921   1.741  1.00  0.00     0.031 C 
ATOM     57  C   UNL     1      -8.140  -3.501  -3.080  1.00  0.00     0.029 A 
ATOM     58  C   UNL     1      -7.302  -2.809  -2.220  1.00  0.00     0.049 A 
ATOM     59  H   UNL     1      -6.400  -0.919  -2.482  1.00  0.00     0.167 HD
ATOM     60  C   UNL     1      -6.011  -2.454  -0.130  1.00  0.00     0.074 A 
ATOM     61  C   UNL     1      -5.538  -2.863   1.175  1.00  0.00     0.031 C 
ATOM     62  C   UNL     1      -6.824  -3.207  -0.915  1.00  0.00     0.034 A 
BRANCH  49  63
ATOM     63  C   UNL     1      -8.227  -0.534  -6.340  1.00  0.00     0.023 A 
ATOM     64  C   UNL     1      -7.561  -0.513  -7.579  1.00  0.00     0.031 A 
ATOM     65  C   UNL     1      -9.632  -0.565  -6.348  1.00  0.00     0.131 A 
ATOM     66  C   UNL     1      -8.301  -0.447  -8.769  1.00  0.00     0.055 A 
ATOM     67  C   UNL     1     -10.361  -0.582  -7.538  1.00  0.00     0.041 A 
ATOM     68  F   UNL     1     -10.323  -0.558  -5.197  1.00  0.00    -0.206 F 
ATOM     69  C   UNL     1      -9.697  -0.507  -8.758  1.00  0.00     0.022 A 
BRANCH  66  70
ATOM     70  S   UNL     1      -7.420  -0.128 -10.323  1.00  0.00     0.124 S 
ATOM     71  O   UNL     1      -6.771   1.150 -10.038  1.00  0.00    -0.237 OA
ATOM     72  O   UNL     1      -6.537  -1.284 -10.428  1.00  0.00    -0.237 OA
ATOM     73  O   UNL     1      -8.490  -0.067 -11.317  1.00  0.00    -0.744 OA
ENDBRANCH  66  70
ENDBRANCH  49  63
BRANCH  50  74
ATOM     74  C   UNL     1      -3.175   0.460   2.252  1.00  0.00     0.023 A 
ATOM     75  C   UNL     1      -2.173  -0.445   2.637  1.00  0.00     0.031 A 
ATOM     76  C   UNL     1      -3.541   1.464   3.167  1.00  0.00     0.131 A 
ATOM     77  C   UNL     1      -1.607  -0.361   3.919  1.00  0.00     0.055 A 
ATOM     78  C   UNL     1      -2.939   1.574   4.423  1.00  0.00     0.041 A 
ATOM     79  F   UNL     1      -4.496   2.353   2.854  1.00  0.00    -0.206 F 
ATOM     80  C   UNL     1      -1.976   0.648   4.811  1.00  0.00     0.022 A 
BRANCH  77  81
ATOM     81  S   UNL     1      -0.432  -1.643   4.432  1.00  0.00     0.124 S 
ATOM     82  O   UNL     1      -1.239  -2.852   4.313  1.00  0.00    -0.237 OA
ATOM     83  O   UNL     1       0.633  -1.482   3.446  1.00  0.00    -0.237 OA
ATOM     84  O   UNL     1      -0.080  -1.258   5.797  1.00  0.00    -0.744 OA
ENDBRANCH  77  81
ENDBRANCH  50  74
BRANCH  62  85
ATOM     85  C   UNL     1      -7.200  -4.581  -0.409  1.00  0.00     0.023 A 
ATOM     86  C   UNL     1      -7.998  -4.765   0.733  1.00  0.00     0.031 A 
ATOM     87  C   UNL     1      -6.741  -5.727  -1.084  1.00  0.00     0.131 A 
ATOM     88  C   UNL     1      -8.264  -6.063   1.200  1.00  0.00     0.055 A 
ATOM     89  C   UNL     1      -7.062  -7.015  -0.653  1.00  0.00     0.041 A 
ATOM     90  F   UNL     1      -5.974  -5.614  -2.181  1.00  0.00    -0.206 F 
ATOM     91  C   UNL     1      -7.815  -7.188   0.504  1.00  0.00     0.022 A 
BRANCH  88  92
ATOM     92  S   UNL     1      -9.121  -6.262   2.786  1.00  0.00     0.124 S 
ATOM     93  O   UNL     1      -8.257  -5.515   3.695  1.00  0.00    -0.237 OA
ATOM     94  O   UNL     1     -10.425  -5.667   2.513  1.00  0.00    -0.237 OA
ATOM     95  O   UNL     1      -9.132  -7.710   2.991  1.00  0.00    -0.744 OA
ENDBRANCH  88  92
ENDBRANCH  62  85
ENDBRANCH  36  37
ENDBRANCH  29  31
ENDBRANCH  28  29
ENDBRANCH  27  28
ENDBRANCH  26  27
ENDBRANCH  25  26
ENDBRANCH   1  25
TORSDOF 22
