REMARK SMILES C[C@H]1OCC[C@H]1C(=O)Nc1ccsc1C(=O)OCCOCCOCCOC(=O)c1ccc(-c2c3nc(c(-c4cc(S(=O)(=O)[O-])ccc4F)c4ccc([nH]4)c(-c4cc(S(=O)(=O)[O-])ccc4F)c4nc(c(-c5cc(S(=O)(=O)[O-])ccc5F)c5ccc2[nH]5)C=C4)C=C3)cc1
REMARK SMILES IDX 22 1 21 2 20 3 19 4 18 5 17 6 15 7 16 8 14 9 10 10 11 11
REMARK SMILES IDX 12 12 13 13 9 14 7 15 8 16 6 18 1 19 2 20 3 21 4 22 5 23
REMARK SMILES IDX 23 24 24 25 25 26 26 27 27 28 28 29 29 30 30 31 91 32 31 33
REMARK SMILES IDX 90 34 32 35 33 36 34 37 84 38 35 39 89 40 83 41 85 42 36 43
REMARK SMILES IDX 88 44 82 45 81 46 37 48 69 49 49 50 68 51 50 52 53 53 67 54
REMARK SMILES IDX 86 55 51 56 52 57 66 59 87 60 54 61 38 62 39 63 47 64 40 65
REMARK SMILES IDX 46 66 48 67 45 68 41 69 42 70 43 71 44 72 70 73 71 74 79 75
REMARK SMILES IDX 72 76 78 77 80 78 77 79 73 80 74 81 75 82 76 83 55 84 56 85
REMARK SMILES IDX 64 86 57 87 63 88 65 89 62 90 58 91 59 92 60 93 61 94
REMARK H PARENT 9 17 85 47 53 58
REMARK Flexibility Score: inf
ROOT
ATOM      1  C   UNL     1      -3.238  -0.427  -3.701  1.00  0.00     0.188 C 
ENDROOT
BRANCH   1   2
ATOM      2  C   UNL     1      -3.467   0.544  -4.876  1.00  0.00     0.188 C 
BRANCH   2   3
ATOM      3  O   UNL     1      -3.496   0.097  -6.227  1.00  0.00    -0.376 OA
BRANCH   3   4
ATOM      4  C   UNL     1      -2.823  -1.087  -6.615  1.00  0.00     0.202 C 
BRANCH   4   5
ATOM      5  C   UNL     1      -1.292  -1.067  -6.588  1.00  0.00     0.261 C 
BRANCH   5   6
ATOM      6  O   UNL     1      -0.735  -0.528  -5.378  1.00  0.00    -0.459 OA
BRANCH   6   7
ATOM      7  C   UNL     1      -0.102   0.677  -5.513  1.00  0.00     0.350 C 
ATOM      8  O   UNL     1       0.141   1.201  -6.594  1.00  0.00    -0.245 OA
BRANCH   7   9
ATOM      9  C   UNL     1       0.185   1.255  -4.208  1.00  0.00     0.136 A 
ATOM     10  C   UNL     1       0.375   0.689  -2.943  1.00  0.00     0.066 A 
ATOM     11  C   UNL     1       0.672   1.712  -1.999  1.00  0.00     0.039 A 
ATOM     12  C   UNL     1       0.613   2.987  -2.511  1.00  0.00     0.068 A 
ATOM     13  S   UNL     1       0.277   2.976  -4.169  1.00  0.00    -0.135 S 
BRANCH  10  14
ATOM     14  N   UNL     1       0.371  -0.689  -2.752  1.00  0.00    -0.324 N 
ATOM     15  C   UNL     1       0.375  -1.560  -1.714  1.00  0.00     0.230 C 
ATOM     16  O   UNL     1       0.680  -2.725  -2.031  1.00  0.00    -0.274 OA
ATOM     17  H   UNL     1       0.365  -1.166  -3.614  1.00  0.00     0.169 HD
BRANCH  15  18
ATOM     18  C   UNL     1      -0.054  -1.341  -0.263  1.00  0.00     0.110 C 
ATOM     19  C   UNL     1       2.257  -0.395   0.409  1.00  0.00     0.039 C 
ATOM     20  C   UNL     1       0.777  -0.541   0.714  1.00  0.00     0.127 C 
ATOM     21  O   UNL     1       0.125   0.724   0.881  1.00  0.00    -0.378 OA
ATOM     22  C   UNL     1      -1.247   0.600   0.477  1.00  0.00     0.161 C 
ATOM     23  C   UNL     1      -1.451  -0.793  -0.076  1.00  0.00     0.044 C 
ENDBRANCH  15  18
ENDBRANCH  10  14
ENDBRANCH   7   9
ENDBRANCH   6   7
ENDBRANCH   5   6
ENDBRANCH   4   5
ENDBRANCH   3   4
ENDBRANCH   2   3
ENDBRANCH   1   2
BRANCH   1  24
ATOM     24  O   UNL     1      -3.511  -1.792  -3.974  1.00  0.00    -0.376 OA
BRANCH  24  25
ATOM     25  C   UNL     1      -4.604  -2.359  -3.264  1.00  0.00     0.202 C 
BRANCH  25  26
ATOM     26  C   UNL     1      -5.970  -1.952  -3.828  1.00  0.00     0.261 C 
BRANCH  26  27
ATOM     27  O   UNL     1      -6.263  -0.547  -3.744  1.00  0.00    -0.460 OA
BRANCH  27  28
ATOM     28  C   UNL     1      -6.351  -0.016  -2.502  1.00  0.00     0.338 C 
ATOM     29  O   UNL     1      -6.203  -0.601  -1.445  1.00  0.00    -0.246 OA
BRANCH  28  30
ATOM     30  C   UNL     1      -6.474   1.449  -2.644  1.00  0.00     0.060 A 
ATOM     31  C   UNL     1      -5.576   2.273  -1.955  1.00  0.00     0.016 A 
ATOM     32  C   UNL     1      -7.467   2.004  -3.455  1.00  0.00     0.016 A 
ATOM     33  C   UNL     1      -5.686   3.662  -2.061  1.00  0.00     0.010 A 
ATOM     34  C   UNL     1      -7.584   3.393  -3.548  1.00  0.00     0.010 A 
ATOM     35  C   UNL     1      -6.709   4.229  -2.834  1.00  0.00    -0.014 A 
BRANCH  35  36
ATOM     36  C   UNL     1      -6.971   5.689  -2.774  1.00  0.00     0.031 A 
ATOM     37  C   UNL     1      -8.016   6.193  -1.817  1.00  0.00     0.074 A 
ATOM     38  C   UNL     1      -6.303   6.551  -3.562  1.00  0.00     0.049 A 
ATOM     39  N   UNL     1      -8.449   7.411  -1.623  1.00  0.00    -0.248 NA
ATOM     40  C   UNL     1      -8.661   5.179  -0.969  1.00  0.00     0.031 C 
ATOM     41  C   UNL     1      -5.253   6.189  -4.511  1.00  0.00     0.029 A 
ATOM     42  N   UNL     1      -6.423   7.912  -3.694  1.00  0.00    -0.354 N 
ATOM     43  C   UNL     1      -9.414   7.315  -0.627  1.00  0.00     0.074 A 
ATOM     44  C   UNL     1      -9.529   5.912  -0.288  1.00  0.00     0.031 C 
ATOM     45  C   UNL     1      -4.835   7.301  -5.141  1.00  0.00     0.029 A 
ATOM     46  C   UNL     1      -5.608   8.447  -4.663  1.00  0.00     0.049 A 
ATOM     47  H   UNL     1      -7.036   8.455  -3.146  1.00  0.00     0.167 HD
ATOM     48  C   UNL     1     -10.133   8.305  -0.042  1.00  0.00     0.034 A 
ATOM     49  C   UNL     1      -5.515   9.711  -5.127  1.00  0.00     0.034 A 
ATOM     50  C   UNL     1     -10.034   9.696  -0.407  1.00  0.00     0.049 A 
ATOM     51  C   UNL     1      -6.390  10.785  -4.524  1.00  0.00     0.074 A 
ATOM     52  C   UNL     1     -10.708  10.780   0.129  1.00  0.00     0.029 A 
ATOM     53  N   UNL     1      -9.224  10.195  -1.419  1.00  0.00    -0.354 N 
ATOM     54  N   UNL     1      -7.283  10.685  -3.566  1.00  0.00    -0.248 NA
ATOM     55  C   UNL     1      -6.240  12.144  -5.064  1.00  0.00     0.031 C 
ATOM     56  C   UNL     1     -10.355  11.921  -0.600  1.00  0.00     0.029 A 
ATOM     57  C   UNL     1      -9.406  11.564  -1.544  1.00  0.00     0.049 A 
ATOM     58  H   UNL     1      -8.609   9.656  -1.967  1.00  0.00     0.167 HD
ATOM     59  C   UNL     1      -7.775  11.974  -3.369  1.00  0.00     0.074 A 
ATOM     60  C   UNL     1      -7.077  12.833  -4.302  1.00  0.00     0.031 C 
ATOM     61  C   UNL     1      -8.712  12.409  -2.488  1.00  0.00     0.034 A 
BRANCH  48  62
ATOM     62  C   UNL     1     -11.124   7.894   1.018  1.00  0.00     0.023 A 
ATOM     63  C   UNL     1     -10.709   7.316   2.231  1.00  0.00     0.031 A 
ATOM     64  C   UNL     1     -12.505   8.038   0.794  1.00  0.00     0.131 A 
ATOM     65  C   UNL     1     -11.663   6.834   3.139  1.00  0.00     0.055 A 
ATOM     66  C   UNL     1     -13.449   7.626   1.737  1.00  0.00     0.041 A 
ATOM     67  F   UNL     1     -12.960   8.561  -0.355  1.00  0.00    -0.206 F 
ATOM     68  C   UNL     1     -13.030   7.006   2.911  1.00  0.00     0.022 A 
BRANCH  65  69
ATOM     69  S   UNL     1     -11.095   5.847   4.551  1.00  0.00     0.124 S 
ATOM     70  O   UNL     1     -10.385   4.758   3.884  1.00  0.00    -0.237 OA
ATOM     71  O   UNL     1     -10.265   6.795   5.285  1.00  0.00    -0.237 OA
ATOM     72  O   UNL     1     -12.335   5.455   5.217  1.00  0.00    -0.744 OA
ENDBRANCH  65  69
ENDBRANCH  48  62
BRANCH  49  73
ATOM     73  C   UNL     1      -4.592  10.036  -6.252  1.00  0.00     0.023 A 
ATOM     74  C   UNL     1      -3.495  10.893  -6.070  1.00  0.00     0.031 A 
ATOM     75  C   UNL     1      -4.834   9.537  -7.544  1.00  0.00     0.131 A 
ATOM     76  C   UNL     1      -2.704  11.258  -7.171  1.00  0.00     0.055 A 
ATOM     77  C   UNL     1      -4.016   9.865  -8.626  1.00  0.00     0.041 A 
ATOM     78  F   UNL     1      -5.872   8.717  -7.771  1.00  0.00    -0.206 F 
ATOM     79  C   UNL     1      -2.950  10.741  -8.445  1.00  0.00     0.022 A 
BRANCH  76  80
ATOM     80  S   UNL     1      -1.389  12.484  -6.928  1.00  0.00     0.124 S 
ATOM     81  O   UNL     1      -2.142  13.638  -6.452  1.00  0.00    -0.237 OA
ATOM     82  O   UNL     1      -0.537  11.824  -5.944  1.00  0.00    -0.237 OA
ATOM     83  O   UNL     1      -0.804  12.625  -8.260  1.00  0.00    -0.744 OA
ENDBRANCH  76  80
ENDBRANCH  49  73
BRANCH  61  84
ATOM     84  C   UNL     1      -8.997  13.891  -2.460  1.00  0.00     0.023 A 
ATOM     85  C   UNL     1      -9.643  14.545  -3.524  1.00  0.00     0.031 A 
ATOM     86  C   UNL     1      -8.614  14.660  -1.346  1.00  0.00     0.131 A 
ATOM     87  C   UNL     1      -9.845  15.933  -3.471  1.00  0.00     0.055 A 
ATOM     88  C   UNL     1      -8.864  16.031  -1.277  1.00  0.00     0.041 A 
ATOM     89  F   UNL     1      -7.994  14.087  -0.302  1.00  0.00    -0.206 F 
ATOM     90  C   UNL     1      -9.473  16.677  -2.348  1.00  0.00     0.022 A 
BRANCH  87  91
ATOM     91  S   UNL     1     -10.538  16.772  -4.923  1.00  0.00     0.124 S 
ATOM     92  O   UNL     1      -9.561  16.446  -5.958  1.00  0.00    -0.237 OA
ATOM     93  O   UNL     1     -11.845  16.137  -5.058  1.00  0.00    -0.237 OA
ATOM     94  O   UNL     1     -10.572  18.178  -4.524  1.00  0.00    -0.744 OA
ENDBRANCH  87  91
ENDBRANCH  61  84
ENDBRANCH  35  36
ENDBRANCH  28  30
ENDBRANCH  27  28
ENDBRANCH  26  27
ENDBRANCH  25  26
ENDBRANCH  24  25
ENDBRANCH   1  24
TORSDOF 22
