REMARK SMILES O=C(OCCOCCOCCOC(=O)c1ccccc1Nc1cccc(S(F)(F)(F)(F)F)c1)c1ccc(-c2c3nc(c(-c4cc(S(=O)(=O)[O-])ccc4F)c4ccc([nH]4)c(-c4cc(S(=O)(=O)[O-])ccc4F)c4nc(c(-c5cc(S(=O)(=O)[O-])ccc5F)c5ccc2[nH]5)C=C4)C=C3)cc1
REMARK SMILES IDX 7 1 6 2 5 3 4 4 3 5 2 6 1 7 34 8 35 9 96 10 36 11 95 12
REMARK SMILES IDX 37 13 38 14 39 15 89 16 40 17 94 18 88 19 90 20 41 21 93 22
REMARK SMILES IDX 87 23 86 24 42 26 74 27 54 28 73 29 55 30 58 31 72 32 91 33
REMARK SMILES IDX 56 34 57 35 71 37 92 38 59 39 43 40 44 41 52 42 45 43 51 44
REMARK SMILES IDX 53 45 50 46 46 47 47 48 48 49 49 50 75 51 76 52 84 53 77 54
REMARK SMILES IDX 83 55 85 56 82 57 78 58 79 59 80 60 81 61 60 62 61 63 69 64
REMARK SMILES IDX 62 65 68 66 70 67 67 68 63 69 64 70 65 71 66 72 8 73 9 74
REMARK SMILES IDX 10 75 11 76 12 77 13 78 14 79 15 80 16 81 20 82 17 83 19 84
REMARK SMILES IDX 18 85 21 86 22 88 23 89 33 90 24 91 26 92 25 93 27 94 28 95
REMARK SMILES IDX 29 96 30 97 31 98 32 99
REMARK H PARENT 90 25 58 36 21 87
REMARK Flexibility Score: inf
ROOT
ATOM      1  C   UNL     1       2.980  -0.347   1.409  1.00  0.00     0.188 C 
ENDROOT
BRANCH   1   2
ATOM      2  O   UNL     1       4.400  -0.347   1.409  1.00  0.00    -0.376 OA
BRANCH   2   3
ATOM      3  C   UNL     1       4.873   0.937   1.029  1.00  0.00     0.202 C 
BRANCH   3   4
ATOM      4  C   UNL     1       4.367   1.272  -0.364  1.00  0.00     0.261 C 
BRANCH   4   5
ATOM      5  O   UNL     1       2.946   1.272  -0.364  1.00  0.00    -0.460 OA
BRANCH   5   6
ATOM      6  C   UNL     1       2.236   0.093  -0.015  1.00  0.00     0.338 C 
ATOM      7  O   UNL     1       0.966   0.093  -0.015  1.00  0.00    -0.246 OA
BRANCH   6   8
ATOM      8  C   UNL     1       2.997  -1.170   0.358  1.00  0.00     0.060 A 
ATOM      9  C   UNL     1       4.089  -1.044   1.200  1.00  0.00     0.016 A 
ATOM     10  C   UNL     1       2.638  -2.350  -0.134  1.00  0.00     0.016 A 
ATOM     11  C   UNL     1       4.921  -2.188   1.235  1.00  0.00     0.010 A 
ATOM     12  C   UNL     1       3.431  -3.456   0.054  1.00  0.00     0.010 A 
ATOM     13  C   UNL     1       4.558  -3.390   0.827  1.00  0.00    -0.014 A 
BRANCH  13  14
ATOM     14  C   UNL     1       5.350  -4.634   1.195  1.00  0.00     0.031 A 
ATOM     15  C   UNL     1       5.907  -5.429   0.191  1.00  0.00     0.074 A 
ATOM     16  C   UNL     1       5.489  -4.887   2.549  1.00  0.00     0.049 A 
ATOM     17  N   UNL     1       6.670  -6.513   0.342  1.00  0.00    -0.248 NA
ATOM     18  C   UNL     1       5.732  -5.182  -1.248  1.00  0.00     0.031 C 
ATOM     19  C   UNL     1       4.937  -4.085   3.567  1.00  0.00     0.029 A 
ATOM     20  N   UNL     1       6.162  -5.927   3.150  1.00  0.00    -0.354 N 
ATOM     21  C   UNL     1       7.029  -6.993  -0.851  1.00  0.00     0.074 A 
ATOM     22  C   UNL     1       6.426  -6.148  -1.890  1.00  0.00     0.031 C 
ATOM     23  C   UNL     1       5.264  -4.640   4.764  1.00  0.00     0.029 A 
ATOM     24  C   UNL     1       6.025  -5.797   4.514  1.00  0.00     0.049 A 
ATOM     25  H   UNL     1       6.656  -6.640   2.685  1.00  0.00     0.167 HD
ATOM     26  C   UNL     1       7.837  -8.101  -1.112  1.00  0.00     0.034 A 
ATOM     27  C   UNL     1       6.526  -6.631   5.501  1.00  0.00     0.034 A 
ATOM     28  C   UNL     1       8.374  -8.910  -0.124  1.00  0.00     0.049 A 
ATOM     29  C   UNL     1       7.286  -7.774   5.238  1.00  0.00     0.074 A 
ATOM     30  C   UNL     1       9.197 -10.026  -0.370  1.00  0.00     0.029 A 
ATOM     31  N   UNL     1       8.217  -8.794   1.240  1.00  0.00    -0.354 N 
ATOM     32  N   UNL     1       7.677  -8.230   4.047  1.00  0.00    -0.248 NA
ATOM     33  C   UNL     1       7.795  -8.683   6.273  1.00  0.00     0.031 C 
ATOM     34  C   UNL     1       9.524 -10.581   0.828  1.00  0.00     0.029 A 
ATOM     35  C   UNL     1       8.909  -9.821   1.841  1.00  0.00     0.049 A 
ATOM     36  H   UNL     1       7.699  -8.097   1.704  1.00  0.00     0.167 HD
ATOM     37  C   UNL     1       8.407  -9.338   4.197  1.00  0.00     0.074 A 
ATOM     38  C   UNL     1       8.487  -9.649   5.631  1.00  0.00     0.031 C 
ATOM     39  C   UNL     1       9.012 -10.100   3.196  1.00  0.00     0.034 A 
BRANCH  26  40
ATOM     40  C   UNL     1       8.145  -8.438  -2.562  1.00  0.00     0.023 A 
ATOM     41  C   UNL     1       8.871  -7.525  -3.308  1.00  0.00     0.031 A 
ATOM     42  C   UNL     1       7.790  -9.613  -3.068  1.00  0.00     0.131 A 
ATOM     43  C   UNL     1       8.929  -7.829  -4.689  1.00  0.00     0.055 A 
ATOM     44  C   UNL     1       7.999  -9.896  -4.396  1.00  0.00     0.041 A 
ATOM     45  F   UNL     1       7.226 -10.526  -2.281  1.00  0.00    -0.206 F 
ATOM     46  C   UNL     1       8.659  -9.014  -5.206  1.00  0.00     0.022 A 
BRANCH  43  47
ATOM     47  S   UNL     1       9.407  -6.503  -5.824  1.00  0.00     0.124 S 
ATOM     48  O   UNL     1       8.408  -5.349  -5.709  1.00  0.00    -0.237 OA
ATOM     49  O   UNL     1      10.808  -6.003  -5.464  1.00  0.00    -0.237 OA
ATOM     50  O   UNL     1       9.408  -7.098  -7.427  1.00  0.00    -0.744 OA
ENDBRANCH  43  47
ENDBRANCH  26  40
BRANCH  27  51
ATOM     51  C   UNL     1       6.232  -6.284   6.951  1.00  0.00     0.023 A 
ATOM     52  C   UNL     1       7.285  -6.128   7.838  1.00  0.00     0.031 A 
ATOM     53  C   UNL     1       4.971  -6.218   7.361  1.00  0.00     0.131 A 
ATOM     54  C   UNL     1       6.903  -6.194   9.198  1.00  0.00     0.055 A 
ATOM     55  C   UNL     1       4.674  -6.147   8.700  1.00  0.00     0.041 A 
ATOM     56  F   UNL     1       3.987  -6.221   6.466  1.00  0.00    -0.206 F 
ATOM     57  C   UNL     1       5.665  -6.051   9.637  1.00  0.00     0.022 A 
BRANCH  54  58
ATOM     58  S   UNL     1       8.200  -6.497  10.424  1.00  0.00     0.124 S 
ATOM     59  O   UNL     1       8.876  -7.838  10.131  1.00  0.00    -0.237 OA
ATOM     60  O   UNL     1       9.240  -5.375  10.353  1.00  0.00    -0.237 OA
ATOM     61  O   UNL     1       7.510  -6.535  11.988  1.00  0.00    -0.744 OA
ENDBRANCH  54  58
ENDBRANCH  27  51
BRANCH  39  62
ATOM     62  C   UNL     1       9.833 -11.308   3.616  1.00  0.00     0.023 A 
ATOM     63  C   UNL     1       9.198 -12.293   4.354  1.00  0.00     0.031 A 
ATOM     64  C   UNL     1      11.124 -11.396   3.315  1.00  0.00     0.131 A 
ATOM     65  C   UNL     1      10.085 -13.201   4.980  1.00  0.00     0.055 A 
ATOM     66  C   UNL     1      11.902 -12.391   3.856  1.00  0.00     0.041 A 
ATOM     67  F   UNL     1      11.668 -10.514   2.481  1.00  0.00    -0.206 F 
ATOM     68  C   UNL     1      11.351 -13.364   4.643  1.00  0.00     0.022 A 
BRANCH  65  69
ATOM     69  S   UNL     1       9.438 -14.209   6.337  1.00  0.00     0.124 S 
ATOM     70  O   UNL     1       8.941 -13.295   7.459  1.00  0.00    -0.237 OA
ATOM     71  O   UNL     1       8.278 -15.067   5.827  1.00  0.00    -0.237 OA
ATOM     72  O   UNL     1      10.678 -15.223   6.935  1.00  0.00    -0.744 OA
ENDBRANCH  65  69
ENDBRANCH  39  62
ENDBRANCH  13  14
ENDBRANCH   6   8
ENDBRANCH   5   6
ENDBRANCH   4   5
ENDBRANCH   3   4
ENDBRANCH   2   3
ENDBRANCH   1   2
BRANCH   1  73
ATOM     73  C   UNL     1       2.473   0.692   2.396  1.00  0.00     0.188 C 
BRANCH  73  74
ATOM     74  O   UNL     1       2.946   1.976   2.016  1.00  0.00    -0.376 OA
BRANCH  74  75
ATOM     75  C   UNL     1       4.367   1.976   2.016  1.00  0.00     0.202 C 
BRANCH  75  76
ATOM     76  C   UNL     1       4.873   1.641   3.409  1.00  0.00     0.261 C 
BRANCH  76  77
ATOM     77  O   UNL     1       4.400   0.357   3.789  1.00  0.00    -0.460 OA
BRANCH  77  78
ATOM     78  C   UNL     1       3.004   0.108   3.863  1.00  0.00     0.340 C 
ATOM     79  O   UNL     1       2.178   1.035   3.589  1.00  0.00    -0.246 OA
BRANCH  78  80
ATOM     80  C   UNL     1       2.497  -1.266   4.269  1.00  0.00     0.083 A 
ATOM     81  C   UNL     1       1.429  -1.857   3.615  1.00  0.00     0.018 A 
ATOM     82  C   UNL     1       3.077  -1.851   5.310  1.00  0.00     0.053 A 
ATOM     83  C   UNL     1       0.854  -2.941   4.320  1.00  0.00     0.001 A 
ATOM     84  C   UNL     1       2.537  -2.987   5.865  1.00  0.00     0.027 A 
ATOM     85  C   UNL     1       1.445  -3.592   5.306  1.00  0.00     0.002 A 
BRANCH  82  86
ATOM     86  N   UNL     1       4.308  -1.280   5.875  1.00  0.00    -0.355 N 
ATOM     87  H   UNL     1       4.699  -0.467   5.481  1.00  0.00     0.167 HD
BRANCH  86  88
ATOM     88  C   UNL     1       4.955  -1.923   7.028  1.00  0.00     0.040 A 
ATOM     89  C   UNL     1       5.217  -1.143   8.142  1.00  0.00     0.026 A 
ATOM     90  C   UNL     1       5.386  -3.177   6.948  1.00  0.00     0.050 A 
ATOM     91  C   UNL     1       6.196  -1.688   9.006  1.00  0.00     0.004 A 
ATOM     92  C   UNL     1       6.234  -3.687   7.901  1.00  0.00     0.109 A 
ATOM     93  C   UNL     1       6.582  -2.951   8.999  1.00  0.00     0.024 A 
BRANCH  92  94
ATOM     94  S   UNL     1       6.900  -5.358   7.700  1.00  0.00     0.310 S 
ATOM     95  F   UNL     1       7.485  -5.378   9.174  1.00  0.00    -0.094 F 
ATOM     96  F   UNL     1       8.275  -4.745   7.236  1.00  0.00    -0.094 F 
ATOM     97  F   UNL     1       7.452  -6.801   7.526  1.00  0.00    -0.094 F 
ATOM     98  F   UNL     1       5.564  -5.950   8.300  1.00  0.00    -0.094 F 
ATOM     99  F   UNL     1       6.365  -3.899   7.988  1.00  0.00    -0.094 F 
ENDBRANCH  92  94
ENDBRANCH  86  88
ENDBRANCH  82  86
ENDBRANCH  78  80
ENDBRANCH  77  78
ENDBRANCH  76  77
ENDBRANCH  75  76
ENDBRANCH  74  75
ENDBRANCH  73  74
ENDBRANCH   1  73
TORSDOF 23
