REMARK SMILES CC1(C)[C@H](C(=O)Nc2cccc3[nH]ccc23)[C@H]1C(=O)OCCOCCOCCOC(=O)c1ccc(-c2c3nc(c(-c4cc(S(=O)(=O)[O-])ccc4F)c4ccc([nH]4)c(-c4cc(S(=O)(=O)[O-])ccc4F)c4nc(c(-c5cc(S(=O)(=O)[O-])ccc5F)c5ccc2[nH]5)C=C4)C=C3)cc1
REMARK SMILES IDX 25 1 24 2 23 3 22 4 21 5 20 6 18 7 19 8 17 9 1 10 2 11 3 12
REMARK SMILES IDX 4 13 5 14 6 15 7 16 8 18 9 19 16 20 10 21 12 22 15 23 11 24
REMARK SMILES IDX 13 25 14 26 26 28 27 29 28 30 29 31 30 32 31 33 32 34 33 35
REMARK SMILES IDX 94 36 34 37 93 38 35 39 36 40 37 41 87 42 38 43 92 44 86 45
REMARK SMILES IDX 88 46 39 47 91 48 85 49 84 50 40 52 72 53 52 54 71 55 53 56
REMARK SMILES IDX 56 57 70 58 89 59 54 60 55 61 69 63 90 64 57 65 41 66 42 67
REMARK SMILES IDX 50 68 43 69 49 70 51 71 48 72 44 73 45 74 46 75 47 76 73 77
REMARK SMILES IDX 74 78 82 79 75 80 81 81 83 82 80 83 76 84 77 85 78 86 79 87
REMARK SMILES IDX 58 88 59 89 67 90 60 91 66 92 68 93 65 94 61 95 62 96 63 97
REMARK SMILES IDX 64 98
REMARK H PARENT 7 17 13 27 88 51 56 62
REMARK Flexibility Score: inf
ROOT
ATOM      1  C   UNL     1       0.090  -1.604   3.212  1.00  0.00     0.188 C 
ENDROOT
BRANCH   1   2
ATOM      2  C   UNL     1      -1.215  -1.130   3.880  1.00  0.00     0.188 C 
BRANCH   2   3
ATOM      3  O   UNL     1      -2.135  -2.106   4.367  1.00  0.00    -0.376 OA
BRANCH   3   4
ATOM      4  C   UNL     1      -2.489  -3.202   3.525  1.00  0.00     0.202 C 
BRANCH   4   5
ATOM      5  C   UNL     1      -3.035  -2.855   2.138  1.00  0.00     0.261 C 
BRANCH   5   6
ATOM      6  O   UNL     1      -2.041  -2.175   1.361  1.00  0.00    -0.463 OA
BRANCH   6   7
ATOM      7  C   UNL     1      -2.509  -1.257   0.478  1.00  0.00     0.310 C 
ATOM      8  O   UNL     1      -3.655  -1.151   0.094  1.00  0.00    -0.252 OA
BRANCH   7   9
ATOM      9  C   UNL     1      -1.463  -0.267   0.117  1.00  0.00     0.118 C 
ATOM     10  C   UNL     1       0.313  -2.033  -0.734  1.00  0.00     0.013 C 
ATOM     11  C   UNL     1      -0.091  -0.602  -0.468  1.00  0.00    -0.009 C 
ATOM     12  C   UNL     1       1.077   0.241  -0.015  1.00  0.00     0.013 C 
ATOM     13  C   UNL     1      -1.201  -0.027  -1.349  1.00  0.00     0.100 C 
BRANCH  13  14
ATOM     14  C   UNL     1      -1.215   1.333  -1.966  1.00  0.00     0.228 C 
ATOM     15  O   UNL     1      -0.865   1.451  -3.134  1.00  0.00    -0.274 OA
ATOM     16  N   UNL     1      -1.868   2.324  -1.274  1.00  0.00    -0.325 N 
ATOM     17  H   UNL     1      -2.839   2.408  -1.412  1.00  0.00     0.169 HD
BRANCH  16  18
ATOM     18  C   UNL     1      -1.261   3.231  -0.382  1.00  0.00     0.050 A 
ATOM     19  C   UNL     1       0.131   3.329  -0.265  1.00  0.00     0.027 A 
ATOM     20  C   UNL     1      -2.061   4.080   0.420  1.00  0.00     0.023 A 
ATOM     21  C   UNL     1       0.727   4.132   0.705  1.00  0.00     0.004 A 
ATOM     22  C   UNL     1      -1.434   4.889   1.374  1.00  0.00     0.047 A 
ATOM     23  C   UNL     1      -3.460   4.340   0.527  1.00  0.00     0.030 A 
ATOM     24  C   UNL     1      -0.049   4.909   1.564  1.00  0.00     0.027 A 
ATOM     25  N   UNL     1      -2.415   5.613   2.016  1.00  0.00    -0.361 N 
ATOM     26  C   UNL     1      -3.643   5.300   1.496  1.00  0.00     0.083 A 
ATOM     27  H   UNL     1      -2.257   6.259   2.741  1.00  0.00     0.166 HD
ENDBRANCH  16  18
ENDBRANCH  13  14
ENDBRANCH   7   9
ENDBRANCH   6   7
ENDBRANCH   5   6
ENDBRANCH   4   5
ENDBRANCH   3   4
ENDBRANCH   2   3
ENDBRANCH   1   2
BRANCH   1  28
ATOM     28  O   UNL     1       0.357  -2.988   3.372  1.00  0.00    -0.376 OA
BRANCH  28  29
ATOM     29  C   UNL     1       1.551  -3.300   4.075  1.00  0.00     0.202 C 
BRANCH  29  30
ATOM     30  C   UNL     1       1.449  -3.057   5.586  1.00  0.00     0.261 C 
BRANCH  30  31
ATOM     31  O   UNL     1       1.208  -1.689   5.963  1.00  0.00    -0.460 OA
BRANCH  31  32
ATOM     32  C   UNL     1       2.187  -0.801   5.669  1.00  0.00     0.338 C 
ATOM     33  O   UNL     1       3.257  -1.044   5.143  1.00  0.00    -0.246 OA
BRANCH  32  34
ATOM     34  C   UNL     1       1.657   0.558   5.908  1.00  0.00     0.060 A 
ATOM     35  C   UNL     1       1.664   1.480   4.854  1.00  0.00     0.016 A 
ATOM     36  C   UNL     1       1.164   0.920   7.164  1.00  0.00     0.016 A 
ATOM     37  C   UNL     1       1.207   2.782   5.066  1.00  0.00     0.010 A 
ATOM     38  C   UNL     1       0.724   2.230   7.378  1.00  0.00     0.010 A 
ATOM     39  C   UNL     1       0.772   3.176   6.339  1.00  0.00    -0.014 A 
BRANCH  39  40
ATOM     40  C   UNL     1       0.552   4.617   6.627  1.00  0.00     0.031 A 
ATOM     41  C   UNL     1       1.675   5.399   7.256  1.00  0.00     0.074 A 
ATOM     42  C   UNL     1      -0.605   5.228   6.317  1.00  0.00     0.049 A 
ATOM     43  N   UNL     1       1.716   6.656   7.614  1.00  0.00    -0.248 NA
ATOM     44  C   UNL     1       2.918   4.656   7.516  1.00  0.00     0.031 C 
ATOM     45  C   UNL     1      -1.757   4.587   5.686  1.00  0.00     0.029 A 
ATOM     46  N   UNL     1      -1.005   6.528   6.505  1.00  0.00    -0.354 N 
ATOM     47  C   UNL     1       2.989   6.858   8.139  1.00  0.00     0.074 A 
ATOM     48  C   UNL     1       3.671   5.582   8.087  1.00  0.00     0.031 C 
ATOM     49  C   UNL     1      -2.741   5.494   5.554  1.00  0.00     0.029 A 
ATOM     50  C   UNL     1      -2.299   6.773   6.109  1.00  0.00     0.049 A 
ATOM     51  H   UNL     1      -0.419   7.221   6.887  1.00  0.00     0.167 HD
ATOM     52  C   UNL     1       3.542   8.001   8.614  1.00  0.00     0.034 A 
ATOM     53  C   UNL     1      -3.043   7.895   6.203  1.00  0.00     0.034 A 
ATOM     54  C   UNL     1       2.847   9.262   8.688  1.00  0.00     0.049 A 
ATOM     55  C   UNL     1      -2.432   9.140   6.806  1.00  0.00     0.074 A 
ATOM     56  C   UNL     1       3.314  10.479   9.153  1.00  0.00     0.029 A 
ATOM     57  N   UNL     1       1.529   9.465   8.301  1.00  0.00    -0.354 N 
ATOM     58  N   UNL     1      -1.220   9.321   7.280  1.00  0.00    -0.248 NA
ATOM     59  C   UNL     1      -3.288  10.332   6.875  1.00  0.00     0.031 C 
ATOM     60  C   UNL     1       2.260  11.400   9.108  1.00  0.00     0.029 A 
ATOM     61  C   UNL     1       1.158  10.779   8.542  1.00  0.00     0.049 A 
ATOM     62  H   UNL     1       0.943   8.776   7.912  1.00  0.00     0.167 HD
ATOM     63  C   UNL     1      -1.163  10.657   7.675  1.00  0.00     0.074 A 
ATOM     64  C   UNL     1      -2.454  11.236   7.369  1.00  0.00     0.031 C 
ATOM     65  C   UNL     1      -0.135  11.345   8.236  1.00  0.00     0.034 A 
BRANCH  52  66
ATOM     66  C   UNL     1       4.955   7.913   9.138  1.00  0.00     0.023 A 
ATOM     67  C   UNL     1       6.037   7.602   8.295  1.00  0.00     0.031 A 
ATOM     68  C   UNL     1       5.218   8.101  10.506  1.00  0.00     0.131 A 
ATOM     69  C   UNL     1       7.316   7.417   8.839  1.00  0.00     0.055 A 
ATOM     70  C   UNL     1       6.508   7.992  11.029  1.00  0.00     0.041 A 
ATOM     71  F   UNL     1       4.221   8.376  11.362  1.00  0.00    -0.206 F 
ATOM     72  C   UNL     1       7.564   7.633  10.197  1.00  0.00     0.022 A 
BRANCH  69  73
ATOM     73  S   UNL     1       8.621   6.745   7.774  1.00  0.00     0.124 S 
ATOM     74  O   UNL     1       8.031   5.478   7.348  1.00  0.00    -0.237 OA
ATOM     75  O   UNL     1       8.745   7.770   6.744  1.00  0.00    -0.237 OA
ATOM     76  O   UNL     1       9.767   6.620   8.672  1.00  0.00    -0.744 OA
ENDBRANCH  69  73
ENDBRANCH  52  66
BRANCH  53  77
ATOM     77  C   UNL     1      -4.460   7.903   5.741  1.00  0.00     0.023 A 
ATOM     78  C   UNL     1      -4.871   8.721   4.678  1.00  0.00     0.031 A 
ATOM     79  C   UNL     1      -5.439   7.139   6.401  1.00  0.00     0.131 A 
ATOM     80  C   UNL     1      -6.230   8.795   4.336  1.00  0.00     0.055 A 
ATOM     81  C   UNL     1      -6.783   7.176   6.024  1.00  0.00     0.041 A 
ATOM     82  F   UNL     1      -5.100   6.341   7.425  1.00  0.00    -0.206 F 
ATOM     83  C   UNL     1      -7.187   8.019   4.993  1.00  0.00     0.022 A 
BRANCH  80  84
ATOM     84  S   UNL     1      -6.739   9.986   3.067  1.00  0.00     0.124 S 
ATOM     85  O   UNL     1      -6.283  11.245   3.644  1.00  0.00    -0.237 OA
ATOM     86  O   UNL     1      -6.002   9.508   1.902  1.00  0.00    -0.237 OA
ATOM     87  O   UNL     1      -8.189   9.814   3.002  1.00  0.00    -0.744 OA
ENDBRANCH  80  84
ENDBRANCH  53  77
BRANCH  65  88
ATOM     88  C   UNL     1      -0.350  12.816   8.502  1.00  0.00     0.023 A 
ATOM     89  C   UNL     1      -1.268  13.273   9.464  1.00  0.00     0.031 A 
ATOM     90  C   UNL     1       0.374  13.777   7.772  1.00  0.00     0.131 A 
ATOM     91  C   UNL     1      -1.477  14.651   9.632  1.00  0.00     0.055 A 
ATOM     92  C   UNL     1       0.204  15.146   7.985  1.00  0.00     0.041 A 
ATOM     93  F   UNL     1       1.264  13.399   6.840  1.00  0.00    -0.206 F 
ATOM     94  C   UNL     1      -0.736  15.590   8.910  1.00  0.00     0.022 A 
BRANCH  91  95
ATOM     95  S   UNL     1      -2.801  15.203  10.744  1.00  0.00     0.124 S 
ATOM     96  O   UNL     1      -3.971  14.543  10.174  1.00  0.00    -0.237 OA
ATOM     97  O   UNL     1      -2.351  14.698  12.037  1.00  0.00    -0.237 OA
ATOM     98  O   UNL     1      -2.780  16.658  10.606  1.00  0.00    -0.744 OA
ENDBRANCH  91  95
ENDBRANCH  65  88
ENDBRANCH  39  40
ENDBRANCH  32  34
ENDBRANCH  31  32
ENDBRANCH  30  31
ENDBRANCH  29  30
ENDBRANCH  28  29
ENDBRANCH   1  28
TORSDOF 22
