REMARK SMILES CC(C)(C)NS(=O)(=O)c1csc(C(=O)Nc2ccccc2C(=O)OCCOCCOCCOC(=O)c2ccc(-c3c4nc(c(-c5cc(S(=O)(=O)[O-])ccc5F)c5ccc([nH]5)c(-c5cc(S(=O)(=O)[O-])ccc5F)c5nc(c(-c6cc(S(=O)(=O)[O-])ccc6F)c6ccc3[nH]6)C=C5)C=C4)cc2)c1
REMARK SMILES IDX 28 1 27 2 26 3 25 4 24 5 22 6 23 7 21 8 16 9 17 10 18 11
REMARK SMILES IDX 20 12 19 13 15 14 13 15 14 16 12 18 9 19 10 20 99 21 11 22
REMARK SMILES IDX 6 23 7 24 8 25 5 26 2 28 1 29 3 30 4 31 29 32 30 33 31 34
REMARK SMILES IDX 32 35 33 36 34 37 35 38 36 39 37 40 98 41 38 42 97 43 39 44
REMARK SMILES IDX 40 45 41 46 91 47 42 48 96 49 90 50 92 51 43 52 95 53 89 54
REMARK SMILES IDX 88 55 44 57 76 58 56 59 75 60 57 61 60 62 74 63 93 64 58 65
REMARK SMILES IDX 59 66 73 68 94 69 61 70 45 71 46 72 54 73 47 74 53 75 55 76
REMARK SMILES IDX 52 77 48 78 49 79 50 80 51 81 77 82 78 83 86 84 79 85 85 86
REMARK SMILES IDX 87 87 84 88 80 89 81 90 82 91 83 92 62 93 63 94 71 95 64 96
REMARK SMILES IDX 70 97 72 98 69 99 65 100 66 101 67 102 68 103
REMARK H PARENT 15 17 5 27 92 56 60 67
REMARK Flexibility Score: inf
ROOT
ATOM      1  C   UNL     1      -0.996   2.614   0.439  1.00  0.00     0.188 C 
ENDROOT
BRANCH   1   2
ATOM      2  O   UNL     1      -0.849   2.213   1.779  1.00  0.00    -0.376 OA
BRANCH   2   3
ATOM      3  C   UNL     1       0.412   1.847   2.292  1.00  0.00     0.202 C 
BRANCH   3   4
ATOM      4  C   UNL     1       1.771   2.366   1.787  1.00  0.00     0.261 C 
BRANCH   4   5
ATOM      5  O   UNL     1       1.851   3.287   0.692  1.00  0.00    -0.460 OA
BRANCH   5   6
ATOM      6  C   UNL     1       1.899   2.711  -0.528  1.00  0.00     0.340 C 
ATOM      7  O   UNL     1       1.680   1.529  -0.744  1.00  0.00    -0.246 OA
BRANCH   6   8
ATOM      8  C   UNL     1       2.162   3.630  -1.646  1.00  0.00     0.083 A 
ATOM      9  C   UNL     1       3.118   4.649  -1.601  1.00  0.00     0.056 A 
ATOM     10  C   UNL     1       3.158   5.570  -2.658  1.00  0.00     0.027 A 
ATOM     11  C   UNL     1       2.396   5.365  -3.813  1.00  0.00     0.002 A 
ATOM     12  C   UNL     1       1.416   3.411  -2.821  1.00  0.00     0.018 A 
ATOM     13  C   UNL     1       1.553   4.263  -3.911  1.00  0.00     0.001 A 
BRANCH   9  14
ATOM     14  N   UNL     1       4.112   4.789  -0.615  1.00  0.00    -0.320 N 
ATOM     15  C   UNL     1       4.829   3.841   0.106  1.00  0.00     0.265 C 
ATOM     16  O   UNL     1       5.476   4.278   1.064  1.00  0.00    -0.268 OA
ATOM     17  H   UNL     1       4.340   5.721  -0.397  1.00  0.00     0.170 HD
BRANCH  15  18
ATOM     18  C   UNL     1       4.837   2.424  -0.283  1.00  0.00     0.094 A 
ATOM     19  C   UNL     1       4.211   0.396  -1.277  1.00  0.00     0.093 A 
ATOM     20  C   UNL     1       4.649  -0.038  -0.046  1.00  0.00     0.087 A 
ATOM     21  C   UNL     1       4.557   1.780  -1.484  1.00  0.00     0.047 A 
ATOM     22  S   UNL     1       5.262   1.246   0.906  1.00  0.00    -0.137 S 
BRANCH  19  23
ATOM     23  S   UNL     1       3.384  -0.616  -2.439  1.00  0.00     0.241 S 
ATOM     24  O   UNL     1       3.954  -1.925  -2.223  1.00  0.00    -0.207 OA
ATOM     25  O   UNL     1       3.594   0.099  -3.682  1.00  0.00    -0.207 OA
BRANCH  23  26
ATOM     26  N   UNL     1       1.713  -0.688  -2.255  1.00  0.00    -0.206 NA
ATOM     27  H   UNL     1       1.431   0.276  -2.074  1.00  0.00     0.141 HD
BRANCH  26  28
ATOM     28  C   UNL     1       0.929  -1.499  -1.280  1.00  0.00     0.025 C 
ATOM     29  C   UNL     1       1.182  -1.129   0.178  1.00  0.00     0.028 C 
ATOM     30  C   UNL     1       1.164  -2.993  -1.482  1.00  0.00     0.028 C 
ATOM     31  C   UNL     1      -0.563  -1.203  -1.561  1.00  0.00     0.028 C 
ENDBRANCH  26  28
ENDBRANCH  23  26
ENDBRANCH  19  23
ENDBRANCH  15  18
ENDBRANCH   9  14
ENDBRANCH   6   8
ENDBRANCH   5   6
ENDBRANCH   4   5
ENDBRANCH   3   4
ENDBRANCH   2   3
ENDBRANCH   1   2
BRANCH   1  32
ATOM     32  C   UNL     1      -0.839   4.134   0.203  1.00  0.00     0.188 C 
BRANCH  32  33
ATOM     33  O   UNL     1      -0.656   5.006   1.306  1.00  0.00    -0.376 OA
BRANCH  33  34
ATOM     34  C   UNL     1      -1.476   4.826   2.448  1.00  0.00     0.202 C 
BRANCH  34  35
ATOM     35  C   UNL     1      -3.006   4.697   2.297  1.00  0.00     0.261 C 
BRANCH  35  36
ATOM     36  O   UNL     1      -3.493   3.832   1.253  1.00  0.00    -0.460 OA
BRANCH  36  37
ATOM     37  C   UNL     1      -3.956   4.443   0.128  1.00  0.00     0.338 C 
ATOM     38  O   UNL     1      -4.030   5.644  -0.066  1.00  0.00    -0.246 OA
BRANCH  37  39
ATOM     39  C   UNL     1      -4.158   3.430  -0.943  1.00  0.00     0.060 A 
ATOM     40  C   UNL     1      -3.406   3.514  -2.131  1.00  0.00     0.016 A 
ATOM     41  C   UNL     1      -5.099   2.415  -0.789  1.00  0.00     0.016 A 
ATOM     42  C   UNL     1      -3.605   2.599  -3.170  1.00  0.00     0.010 A 
ATOM     43  C   UNL     1      -5.329   1.527  -1.847  1.00  0.00     0.010 A 
ATOM     44  C   UNL     1      -4.608   1.631  -3.054  1.00  0.00    -0.014 A 
BRANCH  44  45
ATOM     45  C   UNL     1      -5.107   0.900  -4.249  1.00  0.00     0.031 A 
ATOM     46  C   UNL     1      -6.332   1.444  -4.930  1.00  0.00     0.074 A 
ATOM     47  C   UNL     1      -4.539  -0.234  -4.698  1.00  0.00     0.049 A 
ATOM     48  N   UNL     1      -7.101   0.890  -5.829  1.00  0.00    -0.248 NA
ATOM     49  C   UNL     1      -6.749   2.795  -4.523  1.00  0.00     0.031 C 
ATOM     50  C   UNL     1      -3.300  -0.811  -4.192  1.00  0.00     0.029 A 
ATOM     51  N   UNL     1      -4.952  -1.119  -5.666  1.00  0.00    -0.354 N 
ATOM     52  C   UNL     1      -8.110   1.814  -6.077  1.00  0.00     0.074 A 
ATOM     53  C   UNL     1      -7.865   2.950  -5.216  1.00  0.00     0.031 C 
ATOM     54  C   UNL     1      -3.072  -1.978  -4.823  1.00  0.00     0.029 A 
ATOM     55  C   UNL     1      -4.179  -2.256  -5.738  1.00  0.00     0.049 A 
ATOM     56  H   UNL     1      -5.726  -0.955  -6.252  1.00  0.00     0.167 HD
ATOM     57  C   UNL     1      -9.149   1.718  -6.942  1.00  0.00     0.034 A 
ATOM     58  C   UNL     1      -4.372  -3.406  -6.421  1.00  0.00     0.034 A 
ATOM     59  C   UNL     1      -9.386   0.570  -7.779  1.00  0.00     0.049 A 
ATOM     60  C   UNL     1      -5.605  -3.547  -7.289  1.00  0.00     0.074 A 
ATOM     61  C   UNL     1     -10.406   0.367  -8.692  1.00  0.00     0.029 A 
ATOM     62  N   UNL     1      -8.603  -0.578  -7.796  1.00  0.00    -0.354 N 
ATOM     63  N   UNL     1      -6.572  -2.682  -7.499  1.00  0.00    -0.248 NA
ATOM     64  C   UNL     1      -5.776  -4.817  -8.011  1.00  0.00     0.031 C 
ATOM     65  C   UNL     1     -10.290  -0.932  -9.194  1.00  0.00     0.029 A 
ATOM     66  C   UNL     1      -9.139  -1.504  -8.676  1.00  0.00     0.049 A 
ATOM     67  H   UNL     1      -7.788  -0.713  -7.262  1.00  0.00     0.167 HD
ATOM     68  C   UNL     1      -7.433  -3.286  -8.415  1.00  0.00     0.074 A 
ATOM     69  C   UNL     1      -6.878  -4.589  -8.711  1.00  0.00     0.031 C 
ATOM     70  C   UNL     1      -8.570  -2.798  -8.973  1.00  0.00     0.034 A 
BRANCH  57  71
ATOM     71  C   UNL     1     -10.137   2.857  -6.966  1.00  0.00     0.023 A 
ATOM     72  C   UNL     1      -9.763   4.156  -7.349  1.00  0.00     0.031 A 
ATOM     73  C   UNL     1     -11.468   2.647  -6.562  1.00  0.00     0.131 A 
ATOM     74  C   UNL     1     -10.686   5.207  -7.248  1.00  0.00     0.055 A 
ATOM     75  C   UNL     1     -12.406   3.679  -6.550  1.00  0.00     0.041 A 
ATOM     76  F   UNL     1     -11.875   1.433  -6.156  1.00  0.00    -0.206 F 
ATOM     77  C   UNL     1     -12.013   4.973  -6.879  1.00  0.00     0.022 A 
BRANCH  74  78
ATOM     78  S   UNL     1     -10.086   6.906  -7.452  1.00  0.00     0.124 S 
ATOM     79  O   UNL     1      -9.060   6.982  -6.414  1.00  0.00    -0.237 OA
ATOM     80  O   UNL     1      -9.602   6.907  -8.827  1.00  0.00    -0.237 OA
ATOM     81  O   UNL     1     -11.273   7.721  -7.205  1.00  0.00    -0.744 OA
ENDBRANCH  74  78
ENDBRANCH  57  71
BRANCH  58  82
ATOM     82  C   UNL     1      -3.418  -4.547  -6.279  1.00  0.00     0.023 A 
ATOM     83  C   UNL     1      -2.709  -5.042  -7.385  1.00  0.00     0.031 A 
ATOM     84  C   UNL     1      -3.253  -5.208  -5.047  1.00  0.00     0.131 A 
ATOM     85  C   UNL     1      -1.911  -6.190  -7.252  1.00  0.00     0.055 A 
ATOM     86  C   UNL     1      -2.410  -6.312  -4.906  1.00  0.00     0.041 A 
ATOM     87  F   UNL     1      -3.911  -4.785  -3.956  1.00  0.00    -0.206 F 
ATOM     88  C   UNL     1      -1.743  -6.819  -6.016  1.00  0.00     0.022 A 
BRANCH  85  89
ATOM     89  S   UNL     1      -1.180  -6.917  -8.745  1.00  0.00     0.124 S 
ATOM     90  O   UNL     1      -2.365  -7.186  -9.551  1.00  0.00    -0.237 OA
ATOM     91  O   UNL     1      -0.316  -5.838  -9.213  1.00  0.00    -0.237 OA
ATOM     92  O   UNL     1      -0.484  -8.099  -8.242  1.00  0.00    -0.744 OA
ENDBRANCH  85  89
ENDBRANCH  58  82
BRANCH  70  93
ATOM     93  C   UNL     1      -9.253  -3.632 -10.031  1.00  0.00     0.023 A 
ATOM     94  C   UNL     1      -9.893  -4.848  -9.737  1.00  0.00     0.031 A 
ATOM     95  C   UNL     1      -9.300  -3.165 -11.358  1.00  0.00     0.131 A 
ATOM     96  C   UNL     1     -10.526  -5.569 -10.763  1.00  0.00     0.055 A 
ATOM     97  C   UNL     1      -9.982  -3.855 -12.361  1.00  0.00     0.041 A 
ATOM     98  F   UNL     1      -8.702  -2.011 -11.697  1.00  0.00    -0.206 F 
ATOM     99  C   UNL     1     -10.594  -5.069 -12.067  1.00  0.00     0.022 A 
BRANCH  96 100
ATOM    100  S   UNL     1     -11.211  -7.207 -10.390  1.00  0.00     0.124 S 
ATOM    101  O   UNL     1     -10.030  -7.933  -9.935  1.00  0.00    -0.237 OA
ATOM    102  O   UNL     1     -12.207  -6.905  -9.367  1.00  0.00    -0.237 OA
ATOM    103  O   UNL     1     -11.756  -7.652 -11.672  1.00  0.00    -0.744 OA
ENDBRANCH  96 100
ENDBRANCH  70  93
ENDBRANCH  44  45
ENDBRANCH  37  39
ENDBRANCH  36  37
ENDBRANCH  35  36
ENDBRANCH  34  35
ENDBRANCH  33  34
ENDBRANCH  32  33
ENDBRANCH   1  32
TORSDOF 25
