REMARK SMILES Cc1ccc(C(=O)N2CCCC[C@@H]2C(=O)OCCOCCOCCOC(=O)c2ccc(-c3c4nc(c(-c5cc(S(=O)(=O)[O-])ccc5F)c5ccc([nH]5)c(-c5cc(S(=O)(=O)[O-])ccc5F)c5nc(c(-c6cc(S(=O)(=O)[O-])ccc6F)c6ccc3[nH]6)C=C5)C=C4)cc2)cc1S(=O)(=O)N1CCCCC1
REMARK SMILES IDX 20 1 19 2 18 3 17 4 16 5 14 6 15 7 13 8 8 9 9 10 10 11 12 12
REMARK SMILES IDX 11 13 6 14 7 15 5 16 1 17 2 18 3 19 92 20 4 21 91 22 93 23
REMARK SMILES IDX 94 24 95 25 96 26 97 27 101 28 98 29 100 30 99 31 21 32
REMARK SMILES IDX 22 33 23 34 24 35 25 36 26 37 27 38 28 39 29 40 90 41 30 42
REMARK SMILES IDX 89 43 31 44 32 45 33 46 83 47 34 48 88 49 82 50 84 51 35 52
REMARK SMILES IDX 87 53 81 54 80 55 36 57 68 58 48 59 67 60 49 61 52 62 66 63
REMARK SMILES IDX 85 64 50 65 51 66 65 68 86 69 53 70 37 71 38 72 46 73 39 74
REMARK SMILES IDX 45 75 47 76 44 77 40 78 41 79 42 80 43 81 69 82 70 83 78 84
REMARK SMILES IDX 71 85 77 86 79 87 76 88 72 89 73 90 74 91 75 92 54 93 55 94
REMARK SMILES IDX 63 95 56 96 62 97 64 98 61 99 57 100 58 101 59 102 60 103
REMARK H PARENT 84 56 52 67
REMARK Flexibility Score: inf
ROOT
ATOM      1  C   UNL     1      -1.348   1.342  -5.984  1.00  0.00     0.188 C 
ENDROOT
BRANCH   1   2
ATOM      2  O   UNL     1      -1.614  -0.060  -5.687  1.00  0.00    -0.376 OA
BRANCH   2   3
ATOM      3  C   UNL     1      -2.840  -0.769  -5.248  1.00  0.00     0.202 C 
BRANCH   3   4
ATOM      4  C   UNL     1      -4.062  -0.842  -3.865  1.00  0.00     0.261 C 
BRANCH   4   5
ATOM      5  O   UNL     1      -4.536   0.342  -2.512  1.00  0.00    -0.462 OA
BRANCH   5   6
ATOM      6  C   UNL     1      -3.816   1.282  -1.422  1.00  0.00     0.328 C 
ATOM      7  O   UNL     1      -2.599   1.369  -1.203  1.00  0.00    -0.250 OA
BRANCH   6   8
ATOM      8  C   UNL     1      -4.501   2.141  -0.386  1.00  0.00     0.195 C 
ATOM      9  N   UNL     1      -4.452   1.658   1.052  1.00  0.00    -0.325 N 
ATOM     10  C   UNL     1      -5.500   2.136   1.937  1.00  0.00     0.121 C 
ATOM     11  C   UNL     1      -6.811   2.478   1.264  1.00  0.00     0.022 C 
ATOM     12  C   UNL     1      -5.770   2.723  -0.957  1.00  0.00     0.037 C 
ATOM     13  C   UNL     1      -6.581   3.425   0.103  1.00  0.00     0.005 C 
BRANCH   9  14
ATOM     14  C   UNL     1      -3.289   1.313   1.851  1.00  0.00     0.254 C 
ATOM     15  O   UNL     1      -3.455   0.876   3.001  1.00  0.00    -0.269 OA
BRANCH  14  16
ATOM     16  C   UNL     1      -1.879   1.221   1.377  1.00  0.00     0.041 A 
ATOM     17  C   UNL     1       2.887  -0.706   0.062  1.00  0.00     0.046 C 
ATOM     18  C   UNL     1       0.974   0.361   0.516  1.00  0.00    -0.031 A 
ATOM     19  C   UNL     1      -0.421  -0.327   0.341  1.00  0.00     0.005 A 
ATOM     20  C   UNL     1       0.628   1.794   1.066  1.00  0.00     0.086 A 
ATOM     21  C   UNL     1      -1.646  -0.025   0.892  1.00  0.00     0.014 A 
ATOM     22  C   UNL     1      -0.779   2.127   1.471  1.00  0.00     0.035 A 
BRANCH  20  23
ATOM     23  S   UNL     1       1.734   3.510   1.205  1.00  0.00     0.243 S 
ATOM     24  O   UNL     1       1.207   4.405   0.193  1.00  0.00    -0.207 OA
ATOM     25  O   UNL     1       1.581   3.890   2.597  1.00  0.00    -0.207 OA
BRANCH  23  26
ATOM     26  N   UNL     1       3.511   3.478   0.910  1.00  0.00    -0.198 NA
ATOM     27  C   UNL     1       4.350   3.073   2.075  1.00  0.00     0.102 C 
ATOM     28  C   UNL     1       4.063   3.439  -0.490  1.00  0.00     0.102 C 
ATOM     29  C   UNL     1       5.726   2.450   1.774  1.00  0.00     0.017 C 
ATOM     30  C   UNL     1       5.431   2.722  -0.701  1.00  0.00     0.017 C 
ATOM     31  C   UNL     1       5.962   1.820   0.412  1.00  0.00     0.003 C 
ENDBRANCH  23  26
ENDBRANCH  20  23
ENDBRANCH  14  16
ENDBRANCH   9  14
ENDBRANCH   6   8
ENDBRANCH   5   6
ENDBRANCH   4   5
ENDBRANCH   3   4
ENDBRANCH   2   3
ENDBRANCH   1   2
BRANCH   1  32
ATOM     32  C   UNL     1      -2.280   2.043  -6.889  1.00  0.00     0.188 C 
BRANCH  32  33
ATOM     33  O   UNL     1      -3.481   1.370  -6.644  1.00  0.00    -0.376 OA
BRANCH  33  34
ATOM     34  C   UNL     1      -4.347   1.135  -7.692  1.00  0.00     0.202 C 
BRANCH  34  35
ATOM     35  C   UNL     1      -4.636   2.453  -8.374  1.00  0.00     0.261 C 
BRANCH  35  36
ATOM     36  O   UNL     1      -5.359   3.421  -7.519  1.00  0.00    -0.460 OA
BRANCH  36  37
ATOM     37  C   UNL     1      -4.768   4.283  -6.601  1.00  0.00     0.338 C 
ATOM     38  O   UNL     1      -4.678   5.486  -6.794  1.00  0.00    -0.246 OA
BRANCH  37  39
ATOM     39  C   UNL     1      -4.520   3.691  -5.242  1.00  0.00     0.060 A 
ATOM     40  C   UNL     1      -3.497   3.999  -4.327  1.00  0.00     0.016 A 
ATOM     41  C   UNL     1      -5.197   2.570  -4.965  1.00  0.00     0.016 A 
ATOM     42  C   UNL     1      -2.822   2.956  -3.539  1.00  0.00     0.010 A 
ATOM     43  C   UNL     1      -4.421   1.587  -4.348  1.00  0.00     0.010 A 
ATOM     44  C   UNL     1      -3.066   1.588  -3.700  1.00  0.00    -0.014 A 
BRANCH  44  45
ATOM     45  C   UNL     1      -2.139   0.144  -2.927  1.00  0.00     0.031 A 
ATOM     46  C   UNL     1      -2.812  -1.145  -1.776  1.00  0.00     0.074 A 
ATOM     47  C   UNL     1      -0.840  -0.149  -3.215  1.00  0.00     0.049 A 
ATOM     48  N   UNL     1      -2.417  -2.402  -1.694  1.00  0.00    -0.248 NA
ATOM     49  C   UNL     1      -4.130  -1.135  -0.929  1.00  0.00     0.031 C 
ATOM     50  C   UNL     1      -0.079  -1.409  -3.086  1.00  0.00     0.029 A 
ATOM     51  N   UNL     1       0.105   0.643  -3.853  1.00  0.00    -0.354 N 
ATOM     52  C   UNL     1      -3.373  -3.148  -0.962  1.00  0.00     0.074 A 
ATOM     53  C   UNL     1      -4.539  -2.380  -0.816  1.00  0.00     0.031 C 
ATOM     54  C   UNL     1       1.232  -1.157  -3.299  1.00  0.00     0.029 A 
ATOM     55  C   UNL     1       1.356   0.276  -3.386  1.00  0.00     0.049 A 
ATOM     56  H   UNL     1      -0.082   1.343  -4.520  1.00  0.00     0.167 HD
ATOM     57  C   UNL     1      -3.138  -4.127  -0.060  1.00  0.00     0.034 A 
ATOM     58  C   UNL     1       1.901   1.124  -2.491  1.00  0.00     0.034 A 
ATOM     59  C   UNL     1      -1.748  -4.173   0.253  1.00  0.00     0.049 A 
ATOM     60  C   UNL     1       1.924   0.390  -1.123  1.00  0.00     0.074 A 
ATOM     61  C   UNL     1      -0.688  -4.644  -0.481  1.00  0.00     0.029 A 
ATOM     62  N   UNL     1      -1.259  -3.463   1.327  1.00  0.00    -0.354 N 
ATOM     63  N   UNL     1       1.314  -1.125  -0.697  1.00  0.00    -0.248 NA
ATOM     64  C   UNL     1       2.817   1.097   0.543  1.00  0.00     0.031 C 
ATOM     65  C   UNL     1       0.471  -4.076   0.074  1.00  0.00     0.029 A 
ATOM     66  C   UNL     1       0.106  -3.308   1.170  1.00  0.00     0.049 A 
ATOM     67  H   UNL     1      -1.792  -3.122   2.080  1.00  0.00     0.167 HD
ATOM     68  C   UNL     1       1.513  -1.432   1.160  1.00  0.00     0.074 A 
ATOM     69  C   UNL     1       2.497   0.097   1.818  1.00  0.00     0.031 C 
ATOM     70  C   UNL     1       0.810  -2.317   1.943  1.00  0.00     0.034 A 
BRANCH  57  71
ATOM     71  C   UNL     1      -4.121  -5.203   0.356  1.00  0.00     0.023 A 
ATOM     72  C   UNL     1      -3.466  -6.372   0.755  1.00  0.00     0.031 A 
ATOM     73  C   UNL     1      -5.522  -5.326   0.205  1.00  0.00     0.131 A 
ATOM     74  C   UNL     1      -4.103  -7.609   0.784  1.00  0.00     0.055 A 
ATOM     75  C   UNL     1      -6.186  -6.563   0.316  1.00  0.00     0.041 A 
ATOM     76  F   UNL     1      -6.333  -4.300  -0.083  1.00  0.00    -0.206 F 
ATOM     77  C   UNL     1      -5.466  -7.725   0.558  1.00  0.00     0.022 A 
BRANCH  74  78
ATOM     78  S   UNL     1      -3.020  -9.039   0.955  1.00  0.00     0.124 S 
ATOM     79  O   UNL     1      -2.182  -8.920  -0.236  1.00  0.00    -0.237 OA
ATOM     80  O   UNL     1      -2.366  -8.773   2.232  1.00  0.00    -0.237 OA
ATOM     81  O   UNL     1      -3.949 -10.165   0.949  1.00  0.00    -0.744 OA
ENDBRANCH  74  78
ENDBRANCH  57  71
BRANCH  58  82
ATOM     82  C   UNL     1       1.496   2.585  -2.860  1.00  0.00     0.023 A 
ATOM     83  C   UNL     1       1.808   3.126  -4.146  1.00  0.00     0.031 A 
ATOM     84  C   UNL     1       0.456   3.259  -2.209  1.00  0.00     0.131 A 
ATOM     85  C   UNL     1       1.031   4.173  -4.727  1.00  0.00     0.055 A 
ATOM     86  C   UNL     1      -0.165   4.428  -2.696  1.00  0.00     0.041 A 
ATOM     87  F   UNL     1      -0.149   2.690  -1.169  1.00  0.00    -0.206 F 
ATOM     88  C   UNL     1       0.049   4.833  -3.999  1.00  0.00     0.022 A 
BRANCH  85  89
ATOM     89  S   UNL     1       1.075   4.487  -6.529  1.00  0.00     0.124 S 
ATOM     90  O   UNL     1       2.064   5.553  -6.633  1.00  0.00    -0.237 OA
ATOM     91  O   UNL     1       1.467   3.195  -7.083  1.00  0.00    -0.237 OA
ATOM     92  O   UNL     1      -0.302   4.873  -6.842  1.00  0.00    -0.744 OA
ENDBRANCH  85  89
ENDBRANCH  58  82
BRANCH  70  93
ATOM     93  C   UNL     1       0.726  -2.176   3.459  1.00  0.00     0.023 A 
ATOM     94  C   UNL     1       1.223  -1.069   4.164  1.00  0.00     0.031 A 
ATOM     95  C   UNL     1       0.168  -3.165   4.286  1.00  0.00     0.131 A 
ATOM     96  C   UNL     1       1.516  -1.116   5.533  1.00  0.00     0.055 A 
ATOM     97  C   UNL     1       0.292  -3.142   5.686  1.00  0.00     0.041 A 
ATOM     98  F   UNL     1      -0.536  -4.184   3.774  1.00  0.00    -0.206 F 
ATOM     99  C   UNL     1       1.049  -2.158   6.311  1.00  0.00     0.022 A 
BRANCH  96 100
ATOM    100  S   UNL     1       2.697   0.104   6.184  1.00  0.00     0.124 S 
ATOM    101  O   UNL     1       3.848  -0.085   5.299  1.00  0.00    -0.237 OA
ATOM    102  O   UNL     1       1.985   1.364   6.019  1.00  0.00    -0.237 OA
ATOM    103  O   UNL     1       2.907  -0.324   7.565  1.00  0.00    -0.744 OA
ENDBRANCH  96 100
ENDBRANCH  70  93
ENDBRANCH  44  45
ENDBRANCH  37  39
ENDBRANCH  36  37
ENDBRANCH  35  36
ENDBRANCH  34  35
ENDBRANCH  33  34
ENDBRANCH  32  33
ENDBRANCH   1  32
TORSDOF 24
