REMARK SMILES N#C/C(=C/c1ccc(-c2cc(C(=O)OCCOCCOCCOC(=O)c3ccc(-c4c5nc(c(-c6cc(S(=O)(=O)[O-])ccc6F)c6ccc([nH]6)c(-c6cc(S(=O)(=O)[O-])ccc6F)c6nc(c(-c7cc(S(=O)(=O)[O-])ccc7F)c7ccc4[nH]7)C=C6)C=C5)cc3)ccc2Cl)o1)C(=O)NCCc1c[nH]c2ccccc12
REMARK SMILES IDX 17 1 16 2 15 3 14 4 12 5 13 6 11 7 9 8 10 9 91 10 90 11
REMARK SMILES IDX 92 12 89 13 8 14 5 15 6 16 93 17 7 18 4 19 3 20 2 21 1 22
REMARK SMILES IDX 94 23 95 24 96 25 97 27 98 28 99 29 100 30 107 31 101 32
REMARK SMILES IDX 102 33 106 34 103 36 105 37 104 38 18 39 19 40 20 41 21 42
REMARK SMILES IDX 22 43 23 44 24 45 25 46 26 47 27 48 88 49 28 50 87 51 29 52
REMARK SMILES IDX 30 53 31 54 81 55 32 56 86 57 80 58 82 59 33 60 85 61 79 62
REMARK SMILES IDX 78 63 34 65 66 66 46 67 65 68 47 69 50 70 64 71 83 72 48 73
REMARK SMILES IDX 49 74 63 76 84 77 51 78 35 79 36 80 44 81 37 82 43 83 45 84
REMARK SMILES IDX 42 85 38 86 39 87 40 88 41 89 67 90 68 91 76 92 69 93 75 94
REMARK SMILES IDX 77 95 74 96 70 97 71 98 72 99 73 100 52 101 53 102 61 103
REMARK SMILES IDX 54 104 60 105 62 106 59 107 55 108 56 109 57 110 58 111
REMARK H PARENT 96 26 101 35 82 64 50 75
REMARK Flexibility Score: inf
ROOT
ATOM      1  O   UNL     1       9.844   1.500  -7.470  1.00  0.00    -0.376 OA
ENDROOT
BRANCH   1   2
ATOM      2  C   UNL     1      11.257   1.635  -7.482  1.00  0.00     0.202 C 
BRANCH   2   3
ATOM      3  C   UNL     1      11.998   1.747  -6.142  1.00  0.00     0.261 C 
BRANCH   3   4
ATOM      4  O   UNL     1      11.741   0.666  -5.228  1.00  0.00    -0.460 OA
BRANCH   4   5
ATOM      5  C   UNL     1      11.068   0.976  -4.087  1.00  0.00     0.338 C 
ATOM      6  O   UNL     1      10.703   2.083  -3.733  1.00  0.00    -0.246 OA
BRANCH   5   7
ATOM      7  C   UNL     1      10.707  -0.272  -3.357  1.00  0.00     0.060 A 
ATOM      8  C   UNL     1       9.114  -1.512  -1.951  1.00  0.00     0.037 A 
ATOM      9  C   UNL     1       9.478  -0.348  -2.663  1.00  0.00     0.029 A 
ATOM     10  C   UNL     1      10.011  -2.602  -1.982  1.00  0.00     0.052 A 
ATOM     11  C   UNL     1      11.227  -2.526  -2.679  1.00  0.00     0.022 A 
ATOM     12  Cl  UNL     1       9.691  -4.100  -1.172  1.00  0.00    -0.084 Cl
ATOM     13  C   UNL     1      11.580  -1.363  -3.358  1.00  0.00     0.017 A 
BRANCH   8  14
ATOM     14  C   UNL     1       7.923  -1.519  -1.087  1.00  0.00     0.136 A 
ATOM     15  C   UNL     1       5.751  -1.199  -0.593  1.00  0.00     0.129 A 
ATOM     16  C   UNL     1       6.412  -1.600   0.564  1.00  0.00     0.051 A 
ATOM     17  O   UNL     1       6.702  -1.180  -1.619  1.00  0.00    -0.457 OA
ATOM     18  C   UNL     1       7.774  -1.792   0.255  1.00  0.00     0.051 A 
BRANCH  15  19
ATOM     19  C   UNL     1       4.360  -0.879  -0.734  1.00  0.00     0.072 C 
ATOM     20  C   UNL     1       3.712   0.070  -0.015  1.00  0.00     0.120 C 
BRANCH  20  21
ATOM     21  C   UNL     1       2.192   0.070  -0.015  1.00  0.00     0.105 C 
ATOM     22  N   UNL     1       0.931   0.070  -0.015  1.00  0.00    -0.192 NA
ENDBRANCH  20  21
BRANCH  20  23
ATOM     23  C   UNL     1       4.375   1.075   0.853  1.00  0.00     0.262 C 
ATOM     24  O   UNL     1       3.988   1.208   2.015  1.00  0.00    -0.268 OA
ATOM     25  N   UNL     1       5.387   1.879   0.408  1.00  0.00    -0.351 N 
ATOM     26  H   UNL     1       5.518   2.679   0.967  1.00  0.00     0.163 HD
BRANCH  25  27
ATOM     27  C   UNL     1       6.326   1.811  -0.727  1.00  0.00     0.121 C 
BRANCH  27  28
ATOM     28  C   UNL     1       7.109   3.116  -1.064  1.00  0.00     0.059 C 
BRANCH  28  29
ATOM     29  C   UNL     1       7.686   3.692   0.193  1.00  0.00    -0.021 A 
ATOM     30  C   UNL     1       8.592   3.082   1.040  1.00  0.00     0.087 A 
ATOM     31  C   UNL     1       7.083   4.742   0.937  1.00  0.00     0.003 A 
ATOM     32  N   UNL     1       8.106   3.326   2.305  1.00  0.00    -0.361 N 
ATOM     33  C   UNL     1       7.113   4.275   2.250  1.00  0.00     0.046 A 
ATOM     34  C   UNL     1       6.281   5.845   0.614  1.00  0.00     0.010 A 
ATOM     35  H   UNL     1       8.423   2.886   3.127  1.00  0.00     0.166 HD
ATOM     36  C   UNL     1       6.187   4.698   3.205  1.00  0.00     0.026 A 
ATOM     37  C   UNL     1       5.484   6.395   1.615  1.00  0.00     0.001 A 
ATOM     38  C   UNL     1       5.368   5.771   2.854  1.00  0.00     0.002 A 
ENDBRANCH  28  29
ENDBRANCH  27  28
ENDBRANCH  25  27
ENDBRANCH  20  23
ENDBRANCH  15  19
ENDBRANCH   8  14
ENDBRANCH   5   7
ENDBRANCH   4   5
ENDBRANCH   3   4
ENDBRANCH   2   3
ENDBRANCH   1   2
BRANCH   1  39
ATOM     39  C   UNL     1       9.242   0.430  -6.749  1.00  0.00     0.188 C 
BRANCH  39  40
ATOM     40  C   UNL     1       9.837  -0.991  -6.855  1.00  0.00     0.188 C 
BRANCH  40  41
ATOM     41  O   UNL     1      10.845  -1.123  -7.829  1.00  0.00    -0.376 OA
BRANCH  41  42
ATOM     42  C   UNL     1      10.529  -1.614  -9.116  1.00  0.00     0.202 C 
BRANCH  42  43
ATOM     43  C   UNL     1       9.177  -1.409  -9.829  1.00  0.00     0.261 C 
BRANCH  43  44
ATOM     44  O   UNL     1       8.040  -1.032  -9.049  1.00  0.00    -0.460 OA
BRANCH  44  45
ATOM     45  C   UNL     1       7.269  -2.033  -8.563  1.00  0.00     0.338 C 
ATOM     46  O   UNL     1       7.478  -3.231  -8.670  1.00  0.00    -0.246 OA
BRANCH  45  47
ATOM     47  C   UNL     1       6.223  -1.434  -7.705  1.00  0.00     0.060 A 
ATOM     48  C   UNL     1       6.229  -1.715  -6.332  1.00  0.00     0.016 A 
ATOM     49  C   UNL     1       5.245  -0.597  -8.247  1.00  0.00     0.016 A 
ATOM     50  C   UNL     1       5.241  -1.180  -5.500  1.00  0.00     0.010 A 
ATOM     51  C   UNL     1       4.243  -0.080  -7.416  1.00  0.00     0.010 A 
ATOM     52  C   UNL     1       4.218  -0.391  -6.043  1.00  0.00    -0.014 A 
BRANCH  52  53
ATOM     53  C   UNL     1       3.026  -0.049  -5.220  1.00  0.00     0.031 A 
ATOM     54  C   UNL     1       1.786  -0.888  -5.383  1.00  0.00     0.074 A 
ATOM     55  C   UNL     1       3.038   0.980  -4.351  1.00  0.00     0.049 A 
ATOM     56  N   UNL     1       0.608  -0.743  -4.839  1.00  0.00    -0.248 NA
ATOM     57  C   UNL     1       1.893  -2.045  -6.288  1.00  0.00     0.031 C 
ATOM     58  C   UNL     1       4.185   1.850  -4.098  1.00  0.00     0.029 A 
ATOM     59  N   UNL     1       2.049   1.490  -3.543  1.00  0.00    -0.354 N 
ATOM     60  C   UNL     1      -0.175  -1.776  -5.343  1.00  0.00     0.074 A 
ATOM     61  C   UNL     1       0.660  -2.529  -6.255  1.00  0.00     0.031 C 
ATOM     62  C   UNL     1       3.819   2.809  -3.229  1.00  0.00     0.029 A 
ATOM     63  C   UNL     1       2.406   2.653  -2.893  1.00  0.00     0.049 A 
ATOM     64  H   UNL     1       1.167   1.065  -3.438  1.00  0.00     0.167 HD
ATOM     65  C   UNL     1      -1.470  -2.069  -5.073  1.00  0.00     0.034 A 
ATOM     66  C   UNL     1       1.665   3.514  -2.160  1.00  0.00     0.034 A 
ATOM     67  C   UNL     1      -2.295  -1.303  -4.173  1.00  0.00     0.049 A 
ATOM     68  C   UNL     1       0.189   3.211  -1.957  1.00  0.00     0.074 A 
ATOM     69  C   UNL     1      -3.606  -1.539  -3.797  1.00  0.00     0.029 A 
ATOM     70  N   UNL     1      -1.899  -0.143  -3.521  1.00  0.00    -0.354 N 
ATOM     71  N   UNL     1      -0.519   2.198  -2.407  1.00  0.00    -0.248 NA
ATOM     72  C   UNL     1      -0.589   4.164  -1.152  1.00  0.00     0.031 C 
ATOM     73  C   UNL     1      -4.032  -0.474  -2.998  1.00  0.00     0.029 A 
ATOM     74  C   UNL     1      -2.959   0.379  -2.798  1.00  0.00     0.049 A 
ATOM     75  H   UNL     1      -0.997   0.250  -3.566  1.00  0.00     0.167 HD
ATOM     76  C   UNL     1      -1.795   2.355  -1.862  1.00  0.00     0.074 A 
ATOM     77  C   UNL     1      -1.762   3.560  -1.065  1.00  0.00     0.031 C 
ATOM     78  C   UNL     1      -2.900   1.579  -2.000  1.00  0.00     0.034 A 
BRANCH  65  79
ATOM     79  C   UNL     1      -2.095  -3.231  -5.805  1.00  0.00     0.023 A 
ATOM     80  C   UNL     1      -1.669  -4.555  -5.606  1.00  0.00     0.031 A 
ATOM     81  C   UNL     1      -3.144  -3.005  -6.715  1.00  0.00     0.131 A 
ATOM     82  C   UNL     1      -2.254  -5.596  -6.344  1.00  0.00     0.055 A 
ATOM     83  C   UNL     1      -3.772  -4.052  -7.390  1.00  0.00     0.041 A 
ATOM     84  F   UNL     1      -3.574  -1.758  -6.966  1.00  0.00    -0.206 F 
ATOM     85  C   UNL     1      -3.320  -5.356  -7.214  1.00  0.00     0.022 A 
BRANCH  82  86
ATOM     86  S   UNL     1      -1.523  -7.252  -6.242  1.00  0.00     0.124 S 
ATOM     87  O   UNL     1      -0.157  -7.002  -6.698  1.00  0.00    -0.237 OA
ATOM     88  O   UNL     1      -1.673  -7.578  -4.828  1.00  0.00    -0.237 OA
ATOM     89  O   UNL     1      -2.341  -8.046  -7.156  1.00  0.00    -0.744 OA
ENDBRANCH  82  86
ENDBRANCH  65  79
BRANCH  66  90
ATOM     90  C   UNL     1       2.241   4.795  -1.629  1.00  0.00     0.023 A 
ATOM     91  C   UNL     1       2.114   5.148  -0.273  1.00  0.00     0.031 A 
ATOM     92  C   UNL     1       2.776   5.761  -2.503  1.00  0.00     0.131 A 
ATOM     93  C   UNL     1       2.362   6.471   0.127  1.00  0.00     0.055 A 
ATOM     94  C   UNL     1       3.156   7.031  -2.068  1.00  0.00     0.041 A 
ATOM     95  F   UNL     1       2.913   5.497  -3.813  1.00  0.00    -0.206 F 
ATOM     96  C   UNL     1       2.916   7.404  -0.753  1.00  0.00     0.022 A 
BRANCH  93  97
ATOM     97  S   UNL     1       1.817   7.033   1.770  1.00  0.00     0.124 S 
ATOM     98  O   UNL     1       0.419   7.348   1.511  1.00  0.00    -0.237 OA
ATOM     99  O   UNL     1       2.068   5.874   2.618  1.00  0.00    -0.237 OA
ATOM    100  O   UNL     1       2.679   8.185   2.029  1.00  0.00    -0.744 OA
ENDBRANCH  93  97
ENDBRANCH  66  90
BRANCH  78 101
ATOM    101  C   UNL     1      -4.131   1.976  -1.216  1.00  0.00     0.023 A 
ATOM    102  C   UNL     1      -4.830   3.170  -1.475  1.00  0.00     0.031 A 
ATOM    103  C   UNL     1      -4.605   1.147  -0.183  1.00  0.00     0.131 A 
ATOM    104  C   UNL     1      -5.923   3.530  -0.671  1.00  0.00     0.055 A 
ATOM    105  C   UNL     1      -5.731   1.480   0.571  1.00  0.00     0.041 A 
ATOM    106  F   UNL     1      -3.986  -0.009   0.106  1.00  0.00    -0.206 F 
ATOM    107  C   UNL     1      -6.387   2.685   0.340  1.00  0.00     0.022 A 
BRANCH 104 108
ATOM    108  S   UNL     1      -6.681   5.162  -0.903  1.00  0.00     0.124 S 
ATOM    109  O   UNL     1      -5.555   6.060  -0.672  1.00  0.00    -0.237 OA
ATOM    110  O   UNL     1      -7.166   5.090  -2.278  1.00  0.00    -0.237 OA
ATOM    111  O   UNL     1      -7.728   5.204   0.118  1.00  0.00    -0.744 OA
ENDBRANCH 104 108
ENDBRANCH  78 101
ENDBRANCH  52  53
ENDBRANCH  45  47
ENDBRANCH  44  45
ENDBRANCH  43  44
ENDBRANCH  42  43
ENDBRANCH  41  42
ENDBRANCH  40  41
ENDBRANCH  39  40
ENDBRANCH   1  39
TORSDOF 27
