REMARK SMILES Cc1c(-c2nn(-c3ccccc3)cc2/C=N/O)nnn1-c1ccc(C(=O)OCCOCCOCCOC(=O)c2ccc(-c3c4nc(c(-c5cc(S(=O)(=O)[O-])ccc5F)c5ccc([nH]5)c(-c5cc(S(=O)(=O)[O-])ccc5F)c5nc(c(-c6cc(S(=O)(=O)[O-])ccc6F)c6ccc3[nH]6)C=C5)C=C4)cc2)cc1
REMARK SMILES IDX 31 1 30 2 29 3 28 4 27 5 25 6 26 7 24 8 21 9 22 10 103 11
REMARK SMILES IDX 23 12 102 13 20 14 1 15 2 16 3 17 18 18 19 19 4 20 5 21
REMARK SMILES IDX 14 22 6 23 13 24 15 25 16 26 17 27 7 29 8 30 12 31 9 32
REMARK SMILES IDX 11 33 10 34 32 35 33 36 34 37 35 38 36 39 37 40 38 41 39 42
REMARK SMILES IDX 40 43 101 44 41 45 100 46 42 47 43 48 44 49 94 50 45 51
REMARK SMILES IDX 99 52 93 53 95 54 46 55 98 56 92 57 91 58 47 60 79 61 59 62
REMARK SMILES IDX 78 63 60 64 63 65 77 66 96 67 61 68 62 69 76 71 97 72 64 73
REMARK SMILES IDX 48 74 49 75 57 76 50 77 56 78 58 79 55 80 51 81 52 82 53 83
REMARK SMILES IDX 54 84 80 85 81 86 89 87 82 88 88 89 90 90 87 91 83 92 84 93
REMARK SMILES IDX 85 94 86 95 65 96 66 97 74 98 67 99 73 100 75 101 72 102
REMARK SMILES IDX 68 103 69 104 70 105 71 106
REMARK H PARENT 17 28 95 59 63 70
REMARK Flexibility Score: inf
ROOT
ATOM      1  C   UNL     1       2.490   7.946  -1.001  1.00  0.00     0.188 C 
ENDROOT
BRANCH   1   2
ATOM      2  O   UNL     1       2.704   8.957  -0.023  1.00  0.00    -0.376 OA
BRANCH   2   3
ATOM      3  C   UNL     1       3.584   8.717   1.064  1.00  0.00     0.202 C 
BRANCH   3   4
ATOM      4  C   UNL     1       3.292   7.536   2.003  1.00  0.00     0.261 C 
BRANCH   4   5
ATOM      5  O   UNL     1       3.023   6.287   1.343  1.00  0.00    -0.460 OA
BRANCH   5   6
ATOM      6  C   UNL     1       1.757   5.824   1.455  1.00  0.00     0.338 C 
ATOM      7  O   UNL     1       0.861   6.289   2.144  1.00  0.00    -0.246 OA
BRANCH   6   8
ATOM      8  C   UNL     1       1.522   4.714   0.504  1.00  0.00     0.060 A 
ATOM      9  C   UNL     1       0.864   2.576  -1.177  1.00  0.00     0.067 A 
ATOM     10  C   UNL     1       0.036   3.704  -1.129  1.00  0.00     0.029 A 
ATOM     11  C   UNL     1       2.074   2.567  -0.464  1.00  0.00     0.029 A 
ATOM     12  C   UNL     1       0.349   4.752  -0.262  1.00  0.00     0.018 A 
ATOM     13  C   UNL     1       2.412   3.645   0.366  1.00  0.00     0.018 A 
BRANCH   9  14
ATOM     14  N   UNL     1       0.416   1.433  -1.891  1.00  0.00    -0.217 N 
ATOM     15  C   UNL     1       1.140  -0.428  -0.303  1.00  0.00     0.069 C 
ATOM     16  C   UNL     1       0.557   0.095  -1.559  1.00  0.00     0.071 A 
ATOM     17  C   UNL     1      -0.093  -0.562  -2.586  1.00  0.00     0.137 A 
ATOM     18  N   UNL     1      -0.651   0.335  -3.443  1.00  0.00    -0.128 NA
ATOM     19  N   UNL     1      -0.386   1.552  -2.980  1.00  0.00    -0.061 NA
BRANCH  17  20
ATOM     20  C   UNL     1      -0.294  -2.000  -2.733  1.00  0.00     0.124 A 
ATOM     21  N   UNL     1      -1.201  -2.667  -2.007  1.00  0.00    -0.165 NA
ATOM     22  C   UNL     1       0.490  -2.856  -3.539  1.00  0.00     0.044 A 
ATOM     23  N   UNL     1      -0.939  -3.969  -2.253  1.00  0.00    -0.240 N 
ATOM     24  C   UNL     1       0.073  -4.122  -3.173  1.00  0.00     0.125 A 
BRANCH  22  25
ATOM     25  C   UNL     1       1.515  -2.582  -4.514  1.00  0.00     0.166 C 
ATOM     26  N   UNL     1       1.920  -1.372  -4.706  1.00  0.00    -0.097 NA
BRANCH  26  27
ATOM     27  O   UNL     1       2.887  -1.365  -5.720  1.00  0.00    -0.411 OA
ATOM     28  H   UNL     1       3.285  -0.558  -5.982  1.00  0.00     0.330 HD
ENDBRANCH  26  27
ENDBRANCH  22  25
BRANCH  23  29
ATOM     29  C   UNL     1      -1.634  -4.996  -1.567  1.00  0.00     0.065 A 
ATOM     30  C   UNL     1      -2.949  -4.771  -1.138  1.00  0.00     0.028 A 
ATOM     31  C   UNL     1      -1.010  -6.223  -1.304  1.00  0.00     0.028 A 
ATOM     32  C   UNL     1      -3.647  -5.785  -0.481  1.00  0.00     0.002 A 
ATOM     33  C   UNL     1      -1.701  -7.214  -0.603  1.00  0.00     0.002 A 
ATOM     34  C   UNL     1      -3.021  -7.000  -0.205  1.00  0.00     0.000 A 
ENDBRANCH  23  29
ENDBRANCH  17  20
ENDBRANCH   9  14
ENDBRANCH   6   8
ENDBRANCH   5   6
ENDBRANCH   4   5
ENDBRANCH   3   4
ENDBRANCH   2   3
ENDBRANCH   1   2
BRANCH   1  35
ATOM     35  C   UNL     1       3.608   6.968  -1.429  1.00  0.00     0.188 C 
BRANCH  35  36
ATOM     36  O   UNL     1       4.852   7.119  -0.757  1.00  0.00    -0.376 OA
BRANCH  36  37
ATOM     37  C   UNL     1       5.962   7.445  -1.587  1.00  0.00     0.202 C 
BRANCH  37  38
ATOM     38  C   UNL     1       6.005   8.900  -2.049  1.00  0.00     0.261 C 
BRANCH  38  39
ATOM     39  O   UNL     1       4.798   9.373  -2.637  1.00  0.00    -0.460 OA
BRANCH  39  40
ATOM     40  C   UNL     1       4.489   8.859  -3.841  1.00  0.00     0.338 C 
ATOM     41  O   UNL     1       4.983   7.857  -4.352  1.00  0.00    -0.246 OA
BRANCH  40  42
ATOM     42  C   UNL     1       3.507   9.731  -4.493  1.00  0.00     0.060 A 
ATOM     43  C   UNL     1       2.980   9.307  -5.713  1.00  0.00     0.016 A 
ATOM     44  C   UNL     1       3.305  11.040  -4.019  1.00  0.00     0.016 A 
ATOM     45  C   UNL     1       2.423  10.250  -6.550  1.00  0.00     0.010 A 
ATOM     46  C   UNL     1       2.759  11.984  -4.862  1.00  0.00     0.010 A 
ATOM     47  C   UNL     1       2.406  11.591  -6.149  1.00  0.00    -0.014 A 
BRANCH  47  48
ATOM     48  C   UNL     1       2.095  12.577  -7.163  1.00  0.00     0.031 A 
ATOM     49  C   UNL     1       0.674  12.724  -7.513  1.00  0.00     0.074 A 
ATOM     50  C   UNL     1       3.045  13.317  -7.761  1.00  0.00     0.049 A 
ATOM     51  N   UNL     1       0.103  12.377  -8.616  1.00  0.00    -0.248 NA
ATOM     52  C   UNL     1      -0.238  13.230  -6.484  1.00  0.00     0.031 C 
ATOM     53  C   UNL     1       4.446  13.474  -7.364  1.00  0.00     0.029 A 
ATOM     54  N   UNL     1       2.917  14.156  -8.826  1.00  0.00    -0.354 N 
ATOM     55  C   UNL     1      -1.212  12.805  -8.511  1.00  0.00     0.074 A 
ATOM     56  C   UNL     1      -1.403  13.180  -7.133  1.00  0.00     0.031 C 
ATOM     57  C   UNL     1       4.987  14.501  -8.056  1.00  0.00     0.029 A 
ATOM     58  C   UNL     1       4.016  14.975  -9.030  1.00  0.00     0.049 A 
ATOM     59  H   UNL     1       2.117  14.179  -9.399  1.00  0.00     0.167 HD
ATOM     60  C   UNL     1      -1.980  13.000  -9.616  1.00  0.00     0.034 A 
ATOM     61  C   UNL     1       4.107  16.008  -9.902  1.00  0.00     0.034 A 
ATOM     62  C   UNL     1      -1.423  12.335 -10.772  1.00  0.00     0.049 A 
ATOM     63  C   UNL     1       3.131  15.765 -10.989  1.00  0.00     0.074 A 
ATOM     64  C   UNL     1      -1.128  11.022 -11.089  1.00  0.00     0.029 A 
ATOM     65  N   UNL     1      -0.766  13.099 -11.708  1.00  0.00    -0.354 N 
ATOM     66  N   UNL     1       3.231  14.780 -11.839  1.00  0.00    -0.248 NA
ATOM     67  C   UNL     1       1.810  16.373 -10.912  1.00  0.00     0.031 C 
ATOM     68  C   UNL     1       0.037  11.083 -11.909  1.00  0.00     0.029 A 
ATOM     69  C   UNL     1       0.377  12.427 -12.069  1.00  0.00     0.049 A 
ATOM     70  H   UNL     1      -1.061  13.972 -12.056  1.00  0.00     0.167 HD
ATOM     71  C   UNL     1       1.929  14.371 -12.075  1.00  0.00     0.074 A 
ATOM     72  C   UNL     1       1.101  15.472 -11.598  1.00  0.00     0.031 C 
ATOM     73  C   UNL     1       1.643  13.069 -12.373  1.00  0.00     0.034 A 
BRANCH  60  74
ATOM     74  C   UNL     1      -3.069  14.037  -9.729  1.00  0.00     0.023 A 
ATOM     75  C   UNL     1      -3.824  14.062 -10.917  1.00  0.00     0.031 A 
ATOM     76  C   UNL     1      -3.228  15.153  -8.876  1.00  0.00     0.131 A 
ATOM     77  C   UNL     1      -4.617  15.174 -11.246  1.00  0.00     0.055 A 
ATOM     78  C   UNL     1      -4.080  16.220  -9.170  1.00  0.00     0.041 A 
ATOM     79  F   UNL     1      -2.498  15.323  -7.766  1.00  0.00    -0.206 F 
ATOM     80  C   UNL     1      -4.760  16.250 -10.375  1.00  0.00     0.022 A 
BRANCH  77  81
ATOM     81  S   UNL     1      -5.304  15.275 -12.919  1.00  0.00     0.124 S 
ATOM     82  O   UNL     1      -4.126  15.016 -13.741  1.00  0.00    -0.237 OA
ATOM     83  O   UNL     1      -6.315  14.224 -12.892  1.00  0.00    -0.237 OA
ATOM     84  O   UNL     1      -5.822  16.639 -12.989  1.00  0.00    -0.744 OA
ENDBRANCH  77  81
ENDBRANCH  60  74
BRANCH  61  85
ATOM     85  C   UNL     1       4.812  17.292  -9.677  1.00  0.00     0.023 A 
ATOM     86  C   UNL     1       5.175  18.146 -10.733  1.00  0.00     0.031 A 
ATOM     87  C   UNL     1       4.940  17.805  -8.365  1.00  0.00     0.131 A 
ATOM     88  C   UNL     1       5.647  19.448 -10.458  1.00  0.00     0.055 A 
ATOM     89  C   UNL     1       5.424  19.086  -8.098  1.00  0.00     0.041 A 
ATOM     90  F   UNL     1       4.516  17.109  -7.299  1.00  0.00    -0.206 F 
ATOM     91  C   UNL     1       5.773  19.918  -9.148  1.00  0.00     0.022 A 
BRANCH  88  92
ATOM     92  S   UNL     1       5.989  20.598 -11.825  1.00  0.00     0.124 S 
ATOM     93  O   UNL     1       7.222  20.055 -12.384  1.00  0.00    -0.237 OA
ATOM     94  O   UNL     1       4.792  20.472 -12.649  1.00  0.00    -0.237 OA
ATOM     95  O   UNL     1       6.134  21.890 -11.154  1.00  0.00    -0.744 OA
ENDBRANCH  88  92
ENDBRANCH  61  85
BRANCH  73  96
ATOM     96  C   UNL     1       2.787  12.174 -12.801  1.00  0.00     0.023 A 
ATOM     97  C   UNL     1       3.917  11.893 -12.001  1.00  0.00     0.031 A 
ATOM     98  C   UNL     1       2.673  11.499 -14.028  1.00  0.00     0.131 A 
ATOM     99  C   UNL     1       4.892  10.983 -12.449  1.00  0.00     0.055 A 
ATOM    100  C   UNL     1       3.631  10.582 -14.462  1.00  0.00     0.041 A 
ATOM    101  F   UNL     1       1.604  11.696 -14.818  1.00  0.00    -0.206 F 
ATOM    102  C   UNL     1       4.750  10.325 -13.676  1.00  0.00     0.022 A 
BRANCH  99 103
ATOM    103  S   UNL     1       6.363  10.640 -11.433  1.00  0.00     0.124 S 
ATOM    104  O   UNL     1       6.897  11.966 -11.149  1.00  0.00    -0.237 OA
ATOM    105  O   UNL     1       5.800   9.917 -10.295  1.00  0.00    -0.237 OA
ATOM    106  O   UNL     1       7.202   9.823 -12.313  1.00  0.00    -0.744 OA
ENDBRANCH  99 103
ENDBRANCH  73  96
ENDBRANCH  47  48
ENDBRANCH  40  42
ENDBRANCH  39  40
ENDBRANCH  38  39
ENDBRANCH  37  38
ENDBRANCH  36  37
ENDBRANCH  35  36
ENDBRANCH   1  35
TORSDOF 25
