REMARK SMILES O=C(NC(=S)Nc1cc(C(=O)OCCOCCOCCOC(=O)c2ccc(-c3c4nc(c(-c5cc(S(=O)(=O)[O-])ccc5F)c5ccc([nH]5)c(-c5cc(S(=O)(=O)[O-])ccc5F)c5nc(c(-c6cc(S(=O)(=O)[O-])ccc6F)c6ccc3[nH]6)C=C5)C=C4)cc2)ccc1Br)c1ccc(F)cc1
REMARK SMILES IDX 16 1 15 2 14 3 13 4 12 5 10 6 11 7 9 8 7 9 8 10 89 11 88 12
REMARK SMILES IDX 90 13 87 14 6 15 4 17 5 18 3 19 1 20 2 21 91 23 92 24 97 25
REMARK SMILES IDX 93 26 96 27 94 28 95 29 17 30 18 31 19 32 20 33 21 34 22 35
REMARK SMILES IDX 23 36 24 37 25 38 86 39 26 40 85 41 27 42 28 43 29 44 79 45
REMARK SMILES IDX 30 46 84 47 78 48 80 49 31 50 83 51 77 52 76 53 32 55 64 56
REMARK SMILES IDX 44 57 63 58 45 59 48 60 62 61 81 62 46 63 47 64 61 66 82 67
REMARK SMILES IDX 49 68 33 69 34 70 42 71 35 72 41 73 43 74 40 75 36 76 37 77
REMARK SMILES IDX 38 78 39 79 65 80 66 81 74 82 67 83 73 84 75 85 72 86 68 87
REMARK SMILES IDX 69 88 70 89 71 90 50 91 51 92 59 93 52 94 58 95 60 96 57 97
REMARK SMILES IDX 53 98 54 99 55 100 56 101
REMARK H PARENT 6 16 3 22 80 54 48 65
REMARK Flexibility Score: inf
ROOT
ATOM      1  C   UNL     1       5.608   5.797   3.980  1.00  0.00     0.188 C 
ENDROOT
BRANCH   1   2
ATOM      2  O   UNL     1       4.864   7.016   4.004  1.00  0.00    -0.376 OA
BRANCH   2   3
ATOM      3  C   UNL     1       3.445   6.906   4.071  1.00  0.00     0.202 C 
BRANCH   3   4
ATOM      4  C   UNL     1       2.802   6.412   2.776  1.00  0.00     0.261 C 
BRANCH   4   5
ATOM      5  O   UNL     1       2.819   4.973   2.721  1.00  0.00    -0.460 OA
BRANCH   5   6
ATOM      6  C   UNL     1       3.382   4.436   1.617  1.00  0.00     0.338 C 
ATOM      7  O   UNL     1       3.887   5.017   0.674  1.00  0.00    -0.246 OA
BRANCH   6   8
ATOM      8  C   UNL     1       3.368   2.973   1.735  1.00  0.00     0.062 A 
ATOM      9  C   UNL     1       4.591   0.081   0.633  1.00  0.00     0.055 A 
ATOM     10  C   UNL     1       4.709   2.080   0.603  1.00  0.00     0.043 A 
ATOM     11  C   UNL     1       3.207  -0.728   1.786  1.00  0.00     0.041 A 
ATOM     12  C   UNL     1       1.871   0.178   2.921  1.00  0.00     0.019 A 
ATOM     13  Br  UNL     1       3.085  -2.642   1.800  1.00  0.00    -0.049 Br
ATOM     14  C   UNL     1       1.972   2.177   2.866  1.00  0.00     0.017 A 
BRANCH   9  15
ATOM     15  N   UNL     1       4.958  -0.581  -0.546  1.00  0.00    -0.331 N 
ATOM     16  H   UNL     1       5.902  -0.541  -0.824  1.00  0.00     0.169 HD
BRANCH  15  17
ATOM     17  C   UNL     1       4.093  -1.274  -1.326  1.00  0.00     0.177 C 
ATOM     18  S   UNL     1       4.689  -2.352  -2.454  1.00  0.00    -0.040 S 
BRANCH  17  19
ATOM     19  N   UNL     1       2.715  -1.073  -1.279  1.00  0.00    -0.299 N 
ATOM     20  O   UNL     1       0.521  -0.476  -1.033  1.00  0.00    -0.269 OA
ATOM     21  C   UNL     1       1.698  -0.235  -0.753  1.00  0.00     0.257 C 
ATOM     22  H   UNL     1       2.284  -1.779  -1.812  1.00  0.00     0.172 HD
BRANCH  21  23
ATOM     23  C   UNL     1       1.910   0.983   0.068  1.00  0.00     0.040 A 
ATOM     24  C   UNL     1       3.058   1.175   0.625  1.00  0.00     0.017 A 
ATOM     25  C   UNL     1       2.224   1.087   1.317  1.00  0.00     0.017 A 
ATOM     26  C   UNL     1       4.376   1.132   2.195  1.00  0.00     0.040 A 
ATOM     27  C   UNL     1       3.520   1.066   2.904  1.00  0.00     0.040 A 
ATOM     28  C   UNL     1       4.675   0.838   3.409  1.00  0.00     0.123 A 
ATOM     29  F   UNL     1       5.308   1.640   4.264  1.00  0.00    -0.207 F 
ENDBRANCH  21  23
ENDBRANCH  17  19
ENDBRANCH  15  17
ENDBRANCH   9  15
ENDBRANCH   6   8
ENDBRANCH   5   6
ENDBRANCH   4   5
ENDBRANCH   3   4
ENDBRANCH   2   3
ENDBRANCH   1   2
BRANCH   1  30
ATOM     30  C   UNL     1       5.312   4.822   5.122  1.00  0.00     0.188 C 
BRANCH  30  31
ATOM     31  O   UNL     1       5.454   5.488   6.380  1.00  0.00    -0.376 OA
BRANCH  31  32
ATOM     32  C   UNL     1       5.959   4.636   7.410  1.00  0.00     0.202 C 
BRANCH  32  33
ATOM     33  C   UNL     1       7.469   4.837   7.574  1.00  0.00     0.261 C 
BRANCH  33  34
ATOM     34  O   UNL     1       8.213   4.501   6.391  1.00  0.00    -0.460 OA
BRANCH  34  35
ATOM     35  C   UNL     1       8.301   3.179   6.110  1.00  0.00     0.338 C 
ATOM     36  O   UNL     1       7.803   2.276   6.762  1.00  0.00    -0.246 OA
BRANCH  35  37
ATOM     37  C   UNL     1       9.019   2.986   4.825  1.00  0.00     0.060 A 
ATOM     38  C   UNL     1       8.777   1.813   4.099  1.00  0.00     0.016 A 
ATOM     39  C   UNL     1       9.949   3.922   4.352  1.00  0.00     0.016 A 
ATOM     40  C   UNL     1       9.487   1.556   2.923  1.00  0.00     0.010 A 
ATOM     41  C   UNL     1      10.667   3.660   3.183  1.00  0.00     0.010 A 
ATOM     42  C   UNL     1      10.458   2.464   2.479  1.00  0.00    -0.014 A 
BRANCH  42  43
ATOM     43  C   UNL     1      11.365   2.098   1.368  1.00  0.00     0.031 A 
ATOM     44  C   UNL     1      12.589   1.279   1.670  1.00  0.00     0.074 A 
ATOM     45  C   UNL     1      11.117   2.507   0.113  1.00  0.00     0.049 A 
ATOM     46  N   UNL     1      13.508   0.830   0.856  1.00  0.00    -0.248 NA
ATOM     47  C   UNL     1      12.800   0.921   3.081  1.00  0.00     0.031 C 
ATOM     48  C   UNL     1       9.970   3.311  -0.307  1.00  0.00     0.029 A 
ATOM     49  N   UNL     1      11.835   2.314  -1.039  1.00  0.00    -0.354 N 
ATOM     50  C   UNL     1      14.384   0.097   1.647  1.00  0.00     0.074 A 
ATOM     51  C   UNL     1      13.914   0.208   3.013  1.00  0.00     0.031 C 
ATOM     52  C   UNL     1      10.078   3.566  -1.624  1.00  0.00     0.029 A 
ATOM     53  C   UNL     1      11.303   2.952  -2.131  1.00  0.00     0.049 A 
ATOM     54  H   UNL     1      12.655   1.770  -1.078  1.00  0.00     0.167 HD
ATOM     55  C   UNL     1      15.473  -0.617   1.272  1.00  0.00     0.034 A 
ATOM     56  C   UNL     1      11.768   3.047  -3.391  1.00  0.00     0.034 A 
ATOM     57  C   UNL     1      15.979  -0.671  -0.074  1.00  0.00     0.049 A 
ATOM     58  C   UNL     1      13.057   2.365  -3.761  1.00  0.00     0.074 A 
ATOM     59  C   UNL     1      17.056  -1.385  -0.571  1.00  0.00     0.029 A 
ATOM     60  N   UNL     1      15.458   0.053  -1.137  1.00  0.00    -0.354 N 
ATOM     61  N   UNL     1      13.849   1.635  -3.012  1.00  0.00    -0.248 NA
ATOM     62  C   UNL     1      13.514   2.525  -5.149  1.00  0.00     0.031 C 
ATOM     63  C   UNL     1      17.216  -1.052  -1.924  1.00  0.00     0.029 A 
ATOM     64  C   UNL     1      16.214  -0.163  -2.277  1.00  0.00     0.049 A 
ATOM     65  H   UNL     1      14.666   0.636  -1.087  1.00  0.00     0.167 HD
ATOM     66  C   UNL     1      14.893   1.239  -3.841  1.00  0.00     0.074 A 
ATOM     67  C   UNL     1      14.634   1.815  -5.146  1.00  0.00     0.031 C 
ATOM     68  C   UNL     1      15.961   0.453  -3.556  1.00  0.00     0.034 A 
BRANCH  55  69
ATOM     69  C   UNL     1      16.191  -1.363   2.363  1.00  0.00     0.023 A 
ATOM     70  C   UNL     1      15.599  -2.479   2.981  1.00  0.00     0.031 A 
ATOM     71  C   UNL     1      17.432  -0.916   2.840  1.00  0.00     0.131 A 
ATOM     72  C   UNL     1      16.222  -3.075   4.086  1.00  0.00     0.055 A 
ATOM     73  C   UNL     1      18.073  -1.546   3.908  1.00  0.00     0.041 A 
ATOM     74  F   UNL     1      18.024   0.161   2.301  1.00  0.00    -0.206 F 
ATOM     75  C   UNL     1      17.462  -2.623   4.547  1.00  0.00     0.022 A 
BRANCH  72  76
ATOM     76  S   UNL     1      15.323  -4.357   5.001  1.00  0.00     0.124 S 
ATOM     77  O   UNL     1      14.059  -3.688   5.296  1.00  0.00    -0.237 OA
ATOM     78  O   UNL     1      15.261  -5.446   4.033  1.00  0.00    -0.237 OA
ATOM     79  O   UNL     1      16.172  -4.604   6.166  1.00  0.00    -0.744 OA
ENDBRANCH  72  76
ENDBRANCH  55  69
BRANCH  56  80
ATOM     80  C   UNL     1      11.043   3.871  -4.389  1.00  0.00     0.023 A 
ATOM     81  C   UNL     1      10.261   3.277  -5.388  1.00  0.00     0.031 A 
ATOM     82  C   UNL     1      11.153   5.271  -4.363  1.00  0.00     0.131 A 
ATOM     83  C   UNL     1       9.628   4.088  -6.342  1.00  0.00     0.055 A 
ATOM     84  C   UNL     1      10.508   6.074  -5.304  1.00  0.00     0.041 A 
ATOM     85  F   UNL     1      11.889   5.875  -3.417  1.00  0.00    -0.206 F 
ATOM     86  C   UNL     1       9.743   5.481  -6.305  1.00  0.00     0.022 A 
BRANCH  83  87
ATOM     87  S   UNL     1       8.654   3.294  -7.648  1.00  0.00     0.124 S 
ATOM     88  O   UNL     1       9.674   2.536  -8.362  1.00  0.00    -0.237 OA
ATOM     89  O   UNL     1       7.694   2.512  -6.875  1.00  0.00    -0.237 OA
ATOM     90  O   UNL     1       8.084   4.423  -8.382  1.00  0.00    -0.744 OA
ENDBRANCH  83  87
ENDBRANCH  56  80
BRANCH  68  91
ATOM     91  C   UNL     1      16.908   0.169  -4.686  1.00  0.00     0.023 A 
ATOM     92  C   UNL     1      17.856   1.120  -5.100  1.00  0.00     0.031 A 
ATOM     93  C   UNL     1      16.845  -1.058  -5.369  1.00  0.00     0.131 A 
ATOM     94  C   UNL     1      18.688   0.839  -6.194  1.00  0.00     0.055 A 
ATOM     95  C   UNL     1      17.694  -1.342  -6.438  1.00  0.00     0.041 A 
ATOM     96  F   UNL     1      15.952  -1.993  -5.008  1.00  0.00    -0.206 F 
ATOM     97  C   UNL     1      18.618  -0.389  -6.860  1.00  0.00     0.022 A 
BRANCH  94  98
ATOM     98  S   UNL     1      19.840   2.116  -6.768  1.00  0.00     0.124 S 
ATOM     99  O   UNL     1      18.932   3.181  -7.181  1.00  0.00    -0.237 OA
ATOM    100  O   UNL     1      20.635   2.382  -5.573  1.00  0.00    -0.237 OA
ATOM    101  O   UNL     1      20.564   1.461  -7.857  1.00  0.00    -0.744 OA
ENDBRANCH  94  98
ENDBRANCH  68  91
ENDBRANCH  42  43
ENDBRANCH  35  37
ENDBRANCH  34  35
ENDBRANCH  33  34
ENDBRANCH  32  33
ENDBRANCH  31  32
ENDBRANCH  30  31
ENDBRANCH   1  30
TORSDOF 24
