REMARK SMILES COc1ccc(C(=O)c2ccccc2)cc1[C@@H](C)C(=O)OCCOCCOCCOC(=O)c1ccc(-c2c3nc(c(-c4cc(S(=O)(=O)[O-])ccc4F)c4ccc([nH]4)c(-c4cc(S(=O)(=O)[O-])ccc4F)c4nc(c(-c5cc(S(=O)(=O)[O-])ccc5F)c5ccc2[nH]5)C=C4)C=C3)cc1
REMARK SMILES IDX 25 1 24 2 23 3 22 4 21 5 19 6 20 7 17 8 18 9 16 10 3 11 4 12
REMARK SMILES IDX 5 13 15 14 6 15 2 16 1 17 7 18 8 19 9 20 10 21 14 22 11 23
REMARK SMILES IDX 13 24 12 25 26 26 27 27 28 28 29 29 30 30 31 31 32 32 33 33
REMARK SMILES IDX 34 34 95 35 35 36 94 37 36 38 37 39 38 40 88 41 39 42 93 43
REMARK SMILES IDX 87 44 89 45 40 46 92 47 86 48 85 49 41 51 73 52 53 53 72 54
REMARK SMILES IDX 54 55 57 56 71 57 90 58 55 59 56 60 70 62 91 63 58 64 42 65
REMARK SMILES IDX 43 66 51 67 44 68 50 69 52 70 49 71 45 72 46 73 47 74 48 75
REMARK SMILES IDX 74 76 75 77 83 78 76 79 82 80 84 81 81 82 77 83 78 84 79 85
REMARK SMILES IDX 80 86 59 87 60 88 68 89 61 90 67 91 69 92 66 93 62 94 63 95
REMARK SMILES IDX 64 96 65 97
REMARK H PARENT 89 50 57 61
REMARK Flexibility Score: inf
ROOT
ATOM      1  C   UNL     1       2.641  -0.578  -3.378  1.00  0.00     0.188 C 
ENDROOT
BRANCH   1   2
ATOM      2  O   UNL     1       3.683  -0.460  -4.340  1.00  0.00    -0.376 OA
BRANCH   2   3
ATOM      3  C   UNL     1       4.654  -1.494  -4.434  1.00  0.00     0.202 C 
BRANCH   3   4
ATOM      4  C   UNL     1       5.435  -1.866  -3.168  1.00  0.00     0.261 C 
BRANCH   4   5
ATOM      5  O   UNL     1       4.616  -2.263  -2.047  1.00  0.00    -0.463 OA
BRANCH   5   6
ATOM      6  C   UNL     1       4.898  -1.665  -0.860  1.00  0.00     0.313 C 
ATOM      7  O   UNL     1       5.809  -0.853  -0.719  1.00  0.00    -0.252 OA
BRANCH   6   8
ATOM      8  C   UNL     1       4.026  -2.081   0.327  1.00  0.00     0.130 C 
ATOM      9  C   UNL     1       4.925  -2.705   1.394  1.00  0.00     0.025 C 
BRANCH   8  10
ATOM     10  C   UNL     1       2.795  -2.961   0.120  1.00  0.00     0.009 A 
ATOM     11  C   UNL     1       1.554  -2.602   0.680  1.00  0.00     0.122 A 
ATOM     12  C   UNL     1       0.419  -3.404   0.519  1.00  0.00     0.047 A 
ATOM     13  C   UNL     1       0.501  -4.589  -0.210  1.00  0.00     0.016 A 
ATOM     14  C   UNL     1       2.859  -4.177  -0.586  1.00  0.00     0.020 A 
ATOM     15  C   UNL     1       1.724  -4.994  -0.754  1.00  0.00     0.023 A 
BRANCH  11  16
ATOM     16  O   UNL     1       1.478  -1.509   1.503  1.00  0.00    -0.496 OA
ATOM     17  C   UNL     1       0.808  -0.420   0.868  1.00  0.00     0.278 C 
ENDBRANCH  11  16
BRANCH  15  18
ATOM     18  C   UNL     1       1.763  -6.271  -1.531  1.00  0.00     0.193 C 
ATOM     19  O   UNL     1       0.726  -6.859  -1.828  1.00  0.00    -0.289 OA
BRANCH  18  20
ATOM     20  C   UNL     1       3.043  -6.839  -2.002  1.00  0.00     0.022 A 
ATOM     21  C   UNL     1       3.172  -7.148  -3.359  1.00  0.00     0.012 A 
ATOM     22  C   UNL     1       4.114  -7.043  -1.124  1.00  0.00     0.012 A 
ATOM     23  C   UNL     1       4.398  -7.596  -3.850  1.00  0.00     0.001 A 
ATOM     24  C   UNL     1       5.341  -7.476  -1.623  1.00  0.00     0.001 A 
ATOM     25  C   UNL     1       5.484  -7.742  -2.986  1.00  0.00     0.000 A 
ENDBRANCH  18  20
ENDBRANCH  15  18
ENDBRANCH   8  10
ENDBRANCH   6   8
ENDBRANCH   5   6
ENDBRANCH   4   5
ENDBRANCH   3   4
ENDBRANCH   2   3
ENDBRANCH   1   2
BRANCH   1  26
ATOM     26  C   UNL     1       1.952  -1.936  -3.178  1.00  0.00     0.188 C 
BRANCH  26  27
ATOM     27  O   UNL     1       2.297  -2.940  -4.116  1.00  0.00    -0.376 OA
BRANCH  27  28
ATOM     28  C   UNL     1       1.213  -3.446  -4.884  1.00  0.00     0.202 C 
BRANCH  28  29
ATOM     29  C   UNL     1       0.667  -2.443  -5.911  1.00  0.00     0.261 C 
BRANCH  29  30
ATOM     30  O   UNL     1       0.149  -1.220  -5.349  1.00  0.00    -0.460 OA
BRANCH  30  31
ATOM     31  C   UNL     1      -0.984  -1.324  -4.620  1.00  0.00     0.338 C 
ATOM     32  O   UNL     1      -1.636  -2.345  -4.432  1.00  0.00    -0.246 OA
BRANCH  31  33
ATOM     33  C   UNL     1      -1.194  -0.055  -3.892  1.00  0.00     0.060 A 
ATOM     34  C   UNL     1      -1.172  -0.072  -2.491  1.00  0.00     0.016 A 
ATOM     35  C   UNL     1      -1.416   1.143  -4.574  1.00  0.00     0.016 A 
ATOM     36  C   UNL     1      -1.381   1.107  -1.773  1.00  0.00     0.010 A 
ATOM     37  C   UNL     1      -1.645   2.322  -3.849  1.00  0.00     0.010 A 
ATOM     38  C   UNL     1      -1.646   2.309  -2.442  1.00  0.00    -0.014 A 
BRANCH  38  39
ATOM     39  C   UNL     1      -2.076   3.498  -1.657  1.00  0.00     0.031 A 
ATOM     40  C   UNL     1      -3.547   3.803  -1.548  1.00  0.00     0.074 A 
ATOM     41  C   UNL     1      -1.188   4.255  -0.985  1.00  0.00     0.049 A 
ATOM     42  N   UNL     1      -4.152   4.784  -0.928  1.00  0.00    -0.248 NA
ATOM     43  C   UNL     1      -4.455   2.868  -2.228  1.00  0.00     0.031 C 
ATOM     44  C   UNL     1       0.257   4.031  -0.949  1.00  0.00     0.029 A 
ATOM     45  N   UNL     1      -1.373   5.366  -0.197  1.00  0.00    -0.354 N 
ATOM     46  C   UNL     1      -5.512   4.587  -1.142  1.00  0.00     0.074 A 
ATOM     47  C   UNL     1      -5.636   3.411  -1.979  1.00  0.00     0.031 C 
ATOM     48  C   UNL     1       0.825   4.976  -0.178  1.00  0.00     0.029 A 
ATOM     49  C   UNL     1      -0.205   5.898   0.299  1.00  0.00     0.049 A 
ATOM     50  H   UNL     1      -2.261   5.746  -0.004  1.00  0.00     0.167 HD
ATOM     51  C   UNL     1      -6.561   5.314  -0.681  1.00  0.00     0.034 A 
ATOM     52  C   UNL     1       0.013   7.013   1.029  1.00  0.00     0.034 A 
ATOM     53  C   UNL     1      -6.430   6.496   0.137  1.00  0.00     0.049 A 
ATOM     54  C   UNL     1      -1.166   7.866   1.442  1.00  0.00     0.074 A 
ATOM     55  C   UNL     1      -7.430   7.307   0.646  1.00  0.00     0.029 A 
ATOM     56  N   UNL     1      -5.226   7.047   0.557  1.00  0.00    -0.354 N 
ATOM     57  N   UNL     1      -2.447   7.677   1.219  1.00  0.00    -0.248 NA
ATOM     58  C   UNL     1      -0.865   9.081   2.211  1.00  0.00     0.031 C 
ATOM     59  C   UNL     1      -6.831   8.386   1.305  1.00  0.00     0.029 A 
ATOM     60  C   UNL     1      -5.458   8.205   1.287  1.00  0.00     0.049 A 
ATOM     61  H   UNL     1      -4.337   6.671   0.365  1.00  0.00     0.167 HD
ATOM     62  C   UNL     1      -3.103   8.736   1.847  1.00  0.00     0.074 A 
ATOM     63  C   UNL     1      -2.078   9.540   2.478  1.00  0.00     0.031 C 
ATOM     64  C   UNL     1      -4.431   9.018   1.897  1.00  0.00     0.034 A 
BRANCH  51  65
ATOM     65  C   UNL     1      -7.942   4.880  -1.114  1.00  0.00     0.023 A 
ATOM     66  C   UNL     1      -8.486   3.641  -0.731  1.00  0.00     0.031 A 
ATOM     67  C   UNL     1      -8.710   5.705  -1.954  1.00  0.00     0.131 A 
ATOM     68  C   UNL     1      -9.728   3.234  -1.244  1.00  0.00     0.055 A 
ATOM     69  C   UNL     1      -9.980   5.329  -2.395  1.00  0.00     0.041 A 
ATOM     70  F   UNL     1      -8.232   6.887  -2.374  1.00  0.00    -0.206 F 
ATOM     71  C   UNL     1     -10.490   4.081  -2.052  1.00  0.00     0.022 A 
BRANCH  68  72
ATOM     72  S   UNL     1     -10.265   1.525  -0.962  1.00  0.00     0.124 S 
ATOM     73  O   UNL     1      -9.160   0.768  -1.545  1.00  0.00    -0.237 OA
ATOM     74  O   UNL     1     -10.383   1.467   0.490  1.00  0.00    -0.237 OA
ATOM     75  O   UNL     1     -11.527   1.437  -1.695  1.00  0.00    -0.744 OA
ENDBRANCH  68  72
ENDBRANCH  51  65
BRANCH  52  76
ATOM     76  C   UNL     1       1.402   7.439   1.377  1.00  0.00     0.023 A 
ATOM     77  C   UNL     1       1.819   7.561   2.713  1.00  0.00     0.031 A 
ATOM     78  C   UNL     1       2.309   7.816   0.369  1.00  0.00     0.131 A 
ATOM     79  C   UNL     1       3.085   8.096   3.006  1.00  0.00     0.055 A 
ATOM     80  C   UNL     1       3.588   8.290   0.664  1.00  0.00     0.041 A 
ATOM     81  F   UNL     1       1.960   7.731  -0.925  1.00  0.00    -0.206 F 
ATOM     82  C   UNL     1       3.977   8.447   1.990  1.00  0.00     0.022 A 
BRANCH  79  83
ATOM     83  S   UNL     1       3.514   8.422   4.739  1.00  0.00     0.124 S 
ATOM     84  O   UNL     1       2.460   9.348   5.136  1.00  0.00    -0.237 OA
ATOM     85  O   UNL     1       3.449   7.086   5.323  1.00  0.00    -0.237 OA
ATOM     86  O   UNL     1       4.854   8.998   4.655  1.00  0.00    -0.744 OA
ENDBRANCH  79  83
ENDBRANCH  52  76
BRANCH  64  87
ATOM     87  C   UNL     1      -4.846  10.233   2.700  1.00  0.00     0.023 A 
ATOM     88  C   UNL     1      -4.442  11.532   2.342  1.00  0.00     0.031 A 
ATOM     89  C   UNL     1      -5.618  10.085   3.867  1.00  0.00     0.131 A 
ATOM     90  C   UNL     1      -4.739  12.617   3.183  1.00  0.00     0.055 A 
ATOM     91  C   UNL     1      -5.975  11.178   4.659  1.00  0.00     0.041 A 
ATOM     92  F   UNL     1      -6.033   8.871   4.264  1.00  0.00    -0.206 F 
ATOM     93  C   UNL     1      -5.518  12.451   4.330  1.00  0.00     0.022 A 
BRANCH  90  94
ATOM     94  S   UNL     1      -3.977  14.226   2.830  1.00  0.00     0.124 S 
ATOM     95  O   UNL     1      -2.558  13.887   2.791  1.00  0.00    -0.237 OA
ATOM     96  O   UNL     1      -4.583  14.584   1.552  1.00  0.00    -0.237 OA
ATOM     97  O   UNL     1      -4.386  15.055   3.963  1.00  0.00    -0.744 OA
ENDBRANCH  90  94
ENDBRANCH  64  87
ENDBRANCH  38  39
ENDBRANCH  31  33
ENDBRANCH  30  31
ENDBRANCH  29  30
ENDBRANCH  28  29
ENDBRANCH  27  28
ENDBRANCH  26  27
ENDBRANCH   1  26
TORSDOF 24
