REMARK SMILES O=C(C[C@H]1N=NC(=O)c2ccccc21)N[C@@H](CC1=c2ccccc2=NC1)C(=O)OCCOCCOCCOC(=O)c1ccc(-c2c3nc(c(-c4cc(S(=O)(=O)[O-])ccc4F)c4ccc([nH]4)c(-c4cc(S(=O)(=O)[O-])ccc4F)c4nc(c(-c5cc(S(=O)(=O)[O-])ccc5F)c5ccc2[nH]5)C=C4)C=C3)cc1
REMARK SMILES IDX 33 1 32 2 31 3 30 4 29 5 27 6 28 7 16 8 15 9 1 10 2 11 3 13
REMARK SMILES IDX 4 14 5 15 14 16 6 17 9 18 13 19 7 20 10 21 12 22 8 23 11 24
REMARK SMILES IDX 17 25 18 26 19 27 26 28 20 29 24 30 25 31 21 32 23 33 22 34
REMARK SMILES IDX 34 35 35 36 36 37 37 38 38 39 39 40 40 41 41 42 42 43 103 44
REMARK SMILES IDX 43 45 102 46 44 47 45 48 46 49 96 50 47 51 101 52 95 53
REMARK SMILES IDX 97 54 48 55 100 56 94 57 93 58 49 60 81 61 61 62 80 63 62 64
REMARK SMILES IDX 65 65 79 66 98 67 63 68 64 69 78 71 99 72 66 73 50 74 51 75
REMARK SMILES IDX 59 76 52 77 58 78 60 79 57 80 53 81 54 82 55 83 56 84 82 85
REMARK SMILES IDX 83 86 91 87 84 88 90 89 92 90 89 91 85 92 86 93 87 94 88 95
REMARK SMILES IDX 67 96 68 97 76 98 69 99 75 100 77 101 74 102 70 103 71 104
REMARK SMILES IDX 72 105 73 106
REMARK H PARENT 15 12 97 59 65 70
REMARK Flexibility Score: inf
ROOT
ATOM      1  C   UNL     1       2.291   6.112   1.079  1.00  0.00     0.188 C 
ENDROOT
BRANCH   1   2
ATOM      2  O   UNL     1       1.399   6.779   0.198  1.00  0.00    -0.376 OA
BRANCH   2   3
ATOM      3  C   UNL     1       1.448   6.472  -1.189  1.00  0.00     0.202 C 
BRANCH   3   4
ATOM      4  C   UNL     1       2.817   6.547  -1.851  1.00  0.00     0.261 C 
BRANCH   4   5
ATOM      5  O   UNL     1       3.663   5.470  -1.405  1.00  0.00    -0.462 OA
BRANCH   5   6
ATOM      6  C   UNL     1       4.920   5.849  -1.069  1.00  0.00     0.329 C 
ATOM      7  O   UNL     1       5.340   6.997  -1.175  1.00  0.00    -0.250 OA
BRANCH   6   8
ATOM      8  C   UNL     1       5.838   4.688  -0.690  1.00  0.00     0.196 C 
BRANCH   8   9
ATOM      9  N   UNL     1       5.364   3.382  -0.173  1.00  0.00    -0.342 N 
ATOM     10  O   UNL     1       6.878   3.328   1.533  1.00  0.00    -0.275 OA
ATOM     11  C   UNL     1       6.019   2.754   0.868  1.00  0.00     0.223 C 
ATOM     12  H   UNL     1       4.572   2.958  -0.577  1.00  0.00     0.164 HD
BRANCH  11  13
ATOM     13  C   UNL     1       5.711   1.286   1.112  1.00  0.00     0.134 C 
BRANCH  13  14
ATOM     14  C   UNL     1       4.342   0.941   1.718  1.00  0.00     0.169 C 
ATOM     15  N   UNL     1       4.090  -0.460   1.301  1.00  0.00    -0.177 NA
ATOM     16  C   UNL     1       4.180   1.135   3.207  1.00  0.00    -0.008 A 
ATOM     17  N   UNL     1       3.332  -1.233   1.927  1.00  0.00    -0.111 NA
ATOM     18  C   UNL     1       3.295   0.276   3.870  1.00  0.00     0.049 A 
ATOM     19  C   UNL     1       4.761   2.172   3.943  1.00  0.00     0.007 A 
ATOM     20  C   UNL     1       2.755  -0.881   3.128  1.00  0.00     0.295 C 
ATOM     21  C   UNL     1       2.933   0.488   5.209  1.00  0.00     0.014 A 
ATOM     22  C   UNL     1       4.434   2.359   5.293  1.00  0.00     0.000 A 
ATOM     23  O   UNL     1       1.838  -1.532   3.631  1.00  0.00    -0.265 OA
ATOM     24  C   UNL     1       3.496   1.544   5.916  1.00  0.00     0.001 A 
ENDBRANCH  13  14
ENDBRANCH  11  13
ENDBRANCH   8   9
BRANCH   8  25
ATOM     25  C   UNL     1       6.748   4.511  -1.918  1.00  0.00     0.070 C 
BRANCH  25  26
ATOM     26  C   UNL     1       6.336   3.668  -3.101  1.00  0.00    -0.037 C 
ATOM     27  C   UNL     1       5.324   2.823  -3.303  1.00  0.00     0.001 A 
ATOM     28  C   UNL     1       7.444   3.283  -4.039  1.00  0.00     0.174 C 
ATOM     29  C   UNL     1       3.934   2.662  -3.019  1.00  0.00     0.010 A 
ATOM     30  C   UNL     1       6.154   1.629  -3.626  1.00  0.00     0.065 A 
ATOM     31  N   UNL     1       7.362   1.816  -4.069  1.00  0.00    -0.280 NA
ATOM     32  C   UNL     1       3.414   1.423  -2.970  1.00  0.00     0.001 A 
ATOM     33  C   UNL     1       5.575   0.316  -3.263  1.00  0.00     0.028 A 
ATOM     34  C   UNL     1       4.272   0.254  -2.945  1.00  0.00     0.002 A 
ENDBRANCH  25  26
ENDBRANCH   8  25
ENDBRANCH   6   8
ENDBRANCH   5   6
ENDBRANCH   4   5
ENDBRANCH   3   4
ENDBRANCH   2   3
ENDBRANCH   1   2
BRANCH   1  35
ATOM     35  C   UNL     1       2.346   4.569   1.059  1.00  0.00     0.188 C 
BRANCH  35  36
ATOM     36  O   UNL     1       1.351   3.830   0.367  1.00  0.00    -0.376 OA
BRANCH  36  37
ATOM     37  C   UNL     1       0.003   4.053   0.782  1.00  0.00     0.202 C 
BRANCH  37  38
ATOM     38  C   UNL     1      -0.290   3.880   2.275  1.00  0.00     0.261 C 
BRANCH  38  39
ATOM     39  O   UNL     1       0.449   4.829   3.066  1.00  0.00    -0.460 OA
BRANCH  39  40
ATOM     40  C   UNL     1       0.768   4.403   4.311  1.00  0.00     0.338 C 
ATOM     41  O   UNL     1       0.343   3.404   4.864  1.00  0.00    -0.246 OA
BRANCH  40  42
ATOM     42  C   UNL     1       1.764   5.308   4.921  1.00  0.00     0.060 A 
ATOM     43  C   UNL     1       1.398   6.077   6.021  1.00  0.00     0.016 A 
ATOM     44  C   UNL     1       3.104   5.268   4.518  1.00  0.00     0.016 A 
ATOM     45  C   UNL     1       2.379   6.788   6.721  1.00  0.00     0.010 A 
ATOM     46  C   UNL     1       4.089   5.945   5.238  1.00  0.00     0.010 A 
ATOM     47  C   UNL     1       3.738   6.699   6.358  1.00  0.00    -0.014 A 
BRANCH  47  48
ATOM     48  C   UNL     1       4.785   7.270   7.243  1.00  0.00     0.031 A 
ATOM     49  C   UNL     1       5.649   8.416   6.810  1.00  0.00     0.074 A 
ATOM     50  C   UNL     1       4.975   6.708   8.453  1.00  0.00     0.049 A 
ATOM     51  N   UNL     1       6.413   9.181   7.545  1.00  0.00    -0.248 NA
ATOM     52  C   UNL     1       5.688   8.731   5.374  1.00  0.00     0.031 C 
ATOM     53  C   UNL     1       4.317   5.485   8.918  1.00  0.00     0.029 A 
ATOM     54  N   UNL     1       5.753   7.092   9.516  1.00  0.00    -0.354 N 
ATOM     55  C   UNL     1       6.989  10.094   6.671  1.00  0.00     0.074 A 
ATOM     56  C   UNL     1       6.566   9.725   5.339  1.00  0.00     0.031 C 
ATOM     57  C   UNL     1       4.668   5.256  10.191  1.00  0.00     0.029 A 
ATOM     58  C   UNL     1       5.571   6.314  10.637  1.00  0.00     0.049 A 
ATOM     59  H   UNL     1       6.380   7.850   9.481  1.00  0.00     0.167 HD
ATOM     60  C   UNL     1       7.759  11.169   6.965  1.00  0.00     0.034 A 
ATOM     61  C   UNL     1       6.032   6.467  11.896  1.00  0.00     0.034 A 
ATOM     62  C   UNL     1       8.180  11.496   8.304  1.00  0.00     0.049 A 
ATOM     63  C   UNL     1       6.831   7.703  12.226  1.00  0.00     0.074 A 
ATOM     64  C   UNL     1       8.889  12.603   8.733  1.00  0.00     0.029 A 
ATOM     65  N   UNL     1       7.940  10.714   9.426  1.00  0.00    -0.354 N 
ATOM     66  N   UNL     1       7.194   8.684  11.432  1.00  0.00    -0.248 NA
ATOM     67  C   UNL     1       7.254   7.878  13.622  1.00  0.00     0.031 C 
ATOM     68  C   UNL     1       9.130  12.460  10.101  1.00  0.00     0.029 A 
ATOM     69  C   UNL     1       8.509  11.302  10.543  1.00  0.00     0.049 A 
ATOM     70  H   UNL     1       7.439   9.867   9.427  1.00  0.00     0.167 HD
ATOM     71  C   UNL     1       7.862   9.604  12.236  1.00  0.00     0.074 A 
ATOM     72  C   UNL     1       7.829   9.074  13.583  1.00  0.00     0.031 C 
ATOM     73  C   UNL     1       8.453  10.775  11.887  1.00  0.00     0.034 A 
BRANCH  60  74
ATOM     74  C   UNL     1       8.142  12.111   5.849  1.00  0.00     0.023 A 
ATOM     75  C   UNL     1       9.493  12.367   5.551  1.00  0.00     0.031 A 
ATOM     76  C   UNL     1       7.160  12.858   5.169  1.00  0.00     0.131 A 
ATOM     77  C   UNL     1       9.823  13.362   4.620  1.00  0.00     0.055 A 
ATOM     78  C   UNL     1       7.493  13.815   4.212  1.00  0.00     0.041 A 
ATOM     79  F   UNL     1       5.856  12.662   5.425  1.00  0.00    -0.206 F 
ATOM     80  C   UNL     1       8.831  14.079   3.942  1.00  0.00     0.022 A 
BRANCH  77  81
ATOM     81  S   UNL     1      11.550  13.810   4.290  1.00  0.00     0.124 S 
ATOM     82  O   UNL     1      11.650  13.581   2.850  1.00  0.00    -0.237 OA
ATOM     83  O   UNL     1      11.584  15.210   4.701  1.00  0.00    -0.237 OA
ATOM     84  O   UNL     1      12.317  12.888   5.120  1.00  0.00    -0.744 OA
ENDBRANCH  77  81
ENDBRANCH  60  74
BRANCH  61  85
ATOM     85  C   UNL     1       5.609   5.491  12.944  1.00  0.00     0.023 A 
ATOM     86  C   UNL     1       5.973   4.134  12.862  1.00  0.00     0.031 A 
ATOM     87  C   UNL     1       4.731   5.878  13.971  1.00  0.00     0.131 A 
ATOM     88  C   UNL     1       5.415   3.208  13.754  1.00  0.00     0.055 A 
ATOM     89  C   UNL     1       4.230   4.963  14.899  1.00  0.00     0.041 A 
ATOM     90  F   UNL     1       4.334   7.155  14.076  1.00  0.00    -0.206 F 
ATOM     91  C   UNL     1       4.560   3.616  14.783  1.00  0.00     0.022 A 
BRANCH  88  92
ATOM     92  S   UNL     1       5.671   1.426  13.528  1.00  0.00     0.124 S 
ATOM     93  O   UNL     1       6.329   1.052  14.775  1.00  0.00    -0.237 OA
ATOM     94  O   UNL     1       4.300   0.946  13.368  1.00  0.00    -0.237 OA
ATOM     95  O   UNL     1       6.498   1.347  12.328  1.00  0.00    -0.744 OA
ENDBRANCH  88  92
ENDBRANCH  61  85
BRANCH  73  96
ATOM     96  C   UNL     1       9.129  11.596  12.959  1.00  0.00     0.023 A 
ATOM     97  C   UNL     1       8.679  12.903  13.229  1.00  0.00     0.031 A 
ATOM     98  C   UNL     1      10.316  11.161  13.572  1.00  0.00     0.131 A 
ATOM     99  C   UNL     1       9.441  13.748  14.046  1.00  0.00     0.055 A 
ATOM    100  C   UNL     1      11.045  11.989  14.427  1.00  0.00     0.041 A 
ATOM    101  F   UNL     1      10.794   9.929  13.335  1.00  0.00    -0.206 F 
ATOM    102  C   UNL     1      10.617  13.295  14.652  1.00  0.00     0.022 A 
BRANCH  99 103
ATOM    103  S   UNL     1       8.994  15.492  14.265  1.00  0.00     0.124 S 
ATOM    104  O   UNL     1       8.788  15.572  15.709  1.00  0.00    -0.237 OA
ATOM    105  O   UNL     1      10.182  16.179  13.765  1.00  0.00    -0.237 OA
ATOM    106  O   UNL     1       7.790  15.652  13.456  1.00  0.00    -0.744 OA
ENDBRANCH  99 103
ENDBRANCH  73  96
ENDBRANCH  47  48
ENDBRANCH  40  42
ENDBRANCH  39  40
ENDBRANCH  38  39
ENDBRANCH  37  38
ENDBRANCH  36  37
ENDBRANCH  35  36
ENDBRANCH   1  35
TORSDOF 25
