REMARK SMILES O=C(/C=C/C(=O)c1ccc(F)c(Br)c1)OCCOCCOCCOC(=O)c1ccc(-c2c3nc(c(-c4cc(S(=O)(=O)[O-])ccc4F)c4ccc([nH]4)c(-c4cc(S(=O)(=O)[O-])ccc4F)c4nc(c(-c5cc(S(=O)(=O)[O-])ccc5F)c5ccc2[nH]5)C=C4)C=C3)cc1
REMARK SMILES IDX 20 1 19 2 18 3 17 4 16 5 15 6 2 7 1 8 3 9 4 10 5 11 6 12
REMARK SMILES IDX 7 13 8 14 14 15 9 16 12 17 10 18 13 19 11 20 21 21 22 22
REMARK SMILES IDX 23 23 24 24 25 25 26 26 27 27 28 28 89 29 29 30 88 31 30 32
REMARK SMILES IDX 31 33 32 34 82 35 33 36 87 37 81 38 83 39 34 40 86 41 80 42
REMARK SMILES IDX 79 43 35 45 67 46 47 47 66 48 48 49 51 50 65 51 84 52 49 53
REMARK SMILES IDX 50 54 64 56 85 57 52 58 36 59 37 60 45 61 38 62 44 63 46 64
REMARK SMILES IDX 43 65 39 66 40 67 41 68 42 69 68 70 69 71 77 72 70 73 76 74
REMARK SMILES IDX 78 75 75 76 71 77 72 78 73 79 74 80 53 81 54 82 62 83 55 84
REMARK SMILES IDX 61 85 63 86 60 87 56 88 57 89 58 90 59 91
REMARK H PARENT 83 44 51 55
REMARK Flexibility Score: inf
ROOT
ATOM      1  C   UNL     1       2.117  -1.450   2.358  1.00  0.00     0.188 C 
ENDROOT
BRANCH   1   2
ATOM      2  C   UNL     1       3.025  -1.262   1.132  1.00  0.00     0.188 C 
BRANCH   2   3
ATOM      3  O   UNL     1       4.352  -0.973   1.509  1.00  0.00    -0.376 OA
BRANCH   3   4
ATOM      4  C   UNL     1       5.038   0.095   0.900  1.00  0.00     0.202 C 
BRANCH   4   5
ATOM      5  C   UNL     1       4.409   1.484   1.053  1.00  0.00     0.261 C 
BRANCH   5   6
ATOM      6  O   UNL     1       3.100   1.711   0.471  1.00  0.00    -0.460 OA
BRANCH   6   7
ATOM      7  C   UNL     1       2.863   1.867  -0.854  1.00  0.00     0.330 C 
ATOM      8  O   UNL     1       2.042   2.658  -1.293  1.00  0.00    -0.247 OA
BRANCH   7   9
ATOM      9  C   UNL     1       3.431   0.821  -1.709  1.00  0.00     0.097 C 
ATOM     10  C   UNL     1       4.671   0.962  -2.188  1.00  0.00     0.060 C 
BRANCH  10  11
ATOM     11  C   UNL     1       5.417  -0.201  -2.719  1.00  0.00     0.186 C 
ATOM     12  O   UNL     1       6.591  -0.333  -2.383  1.00  0.00    -0.289 OA
BRANCH  11  13
ATOM     13  C   UNL     1       4.785  -1.199  -3.606  1.00  0.00     0.023 A 
ATOM     14  C   UNL     1       3.822  -0.824  -4.551  1.00  0.00     0.015 A 
ATOM     15  C   UNL     1       5.292  -2.508  -3.585  1.00  0.00     0.031 A 
ATOM     16  C   UNL     1       3.445  -1.731  -5.536  1.00  0.00     0.041 A 
ATOM     17  C   UNL     1       4.909  -3.407  -4.573  1.00  0.00     0.054 A 
ATOM     18  C   UNL     1       4.032  -2.992  -5.569  1.00  0.00     0.137 A 
ATOM     19  Br  UNL     1       5.630  -5.152  -4.569  1.00  0.00    -0.048 Br
ATOM     20  F   UNL     1       3.770  -3.776  -6.616  1.00  0.00    -0.206 F 
ENDBRANCH  11  13
ENDBRANCH  10  11
ENDBRANCH   7   9
ENDBRANCH   6   7
ENDBRANCH   5   6
ENDBRANCH   4   5
ENDBRANCH   3   4
ENDBRANCH   2   3
ENDBRANCH   1   2
BRANCH   1  21
ATOM     21  O   UNL     1       2.668  -1.312   3.663  1.00  0.00    -0.376 OA
BRANCH  21  22
ATOM     22  C   UNL     1       3.916  -1.924   3.973  1.00  0.00     0.202 C 
BRANCH  22  23
ATOM     23  C   UNL     1       4.106  -3.429   3.733  1.00  0.00     0.261 C 
BRANCH  23  24
ATOM     24  O   UNL     1       3.840  -3.904   2.400  1.00  0.00    -0.460 OA
BRANCH  24  25
ATOM     25  C   UNL     1       2.727  -4.673   2.288  1.00  0.00     0.338 C 
ATOM     26  O   UNL     1       1.909  -4.902   3.162  1.00  0.00    -0.246 OA
BRANCH  25  27
ATOM     27  C   UNL     1       2.543  -5.155   0.903  1.00  0.00     0.060 A 
ATOM     28  C   UNL     1       1.345  -4.849   0.243  1.00  0.00     0.016 A 
ATOM     29  C   UNL     1       3.452  -6.047   0.333  1.00  0.00     0.016 A 
ATOM     30  C   UNL     1       1.025  -5.478  -0.965  1.00  0.00     0.010 A 
ATOM     31  C   UNL     1       3.125  -6.681  -0.873  1.00  0.00     0.010 A 
ATOM     32  C   UNL     1       1.891  -6.434  -1.509  1.00  0.00    -0.014 A 
BRANCH  32  33
ATOM     33  C   UNL     1       1.463  -7.321  -2.625  1.00  0.00     0.031 A 
ATOM     34  C   UNL     1       1.058  -8.737  -2.319  1.00  0.00     0.074 A 
ATOM     35  C   UNL     1       1.440  -6.909  -3.904  1.00  0.00     0.049 A 
ATOM     36  N   UNL     1       0.845  -9.736  -3.135  1.00  0.00    -0.248 NA
ATOM     37  C   UNL     1       0.848  -9.054  -0.900  1.00  0.00     0.031 C 
ATOM     38  C   UNL     1       1.660  -5.541  -4.360  1.00  0.00     0.029 A 
ATOM     39  N   UNL     1       1.264  -7.631  -5.064  1.00  0.00    -0.354 N 
ATOM     40  C   UNL     1       0.447 -10.799  -2.334  1.00  0.00     0.074 A 
ATOM     41  C   UNL     1       0.517 -10.335  -0.962  1.00  0.00     0.031 C 
ATOM     42  C   UNL     1       1.700  -5.544  -5.704  1.00  0.00     0.029 A 
ATOM     43  C   UNL     1       1.597  -6.913  -6.187  1.00  0.00     0.049 A 
ATOM     44  H   UNL     1       0.936  -8.559  -5.085  1.00  0.00     0.167 HD
ATOM     45  C   UNL     1       0.031 -12.036  -2.709  1.00  0.00     0.034 A 
ATOM     46  C   UNL     1       1.880  -7.316  -7.441  1.00  0.00     0.034 A 
ATOM     47  C   UNL     1      -0.006 -12.497  -4.076  1.00  0.00     0.049 A 
ATOM     48  C   UNL     1       1.686  -8.753  -7.820  1.00  0.00     0.074 A 
ATOM     49  C   UNL     1      -0.453 -13.712  -4.569  1.00  0.00     0.029 A 
ATOM     50  N   UNL     1       0.454 -11.776  -5.171  1.00  0.00    -0.354 N 
ATOM     51  N   UNL     1       1.312  -9.758  -7.068  1.00  0.00    -0.248 NA
ATOM     52  C   UNL     1       1.907  -9.096  -9.230  1.00  0.00     0.031 C 
ATOM     53  C   UNL     1      -0.194 -13.753  -5.946  1.00  0.00     0.029 A 
ATOM     54  C   UNL     1       0.347 -12.536  -6.328  1.00  0.00     0.049 A 
ATOM     55  H   UNL     1       0.805 -10.857  -5.132  1.00  0.00     0.167 HD
ATOM     56  C   UNL     1       1.186 -10.843  -7.927  1.00  0.00     0.074 A 
ATOM     57  C   UNL     1       1.566 -10.377  -9.247  1.00  0.00     0.031 C 
ATOM     58  C   UNL     1       0.743 -12.094  -7.646  1.00  0.00     0.034 A 
BRANCH  45  59
ATOM     59  C   UNL     1      -0.367 -12.979  -1.601  1.00  0.00     0.023 A 
ATOM     60  C   UNL     1      -1.449 -12.695  -0.747  1.00  0.00     0.031 A 
ATOM     61  C   UNL     1       0.389 -14.136  -1.345  1.00  0.00     0.131 A 
ATOM     62  C   UNL     1      -1.681 -13.500   0.378  1.00  0.00     0.055 A 
ATOM     63  C   UNL     1       0.098 -14.981  -0.273  1.00  0.00     0.041 A 
ATOM     64  F   UNL     1       1.443 -14.447  -2.115  1.00  0.00    -0.206 F 
ATOM     65  C   UNL     1      -0.928 -14.653   0.609  1.00  0.00     0.022 A 
BRANCH  62  66
ATOM     66  S   UNL     1      -2.856 -12.914   1.631  1.00  0.00     0.124 S 
ATOM     67  O   UNL     1      -2.321 -11.591   1.944  1.00  0.00    -0.237 OA
ATOM     68  O   UNL     1      -4.123 -12.938   0.910  1.00  0.00    -0.237 OA
ATOM     69  O   UNL     1      -2.729 -13.898   2.705  1.00  0.00    -0.744 OA
ENDBRANCH  62  66
ENDBRANCH  45  59
BRANCH  46  70
ATOM     70  C   UNL     1       2.517  -6.372  -8.396  1.00  0.00     0.023 A 
ATOM     71  C   UNL     1       1.798  -5.731  -9.412  1.00  0.00     0.031 A 
ATOM     72  C   UNL     1       3.900  -6.133  -8.301  1.00  0.00     0.131 A 
ATOM     73  C   UNL     1       2.470  -4.870 -10.295  1.00  0.00     0.055 A 
ATOM     74  C   UNL     1       4.557  -5.251  -9.160  1.00  0.00     0.041 A 
ATOM     75  F   UNL     1       4.629  -6.752  -7.360  1.00  0.00    -0.206 F 
ATOM     76  C   UNL     1       3.839  -4.611 -10.165  1.00  0.00     0.022 A 
BRANCH  73  77
ATOM     77  S   UNL     1       1.534  -4.098 -11.643  1.00  0.00     0.124 S 
ATOM     78  O   UNL     1       1.172  -5.254 -12.455  1.00  0.00    -0.237 OA
ATOM     79  O   UNL     1       0.441  -3.450 -10.924  1.00  0.00    -0.237 OA
ATOM     80  O   UNL     1       2.499  -3.183 -12.250  1.00  0.00    -0.744 OA
ENDBRANCH  73  77
ENDBRANCH  46  70
BRANCH  58  81
ATOM     81  C   UNL     1       0.555 -13.027  -8.813  1.00  0.00     0.023 A 
ATOM     82  C   UNL     1       1.638 -13.546  -9.543  1.00  0.00     0.031 A 
ATOM     83  C   UNL     1      -0.746 -13.370  -9.224  1.00  0.00     0.131 A 
ATOM     84  C   UNL     1       1.398 -14.340 -10.675  1.00  0.00     0.055 A 
ATOM     85  C   UNL     1      -0.977 -14.206 -10.317  1.00  0.00     0.041 A 
ATOM     86  F   UNL     1      -1.817 -12.892  -8.571  1.00  0.00    -0.206 F 
ATOM     87  C   UNL     1       0.099 -14.687 -11.056  1.00  0.00     0.022 A 
BRANCH  84  88
ATOM     88  S   UNL     1       2.805 -14.852 -11.700  1.00  0.00     0.124 S 
ATOM     89  O   UNL     1       3.316 -13.569 -12.171  1.00  0.00    -0.237 OA
ATOM     90  O   UNL     1       3.648 -15.563 -10.744  1.00  0.00    -0.237 OA
ATOM     91  O   UNL     1       2.194 -15.692 -12.728  1.00  0.00    -0.744 OA
ENDBRANCH  84  88
ENDBRANCH  58  81
ENDBRANCH  32  33
ENDBRANCH  25  27
ENDBRANCH  24  25
ENDBRANCH  23  24
ENDBRANCH  22  23
ENDBRANCH  21  22
ENDBRANCH   1  21
TORSDOF 22
