REMARK SMILES Cc1c(NCc2ccccn2)cccc1C(=O)N1CCOC[C@@H]1CC(=O)OCCOCCOCCOC(=O)c1ccc(-c2c3nc(c(-c4cc(S(=O)(=O)[O-])ccc4F)c4ccc([nH]4)c(-c4cc(S(=O)(=O)[O-])ccc4F)c4nc(c(-c5cc(S(=O)(=O)[O-])ccc5F)c5ccc2[nH]5)C=C4)C=C3)cc1
REMARK SMILES IDX 30 1 29 2 28 3 27 4 25 5 26 6 24 7 23 8 18 9 19 10 20 11
REMARK SMILES IDX 22 12 21 13 16 14 17 15 15 16 1 17 2 18 3 19 12 20 14 21
REMARK SMILES IDX 13 22 4 23 5 25 6 26 7 27 11 28 8 29 10 30 9 31 31 32 32 33
REMARK SMILES IDX 33 34 34 35 35 36 36 37 37 38 38 39 39 40 40 41 101 42 41 43
REMARK SMILES IDX 100 44 42 45 43 46 44 47 94 48 45 49 99 50 93 51 95 52 46 53
REMARK SMILES IDX 98 54 92 55 91 56 47 58 79 59 59 60 78 61 60 62 63 63 77 64
REMARK SMILES IDX 96 65 61 66 62 67 76 69 97 70 64 71 48 72 49 73 57 74 50 75
REMARK SMILES IDX 56 76 58 77 55 78 51 79 52 80 53 81 54 82 80 83 81 84 89 85
REMARK SMILES IDX 82 86 88 87 90 88 87 89 83 90 84 91 85 92 86 93 65 94 66 95
REMARK SMILES IDX 74 96 67 97 73 98 75 99 72 100 68 101 69 102 70 103 71 104
REMARK H PARENT 4 24 95 57 63 68
REMARK Flexibility Score: inf
ROOT
ATOM      1  O   UNL     1      -0.038  -1.441   4.140  1.00  0.00    -0.376 OA
ENDROOT
BRANCH   1   2
ATOM      2  C   UNL     1      -0.398  -1.399   2.755  1.00  0.00     0.202 C 
BRANCH   2   3
ATOM      3  C   UNL     1      -0.684  -0.014   2.133  1.00  0.00     0.261 C 
BRANCH   3   4
ATOM      4  O   UNL     1       0.351   0.502   1.232  1.00  0.00    -0.463 OA
BRANCH   4   5
ATOM      5  C   UNL     1      -0.056   1.598   0.521  1.00  0.00     0.308 C 
ATOM      6  O   UNL     1      -1.242   1.897   0.404  1.00  0.00    -0.252 OA
BRANCH   5   7
ATOM      7  C   UNL     1       1.022   2.581   0.040  1.00  0.00     0.150 C 
BRANCH   7   8
ATOM      8  C   UNL     1       2.145   2.586  -1.005  1.00  0.00     0.122 C 
ATOM      9  N   UNL     1       2.110   1.630  -2.104  1.00  0.00    -0.330 N 
ATOM     10  C   UNL     1       3.231   1.778  -3.033  1.00  0.00     0.148 C 
ATOM     11  C   UNL     1       4.566   1.779  -2.295  1.00  0.00     0.181 C 
ATOM     12  C   UNL     1       3.569   2.707  -0.386  1.00  0.00     0.185 C 
ATOM     13  O   UNL     1       4.595   2.883  -1.383  1.00  0.00    -0.377 OA
BRANCH   9  14
ATOM     14  C   UNL     1       0.883   1.360  -2.688  1.00  0.00     0.254 C 
ATOM     15  O   UNL     1       0.469   1.983  -3.660  1.00  0.00    -0.269 OA
BRANCH  14  16
ATOM     16  C   UNL     1       0.099   0.244  -2.085  1.00  0.00     0.045 A 
ATOM     17  C   UNL     1       2.180  -1.057  -1.357  1.00  0.00     0.047 C 
ATOM     18  C   UNL     1       0.682  -0.883  -1.447  1.00  0.00    -0.015 A 
ATOM     19  C   UNL     1      -0.168  -1.835  -0.836  1.00  0.00     0.038 A 
ATOM     20  C   UNL     1      -1.557  -1.637  -0.879  1.00  0.00     0.026 A 
ATOM     21  C   UNL     1      -1.294   0.412  -2.106  1.00  0.00     0.014 A 
ATOM     22  C   UNL     1      -2.117  -0.514  -1.481  1.00  0.00     0.003 A 
BRANCH  19  23
ATOM     23  N   UNL     1       0.365  -2.967  -0.243  1.00  0.00    -0.379 N 
ATOM     24  H   UNL     1       1.183  -2.864   0.295  1.00  0.00     0.160 HD
BRANCH  23  25
ATOM     25  C   UNL     1      -0.206  -4.297  -0.367  1.00  0.00     0.169 C 
BRANCH  25  26
ATOM     26  C   UNL     1       0.244  -5.042  -1.615  1.00  0.00     0.059 A 
ATOM     27  C   UNL     1       0.627  -4.383  -2.786  1.00  0.00     0.026 A 
ATOM     28  N   UNL     1       0.203  -6.400  -1.552  1.00  0.00    -0.259 NA
ATOM     29  C   UNL     1       1.001  -5.120  -3.904  1.00  0.00     0.004 A 
ATOM     30  C   UNL     1       0.557  -7.090  -2.658  1.00  0.00     0.111 A 
ATOM     31  C   UNL     1       0.964  -6.503  -3.843  1.00  0.00     0.020 A 
ENDBRANCH  25  26
ENDBRANCH  23  25
ENDBRANCH  19  23
ENDBRANCH  14  16
ENDBRANCH   9  14
ENDBRANCH   7   8
ENDBRANCH   5   7
ENDBRANCH   4   5
ENDBRANCH   3   4
ENDBRANCH   2   3
ENDBRANCH   1   2
BRANCH   1  32
ATOM     32  C   UNL     1       1.302  -1.094   4.479  1.00  0.00     0.188 C 
BRANCH  32  33
ATOM     33  C   UNL     1       2.388  -2.109   4.088  1.00  0.00     0.188 C 
BRANCH  33  34
ATOM     34  O   UNL     1       2.574  -2.134   2.665  1.00  0.00    -0.376 OA
BRANCH  34  35
ATOM     35  C   UNL     1       3.669  -2.938   2.223  1.00  0.00     0.202 C 
BRANCH  35  36
ATOM     36  C   UNL     1       5.070  -2.343   2.491  1.00  0.00     0.261 C 
BRANCH  36  37
ATOM     37  O   UNL     1       5.204  -1.066   1.829  1.00  0.00    -0.460 OA
BRANCH  37  38
ATOM     38  C   UNL     1       5.794  -0.067   2.565  1.00  0.00     0.338 C 
ATOM     39  O   UNL     1       6.947  -0.066   2.924  1.00  0.00    -0.246 OA
BRANCH  38  40
ATOM     40  C   UNL     1       4.815   1.056   2.760  1.00  0.00     0.060 A 
ATOM     41  C   UNL     1       5.095   2.294   3.374  1.00  0.00     0.016 A 
ATOM     42  C   UNL     1       3.514   0.824   2.388  1.00  0.00     0.016 A 
ATOM     43  C   UNL     1       4.059   3.263   3.633  1.00  0.00     0.010 A 
ATOM     44  C   UNL     1       2.541   1.748   2.694  1.00  0.00     0.010 A 
ATOM     45  C   UNL     1       2.736   2.990   3.289  1.00  0.00    -0.014 A 
BRANCH  45  46
ATOM     46  C   UNL     1       1.413   3.559   3.725  1.00  0.00     0.031 A 
ATOM     47  C   UNL     1       0.386   4.263   2.863  1.00  0.00     0.074 A 
ATOM     48  C   UNL     1       0.894   2.773   4.708  1.00  0.00     0.049 A 
ATOM     49  N   UNL     1      -0.882   4.115   3.064  1.00  0.00    -0.248 NA
ATOM     50  C   UNL     1       0.608   5.131   1.704  1.00  0.00     0.031 C 
ATOM     51  C   UNL     1      -0.477   2.351   4.993  1.00  0.00     0.029 A 
ATOM     52  N   UNL     1       1.608   2.145   5.708  1.00  0.00    -0.354 N 
ATOM     53  C   UNL     1      -1.619   4.575   2.004  1.00  0.00     0.074 A 
ATOM     54  C   UNL     1      -0.635   5.229   1.175  1.00  0.00     0.031 C 
ATOM     55  C   UNL     1      -0.535   1.779   6.203  1.00  0.00     0.029 A 
ATOM     56  C   UNL     1       0.759   1.960   6.811  1.00  0.00     0.049 A 
ATOM     57  H   UNL     1       2.553   1.873   5.657  1.00  0.00     0.167 HD
ATOM     58  C   UNL     1      -2.961   4.279   1.989  1.00  0.00     0.034 A 
ATOM     59  C   UNL     1       1.028   2.780   7.872  1.00  0.00     0.034 A 
ATOM     60  C   UNL     1      -3.430   4.060   3.364  1.00  0.00     0.049 A 
ATOM     61  C   UNL     1       0.102   4.009   7.833  1.00  0.00     0.074 A 
ATOM     62  C   UNL     1      -3.978   3.079   4.166  1.00  0.00     0.029 A 
ATOM     63  N   UNL     1      -3.149   5.100   4.218  1.00  0.00    -0.354 N 
ATOM     64  N   UNL     1      -1.124   4.021   7.353  1.00  0.00    -0.248 NA
ATOM     65  C   UNL     1       0.529   5.345   8.246  1.00  0.00     0.031 C 
ATOM     66  C   UNL     1      -3.812   3.509   5.541  1.00  0.00     0.029 A 
ATOM     67  C   UNL     1      -3.229   4.767   5.545  1.00  0.00     0.049 A 
ATOM     68  H   UNL     1      -2.912   6.003   3.905  1.00  0.00     0.167 HD
ATOM     69  C   UNL     1      -1.542   5.326   7.192  1.00  0.00     0.074 A 
ATOM     70  C   UNL     1      -0.494   6.109   7.834  1.00  0.00     0.031 C 
ATOM     71  C   UNL     1      -2.637   5.735   6.464  1.00  0.00     0.034 A 
BRANCH  58  72
ATOM     72  C   UNL     1      -3.912   4.250   0.810  1.00  0.00     0.023 A 
ATOM     73  C   UNL     1      -5.301   4.059   1.035  1.00  0.00     0.031 A 
ATOM     74  C   UNL     1      -3.514   4.255  -0.540  1.00  0.00     0.131 A 
ATOM     75  C   UNL     1      -6.211   3.881  -0.030  1.00  0.00     0.055 A 
ATOM     76  C   UNL     1      -4.424   4.099  -1.601  1.00  0.00     0.041 A 
ATOM     77  F   UNL     1      -2.227   4.384  -0.894  1.00  0.00    -0.206 F 
ATOM     78  C   UNL     1      -5.777   3.909  -1.352  1.00  0.00     0.022 A 
BRANCH  75  79
ATOM     79  S   UNL     1      -7.970   3.578   0.326  1.00  0.00     0.124 S 
ATOM     80  O   UNL     1      -7.934   2.288   1.010  1.00  0.00    -0.237 OA
ATOM     81  O   UNL     1      -8.332   4.731   1.143  1.00  0.00    -0.237 OA
ATOM     82  O   UNL     1      -8.589   3.550  -0.999  1.00  0.00    -0.744 OA
ENDBRANCH  75  79
ENDBRANCH  58  72
BRANCH  59  83
ATOM     83  C   UNL     1       2.525   2.653   8.122  1.00  0.00     0.023 A 
ATOM     84  C   UNL     1       2.960   1.312   8.359  1.00  0.00     0.031 A 
ATOM     85  C   UNL     1       3.472   3.536   7.569  1.00  0.00     0.131 A 
ATOM     86  C   UNL     1       4.186   0.853   7.845  1.00  0.00     0.055 A 
ATOM     87  C   UNL     1       4.740   3.087   7.156  1.00  0.00     0.041 A 
ATOM     88  F   UNL     1       3.140   4.792   7.238  1.00  0.00    -0.206 F 
ATOM     89  C   UNL     1       5.078   1.736   7.240  1.00  0.00     0.022 A 
BRANCH  86  90
ATOM     90  S   UNL     1       4.467  -0.941   7.639  1.00  0.00     0.124 S 
ATOM     91  O   UNL     1       5.297  -1.256   8.794  1.00  0.00    -0.237 OA
ATOM     92  O   UNL     1       3.118  -1.500   7.647  1.00  0.00    -0.237 OA
ATOM     93  O   UNL     1       5.128  -1.021   6.337  1.00  0.00    -0.744 OA
ENDBRANCH  86  90
ENDBRANCH  59  83
BRANCH  71  94
ATOM     94  C   UNL     1      -3.094   7.198   6.458  1.00  0.00     0.023 A 
ATOM     95  C   UNL     1      -2.981   7.954   7.633  1.00  0.00     0.031 A 
ATOM     96  C   UNL     1      -3.691   7.880   5.365  1.00  0.00     0.131 A 
ATOM     97  C   UNL     1      -3.282   9.325   7.650  1.00  0.00     0.055 A 
ATOM     98  C   UNL     1      -4.102   9.217   5.420  1.00  0.00     0.041 A 
ATOM     99  F   UNL     1      -3.865   7.315   4.163  1.00  0.00    -0.206 F 
ATOM    100  C   UNL     1      -3.872   9.960   6.562  1.00  0.00     0.022 A 
BRANCH  97 101
ATOM    101  S   UNL     1      -2.741  10.289   9.079  1.00  0.00     0.124 S 
ATOM    102  O   UNL     1      -3.237   9.503  10.203  1.00  0.00    -0.237 OA
ATOM    103  O   UNL     1      -1.292  10.285   8.892  1.00  0.00    -0.237 OA
ATOM    104  O   UNL     1      -3.390  11.583   8.886  1.00  0.00    -0.744 OA
ENDBRANCH  97 101
ENDBRANCH  71  94
ENDBRANCH  45  46
ENDBRANCH  38  40
ENDBRANCH  37  38
ENDBRANCH  36  37
ENDBRANCH  35  36
ENDBRANCH  34  35
ENDBRANCH  33  34
ENDBRANCH  32  33
ENDBRANCH   1  32
TORSDOF 26
