REMARK SMILES Cc1cc(NC(=O)c2ccc(Br)cc2N)ccc1C(=O)OCCOCCOCCOC(=O)c1ccc(-c2c3nc(c(-c4cc(S(=O)(=O)[O-])ccc4F)c4ccc([nH]4)c(-c4cc(S(=O)(=O)[O-])ccc4F)c4nc(c(-c5cc(S(=O)(=O)[O-])ccc5F)c5ccc2[nH]5)C=C4)C=C3)cc1
REMARK SMILES IDX 25 1 24 2 23 3 22 4 21 5 19 6 20 7 18 8 1 9 2 10 3 11 4 12
REMARK SMILES IDX 17 13 16 14 5 15 6 16 7 18 8 19 9 20 14 21 10 22 13 23 11 24
REMARK SMILES IDX 12 25 15 26 26 29 27 30 28 31 29 32 30 33 31 34 32 35 33 36
REMARK SMILES IDX 34 37 95 38 35 39 94 40 36 41 37 42 38 43 88 44 39 45 93 46
REMARK SMILES IDX 87 47 89 48 40 49 92 50 86 51 85 52 41 54 73 55 53 56 72 57
REMARK SMILES IDX 54 58 57 59 71 60 90 61 55 62 56 63 70 65 91 66 58 67 42 68
REMARK SMILES IDX 43 69 51 70 44 71 50 72 52 73 49 74 45 75 46 76 47 77 48 78
REMARK SMILES IDX 74 79 75 80 83 81 76 82 82 83 84 84 81 85 77 86 78 87 79 88
REMARK SMILES IDX 80 89 59 90 60 91 68 92 61 93 67 94 69 95 66 96 62 97 63 98
REMARK SMILES IDX 64 99 65 100
REMARK H PARENT 5 17 15 27 15 28 89 53 57 64
REMARK Flexibility Score: inf
ROOT
ATOM      1  C   UNL     1       3.060   5.387  -2.034  1.00  0.00     0.188 C 
ENDROOT
BRANCH   1   2
ATOM      2  O   UNL     1       3.958   4.586  -1.222  1.00  0.00    -0.376 OA
BRANCH   2   3
ATOM      3  C   UNL     1       4.678   3.402  -1.669  1.00  0.00     0.202 C 
BRANCH   3   4
ATOM      4  C   UNL     1       4.358   1.911  -1.015  1.00  0.00     0.261 C 
BRANCH   4   5
ATOM      5  O   UNL     1       3.309   0.841  -1.624  1.00  0.00    -0.460 OA
BRANCH   5   6
ATOM      6  C   UNL     1       2.116   0.339  -1.067  1.00  0.00     0.338 C 
ATOM      7  O   UNL     1       1.637   0.611   0.029  1.00  0.00    -0.246 OA
BRANCH   6   8
ATOM      8  C   UNL     1       1.124  -0.609  -1.633  1.00  0.00     0.063 A 
ATOM      9  C   UNL     1       2.915  -2.347  -1.781  1.00  0.00     0.045 C 
ATOM     10  C   UNL     1       1.478  -1.950  -1.681  1.00  0.00    -0.035 A 
ATOM     11  C   UNL     1       0.497  -2.921  -1.370  1.00  0.00     0.030 A 
ATOM     12  C   UNL     1      -0.815  -2.576  -0.995  1.00  0.00     0.041 A 
ATOM     13  C   UNL     1      -0.253  -0.296  -1.366  1.00  0.00     0.018 A 
ATOM     14  C   UNL     1      -1.222  -1.261  -1.081  1.00  0.00     0.027 A 
BRANCH  12  15
ATOM     15  N   UNL     1      -1.712  -3.502  -0.435  1.00  0.00    -0.322 N 
ATOM     16  C   UNL     1      -1.414  -4.526   0.444  1.00  0.00     0.257 C 
ATOM     17  H   UNL     1      -2.657  -3.412  -0.698  1.00  0.00     0.170 HD
ATOM     18  O   UNL     1      -2.194  -5.458   0.622  1.00  0.00    -0.269 OA
BRANCH  16  19
ATOM     19  C   UNL     1      -0.159  -4.458   1.237  1.00  0.00     0.063 A 
ATOM     20  C   UNL     1       0.737  -5.527   1.085  1.00  0.00     0.017 A 
ATOM     21  C   UNL     1       0.140  -3.377   2.097  1.00  0.00     0.045 A 
ATOM     22  C   UNL     1       1.954  -5.518   1.765  1.00  0.00     0.016 A 
ATOM     23  C   UNL     1       1.351  -3.412   2.802  1.00  0.00     0.042 A 
ATOM     24  C   UNL     1       2.255  -4.460   2.619  1.00  0.00     0.020 A 
ATOM     25  Br  UNL     1       3.899  -4.453   3.553  1.00  0.00    -0.051 Br
BRANCH  21  26
ATOM     26  N   UNL     1      -0.766  -2.365   2.406  1.00  0.00    -0.398 N 
ATOM     27  H   UNL     1      -1.626  -2.312   1.930  1.00  0.00     0.156 HD
ATOM     28  H   UNL     1      -0.547  -1.703   3.101  1.00  0.00     0.156 HD
ENDBRANCH  21  26
ENDBRANCH  16  19
ENDBRANCH  12  15
ENDBRANCH   6   8
ENDBRANCH   5   6
ENDBRANCH   4   5
ENDBRANCH   3   4
ENDBRANCH   2   3
ENDBRANCH   1   2
BRANCH   1  29
ATOM     29  C   UNL     1       3.148   5.465  -3.564  1.00  0.00     0.188 C 
BRANCH  29  30
ATOM     30  O   UNL     1       3.334   4.175  -4.126  1.00  0.00    -0.376 OA
BRANCH  30  31
ATOM     31  C   UNL     1       3.226   4.087  -5.538  1.00  0.00     0.202 C 
BRANCH  31  32
ATOM     32  C   UNL     1       1.773   4.023  -6.063  1.00  0.00     0.261 C 
BRANCH  32  33
ATOM     33  O   UNL     1       1.074   2.827  -5.628  1.00  0.00    -0.460 OA
BRANCH  33  34
ATOM     34  C   UNL     1      -0.123   3.001  -4.964  1.00  0.00     0.338 C 
ATOM     35  O   UNL     1      -1.198   3.046  -5.546  1.00  0.00    -0.246 OA
BRANCH  34  36
ATOM     36  C   UNL     1       0.048   2.905  -3.474  1.00  0.00     0.060 A 
ATOM     37  C   UNL     1      -0.869   3.199  -2.450  1.00  0.00     0.016 A 
ATOM     38  C   UNL     1       1.286   2.578  -3.038  1.00  0.00     0.016 A 
ATOM     39  C   UNL     1      -0.482   3.221  -1.026  1.00  0.00     0.010 A 
ATOM     40  C   UNL     1       1.605   2.817  -1.702  1.00  0.00     0.010 A 
ATOM     41  C   UNL     1       0.829   3.019  -0.587  1.00  0.00    -0.014 A 
BRANCH  41  42
ATOM     42  C   UNL     1       1.577   3.255   0.778  1.00  0.00     0.031 A 
ATOM     43  C   UNL     1       2.376   2.307   1.845  1.00  0.00     0.074 A 
ATOM     44  C   UNL     1       1.635   4.573   1.075  1.00  0.00     0.049 A 
ATOM     45  N   UNL     1       2.440   2.575   3.138  1.00  0.00    -0.248 NA
ATOM     46  C   UNL     1       3.138   1.023   1.673  1.00  0.00     0.031 C 
ATOM     47  C   UNL     1       2.354   5.249   2.144  1.00  0.00     0.029 A 
ATOM     48  N   UNL     1       0.772   5.550   0.575  1.00  0.00    -0.354 N 
ATOM     49  C   UNL     1       3.329   1.670   3.735  1.00  0.00     0.074 A 
ATOM     50  C   UNL     1       3.394   0.561   2.883  1.00  0.00     0.031 C 
ATOM     51  C   UNL     1       1.674   6.364   2.458  1.00  0.00     0.029 A 
ATOM     52  C   UNL     1       0.461   6.378   1.657  1.00  0.00     0.049 A 
ATOM     53  H   UNL     1       0.448   5.638  -0.350  1.00  0.00     0.167 HD
ATOM     54  C   UNL     1       4.145   1.949   4.790  1.00  0.00     0.034 A 
ATOM     55  C   UNL     1      -0.827   6.425   2.096  1.00  0.00     0.034 A 
ATOM     56  C   UNL     1       3.618   3.093   5.486  1.00  0.00     0.049 A 
ATOM     57  C   UNL     1      -0.956   5.962   3.533  1.00  0.00     0.074 A 
ATOM     58  C   UNL     1       3.956   4.426   5.562  1.00  0.00     0.029 A 
ATOM     59  N   UNL     1       2.309   2.984   5.932  1.00  0.00    -0.354 N 
ATOM     60  N   UNL     1       0.012   5.427   4.233  1.00  0.00    -0.248 NA
ATOM     61  C   UNL     1      -2.187   6.083   4.302  1.00  0.00     0.031 C 
ATOM     62  C   UNL     1       2.753   5.137   5.874  1.00  0.00     0.029 A 
ATOM     63  C   UNL     1       1.724   4.224   6.062  1.00  0.00     0.049 A 
ATOM     64  H   UNL     1       1.858   2.132   6.131  1.00  0.00     0.167 HD
ATOM     65  C   UNL     1      -0.456   5.044   5.464  1.00  0.00     0.074 A 
ATOM     66  C   UNL     1      -1.818   5.549   5.478  1.00  0.00     0.031 C 
ATOM     67  C   UNL     1       0.292   4.302   6.344  1.00  0.00     0.034 A 
BRANCH  54  68
ATOM     68  C   UNL     1       5.446   1.190   5.120  1.00  0.00     0.023 A 
ATOM     69  C   UNL     1       6.127   1.433   6.331  1.00  0.00     0.031 A 
ATOM     70  C   UNL     1       6.130   0.293   4.247  1.00  0.00     0.131 A 
ATOM     71  C   UNL     1       7.346   0.771   6.640  1.00  0.00     0.055 A 
ATOM     72  C   UNL     1       7.270  -0.443   4.601  1.00  0.00     0.041 A 
ATOM     73  F   UNL     1       5.802   0.145   2.955  1.00  0.00    -0.206 F 
ATOM     74  C   UNL     1       7.888  -0.206   5.808  1.00  0.00     0.022 A 
BRANCH  71  75
ATOM     75  S   UNL     1       8.312   1.276   8.095  1.00  0.00     0.124 S 
ATOM     76  O   UNL     1       8.622   2.668   7.784  1.00  0.00    -0.237 OA
ATOM     77  O   UNL     1       7.376   1.046   9.188  1.00  0.00    -0.237 OA
ATOM     78  O   UNL     1       9.466   0.375   8.072  1.00  0.00    -0.744 OA
ENDBRANCH  71  75
ENDBRANCH  54  68
BRANCH  55  79
ATOM     79  C   UNL     1      -1.841   6.331   0.982  1.00  0.00     0.023 A 
ATOM     80  C   UNL     1      -1.624   7.170  -0.144  1.00  0.00     0.031 A 
ATOM     81  C   UNL     1      -2.764   5.291   0.819  1.00  0.00     0.131 A 
ATOM     82  C   UNL     1      -2.159   6.859  -1.403  1.00  0.00     0.055 A 
ATOM     83  C   UNL     1      -3.384   5.042  -0.424  1.00  0.00     0.041 A 
ATOM     84  F   UNL     1      -2.982   4.405   1.802  1.00  0.00    -0.206 F 
ATOM     85  C   UNL     1      -3.052   5.801  -1.550  1.00  0.00     0.022 A 
BRANCH  82  86
ATOM     86  S   UNL     1      -1.461   7.651  -2.889  1.00  0.00     0.124 S 
ATOM     87  O   UNL     1      -2.488   8.632  -3.223  1.00  0.00    -0.237 OA
ATOM     88  O   UNL     1      -0.189   8.197  -2.420  1.00  0.00    -0.237 OA
ATOM     89  O   UNL     1      -1.318   6.537  -3.823  1.00  0.00    -0.744 OA
ENDBRANCH  82  86
ENDBRANCH  55  79
BRANCH  67  90
ATOM     90  C   UNL     1      -0.283   3.556   7.544  1.00  0.00     0.023 A 
ATOM     91  C   UNL     1      -1.659   3.381   7.740  1.00  0.00     0.031 A 
ATOM     92  C   UNL     1       0.539   2.921   8.510  1.00  0.00     0.131 A 
ATOM     93  C   UNL     1      -2.170   2.748   8.884  1.00  0.00     0.055 A 
ATOM     94  C   UNL     1       0.030   2.172   9.579  1.00  0.00     0.041 A 
ATOM     95  F   UNL     1       1.877   2.989   8.460  1.00  0.00    -0.206 F 
ATOM     96  C   UNL     1      -1.337   2.110   9.793  1.00  0.00     0.022 A 
BRANCH  93  97
ATOM     97  S   UNL     1      -3.940   2.932   9.219  1.00  0.00     0.124 S 
ATOM     98  O   UNL     1      -4.106   4.383   9.165  1.00  0.00    -0.237 OA
ATOM     99  O   UNL     1      -4.546   2.186   8.122  1.00  0.00    -0.237 OA
ATOM    100  O   UNL     1      -4.102   2.342  10.546  1.00  0.00    -0.744 OA
ENDBRANCH  93  97
ENDBRANCH  67  90
ENDBRANCH  41  42
ENDBRANCH  34  36
ENDBRANCH  33  34
ENDBRANCH  32  33
ENDBRANCH  31  32
ENDBRANCH  30  31
ENDBRANCH  29  30
ENDBRANCH   1  29
TORSDOF 23
