REMARK SMILES C[C@@]([NH2+]CCCO)(C(=O)OCCOCCOCCOC(=O)c1ccc(-c2c3nc(c(-c4cc(S(=O)(=O)[O-])ccc4F)c4ccc([nH]4)c(-c4cc(S(=O)(=O)[O-])ccc4F)c4nc(c(-c5cc(S(=O)(=O)[O-])ccc5F)c5ccc2[nH]5)C=C4)C=C3)cc1)C(F)(F)F
REMARK SMILES IDX 14 1 13 2 12 3 11 4 10 5 8 6 9 7 2 8 1 9 3 10 4 13 5 14 6 15
REMARK SMILES IDX 7 16 85 18 86 19 87 20 88 21 15 22 16 23 17 24 18 25 19 26
REMARK SMILES IDX 20 27 21 28 22 29 23 30 84 31 24 32 83 33 25 34 26 35 27 36
REMARK SMILES IDX 77 37 28 38 82 39 76 40 78 41 29 42 81 43 75 44 74 45 30 47
REMARK SMILES IDX 62 48 42 49 61 50 43 51 46 52 60 53 79 54 44 55 45 56 59 58
REMARK SMILES IDX 80 59 47 60 31 61 32 62 40 63 33 64 39 65 41 66 38 67 34 68
REMARK SMILES IDX 35 69 36 70 37 71 63 72 64 73 72 74 65 75 71 76 73 77 70 78
REMARK SMILES IDX 66 79 67 80 68 81 69 82 48 83 49 84 57 85 50 86 56 87 58 88
REMARK SMILES IDX 55 89 51 90 52 91 53 92 54 93
REMARK H PARENT 3 11 3 12 7 17 78 46 46 57
REMARK Flexibility Score: inf
ROOT
ATOM      1  C   UNL     1      -2.421   0.328   1.979  1.00  0.00     0.188 C 
ENDROOT
BRANCH   1   2
ATOM      2  O   UNL     1      -3.641   0.901   1.525  1.00  0.00    -0.376 OA
BRANCH   2   3
ATOM      3  C   UNL     1      -3.982   0.876   0.150  1.00  0.00     0.202 C 
BRANCH   3   4
ATOM      4  C   UNL     1      -3.058   1.569  -0.865  1.00  0.00     0.261 C 
BRANCH   4   5
ATOM      5  O   UNL     1      -1.652   1.254  -0.800  1.00  0.00    -0.458 OA
BRANCH   5   6
ATOM      6  C   UNL     1      -0.869   2.167  -0.159  1.00  0.00     0.377 C 
ATOM      7  O   UNL     1      -1.331   3.175   0.368  1.00  0.00    -0.244 OA
BRANCH   6   8
ATOM      8  C   UNL     1       0.644   1.858  -0.202  1.00  0.00     0.287 C 
ATOM      9  C   UNL     1       1.033   0.463  -0.761  1.00  0.00     0.103 C 
BRANCH   8  10
ATOM     10  N   UNL     1       1.346   2.775  -1.186  1.00  0.00    -0.325 N 
ATOM     11  H   UNL     1       1.170   2.405  -2.120  1.00  0.00     0.347 HD
ATOM     12  H   UNL     1       2.319   2.774  -0.880  1.00  0.00     0.347 HD
BRANCH  10  13
ATOM     13  C   UNL     1       0.977   4.188  -1.205  1.00  0.00     0.264 C 
BRANCH  13  14
ATOM     14  C   UNL     1       1.392   5.046  -0.008  1.00  0.00     0.089 C 
BRANCH  14  15
ATOM     15  C   UNL     1       2.878   4.995   0.325  1.00  0.00     0.162 C 
BRANCH  15  16
ATOM     16  O   UNL     1       3.649   5.528  -0.744  1.00  0.00    -0.396 OA
ATOM     17  H   UNL     1       3.496   5.004  -1.546  1.00  0.00     0.210 HD
ENDBRANCH  15  16
ENDBRANCH  14  15
ENDBRANCH  13  14
ENDBRANCH  10  13
ENDBRANCH   8  10
BRANCH   8  18
ATOM     18  C   UNL     1       1.109   1.877   1.284  1.00  0.00     0.455 C 
ATOM     19  F   UNL     1       0.658   0.796   1.967  1.00  0.00    -0.164 F 
ATOM     20  F   UNL     1       2.466   1.824   1.336  1.00  0.00    -0.164 F 
ATOM     21  F   UNL     1       0.735   2.962   1.983  1.00  0.00    -0.164 F 
ENDBRANCH   8  18
ENDBRANCH   6   8
ENDBRANCH   5   6
ENDBRANCH   4   5
ENDBRANCH   3   4
ENDBRANCH   2   3
ENDBRANCH   1   2
BRANCH   1  22
ATOM     22  C   UNL     1      -1.758  -0.820   1.195  1.00  0.00     0.188 C 
BRANCH  22  23
ATOM     23  O   UNL     1      -2.600  -1.447   0.254  1.00  0.00    -0.376 OA
BRANCH  23  24
ATOM     24  C   UNL     1      -2.999  -2.775   0.528  1.00  0.00     0.202 C 
BRANCH  24  25
ATOM     25  C   UNL     1      -3.714  -3.058   1.860  1.00  0.00     0.261 C 
BRANCH  25  26
ATOM     26  O   UNL     1      -3.163  -2.452   3.043  1.00  0.00    -0.460 OA
BRANCH  26  27
ATOM     27  C   UNL     1      -2.019  -2.987   3.539  1.00  0.00     0.338 C 
ATOM     28  O   UNL     1      -1.415  -3.933   3.078  1.00  0.00    -0.246 OA
BRANCH  27  29
ATOM     29  C   UNL     1      -1.500  -2.079   4.598  1.00  0.00     0.060 A 
ATOM     30  C   UNL     1      -0.213  -1.541   4.457  1.00  0.00     0.016 A 
ATOM     31  C   UNL     1      -2.266  -1.762   5.723  1.00  0.00     0.016 A 
ATOM     32  C   UNL     1       0.330  -0.731   5.460  1.00  0.00     0.010 A 
ATOM     33  C   UNL     1      -1.712  -0.968   6.738  1.00  0.00     0.010 A 
ATOM     34  C   UNL     1      -0.395  -0.482   6.633  1.00  0.00    -0.014 A 
BRANCH  34  35
ATOM     35  C   UNL     1       0.306   0.060   7.831  1.00  0.00     0.031 A 
ATOM     36  C   UNL     1       0.794  -0.921   8.868  1.00  0.00     0.074 A 
ATOM     37  C   UNL     1       0.547   1.375   7.994  1.00  0.00     0.049 A 
ATOM     38  N   UNL     1       1.401  -0.705  10.007  1.00  0.00    -0.248 NA
ATOM     39  C   UNL     1       0.559  -2.343   8.572  1.00  0.00     0.031 C 
ATOM     40  C   UNL     1       0.191   2.425   7.044  1.00  0.00     0.029 A 
ATOM     41  N   UNL     1       1.155   2.049   9.028  1.00  0.00    -0.354 N 
ATOM     42  C   UNL     1       1.613  -1.962  10.568  1.00  0.00     0.074 A 
ATOM     43  C   UNL     1       1.031  -2.928   9.661  1.00  0.00     0.031 C 
ATOM     44  C   UNL     1       0.587   3.612   7.539  1.00  0.00     0.029 A 
ATOM     45  C   UNL     1       1.187   3.414   8.858  1.00  0.00     0.049 A 
ATOM     46  H   UNL     1       1.532   1.596   9.816  1.00  0.00     0.167 HD
ATOM     47  C   UNL     1       2.238  -2.284  11.728  1.00  0.00     0.034 A 
ATOM     48  C   UNL     1       1.630   4.389   9.681  1.00  0.00     0.034 A 
ATOM     49  C   UNL     1       2.801  -1.313  12.634  1.00  0.00     0.049 A 
ATOM     50  C   UNL     1       2.223   4.014  11.023  1.00  0.00     0.074 A 
ATOM     51  C   UNL     1       3.467  -1.535  13.828  1.00  0.00     0.029 A 
ATOM     52  N   UNL     1       2.749   0.064  12.462  1.00  0.00    -0.354 N 
ATOM     53  N   UNL     1       2.424   2.822  11.540  1.00  0.00    -0.248 NA
ATOM     54  C   UNL     1       2.656   5.120  11.889  1.00  0.00     0.031 C 
ATOM     55  C   UNL     1       3.733  -0.295  14.419  1.00  0.00     0.029 A 
ATOM     56  C   UNL     1       3.330   0.704  13.548  1.00  0.00     0.049 A 
ATOM     57  H   UNL     1       2.356   0.521  11.683  1.00  0.00     0.167 HD
ATOM     58  C   UNL     1       3.050   3.040  12.768  1.00  0.00     0.074 A 
ATOM     59  C   UNL     1       3.199   4.472  12.908  1.00  0.00     0.031 C 
ATOM     60  C   UNL     1       3.472   2.135  13.690  1.00  0.00     0.034 A 
BRANCH  47  61
ATOM     61  C   UNL     1       2.279  -3.747  12.107  1.00  0.00     0.023 A 
ATOM     62  C   UNL     1       2.935  -4.706  11.316  1.00  0.00     0.031 A 
ATOM     63  C   UNL     1       1.607  -4.196  13.259  1.00  0.00     0.131 A 
ATOM     64  C   UNL     1       2.833  -6.068  11.637  1.00  0.00     0.055 A 
ATOM     65  C   UNL     1       1.588  -5.543  13.624  1.00  0.00     0.041 A 
ATOM     66  F   UNL     1       0.939  -3.333  14.041  1.00  0.00    -0.206 F 
ATOM     67  C   UNL     1       2.188  -6.491  12.801  1.00  0.00     0.022 A 
BRANCH  64  68
ATOM     68  S   UNL     1       3.402  -7.290  10.422  1.00  0.00     0.124 S 
ATOM     69  O   UNL     1       2.616  -6.925   9.246  1.00  0.00    -0.237 OA
ATOM     70  O   UNL     1       4.832  -7.017  10.346  1.00  0.00    -0.237 OA
ATOM     71  O   UNL     1       3.041  -8.570  11.029  1.00  0.00    -0.744 OA
ENDBRANCH  64  68
ENDBRANCH  47  61
BRANCH  48  72
ATOM     72  C   UNL     1       1.511   5.829   9.296  1.00  0.00     0.023 A 
ATOM     73  C   UNL     1       2.649   6.642   9.164  1.00  0.00     0.031 A 
ATOM     74  C   UNL     1       0.252   6.433   9.135  1.00  0.00     0.131 A 
ATOM     75  C   UNL     1       2.505   8.020   8.935  1.00  0.00     0.055 A 
ATOM     76  C   UNL     1       0.115   7.792   8.845  1.00  0.00     0.041 A 
ATOM     77  F   UNL     1      -0.871   5.708   9.264  1.00  0.00    -0.206 F 
ATOM     78  C   UNL     1       1.246   8.597   8.758  1.00  0.00     0.022 A 
BRANCH  75  79
ATOM     79  S   UNL     1       3.985   9.070   8.976  1.00  0.00     0.124 S 
ATOM     80  O   UNL     1       4.481   8.827  10.326  1.00  0.00    -0.237 OA
ATOM     81  O   UNL     1       4.782   8.514   7.889  1.00  0.00    -0.237 OA
ATOM     82  O   UNL     1       3.457  10.412   8.737  1.00  0.00    -0.744 OA
ENDBRANCH  75  79
ENDBRANCH  48  72
BRANCH  60  83
ATOM     83  C   UNL     1       4.199   2.667  14.906  1.00  0.00     0.023 A 
ATOM     84  C   UNL     1       3.576   3.507  15.847  1.00  0.00     0.031 A 
ATOM     85  C   UNL     1       5.552   2.339  15.117  1.00  0.00     0.131 A 
ATOM     86  C   UNL     1       4.320   4.044  16.910  1.00  0.00     0.055 A 
ATOM     87  C   UNL     1       6.266   2.816  16.218  1.00  0.00     0.041 A 
ATOM     88  F   UNL     1       6.206   1.546  14.254  1.00  0.00    -0.206 F 
ATOM     89  C   UNL     1       5.655   3.687  17.113  1.00  0.00     0.022 A 
BRANCH  86  90
ATOM     90  S   UNL     1       3.554   5.312  17.959  1.00  0.00     0.124 S 
ATOM     91  O   UNL     1       3.164   6.321  16.979  1.00  0.00    -0.237 OA
ATOM     92  O   UNL     1       2.461   4.579  18.588  1.00  0.00    -0.237 OA
ATOM     93  O   UNL     1       4.634   5.709  18.861  1.00  0.00    -0.744 OA
ENDBRANCH  86  90
ENDBRANCH  60  83
ENDBRANCH  34  35
ENDBRANCH  27  29
ENDBRANCH  26  27
ENDBRANCH  25  26
ENDBRANCH  24  25
ENDBRANCH  23  24
ENDBRANCH  22  23
ENDBRANCH   1  22
TORSDOF 26
