REMARK SMILES Cc1cc(OC(F)(F)F)cc2c1O[C@H](C(F)(F)F)C(C(=O)OCCOCCOCCOC(=O)c1ccc(-c3c4nc(c(-c5cc(S(=O)(=O)[O-])ccc5F)c5ccc([nH]5)c(-c5cc(S(=O)(=O)[O-])ccc5F)c5nc(c(-c6cc(S(=O)(=O)[O-])ccc6F)c6ccc3[nH]6)C=C5)C=C4)cc1)=C2
REMARK SMILES IDX 27 1 26 2 25 3 24 4 23 5 22 6 20 7 21 8 19 9 1 10 2 11 3 12
REMARK SMILES IDX 12 13 4 14 11 15 13 16 10 17 97 18 14 19 5 20 6 21 7 22 8 23
REMARK SMILES IDX 9 24 15 25 16 26 17 27 18 28 28 29 29 30 30 31 31 32 32 33
REMARK SMILES IDX 33 34 34 35 35 36 96 37 36 38 95 39 37 40 38 41 39 42 89 43
REMARK SMILES IDX 40 44 94 45 88 46 90 47 41 48 93 49 87 50 86 51 42 53 74 54
REMARK SMILES IDX 54 55 73 56 55 57 58 58 72 59 91 60 56 61 57 62 71 64 92 65
REMARK SMILES IDX 59 66 43 67 44 68 52 69 45 70 51 71 53 72 50 73 46 74 47 75
REMARK SMILES IDX 48 76 49 77 75 78 76 79 84 80 77 81 83 82 85 83 82 84 78 85
REMARK SMILES IDX 79 86 80 87 81 88 60 89 61 90 69 91 62 92 68 93 70 94 67 95
REMARK SMILES IDX 63 96 64 97 65 98 66 99
REMARK H PARENT 90 52 58 63
REMARK Flexibility Score: inf
ROOT
ATOM      1  C   UNL     1      -3.588  -2.876  -4.714  1.00  0.00     0.188 C 
ENDROOT
BRANCH   1   2
ATOM      2  C   UNL     1      -3.332  -2.824  -6.236  1.00  0.00     0.188 C 
BRANCH   2   3
ATOM      3  O   UNL     1      -3.524  -4.082  -6.848  1.00  0.00    -0.376 OA
BRANCH   3   4
ATOM      4  C   UNL     1      -2.404  -4.825  -7.280  1.00  0.00     0.202 C 
BRANCH   4   5
ATOM      5  C   UNL     1      -1.197  -5.063  -6.358  1.00  0.00     0.261 C 
BRANCH   5   6
ATOM      6  O   UNL     1      -0.949  -4.077  -5.348  1.00  0.00    -0.460 OA
BRANCH   6   7
ATOM      7  C   UNL     1      -0.051  -3.111  -5.636  1.00  0.00     0.338 C 
ATOM      8  O   UNL     1       0.547  -2.961  -6.688  1.00  0.00    -0.246 OA
BRANCH   7   9
ATOM      9  C   UNL     1       0.041  -2.192  -4.481  1.00  0.00     0.087 C 
ATOM     10  C   UNL     1       0.876  -0.087   0.131  1.00  0.00     0.048 C 
ATOM     11  C   UNL     1       0.551   0.417  -1.249  1.00  0.00    -0.005 A 
ATOM     12  C   UNL     1       0.574   1.803  -1.489  1.00  0.00     0.054 A 
ATOM     13  C   UNL     1       0.322  -0.463  -2.319  1.00  0.00     0.131 A 
ATOM     14  C   UNL     1       0.342   2.309  -2.768  1.00  0.00     0.130 A 
ATOM     15  C   UNL     1       0.115   0.036  -3.608  1.00  0.00     0.021 A 
ATOM     16  O   UNL     1       0.327  -1.798  -2.029  1.00  0.00    -0.475 OA
ATOM     17  C   UNL     1       0.099   1.420  -3.819  1.00  0.00     0.058 A 
ATOM     18  C   UNL     1      -0.016  -0.878  -4.733  1.00  0.00     0.027 C 
ATOM     19  C   UNL     1       0.171  -2.770  -3.096  1.00  0.00     0.316 C 
BRANCH  14  20
ATOM     20  O   UNL     1       0.337   3.627  -3.127  1.00  0.00    -0.406 OA
BRANCH  20  21
ATOM     21  C   UNL     1       0.828   4.570  -2.188  1.00  0.00     0.573 C 
ATOM     22  F   UNL     1       0.030   4.633  -1.100  1.00  0.00    -0.132 F 
ATOM     23  F   UNL     1       2.085   4.257  -1.798  1.00  0.00    -0.132 F 
ATOM     24  F   UNL     1       0.862   5.791  -2.762  1.00  0.00    -0.132 F 
ENDBRANCH  20  21
ENDBRANCH  14  20
BRANCH  19  25
ATOM     25  C   UNL     1       1.326  -3.775  -2.978  1.00  0.00     0.430 C 
ATOM     26  F   UNL     1       1.428  -4.258  -1.714  1.00  0.00    -0.167 F 
ATOM     27  F   UNL     1       1.153  -4.850  -3.782  1.00  0.00    -0.167 F 
ATOM     28  F   UNL     1       2.518  -3.221  -3.294  1.00  0.00    -0.167 F 
ENDBRANCH  19  25
ENDBRANCH   7   9
ENDBRANCH   6   7
ENDBRANCH   5   6
ENDBRANCH   4   5
ENDBRANCH   3   4
ENDBRANCH   2   3
ENDBRANCH   1   2
BRANCH   1  29
ATOM     29  O   UNL     1      -4.126  -4.062  -4.136  1.00  0.00    -0.376 OA
BRANCH  29  30
ATOM     30  C   UNL     1      -5.257  -4.671  -4.754  1.00  0.00     0.202 C 
BRANCH  30  31
ATOM     31  C   UNL     1      -6.527  -3.837  -4.966  1.00  0.00     0.261 C 
BRANCH  31  32
ATOM     32  O   UNL     1      -6.325  -2.620  -5.703  1.00  0.00    -0.460 OA
BRANCH  32  33
ATOM     33  C   UNL     1      -6.569  -1.475  -5.017  1.00  0.00     0.338 C 
ATOM     34  O   UNL     1      -6.963  -1.371  -3.868  1.00  0.00    -0.246 OA
BRANCH  33  35
ATOM     35  C   UNL     1      -6.105  -0.322  -5.810  1.00  0.00     0.060 A 
ATOM     36  C   UNL     1      -5.022   0.428  -5.328  1.00  0.00     0.016 A 
ATOM     37  C   UNL     1      -6.771   0.058  -6.974  1.00  0.00     0.016 A 
ATOM     38  C   UNL     1      -4.606   1.571  -6.006  1.00  0.00     0.010 A 
ATOM     39  C   UNL     1      -6.381   1.229  -7.630  1.00  0.00     0.010 A 
ATOM     40  C   UNL     1      -5.319   2.003  -7.131  1.00  0.00    -0.014 A 
BRANCH  40  41
ATOM     41  C   UNL     1      -5.095   3.369  -7.654  1.00  0.00     0.031 A 
ATOM     42  C   UNL     1      -5.860   4.502  -7.031  1.00  0.00     0.074 A 
ATOM     43  C   UNL     1      -4.236   3.600  -8.661  1.00  0.00     0.049 A 
ATOM     44  N   UNL     1      -5.864   5.769  -7.346  1.00  0.00    -0.248 NA
ATOM     45  C   UNL     1      -6.734   4.158  -5.895  1.00  0.00     0.031 C 
ATOM     46  C   UNL     1      -3.405   2.587  -9.308  1.00  0.00     0.029 A 
ATOM     47  N   UNL     1      -3.933   4.763  -9.324  1.00  0.00    -0.354 N 
ATOM     48  C   UNL     1      -6.732   6.376  -6.447  1.00  0.00     0.074 A 
ATOM     49  C   UNL     1      -7.255   5.337  -5.589  1.00  0.00     0.031 C 
ATOM     50  C   UNL     1      -2.703   3.170 -10.294  1.00  0.00     0.029 A 
ATOM     51  C   UNL     1      -3.058   4.589 -10.369  1.00  0.00     0.049 A 
ATOM     52  H   UNL     1      -4.308   5.639  -9.075  1.00  0.00     0.167 HD
ATOM     53  C   UNL     1      -7.062   7.683  -6.346  1.00  0.00     0.034 A 
ATOM     54  C   UNL     1      -2.615   5.468 -11.292  1.00  0.00     0.034 A 
ATOM     55  C   UNL     1      -6.566   8.705  -7.227  1.00  0.00     0.049 A 
ATOM     56  C   UNL     1      -3.067   6.906 -11.220  1.00  0.00     0.074 A 
ATOM     57  C   UNL     1      -6.846  10.059  -7.207  1.00  0.00     0.029 A 
ATOM     58  N   UNL     1      -5.704   8.487  -8.291  1.00  0.00    -0.354 N 
ATOM     59  N   UNL     1      -3.851   7.480 -10.336  1.00  0.00    -0.248 NA
ATOM     60  C   UNL     1      -2.579   7.819 -12.264  1.00  0.00     0.031 C 
ATOM     61  C   UNL     1      -6.197  10.652  -8.290  1.00  0.00     0.029 A 
ATOM     62  C   UNL     1      -5.462   9.679  -8.951  1.00  0.00     0.049 A 
ATOM     63  H   UNL     1      -5.322   7.615  -8.540  1.00  0.00     0.167 HD
ATOM     64  C   UNL     1      -3.928   8.822 -10.702  1.00  0.00     0.074 A 
ATOM     65  C   UNL     1      -3.101   8.978 -11.881  1.00  0.00     0.031 C 
ATOM     66  C   UNL     1      -4.620   9.830 -10.114  1.00  0.00     0.034 A 
BRANCH  53  67
ATOM     67  C   UNL     1      -8.011   8.091  -5.254  1.00  0.00     0.023 A 
ATOM     68  C   UNL     1      -9.292   8.569  -5.577  1.00  0.00     0.031 A 
ATOM     69  C   UNL     1      -7.613   8.092  -3.905  1.00  0.00     0.131 A 
ATOM     70  C   UNL     1     -10.125   9.056  -4.563  1.00  0.00     0.055 A 
ATOM     71  C   UNL     1      -8.459   8.548  -2.895  1.00  0.00     0.041 A 
ATOM     72  F   UNL     1      -6.401   7.633  -3.552  1.00  0.00    -0.206 F 
ATOM     73  C   UNL     1      -9.718   9.042  -3.224  1.00  0.00     0.022 A 
BRANCH  70  74
ATOM     74  S   UNL     1     -11.753   9.754  -4.946  1.00  0.00     0.124 S 
ATOM     75  O   UNL     1     -12.630   8.962  -4.085  1.00  0.00    -0.237 OA
ATOM     76  O   UNL     1     -11.586  11.149  -4.553  1.00  0.00    -0.237 OA
ATOM     77  O   UNL     1     -11.910   9.513  -6.376  1.00  0.00    -0.744 OA
ENDBRANCH  70  74
ENDBRANCH  53  67
BRANCH  54  78
ATOM     78  C   UNL     1      -1.667   5.000 -12.343  1.00  0.00     0.023 A 
ATOM     79  C   UNL     1      -2.060   4.047 -13.299  1.00  0.00     0.031 A 
ATOM     80  C   UNL     1      -0.333   5.436 -12.350  1.00  0.00     0.131 A 
ATOM     81  C   UNL     1      -1.112   3.518 -14.185  1.00  0.00     0.055 A 
ATOM     82  C   UNL     1       0.595   4.950 -13.273  1.00  0.00     0.041 A 
ATOM     83  F   UNL     1       0.087   6.341 -11.452  1.00  0.00    -0.206 F 
ATOM     84  C   UNL     1       0.209   3.975 -14.188  1.00  0.00     0.022 A 
BRANCH  81  85
ATOM     85  S   UNL     1      -1.545   2.159 -15.306  1.00  0.00     0.124 S 
ATOM     86  O   UNL     1      -1.084   2.663 -16.596  1.00  0.00    -0.237 OA
ATOM     87  O   UNL     1      -0.766   1.058 -14.745  1.00  0.00    -0.237 OA
ATOM     88  O   UNL     1      -2.991   2.039 -15.159  1.00  0.00    -0.744 OA
ENDBRANCH  81  85
ENDBRANCH  54  78
BRANCH  66  89
ATOM     89  C   UNL     1      -4.527  11.218 -10.698  1.00  0.00     0.023 A 
ATOM     90  C   UNL     1      -3.949  12.258  -9.944  1.00  0.00     0.031 A 
ATOM     91  C   UNL     1      -5.163  11.544 -11.907  1.00  0.00     0.131 A 
ATOM     92  C   UNL     1      -4.062  13.582 -10.384  1.00  0.00     0.055 A 
ATOM     93  C   UNL     1      -5.235  12.862 -12.363  1.00  0.00     0.041 A 
ATOM     94  F   UNL     1      -5.739  10.588 -12.654  1.00  0.00    -0.206 F 
ATOM     95  C   UNL     1      -4.695  13.889 -11.593  1.00  0.00     0.022 A 
BRANCH  92  96
ATOM     96  S   UNL     1      -3.460  14.959  -9.368  1.00  0.00     0.124 S 
ATOM     97  O   UNL     1      -2.557  15.645 -10.289  1.00  0.00    -0.237 OA
ATOM     98  O   UNL     1      -4.696  15.673  -9.059  1.00  0.00    -0.237 OA
ATOM     99  O   UNL     1      -2.811  14.305  -8.237  1.00  0.00    -0.744 OA
ENDBRANCH  92  96
ENDBRANCH  66  89
ENDBRANCH  40  41
ENDBRANCH  33  35
ENDBRANCH  32  33
ENDBRANCH  31  32
ENDBRANCH  30  31
ENDBRANCH  29  30
ENDBRANCH   1  29
TORSDOF 23
