REMARK SMILES CC[C@H](C(=O)OCCOCCOCCOC(=O)c1ccc(-c2c3nc(c(-c4cc(S(=O)(=O)[O-])ccc4F)c4ccc([nH]4)c(-c4cc(S(=O)(=O)[O-])ccc4F)c4nc(c(-c5cc(S(=O)(=O)[O-])ccc5F)c5ccc2[nH]5)C=C4)C=C3)cc1)[N@@H+](C)Cc1cncn1C(C)C
REMARK SMILES IDX 10 1 9 2 8 3 7 4 6 5 4 6 5 7 3 8 2 9 1 10 81 11 82 12 83 14
REMARK SMILES IDX 84 15 85 16 88 17 86 18 87 19 89 20 90 21 91 22 11 23 12 24
REMARK SMILES IDX 13 25 14 26 15 27 16 28 17 29 18 30 19 31 80 32 20 33 79 34
REMARK SMILES IDX 21 35 22 36 23 37 73 38 24 39 78 40 72 41 74 42 25 43 77 44
REMARK SMILES IDX 71 45 70 46 26 48 58 49 38 50 57 51 39 52 42 53 56 54 75 55
REMARK SMILES IDX 40 56 41 57 55 59 76 60 43 61 27 62 28 63 36 64 29 65 35 66
REMARK SMILES IDX 37 67 34 68 30 69 31 70 32 71 33 72 59 73 60 74 68 75 61 76
REMARK SMILES IDX 67 77 69 78 66 79 62 80 63 81 64 82 65 83 44 84 45 85 53 86
REMARK SMILES IDX 46 87 52 88 54 89 51 90 47 91 48 92 49 93 50 94
REMARK H PARENT 81 13 74 47 42 58
REMARK Flexibility Score: inf
ROOT
ATOM      1  C   UNL     1       0.608   3.413   0.473  1.00  0.00     0.188 C 
ENDROOT
BRANCH   1   2
ATOM      2  O   UNL     1       0.482   2.991   1.824  1.00  0.00    -0.376 OA
BRANCH   2   3
ATOM      3  C   UNL     1      -0.349   1.861   2.033  1.00  0.00     0.202 C 
BRANCH   3   4
ATOM      4  C   UNL     1       0.319   0.538   1.653  1.00  0.00     0.261 C 
BRANCH   4   5
ATOM      5  O   UNL     1       0.779   0.435   0.298  1.00  0.00    -0.459 OA
BRANCH   5   6
ATOM      6  C   UNL     1      -0.139   0.568  -0.705  1.00  0.00     0.364 C 
ATOM      7  O   UNL     1      -1.329   0.783  -0.525  1.00  0.00    -0.245 OA
BRANCH   6   8
ATOM      8  C   UNL     1       0.560   0.326  -2.055  1.00  0.00     0.294 C 
BRANCH   8   9
ATOM      9  C   UNL     1       0.429  -1.173  -2.355  1.00  0.00     0.074 C 
ATOM     10  C   UNL     1      -0.972  -1.752  -2.190  1.00  0.00     0.011 C 
ENDBRANCH   8   9
BRANCH   8  11
ATOM     11  N   UNL     1       0.252   1.369  -3.063  1.00  0.00    -0.321 N 
ATOM     12  C   UNL     1       1.316   1.625  -4.026  1.00  0.00     0.333 C 
ATOM     13  H   UNL     1       0.215   2.138  -2.393  1.00  0.00     0.348 HD
BRANCH  11  14
ATOM     14  C   UNL     1      -1.090   1.529  -3.623  1.00  0.00     0.319 C 
BRANCH  14  15
ATOM     15  C   UNL     1      -1.538   0.574  -4.685  1.00  0.00     0.093 A 
ATOM     16  C   UNL     1      -1.002  -0.576  -5.234  1.00  0.00     0.140 A 
ATOM     17  N   UNL     1      -2.729   0.709  -5.383  1.00  0.00    -0.327 N 
ATOM     18  N   UNL     1      -1.918  -1.266  -5.977  1.00  0.00    -0.245 NA
ATOM     19  C   UNL     1      -2.973  -0.490  -6.005  1.00  0.00     0.200 A 
BRANCH  17  20
ATOM     20  C   UNL     1      -3.428   1.952  -5.715  1.00  0.00     0.082 C 
ATOM     21  C   UNL     1      -3.092   2.342  -7.161  1.00  0.00     0.031 C 
ATOM     22  C   UNL     1      -4.937   1.877  -5.497  1.00  0.00     0.031 C 
ENDBRANCH  17  20
ENDBRANCH  14  15
ENDBRANCH  11  14
ENDBRANCH   8  11
ENDBRANCH   6   8
ENDBRANCH   5   6
ENDBRANCH   4   5
ENDBRANCH   3   4
ENDBRANCH   2   3
ENDBRANCH   1   2
BRANCH   1  23
ATOM     23  C   UNL     1       2.020   3.209  -0.119  1.00  0.00     0.188 C 
BRANCH  23  24
ATOM     24  O   UNL     1       3.138   2.986   0.729  1.00  0.00    -0.376 OA
BRANCH  24  25
ATOM     25  C   UNL     1       3.207   3.677   1.964  1.00  0.00     0.202 C 
BRANCH  25  26
ATOM     26  C   UNL     1       3.130   5.215   1.976  1.00  0.00     0.261 C 
BRANCH  26  27
ATOM     27  O   UNL     1       2.077   5.808   1.192  1.00  0.00    -0.460 OA
BRANCH  27  28
ATOM     28  C   UNL     1       2.449   6.420   0.036  1.00  0.00     0.338 C 
ATOM     29  O   UNL     1       3.590   6.568  -0.372  1.00  0.00    -0.246 OA
BRANCH  28  30
ATOM     30  C   UNL     1       1.249   6.726  -0.785  1.00  0.00     0.060 A 
ATOM     31  C   UNL     1       1.099   6.097  -2.032  1.00  0.00     0.016 A 
ATOM     32  C   UNL     1       0.284   7.636  -0.351  1.00  0.00     0.016 A 
ATOM     33  C   UNL     1      -0.011   6.364  -2.840  1.00  0.00     0.010 A 
ATOM     34  C   UNL     1      -0.808   7.934  -1.180  1.00  0.00     0.010 A 
ATOM     35  C   UNL     1      -0.959   7.311  -2.434  1.00  0.00    -0.014 A 
BRANCH  35  36
ATOM     36  C   UNL     1      -2.017   7.775  -3.373  1.00  0.00     0.031 A 
ATOM     37  C   UNL     1      -1.797   9.057  -4.131  1.00  0.00     0.074 A 
ATOM     38  C   UNL     1      -3.162   7.090  -3.547  1.00  0.00     0.049 A 
ATOM     39  N   UNL     1      -2.629   9.740  -4.875  1.00  0.00    -0.248 NA
ATOM     40  C   UNL     1      -0.453   9.642  -4.030  1.00  0.00     0.031 C 
ATOM     41  C   UNL     1      -3.476   5.797  -2.942  1.00  0.00     0.029 A 
ATOM     42  N   UNL     1      -4.289   7.405  -4.270  1.00  0.00    -0.354 N 
ATOM     43  C   UNL     1      -1.913  10.847  -5.323  1.00  0.00     0.074 A 
ATOM     44  C   UNL     1      -0.590  10.751  -4.741  1.00  0.00     0.031 C 
ATOM     45  C   UNL     1      -4.725   5.444  -3.295  1.00  0.00     0.029 A 
ATOM     46  C   UNL     1      -5.320   6.510  -4.103  1.00  0.00     0.049 A 
ATOM     47  H   UNL     1      -4.351   8.197  -4.852  1.00  0.00     0.167 HD
ATOM     48  C   UNL     1      -2.320  11.848  -6.143  1.00  0.00     0.034 A 
ATOM     49  C   UNL     1      -6.607   6.569  -4.508  1.00  0.00     0.034 A 
ATOM     50  C   UNL     1      -3.649  11.947  -6.697  1.00  0.00     0.049 A 
ATOM     51  C   UNL     1      -7.089   7.773  -5.288  1.00  0.00     0.074 A 
ATOM     52  C   UNL     1      -4.158  12.913  -7.548  1.00  0.00     0.029 A 
ATOM     53  N   UNL     1      -4.687  11.063  -6.438  1.00  0.00    -0.354 N 
ATOM     54  N   UNL     1      -6.409   8.816  -5.704  1.00  0.00    -0.248 NA
ATOM     55  C   UNL     1      -8.516   7.810  -5.642  1.00  0.00     0.031 C 
ATOM     56  C   UNL     1      -5.522  12.663  -7.731  1.00  0.00     0.029 A 
ATOM     57  C   UNL     1      -5.847  11.491  -7.067  1.00  0.00     0.049 A 
ATOM     58  H   UNL     1      -4.612  10.250  -5.888  1.00  0.00     0.167 HD
ATOM     59  C   UNL     1      -7.322   9.619  -6.388  1.00  0.00     0.074 A 
ATOM     60  C   UNL     1      -8.596   8.934  -6.341  1.00  0.00     0.031 C 
ATOM     61  C   UNL     1      -7.122  10.814  -7.002  1.00  0.00     0.034 A 
BRANCH  48  62
ATOM     62  C   UNL     1      -1.329  12.951  -6.430  1.00  0.00     0.023 A 
ATOM     63  C   UNL     1      -0.120  12.702  -7.103  1.00  0.00     0.031 A 
ATOM     64  C   UNL     1      -1.577  14.263  -5.988  1.00  0.00     0.131 A 
ATOM     65  C   UNL     1       0.830  13.725  -7.237  1.00  0.00     0.055 A 
ATOM     66  C   UNL     1      -0.666  15.298  -6.205  1.00  0.00     0.041 A 
ATOM     67  F   UNL     1      -2.704  14.559  -5.321  1.00  0.00    -0.206 F 
ATOM     68  C   UNL     1       0.555  15.028  -6.816  1.00  0.00     0.022 A 
BRANCH  65  69
ATOM     69  S   UNL     1       2.493  13.287  -7.813  1.00  0.00     0.124 S 
ATOM     70  O   UNL     1       2.880  12.264  -6.845  1.00  0.00    -0.237 OA
ATOM     71  O   UNL     1       2.242  12.820  -9.171  1.00  0.00    -0.237 OA
ATOM     72  O   UNL     1       3.232  14.544  -7.710  1.00  0.00    -0.744 OA
ENDBRANCH  65  69
ENDBRANCH  48  62
BRANCH  49  73
ATOM     73  C   UNL     1      -7.566   5.489  -4.134  1.00  0.00     0.023 A 
ATOM     74  C   UNL     1      -8.185   4.704  -5.118  1.00  0.00     0.031 A 
ATOM     75  C   UNL     1      -7.921   5.264  -2.792  1.00  0.00     0.131 A 
ATOM     76  C   UNL     1      -9.151   3.755  -4.750  1.00  0.00     0.055 A 
ATOM     77  C   UNL     1      -8.843   4.283  -2.426  1.00  0.00     0.041 A 
ATOM     78  F   UNL     1      -7.366   5.995  -1.811  1.00  0.00    -0.206 F 
ATOM     79  C   UNL     1      -9.473   3.528  -3.410  1.00  0.00     0.022 A 
BRANCH  76  80
ATOM     80  S   UNL     1     -10.032   2.866  -6.061  1.00  0.00     0.124 S 
ATOM     81  O   UNL     1     -10.671   3.961  -6.782  1.00  0.00    -0.237 OA
ATOM     82  O   UNL     1      -8.936   2.195  -6.753  1.00  0.00    -0.237 OA
ATOM     83  O   UNL     1     -10.938   1.986  -5.327  1.00  0.00    -0.744 OA
ENDBRANCH  76  80
ENDBRANCH  49  73
BRANCH  61  84
ATOM     84  C   UNL     1      -8.302  11.448  -7.701  1.00  0.00     0.023 A 
ATOM     85  C   UNL     1      -9.409  11.940  -6.987  1.00  0.00     0.031 A 
ATOM     86  C   UNL     1      -8.309  11.583  -9.102  1.00  0.00     0.131 A 
ATOM     87  C   UNL     1     -10.491  12.510  -7.677  1.00  0.00     0.055 A 
ATOM     88  C   UNL     1      -9.362  12.203  -9.778  1.00  0.00     0.041 A 
ATOM     89  F   UNL     1      -7.282  11.127  -9.837  1.00  0.00    -0.206 F 
ATOM     90  C   UNL     1     -10.465  12.663  -9.066  1.00  0.00     0.022 A 
BRANCH  87  91
ATOM     91  S   UNL     1     -11.970  12.989  -6.742  1.00  0.00     0.124 S 
ATOM     92  O   UNL     1     -12.391  11.714  -6.169  1.00  0.00    -0.237 OA
ATOM     93  O   UNL     1     -11.441  13.968  -5.798  1.00  0.00    -0.237 OA
ATOM     94  O   UNL     1     -12.862  13.533  -7.764  1.00  0.00    -0.744 OA
ENDBRANCH  87  91
ENDBRANCH  61  84
ENDBRANCH  35  36
ENDBRANCH  28  30
ENDBRANCH  27  28
ENDBRANCH  26  27
ENDBRANCH  25  26
ENDBRANCH  24  25
ENDBRANCH  23  24
ENDBRANCH   1  23
TORSDOF 25
