REMARK SMILES C/C(=N/OCc1ccccc1Nc1c(Cl)cccc1Cl)C(=O)OCCOCCOCCOC(=O)c1ccc(-c2c3nc(c(-c4cc(S(=O)(=O)[O-])ccc4F)c4ccc([nH]4)c(-c4cc(S(=O)(=O)[O-])ccc4F)c4nc(c(-c5cc(S(=O)(=O)[O-])ccc5F)c5ccc2[nH]5)C=C4)C=C3)cc1
REMARK SMILES IDX 27 1 26 2 25 3 24 4 23 5 21 6 22 7 2 8 1 9 3 10 4 11 5 12
REMARK SMILES IDX 6 13 7 14 11 15 8 16 10 17 9 18 12 19 13 21 14 22 19 23
REMARK SMILES IDX 15 24 16 25 18 26 20 27 17 28 28 29 29 30 30 31 31 32 32 33
REMARK SMILES IDX 33 34 34 35 35 36 36 37 97 38 37 39 96 40 38 41 39 42 40 43
REMARK SMILES IDX 90 44 41 45 95 46 89 47 91 48 42 49 94 50 88 51 87 52 43 54
REMARK SMILES IDX 75 55 55 56 74 57 56 58 59 59 73 60 92 61 57 62 58 63 72 65
REMARK SMILES IDX 93 66 60 67 44 68 45 69 53 70 46 71 52 72 54 73 51 74 47 75
REMARK SMILES IDX 48 76 49 77 50 78 76 79 77 80 85 81 78 82 84 83 86 84 83 85
REMARK SMILES IDX 79 86 80 87 81 88 82 89 61 90 62 91 70 92 63 93 69 94 71 95
REMARK SMILES IDX 68 96 64 97 65 98 66 99 67 100
REMARK H PARENT 12 20 91 53 59 64
REMARK Flexibility Score: inf
ROOT
ATOM      1  C   UNL     1       0.329   4.312  -0.167  1.00  0.00     0.188 C 
ENDROOT
BRANCH   1   2
ATOM      2  O   UNL     1       1.178   5.198  -0.911  1.00  0.00    -0.376 OA
BRANCH   2   3
ATOM      3  C   UNL     1       1.392   4.892  -2.294  1.00  0.00     0.202 C 
BRANCH   3   4
ATOM      4  C   UNL     1       2.260   3.652  -2.512  1.00  0.00     0.261 C 
BRANCH   4   5
ATOM      5  O   UNL     1       1.437   2.506  -2.279  1.00  0.00    -0.459 OA
BRANCH   5   6
ATOM      6  C   UNL     1       1.981   1.312  -2.586  1.00  0.00     0.355 C 
ATOM      7  O   UNL     1       3.030   1.066  -3.136  1.00  0.00    -0.245 OA
BRANCH   6   8
ATOM      8  C   UNL     1       1.121   0.285  -1.890  1.00  0.00     0.161 C 
ATOM      9  C   UNL     1       1.658  -0.196  -0.577  1.00  0.00     0.079 C 
ATOM     10  N   UNL     1      -0.056  -0.088  -2.298  1.00  0.00    -0.084 NA
BRANCH  10  11
ATOM     11  O   UNL     1      -0.391   0.502  -3.532  1.00  0.00    -0.390 OA
BRANCH  11  12
ATOM     12  C   UNL     1      -1.360  -0.328  -4.194  1.00  0.00     0.302 C 
BRANCH  12  13
ATOM     13  C   UNL     1      -0.639  -1.375  -5.013  1.00  0.00     0.016 A 
ATOM     14  C   UNL     1      -0.088  -2.476  -4.323  1.00  0.00     0.009 A 
ATOM     15  C   UNL     1      -0.467  -1.278  -6.408  1.00  0.00     0.045 A 
ATOM     16  C   UNL     1       0.643  -3.455  -4.988  1.00  0.00     0.001 A 
ATOM     17  C   UNL     1       0.276  -2.279  -7.059  1.00  0.00     0.026 A 
ATOM     18  C   UNL     1       0.831  -3.353  -6.359  1.00  0.00     0.002 A 
BRANCH  15  19
ATOM     19  N   UNL     1      -1.045  -0.219  -7.141  1.00  0.00    -0.353 N 
ATOM     20  H   UNL     1      -1.215   0.600  -6.621  1.00  0.00     0.167 HD
BRANCH  19  21
ATOM     21  C   UNL     1      -1.421  -0.146  -8.507  1.00  0.00     0.076 A 
ATOM     22  C   UNL     1      -1.046   0.987  -9.263  1.00  0.00     0.066 A 
ATOM     23  C   UNL     1      -2.103  -1.173  -9.193  1.00  0.00     0.066 A 
ATOM     24  Cl  UNL     1      -0.240   2.325  -8.512  1.00  0.00    -0.082 Cl
ATOM     25  C   UNL     1      -1.304   1.075 -10.637  1.00  0.00     0.023 A 
ATOM     26  C   UNL     1      -2.354  -1.086 -10.571  1.00  0.00     0.023 A 
ATOM     27  Cl  UNL     1      -2.782  -2.549  -8.386  1.00  0.00    -0.082 Cl
ATOM     28  C   UNL     1      -1.948   0.031 -11.295  1.00  0.00     0.003 A 
ENDBRANCH  19  21
ENDBRANCH  15  19
ENDBRANCH  12  13
ENDBRANCH  11  12
ENDBRANCH  10  11
ENDBRANCH   6   8
ENDBRANCH   5   6
ENDBRANCH   4   5
ENDBRANCH   3   4
ENDBRANCH   2   3
ENDBRANCH   1   2
BRANCH   1  29
ATOM     29  C   UNL     1      -1.046   4.043  -0.789  1.00  0.00     0.188 C 
BRANCH  29  30
ATOM     30  O   UNL     1      -1.773   5.265  -0.961  1.00  0.00    -0.376 OA
BRANCH  30  31
ATOM     31  C   UNL     1      -3.012   5.326  -0.246  1.00  0.00     0.202 C 
BRANCH  31  32
ATOM     32  C   UNL     1      -2.865   6.078   1.083  1.00  0.00     0.261 C 
BRANCH  32  33
ATOM     33  O   UNL     1      -2.096   5.340   2.047  1.00  0.00    -0.460 OA
BRANCH  33  34
ATOM     34  C   UNL     1      -2.726   4.262   2.572  1.00  0.00     0.338 C 
ATOM     35  O   UNL     1      -3.855   3.887   2.300  1.00  0.00    -0.246 OA
BRANCH  34  36
ATOM     36  C   UNL     1      -1.810   3.523   3.468  1.00  0.00     0.060 A 
ATOM     37  C   UNL     1      -1.989   2.138   3.583  1.00  0.00     0.016 A 
ATOM     38  C   UNL     1      -0.835   4.177   4.232  1.00  0.00     0.016 A 
ATOM     39  C   UNL     1      -1.222   1.411   4.490  1.00  0.00     0.010 A 
ATOM     40  C   UNL     1      -0.076   3.450   5.152  1.00  0.00     0.010 A 
ATOM     41  C   UNL     1      -0.291   2.071   5.304  1.00  0.00    -0.014 A 
BRANCH  41  42
ATOM     42  C   UNL     1       0.331   1.341   6.428  1.00  0.00     0.031 A 
ATOM     43  C   UNL     1      -0.443   1.196   7.708  1.00  0.00     0.074 A 
ATOM     44  C   UNL     1       1.567   0.829   6.314  1.00  0.00     0.049 A 
ATOM     45  N   UNL     1      -0.142   0.526   8.788  1.00  0.00    -0.248 NA
ATOM     46  C   UNL     1      -1.730   1.908   7.775  1.00  0.00     0.031 C 
ATOM     47  C   UNL     1       2.427   0.942   5.136  1.00  0.00     0.029 A 
ATOM     48  N   UNL     1       2.317   0.120   7.213  1.00  0.00    -0.354 N 
ATOM     49  C   UNL     1      -1.218   0.698   9.649  1.00  0.00     0.074 A 
ATOM     50  C   UNL     1      -2.157   1.578   8.983  1.00  0.00     0.031 C 
ATOM     51  C   UNL     1       3.603   0.345   5.398  1.00  0.00     0.029 A 
ATOM     52  C   UNL     1       3.569  -0.202   6.752  1.00  0.00     0.049 A 
ATOM     53  H   UNL     1       1.990  -0.135   8.106  1.00  0.00     0.167 HD
ATOM     54  C   UNL     1      -1.416   0.163  10.879  1.00  0.00     0.034 A 
ATOM     55  C   UNL     1       4.570  -0.864   7.361  1.00  0.00     0.034 A 
ATOM     56  C   UNL     1      -0.450  -0.654  11.563  1.00  0.00     0.049 A 
ATOM     57  C   UNL     1       4.351  -1.417   8.743  1.00  0.00     0.074 A 
ATOM     58  C   UNL     1      -0.539  -1.250  12.809  1.00  0.00     0.029 A 
ATOM     59  N   UNL     1       0.806  -0.967  11.062  1.00  0.00    -0.354 N 
ATOM     60  N   UNL     1       3.298  -1.306   9.519  1.00  0.00    -0.248 NA
ATOM     61  C   UNL     1       5.450  -2.202   9.319  1.00  0.00     0.031 C 
ATOM     62  C   UNL     1       0.678  -1.893  13.074  1.00  0.00     0.029 A 
ATOM     63  C   UNL     1       1.511  -1.727  11.979  1.00  0.00     0.049 A 
ATOM     64  H   UNL     1       1.147  -0.688  10.181  1.00  0.00     0.167 HD
ATOM     65  C   UNL     1       3.603  -2.022  10.671  1.00  0.00     0.074 A 
ATOM     66  C   UNL     1       4.938  -2.559  10.488  1.00  0.00     0.031 C 
ATOM     67  C   UNL     1       2.847  -2.229  11.778  1.00  0.00     0.034 A 
BRANCH  54  68
ATOM     68  C   UNL     1      -2.722   0.492  11.546  1.00  0.00     0.023 A 
ATOM     69  C   UNL     1      -3.932  -0.035  11.058  1.00  0.00     0.031 A 
ATOM     70  C   UNL     1      -2.773   1.399  12.617  1.00  0.00     0.131 A 
ATOM     71  C   UNL     1      -5.150   0.401  11.598  1.00  0.00     0.055 A 
ATOM     72  C   UNL     1      -3.987   1.788  13.186  1.00  0.00     0.041 A 
ATOM     73  F   UNL     1      -1.648   1.948  13.101  1.00  0.00    -0.206 F 
ATOM     74  C   UNL     1      -5.185   1.299  12.668  1.00  0.00     0.022 A 
BRANCH  71  75
ATOM     75  S   UNL     1      -6.691  -0.131  10.800  1.00  0.00     0.124 S 
ATOM     76  O   UNL     1      -6.526   0.401   9.450  1.00  0.00    -0.237 OA
ATOM     77  O   UNL     1      -6.627  -1.583  10.926  1.00  0.00    -0.237 OA
ATOM     78  O   UNL     1      -7.730   0.519  11.596  1.00  0.00    -0.744 OA
ENDBRANCH  71  75
ENDBRANCH  54  68
BRANCH  55  79
ATOM     79  C   UNL     1       5.877  -1.032   6.680  1.00  0.00     0.023 A 
ATOM     80  C   UNL     1       6.251  -2.264   6.120  1.00  0.00     0.031 A 
ATOM     81  C   UNL     1       6.782   0.040   6.615  1.00  0.00     0.131 A 
ATOM     82  C   UNL     1       7.519  -2.406   5.537  1.00  0.00     0.055 A 
ATOM     83  C   UNL     1       8.036  -0.100   6.019  1.00  0.00     0.041 A 
ATOM     84  F   UNL     1       6.456   1.237   7.129  1.00  0.00    -0.206 F 
ATOM     85  C   UNL     1       8.412  -1.331   5.483  1.00  0.00     0.022 A 
BRANCH  82  86
ATOM     86  S   UNL     1       7.996  -4.032   4.876  1.00  0.00     0.124 S 
ATOM     87  O   UNL     1       7.891  -4.885   6.055  1.00  0.00    -0.237 OA
ATOM     88  O   UNL     1       6.989  -4.247   3.841  1.00  0.00    -0.237 OA
ATOM     89  O   UNL     1       9.354  -3.814   4.382  1.00  0.00    -0.744 OA
ENDBRANCH  82  86
ENDBRANCH  55  79
BRANCH  67  90
ATOM     90  C   UNL     1       3.453  -3.089  12.851  1.00  0.00     0.023 A 
ATOM     91  C   UNL     1       4.455  -2.594  13.703  1.00  0.00     0.031 A 
ATOM     92  C   UNL     1       3.032  -4.420  13.005  1.00  0.00     0.131 A 
ATOM     93  C   UNL     1       5.033  -3.439  14.661  1.00  0.00     0.055 A 
ATOM     94  C   UNL     1       3.590  -5.251  13.975  1.00  0.00     0.041 A 
ATOM     95  F   UNL     1       2.079  -4.933  12.209  1.00  0.00    -0.206 F 
ATOM     96  C   UNL     1       4.602  -4.763  14.804  1.00  0.00     0.022 A 
BRANCH  93  97
ATOM     97  S   UNL     1       6.399  -2.803  15.679  1.00  0.00     0.124 S 
ATOM     98  O   UNL     1       7.349  -2.336  14.674  1.00  0.00    -0.237 OA
ATOM     99  O   UNL     1       5.743  -1.762  16.465  1.00  0.00    -0.237 OA
ATOM    100  O   UNL     1       6.832  -3.973  16.441  1.00  0.00    -0.744 OA
ENDBRANCH  93  97
ENDBRANCH  67  90
ENDBRANCH  41  42
ENDBRANCH  34  36
ENDBRANCH  33  34
ENDBRANCH  32  33
ENDBRANCH  31  32
ENDBRANCH  30  31
ENDBRANCH  29  30
ENDBRANCH   1  29
TORSDOF 25
