REMARK SMILES CC[C@H]1CO[C@@H](C)CN1c1cccc(F)c1C(=O)OCCOCCOCCOC(=O)c1ccc(-c2c3nc(c(-c4cc(S(=O)(=O)[O-])ccc4F)c4ccc([nH]4)c(-c4cc(S(=O)(=O)[O-])ccc4F)c4nc(c(-c5cc(S(=O)(=O)[O-])ccc5F)c5ccc2[nH]5)C=C4)C=C3)cc1
REMARK SMILES IDX 24 1 23 2 22 3 21 4 20 5 19 6 17 7 18 8 16 9 10 10 11 11
REMARK SMILES IDX 12 12 14 13 13 14 15 15 9 16 3 17 4 18 5 19 8 20 6 21 7 22
REMARK SMILES IDX 2 23 1 24 25 25 26 26 27 27 28 28 29 29 30 30 31 31 32 32
REMARK SMILES IDX 93 33 33 34 92 35 34 36 35 37 36 38 86 39 37 40 91 41 85 42
REMARK SMILES IDX 87 43 38 44 90 45 84 46 83 47 39 49 71 50 51 51 70 52 52 53
REMARK SMILES IDX 55 54 69 55 88 56 53 57 54 58 68 60 89 61 56 62 40 63 41 64
REMARK SMILES IDX 49 65 42 66 48 67 50 68 47 69 43 70 44 71 45 72 46 73 72 74
REMARK SMILES IDX 73 75 81 76 74 77 80 78 82 79 79 80 75 81 76 82 77 83 78 84
REMARK SMILES IDX 57 85 58 86 66 87 59 88 65 89 67 90 64 91 60 92 61 93 62 94
REMARK SMILES IDX 63 95
REMARK H PARENT 87 48 55 59
REMARK Flexibility Score: inf
ROOT
ATOM      1  C   UNL     1       6.941   1.280   1.107  1.00  0.00     0.188 C 
ENDROOT
BRANCH   1   2
ATOM      2  C   UNL     1       6.274   2.466   0.395  1.00  0.00     0.188 C 
BRANCH   2   3
ATOM      3  O   UNL     1       6.985   3.693   0.583  1.00  0.00    -0.376 OA
BRANCH   3   4
ATOM      4  C   UNL     1       6.178   4.742   1.125  1.00  0.00     0.202 C 
BRANCH   4   5
ATOM      5  C   UNL     1       6.140   4.679   2.650  1.00  0.00     0.261 C 
BRANCH   5   6
ATOM      6  O   UNL     1       5.643   3.409   3.104  1.00  0.00    -0.460 OA
BRANCH   6   7
ATOM      7  C   UNL     1       4.357   3.328   3.524  1.00  0.00     0.343 C 
ATOM      8  O   UNL     1       3.547   4.238   3.537  1.00  0.00    -0.246 OA
BRANCH   7   9
ATOM      9  C   UNL     1       4.127   1.931   3.955  1.00  0.00     0.119 A 
ATOM     10  C   UNL     1       3.075   1.138   3.445  1.00  0.00     0.055 A 
ATOM     11  C   UNL     1       2.974  -0.185   3.917  1.00  0.00     0.027 A 
ATOM     12  C   UNL     1       3.864  -0.699   4.866  1.00  0.00     0.005 A 
ATOM     13  C   UNL     1       5.008   1.409   4.912  1.00  0.00     0.139 A 
ATOM     14  C   UNL     1       4.885   0.101   5.364  1.00  0.00     0.040 A 
ATOM     15  F   UNL     1       5.994   2.161   5.425  1.00  0.00    -0.206 F 
BRANCH  10  16
ATOM     16  N   UNL     1       2.203   1.602   2.463  1.00  0.00    -0.363 N 
ATOM     17  C   UNL     1       0.718   1.462   2.575  1.00  0.00     0.108 C 
ATOM     18  C   UNL     1       0.090   2.472   1.574  1.00  0.00     0.185 C 
ATOM     19  O   UNL     1       0.534   2.256   0.223  1.00  0.00    -0.375 OA
ATOM     20  C   UNL     1       2.634   1.299   1.081  1.00  0.00     0.148 C 
ATOM     21  C   UNL     1       1.962   2.267   0.085  1.00  0.00     0.134 C 
ATOM     22  C   UNL     1       2.496   3.690   0.137  1.00  0.00     0.040 C 
BRANCH  17  23
ATOM     23  C   UNL     1       0.168   1.696   3.991  1.00  0.00     0.024 C 
ATOM     24  C   UNL     1      -1.269   1.199   4.125  1.00  0.00     0.006 C 
ENDBRANCH  17  23
ENDBRANCH  10  16
ENDBRANCH   7   9
ENDBRANCH   6   7
ENDBRANCH   5   6
ENDBRANCH   4   5
ENDBRANCH   3   4
ENDBRANCH   2   3
ENDBRANCH   1   2
BRANCH   1  25
ATOM     25  O   UNL     1       8.290   0.934   0.793  1.00  0.00    -0.376 OA
BRANCH  25  26
ATOM     26  C   UNL     1       8.872   1.469  -0.383  1.00  0.00     0.202 C 
BRANCH  26  27
ATOM     27  C   UNL     1       8.575   0.708  -1.679  1.00  0.00     0.261 C 
BRANCH  27  28
ATOM     28  O   UNL     1       7.183   0.424  -1.894  1.00  0.00    -0.460 OA
BRANCH  28  29
ATOM     29  C   UNL     1       6.796  -0.811  -1.488  1.00  0.00     0.338 C 
ATOM     30  O   UNL     1       7.494  -1.655  -0.950  1.00  0.00    -0.246 OA
BRANCH  29  31
ATOM     31  C   UNL     1       5.346  -1.006  -1.714  1.00  0.00     0.060 A 
ATOM     32  C   UNL     1       4.616  -1.690  -0.733  1.00  0.00     0.016 A 
ATOM     33  C   UNL     1       4.730  -0.635  -2.914  1.00  0.00     0.016 A 
ATOM     34  C   UNL     1       3.288  -2.052  -0.970  1.00  0.00     0.010 A 
ATOM     35  C   UNL     1       3.402  -1.011  -3.155  1.00  0.00     0.010 A 
ATOM     36  C   UNL     1       2.686  -1.754  -2.200  1.00  0.00    -0.014 A 
BRANCH  36  37
ATOM     37  C   UNL     1       1.373  -2.361  -2.546  1.00  0.00     0.031 A 
ATOM     38  C   UNL     1       1.345  -3.693  -3.236  1.00  0.00     0.074 A 
ATOM     39  C   UNL     1       0.215  -1.751  -2.241  1.00  0.00     0.049 A 
ATOM     40  N   UNL     1       0.316  -4.386  -3.647  1.00  0.00    -0.248 NA
ATOM     41  C   UNL     1       2.647  -4.327  -3.494  1.00  0.00     0.031 C 
ATOM     42  C   UNL     1       0.110  -0.479  -1.546  1.00  0.00     0.029 A 
ATOM     43  N   UNL     1      -1.089  -2.107  -2.478  1.00  0.00    -0.354 N 
ATOM     44  C   UNL     1       0.841  -5.541  -4.210  1.00  0.00     0.074 A 
ATOM     45  C   UNL     1       2.282  -5.445  -4.105  1.00  0.00     0.031 C 
ATOM     46  C   UNL     1      -1.183  -0.144  -1.417  1.00  0.00     0.029 A 
ATOM     47  C   UNL     1      -2.003  -1.171  -2.051  1.00  0.00     0.049 A 
ATOM     48  H   UNL     1      -1.347  -2.953  -2.912  1.00  0.00     0.167 HD
ATOM     49  C   UNL     1       0.180  -6.585  -4.763  1.00  0.00     0.034 A 
ATOM     50  C   UNL     1      -3.344  -1.127  -2.179  1.00  0.00     0.034 A 
ATOM     51  C   UNL     1      -1.253  -6.664  -4.888  1.00  0.00     0.049 A 
ATOM     52  C   UNL     1      -4.051  -2.255  -2.879  1.00  0.00     0.074 A 
ATOM     53  C   UNL     1      -2.013  -7.694  -5.414  1.00  0.00     0.029 A 
ATOM     54  N   UNL     1      -2.142  -5.669  -4.505  1.00  0.00    -0.354 N 
ATOM     55  N   UNL     1      -3.541  -3.343  -3.407  1.00  0.00    -0.248 NA
ATOM     56  C   UNL     1      -5.511  -2.150  -3.007  1.00  0.00     0.031 C 
ATOM     57  C   UNL     1      -3.354  -7.295  -5.411  1.00  0.00     0.029 A 
ATOM     58  C   UNL     1      -3.439  -6.044  -4.820  1.00  0.00     0.049 A 
ATOM     59  H   UNL     1      -1.889  -4.822  -4.072  1.00  0.00     0.167 HD
ATOM     60  C   UNL     1      -4.618  -4.057  -3.921  1.00  0.00     0.074 A 
ATOM     61  C   UNL     1      -5.808  -3.281  -3.635  1.00  0.00     0.031 C 
ATOM     62  C   UNL     1      -4.618  -5.252  -4.561  1.00  0.00     0.034 A 
BRANCH  49  63
ATOM     63  C   UNL     1       1.014  -7.702  -5.326  1.00  0.00     0.023 A 
ATOM     64  C   UNL     1       1.741  -8.569  -4.493  1.00  0.00     0.031 A 
ATOM     65  C   UNL     1       1.090  -7.892  -6.716  1.00  0.00     0.131 A 
ATOM     66  C   UNL     1       2.551  -9.561  -5.063  1.00  0.00     0.055 A 
ATOM     67  C   UNL     1       1.851  -8.919  -7.274  1.00  0.00     0.041 A 
ATOM     68  F   UNL     1       0.432  -7.074  -7.553  1.00  0.00    -0.206 F 
ATOM     69  C   UNL     1       2.594  -9.756  -6.446  1.00  0.00     0.022 A 
BRANCH  66  70
ATOM     70  S   UNL     1       3.620 -10.542  -3.975  1.00  0.00     0.124 S 
ATOM     71  O   UNL     1       4.524  -9.521  -3.453  1.00  0.00    -0.237 OA
ATOM     72  O   UNL     1       2.671 -11.103  -3.020  1.00  0.00    -0.237 OA
ATOM     73  O   UNL     1       4.236 -11.508  -4.881  1.00  0.00    -0.744 OA
ENDBRANCH  66  70
ENDBRANCH  49  63
BRANCH  50  74
ATOM     74  C   UNL     1      -4.098   0.054  -1.681  1.00  0.00     0.023 A 
ATOM     75  C   UNL     1      -4.918  -0.030  -0.546  1.00  0.00     0.031 A 
ATOM     76  C   UNL     1      -4.000   1.292  -2.342  1.00  0.00     0.131 A 
ATOM     77  C   UNL     1      -5.624   1.103  -0.113  1.00  0.00     0.055 A 
ATOM     78  C   UNL     1      -4.680   2.423  -1.890  1.00  0.00     0.041 A 
ATOM     79  F   UNL     1      -3.224   1.419  -3.429  1.00  0.00    -0.206 F 
ATOM     80  C   UNL     1      -5.502   2.331  -0.771  1.00  0.00     0.022 A 
BRANCH  77  81
ATOM     81  S   UNL     1      -6.715   0.956   1.329  1.00  0.00     0.124 S 
ATOM     82  O   UNL     1      -7.767   0.085   0.818  1.00  0.00    -0.237 OA
ATOM     83  O   UNL     1      -5.825   0.370   2.327  1.00  0.00    -0.237 OA
ATOM     84  O   UNL     1      -7.117   2.335   1.594  1.00  0.00    -0.744 OA
ENDBRANCH  77  81
ENDBRANCH  50  74
BRANCH  62  85
ATOM     85  C   UNL     1      -5.949  -5.813  -4.987  1.00  0.00     0.023 A 
ATOM     86  C   UNL     1      -6.662  -5.272  -6.069  1.00  0.00     0.031 A 
ATOM     87  C   UNL     1      -6.484  -6.934  -4.327  1.00  0.00     0.131 A 
ATOM     88  C   UNL     1      -7.887  -5.843  -6.448  1.00  0.00     0.055 A 
ATOM     89  C   UNL     1      -7.680  -7.523  -4.737  1.00  0.00     0.041 A 
ATOM     90  F   UNL     1      -5.838  -7.487  -3.288  1.00  0.00    -0.206 F 
ATOM     91  C   UNL     1      -8.391  -6.975  -5.800  1.00  0.00     0.022 A 
BRANCH  88  92
ATOM     92  S   UNL     1      -8.834  -5.073  -7.791  1.00  0.00     0.124 S 
ATOM     93  O   UNL     1      -9.191  -3.784  -7.208  1.00  0.00    -0.237 OA
ATOM     94  O   UNL     1      -7.863  -5.033  -8.880  1.00  0.00    -0.237 OA
ATOM     95  O   UNL     1      -9.951  -5.994  -7.994  1.00  0.00    -0.744 OA
ENDBRANCH  88  92
ENDBRANCH  62  85
ENDBRANCH  36  37
ENDBRANCH  29  31
ENDBRANCH  28  29
ENDBRANCH  27  28
ENDBRANCH  26  27
ENDBRANCH  25  26
ENDBRANCH   1  25
TORSDOF 22
