REMARK SMILES NC(=O)[C@@H]1CCC[N@@H+]1[C@@H](C(=O)OCCOCCOCCOC(=O)c1ccc(-c2c3nc(c(-c4cc(S(=O)(=O)[O-])ccc4F)c4ccc([nH]4)c(-c4cc(S(=O)(=O)[O-])ccc4F)c4nc(c(-c5cc(S(=O)(=O)[O-])ccc5F)c5ccc2[nH]5)C=C4)C=C3)cc1)c1c[nH]c2cc(OCc3ccccc3)ccc12
REMARK SMILES IDX 16 1 15 2 14 3 13 4 12 5 10 6 11 7 9 8 8 9 4 10 5 11 6 12
REMARK SMILES IDX 7 13 2 15 1 16 3 19 87 20 88 21 103 22 89 23 90 24 102 25
REMARK SMILES IDX 91 27 101 28 92 29 93 30 94 31 95 32 96 33 100 34 97 35
REMARK SMILES IDX 99 36 98 37 17 38 18 39 19 40 20 41 21 42 22 43 23 44 24 45
REMARK SMILES IDX 25 46 86 47 26 48 85 49 27 50 28 51 29 52 79 53 30 54 84 55
REMARK SMILES IDX 78 56 80 57 31 58 83 59 77 60 76 61 32 63 64 64 44 65 63 66
REMARK SMILES IDX 45 67 48 68 62 69 81 70 46 71 47 72 61 74 82 75 49 76 33 77
REMARK SMILES IDX 34 78 42 79 35 80 41 81 43 82 40 83 36 84 37 85 38 86 39 87
REMARK SMILES IDX 65 88 66 89 74 90 67 91 73 92 75 93 72 94 68 95 69 96 70 97
REMARK SMILES IDX 71 98 50 99 51 100 59 101 52 102 58 103 60 104 57 105 53 106
REMARK SMILES IDX 54 107 55 108 56 109
REMARK H PARENT 8 14 1 17 1 18 89 26 80 62 48 73
REMARK Flexibility Score: inf
ROOT
ATOM      1  C   UNL     1      -2.867   2.897   5.071  1.00  0.00     0.188 C 
ENDROOT
BRANCH   1   2
ATOM      2  O   UNL     1      -3.865   1.889   5.022  1.00  0.00    -0.376 OA
BRANCH   2   3
ATOM      3  C   UNL     1      -3.449   0.624   4.538  1.00  0.00     0.202 C 
BRANCH   3   4
ATOM      4  C   UNL     1      -3.152   0.547   3.027  1.00  0.00     0.261 C 
BRANCH   4   5
ATOM      5  O   UNL     1      -2.017   1.342   2.584  1.00  0.00    -0.459 OA
BRANCH   5   6
ATOM      6  C   UNL     1      -2.279   2.536   1.978  1.00  0.00     0.370 C 
ATOM      7  O   UNL     1      -3.426   2.889   1.705  1.00  0.00    -0.245 OA
BRANCH   6   8
ATOM      8  C   UNL     1      -1.050   3.467   1.746  1.00  0.00     0.329 C 
BRANCH   8   9
ATOM      9  N   UNL     1       0.323   2.982   1.281  1.00  0.00    -0.309 N 
ATOM     10  C   UNL     1       0.640   1.566   1.027  1.00  0.00     0.275 C 
ATOM     11  C   UNL     1       1.192   1.024   2.341  1.00  0.00     0.081 C 
ATOM     12  C   UNL     1       1.861   2.237   2.951  1.00  0.00     0.068 C 
ATOM     13  C   UNL     1       1.574   3.336   1.959  1.00  0.00     0.264 C 
ATOM     14  H   UNL     1       0.089   3.540   0.460  1.00  0.00     0.349 HD
BRANCH  10  15
ATOM     15  C   UNL     1      -0.235   0.656   0.205  1.00  0.00     0.275 C 
ATOM     16  N   UNL     1       0.458  -0.453  -0.236  1.00  0.00    -0.365 N 
ATOM     17  H   UNL     1       0.004  -1.131  -0.786  1.00  0.00     0.159 HD
ATOM     18  H   UNL     1       1.407  -0.565  -0.000  1.00  0.00     0.159 HD
ATOM     19  O   UNL     1      -1.393   0.846  -0.132  1.00  0.00    -0.268 OA
ENDBRANCH  10  15
ENDBRANCH   8   9
BRANCH   8  20
ATOM     20  C   UNL     1      -1.143   4.907   2.472  1.00  0.00     0.046 A 
ATOM     21  C   UNL     1      -0.644   6.005   1.770  1.00  0.00     0.094 A 
ATOM     22  C   UNL     1      -0.806   5.404   3.801  1.00  0.00     0.009 A 
ATOM     23  N   UNL     1       0.706   6.118   2.084  1.00  0.00    -0.361 N 
ATOM     24  C   UNL     1       0.841   5.894   3.486  1.00  0.00     0.050 A 
ATOM     25  C   UNL     1      -1.510   5.756   5.443  1.00  0.00     0.015 A 
ATOM     26  H   UNL     1       1.435   6.317   1.453  1.00  0.00     0.166 HD
ATOM     27  C   UNL     1       1.924   6.588   4.802  1.00  0.00     0.073 A 
ATOM     28  C   UNL     1      -0.475   6.552   6.787  1.00  0.00     0.047 A 
ATOM     29  C   UNL     1       1.236   6.945   6.432  1.00  0.00     0.121 A 
BRANCH  29  30
ATOM     30  O   UNL     1       2.119   7.508   7.298  1.00  0.00    -0.489 OA
BRANCH  30  31
ATOM     31  C   UNL     1       1.556   8.243   8.378  1.00  0.00     0.265 C 
BRANCH  31  32
ATOM     32  C   UNL     1       1.636   9.730   8.132  1.00  0.00    -0.011 A 
ATOM     33  C   UNL     1       2.815  10.308   7.637  1.00  0.00     0.007 A 
ATOM     34  C   UNL     1       0.559  10.566   8.463  1.00  0.00     0.007 A 
ATOM     35  C   UNL     1       2.922  11.690   7.493  1.00  0.00     0.000 A 
ATOM     36  C   UNL     1       0.669  11.951   8.319  1.00  0.00     0.000 A 
ATOM     37  C   UNL     1       1.855  12.511   7.851  1.00  0.00     0.000 A 
ENDBRANCH  31  32
ENDBRANCH  30  31
ENDBRANCH  29  30
ENDBRANCH   8  20
ENDBRANCH   6   8
ENDBRANCH   5   6
ENDBRANCH   4   5
ENDBRANCH   3   4
ENDBRANCH   2   3
ENDBRANCH   1   2
BRANCH   1  38
ATOM     38  C   UNL     1      -1.405   2.449   5.111  1.00  0.00     0.188 C 
BRANCH  38  39
ATOM     39  O   UNL     1      -1.076   1.784   6.322  1.00  0.00    -0.376 OA
BRANCH  39  40
ATOM     40  C   UNL     1       0.278   2.054   6.685  1.00  0.00     0.202 C 
BRANCH  40  41
ATOM     41  C   UNL     1       0.383   3.410   7.364  1.00  0.00     0.261 C 
BRANCH  41  42
ATOM     42  O   UNL     1      -0.183   4.512   6.620  1.00  0.00    -0.460 OA
BRANCH  42  43
ATOM     43  C   UNL     1       0.472   5.302   5.476  1.00  0.00     0.338 C 
ATOM     44  O   UNL     1       1.391   4.490   5.161  1.00  0.00    -0.246 OA
BRANCH  43  45
ATOM     45  C   UNL     1      -0.149   7.253   4.830  1.00  0.00     0.060 A 
ATOM     46  C   UNL     1       0.483   8.208   3.803  1.00  0.00     0.016 A 
ATOM     47  C   UNL     1      -1.344   8.101   5.273  1.00  0.00     0.016 A 
ATOM     48  C   UNL     1      -0.083   9.259   3.108  1.00  0.00     0.010 A 
ATOM     49  C   UNL     1      -1.822   9.279   4.755  1.00  0.00     0.010 A 
ATOM     50  C   UNL     1      -1.232   9.768   3.619  1.00  0.00    -0.014 A 
BRANCH  50  51
ATOM     51  C   UNL     1      -1.732  11.021   3.149  1.00  0.00     0.031 A 
ATOM     52  C   UNL     1      -0.977  12.197   3.629  1.00  0.00     0.074 A 
ATOM     53  C   UNL     1      -2.930  10.935   2.565  1.00  0.00     0.049 A 
ATOM     54  N   UNL     1      -1.238  13.450   3.448  1.00  0.00    -0.248 NA
ATOM     55  C   UNL     1       0.238  11.935   4.432  1.00  0.00     0.031 C 
ATOM     56  C   UNL     1      -3.627   9.680   2.224  1.00  0.00     0.029 A 
ATOM     57  N   UNL     1      -3.813  11.905   2.262  1.00  0.00    -0.354 N 
ATOM     58  C   UNL     1      -0.215  14.124   4.094  1.00  0.00     0.074 A 
ATOM     59  C   UNL     1       0.677  13.156   4.663  1.00  0.00     0.031 C 
ATOM     60  C   UNL     1      -4.869   9.972   1.813  1.00  0.00     0.029 A 
ATOM     61  C   UNL     1      -5.020  11.416   1.837  1.00  0.00     0.049 A 
ATOM     62  H   UNL     1      -3.612  12.866   2.337  1.00  0.00     0.167 HD
ATOM     63  C   UNL     1      -0.094  15.460   4.207  1.00  0.00     0.034 A 
ATOM     64  C   UNL     1      -6.103  12.126   1.500  1.00  0.00     0.034 A 
ATOM     65  C   UNL     1      -1.139  16.308   3.704  1.00  0.00     0.049 A 
ATOM     66  C   UNL     1      -5.910  13.616   1.554  1.00  0.00     0.074 A 
ATOM     67  C   UNL     1      -1.218  17.680   3.672  1.00  0.00     0.029 A 
ATOM     68  N   UNL     1      -2.331  15.816   3.156  1.00  0.00    -0.354 N 
ATOM     69  N   UNL     1      -4.890  14.292   2.053  1.00  0.00    -0.248 NA
ATOM     70  C   UNL     1      -6.954  14.436   0.956  1.00  0.00     0.031 C 
ATOM     71  C   UNL     1      -2.477  18.013   3.155  1.00  0.00     0.029 A 
ATOM     72  C   UNL     1      -3.156  16.854   2.788  1.00  0.00     0.049 A 
ATOM     73  H   UNL     1      -2.548  14.861   3.049  1.00  0.00     0.167 HD
ATOM     74  C   UNL     1      -5.150  15.627   1.798  1.00  0.00     0.074 A 
ATOM     75  C   UNL     1      -6.421  15.644   1.081  1.00  0.00     0.031 C 
ATOM     76  C   UNL     1      -4.435  16.741   2.115  1.00  0.00     0.034 A 
BRANCH  63  77
ATOM     77  C   UNL     1       1.110  15.979   4.950  1.00  0.00     0.023 A 
ATOM     78  C   UNL     1       2.421  15.637   4.557  1.00  0.00     0.031 A 
ATOM     79  C   UNL     1       0.959  16.721   6.132  1.00  0.00     0.131 A 
ATOM     80  C   UNL     1       3.513  15.960   5.377  1.00  0.00     0.055 A 
ATOM     81  C   UNL     1       2.059  17.123   6.894  1.00  0.00     0.041 A 
ATOM     82  F   UNL     1      -0.262  17.024   6.598  1.00  0.00    -0.206 F 
ATOM     83  C   UNL     1       3.344  16.732   6.526  1.00  0.00     0.022 A 
BRANCH  80  84
ATOM     84  S   UNL     1       5.130  15.219   5.010  1.00  0.00     0.124 S 
ATOM     85  O   UNL     1       4.852  13.796   5.197  1.00  0.00    -0.237 OA
ATOM     86  O   UNL     1       5.373  15.646   3.637  1.00  0.00    -0.237 OA
ATOM     87  O   UNL     1       6.013  15.809   6.013  1.00  0.00    -0.744 OA
ENDBRANCH  80  84
ENDBRANCH  63  77
BRANCH  64  88
ATOM     88  C   UNL     1      -7.305  11.440   0.973  1.00  0.00     0.023 A 
ATOM     89  C   UNL     1      -7.652  11.569  -0.378  1.00  0.00     0.031 A 
ATOM     90  C   UNL     1      -8.083  10.587   1.776  1.00  0.00     0.131 A 
ATOM     91  C   UNL     1      -8.782  10.908  -0.878  1.00  0.00     0.055 A 
ATOM     92  C   UNL     1      -9.179   9.889   1.262  1.00  0.00     0.041 A 
ATOM     93  F   UNL     1      -7.766  10.391   3.066  1.00  0.00    -0.206 F 
ATOM     94  C   UNL     1      -9.543  10.061  -0.070  1.00  0.00     0.022 A 
BRANCH  91  95
ATOM     95  S   UNL     1      -9.290  11.252  -2.583  1.00  0.00     0.124 S 
ATOM     96  O   UNL     1      -9.350  12.710  -2.587  1.00  0.00    -0.237 OA
ATOM     97  O   UNL     1      -8.203  10.654  -3.350  1.00  0.00    -0.237 OA
ATOM     98  O   UNL     1     -10.580  10.575  -2.695  1.00  0.00    -0.744 OA
ENDBRANCH  91  95
ENDBRANCH  64  88
BRANCH  76  99
ATOM     99  C   UNL     1      -5.059  18.032   1.689  1.00  0.00     0.023 A 
ATOM    100  C   UNL     1      -6.261  18.464   2.265  1.00  0.00     0.031 A 
ATOM    101  C   UNL     1      -4.444  18.831   0.713  1.00  0.00     0.131 A 
ATOM    102  C   UNL     1      -6.860  19.633   1.798  1.00  0.00     0.055 A 
ATOM    103  C   UNL     1      -4.999  20.043   0.320  1.00  0.00     0.041 A 
ATOM    104  F   UNL     1      -3.289  18.449   0.142  1.00  0.00    -0.206 F 
ATOM    105  C   UNL     1      -6.225  20.440   0.850  1.00  0.00     0.022 A 
BRANCH 102 106
ATOM    106  S   UNL     1      -8.539  20.003   2.357  1.00  0.00     0.124 S 
ATOM    107  O   UNL     1      -9.270  18.821   1.910  1.00  0.00    -0.237 OA
ATOM    108  O   UNL     1      -8.366  20.137   3.800  1.00  0.00    -0.237 OA
ATOM    109  O   UNL     1      -8.865  21.240   1.651  1.00  0.00    -0.744 OA
ENDBRANCH 102 106
ENDBRANCH  76  99
ENDBRANCH  50  51
ENDBRANCH  43  45
ENDBRANCH  42  43
ENDBRANCH  41  42
ENDBRANCH  40  41
ENDBRANCH  39  40
ENDBRANCH  38  39
ENDBRANCH   1  38
TORSDOF 26
