REMARK SMILES O=C(OCCOCCOCCOC(=O)[C@@H]1CC=CC[C@@H]1C(=O)Nc1sc2c(c1C(=O)N1CCCCC1)CCCC2)c1ccc(-c2c3nc(c(-c4cc(S(=O)(=O)[O-])ccc4F)c4ccc([nH]4)c(-c4cc(S(=O)(=O)[O-])ccc4F)c4nc(c(-c5cc(S(=O)(=O)[O-])ccc5F)c5ccc2[nH]5)C=C4)C=C3)cc1
REMARK SMILES IDX 7 1 6 2 5 3 4 4 3 5 2 6 1 7 41 8 42 9 103 10 43 11 102 12
REMARK SMILES IDX 44 13 45 14 46 15 96 16 47 17 101 18 95 19 97 20 48 21
REMARK SMILES IDX 100 22 94 23 93 24 49 26 81 27 61 28 80 29 62 30 65 31 79 32
REMARK SMILES IDX 98 33 63 34 64 35 78 37 99 38 66 39 50 40 51 41 59 42 52 43
REMARK SMILES IDX 58 44 60 45 57 46 53 47 54 48 55 49 56 50 82 51 83 52 91 53
REMARK SMILES IDX 84 54 90 55 92 56 89 57 85 58 86 59 87 60 88 61 67 62 68 63
REMARK SMILES IDX 76 64 69 65 75 66 77 67 74 68 70 69 71 70 72 71 73 72 8 73
REMARK SMILES IDX 9 74 10 75 11 76 12 77 13 78 14 79 15 80 16 81 20 82 17 83
REMARK SMILES IDX 19 84 18 85 21 86 22 87 23 88 24 90 25 91 28 92 26 93 27 94
REMARK SMILES IDX 40 95 37 96 39 97 38 98 29 99 30 100 31 101 32 102 36 103
REMARK SMILES IDX 33 104 35 105 34 106
REMARK H PARENT 97 25 65 36 23 89
REMARK Flexibility Score: inf
ROOT
ATOM      1  C   UNL     1       6.788   1.874   3.563  1.00  0.00     0.188 C 
ENDROOT
BRANCH   1   2
ATOM      2  O   UNL     1       6.078   1.105   2.585  1.00  0.00    -0.376 OA
BRANCH   2   3
ATOM      3  C   UNL     1       6.915   0.232   1.822  1.00  0.00     0.202 C 
BRANCH   3   4
ATOM      4  C   UNL     1       7.550   0.885   0.588  1.00  0.00     0.261 C 
BRANCH   4   5
ATOM      5  O   UNL     1       7.819   2.280   0.798  1.00  0.00    -0.460 OA
BRANCH   5   6
ATOM      6  C   UNL     1       7.039   3.331   0.436  1.00  0.00     0.338 C 
ATOM      7  O   UNL     1       7.427   4.470   0.690  1.00  0.00    -0.246 OA
BRANCH   6   8
ATOM      8  C   UNL     1       5.760   3.176  -0.323  1.00  0.00     0.060 A 
ATOM      9  C   UNL     1       4.850   2.129  -0.158  1.00  0.00     0.016 A 
ATOM     10  C   UNL     1       5.433   4.196  -1.230  1.00  0.00     0.016 A 
ATOM     11  C   UNL     1       3.724   2.013  -0.975  1.00  0.00     0.010 A 
ATOM     12  C   UNL     1       4.269   4.121  -2.003  1.00  0.00     0.010 A 
ATOM     13  C   UNL     1       3.437   2.996  -1.921  1.00  0.00    -0.014 A 
BRANCH  13  14
ATOM     14  C   UNL     1       2.352   2.776  -2.909  1.00  0.00     0.031 A 
ATOM     15  C   UNL     1       2.734   2.486  -4.337  1.00  0.00     0.074 A 
ATOM     16  C   UNL     1       1.059   2.799  -2.533  1.00  0.00     0.049 A 
ATOM     17  N   UNL     1       1.972   2.294  -5.382  1.00  0.00    -0.248 NA
ATOM     18  C   UNL     1       4.176   2.396  -4.622  1.00  0.00     0.031 C 
ATOM     19  C   UNL     1       0.576   2.992  -1.165  1.00  0.00     0.029 A 
ATOM     20  N   UNL     1      -0.090   2.665  -3.269  1.00  0.00    -0.354 N 
ATOM     21  C   UNL     1       2.839   2.087  -6.450  1.00  0.00     0.074 A 
ATOM     22  C   UNL     1       4.184   2.207  -5.931  1.00  0.00     0.031 C 
ATOM     23  C   UNL     1      -0.769   2.989  -1.164  1.00  0.00     0.029 A 
ATOM     24  C   UNL     1      -1.244   2.832  -2.534  1.00  0.00     0.049 A 
ATOM     25  H   UNL     1      -0.091   2.468  -4.233  1.00  0.00     0.167 HD
ATOM     26  C   UNL     1       2.542   1.811  -7.744  1.00  0.00     0.034 A 
ATOM     27  C   UNL     1      -2.527   2.877  -2.944  1.00  0.00     0.034 A 
ATOM     28  C   UNL     1       1.197   1.675  -8.240  1.00  0.00     0.049 A 
ATOM     29  C   UNL     1      -2.803   2.674  -4.418  1.00  0.00     0.074 A 
ATOM     30  C   UNL     1       0.770   1.373  -9.521  1.00  0.00     0.029 A 
ATOM     31  N   UNL     1       0.055   1.845  -7.469  1.00  0.00    -0.354 N 
ATOM     32  N   UNL     1      -1.979   2.332  -5.382  1.00  0.00    -0.248 NA
ATOM     33  C   UNL     1      -4.197   2.833  -4.845  1.00  0.00     0.031 C 
ATOM     34  C   UNL     1      -0.630   1.417  -9.537  1.00  0.00     0.029 A 
ATOM     35  C   UNL     1      -1.075   1.703  -8.256  1.00  0.00     0.049 A 
ATOM     36  H   UNL     1       0.050   2.039  -6.504  1.00  0.00     0.167 HD
ATOM     37  C   UNL     1      -2.778   2.156  -6.508  1.00  0.00     0.074 A 
ATOM     38  C   UNL     1      -4.144   2.381  -6.085  1.00  0.00     0.031 C 
ATOM     39  C   UNL     1      -2.427   1.861  -7.787  1.00  0.00     0.034 A 
BRANCH  26  40
ATOM     40  C   UNL     1       3.697   1.708  -8.705  1.00  0.00     0.023 A 
ATOM     41  C   UNL     1       4.650   0.678  -8.613  1.00  0.00     0.031 A 
ATOM     42  C   UNL     1       3.886   2.697  -9.686  1.00  0.00     0.131 A 
ATOM     43  C   UNL     1       5.789   0.706  -9.431  1.00  0.00     0.055 A 
ATOM     44  C   UNL     1       4.983   2.676 -10.549  1.00  0.00     0.041 A 
ATOM     45  F   UNL     1       3.021   3.716  -9.802  1.00  0.00    -0.206 F 
ATOM     46  C   UNL     1       5.952   1.686 -10.414  1.00  0.00     0.022 A 
BRANCH  43  47
ATOM     47  S   UNL     1       7.128  -0.471  -9.092  1.00  0.00     0.124 S 
ATOM     48  O   UNL     1       7.494  -0.115  -7.723  1.00  0.00    -0.237 OA
ATOM     49  O   UNL     1       6.466  -1.760  -9.260  1.00  0.00    -0.237 OA
ATOM     50  O   UNL     1       8.132  -0.149 -10.103  1.00  0.00    -0.744 OA
ENDBRANCH  43  47
ENDBRANCH  26  40
BRANCH  27  51
ATOM     51  C   UNL     1      -3.672   3.143  -2.018  1.00  0.00     0.023 A 
ATOM     52  C   UNL     1      -4.764   2.256  -1.965  1.00  0.00     0.031 A 
ATOM     53  C   UNL     1      -3.777   4.348  -1.303  1.00  0.00     0.131 A 
ATOM     54  C   UNL     1      -5.941   2.623  -1.300  1.00  0.00     0.055 A 
ATOM     55  C   UNL     1      -4.929   4.684  -0.588  1.00  0.00     0.041 A 
ATOM     56  F   UNL     1      -2.771   5.236  -1.310  1.00  0.00    -0.206 F 
ATOM     57  C   UNL     1      -6.028   3.831  -0.605  1.00  0.00     0.022 A 
BRANCH  54  58
ATOM     58  S   UNL     1      -7.383   1.523  -1.318  1.00  0.00     0.124 S 
ATOM     59  O   UNL     1      -8.178   2.094  -2.396  1.00  0.00    -0.237 OA
ATOM     60  O   UNL     1      -6.795   0.213  -1.578  1.00  0.00    -0.237 OA
ATOM     61  O   UNL     1      -7.922   1.700   0.031  1.00  0.00    -0.744 OA
ENDBRANCH  54  58
ENDBRANCH  27  51
BRANCH  39  62
ATOM     62  C   UNL     1      -3.564   1.676  -8.758  1.00  0.00     0.023 A 
ATOM     63  C   UNL     1      -4.428   2.738  -9.075  1.00  0.00     0.031 A 
ATOM     64  C   UNL     1      -3.854   0.404  -9.280  1.00  0.00     0.131 A 
ATOM     65  C   UNL     1      -5.609   2.485  -9.783  1.00  0.00     0.055 A 
ATOM     66  C   UNL     1      -4.987   0.177 -10.063  1.00  0.00     0.041 A 
ATOM     67  F   UNL     1      -3.058  -0.643  -9.013  1.00  0.00    -0.206 F 
ATOM     68  C   UNL     1      -5.887   1.215 -10.295  1.00  0.00     0.022 A 
BRANCH  65  69
ATOM     69  S   UNL     1      -6.850   3.803  -9.876  1.00  0.00     0.124 S 
ATOM     70  O   UNL     1      -7.177   4.003  -8.469  1.00  0.00    -0.237 OA
ATOM     71  O   UNL     1      -6.109   4.885 -10.517  1.00  0.00    -0.237 OA
ATOM     72  O   UNL     1      -7.914   3.214 -10.688  1.00  0.00    -0.744 OA
ENDBRANCH  65  69
ENDBRANCH  39  62
ENDBRANCH  13  14
ENDBRANCH   6   8
ENDBRANCH   5   6
ENDBRANCH   4   5
ENDBRANCH   3   4
ENDBRANCH   2   3
ENDBRANCH   1   2
BRANCH   1  73
ATOM     73  C   UNL     1       5.910   2.160   4.784  1.00  0.00     0.188 C 
BRANCH  73  74
ATOM     74  O   UNL     1       5.573   1.030   5.590  1.00  0.00    -0.376 OA
BRANCH  74  75
ATOM     75  C   UNL     1       4.870  -0.040   4.962  1.00  0.00     0.202 C 
BRANCH  75  76
ATOM     76  C   UNL     1       3.397   0.191   4.591  1.00  0.00     0.261 C 
BRANCH  76  77
ATOM     77  O   UNL     1       3.156   1.308   3.719  1.00  0.00    -0.463 OA
BRANCH  77  78
ATOM     78  C   UNL     1       2.610   2.402   4.327  1.00  0.00     0.310 C 
ATOM     79  O   UNL     1       2.400   2.479   5.531  1.00  0.00    -0.252 OA
BRANCH  78  80
ATOM     80  C   UNL     1       2.327   3.511   3.324  1.00  0.00     0.116 C 
ATOM     81  C   UNL     1       3.112   4.779   3.682  1.00  0.00     0.043 C 
ATOM     82  C   UNL     1       0.814   3.739   3.202  1.00  0.00     0.097 C 
ATOM     83  C   UNL     1       2.577   6.029   3.046  1.00  0.00    -0.030 C 
ATOM     84  C   UNL     1       0.461   4.932   2.297  1.00  0.00     0.041 C 
ATOM     85  C   UNL     1       1.396   6.095   2.416  1.00  0.00    -0.030 C 
BRANCH  82  86
ATOM     86  C   UNL     1       0.117   3.948   4.554  1.00  0.00     0.229 C 
ATOM     87  O   UNL     1       0.599   4.706   5.404  1.00  0.00    -0.274 OA
ATOM     88  N   UNL     1      -1.143   3.474   4.780  1.00  0.00    -0.317 N 
ATOM     89  H   UNL     1      -1.561   3.784   5.616  1.00  0.00     0.170 HD
BRANCH  88  90
ATOM     90  C   UNL     1      -1.921   2.626   4.019  1.00  0.00     0.108 A 
ATOM     91  S   UNL     1      -1.234   1.192   3.437  1.00  0.00    -0.122 S 
ATOM     92  C   UNL     1      -3.292   2.740   3.775  1.00  0.00     0.078 A 
ATOM     93  C   UNL     1      -2.594   0.888   2.488  1.00  0.00     0.011 A 
ATOM     94  C   UNL     1      -3.682   1.677   2.845  1.00  0.00    -0.019 A 
ATOM     95  C   UNL     1      -2.564  -0.179   1.432  1.00  0.00     0.047 C 
ATOM     96  C   UNL     1      -5.016   1.404   2.202  1.00  0.00     0.037 C 
ATOM     97  C   UNL     1      -3.805  -0.083   0.549  1.00  0.00     0.006 C 
ATOM     98  C   UNL     1      -5.048   0.087   1.414  1.00  0.00     0.005 C 
BRANCH  92  99
ATOM     99  C   UNL     1      -4.006   3.918   4.343  1.00  0.00     0.257 C 
ATOM    100  O   UNL     1      -3.463   4.627   5.199  1.00  0.00    -0.269 OA
ATOM    101  N   UNL     1      -5.214   4.333   3.803  1.00  0.00    -0.339 N 
ATOM    102  C   UNL     1      -5.387   5.755   3.518  1.00  0.00     0.120 C 
ATOM    103  C   UNL     1      -6.431   3.552   3.954  1.00  0.00     0.120 C 
ATOM    104  C   UNL     1      -6.363   6.428   4.480  1.00  0.00     0.022 C 
ATOM    105  C   UNL     1      -7.455   4.221   4.872  1.00  0.00     0.022 C 
ATOM    106  C   UNL     1      -7.690   5.678   4.493  1.00  0.00     0.004 C 
ENDBRANCH  92  99
ENDBRANCH  88  90
ENDBRANCH  82  86
ENDBRANCH  78  80
ENDBRANCH  77  78
ENDBRANCH  76  77
ENDBRANCH  75  76
ENDBRANCH  74  75
ENDBRANCH  73  74
ENDBRANCH   1  73
TORSDOF 23
