REMARK SMILES CCCCCCO[C@H](F)C(=O)OCCOCCOCCOC(=O)c1ccc(-c2c3nc(c(-c4cc(S(=O)(=O)[O-])ccc4F)c4ccc([nH]4)c(-c4cc(S(=O)(=O)[O-])ccc4F)c4nc(c(-c5cc(S(=O)(=O)[O-])ccc5F)c5ccc2[nH]5)C=C4)C=C3)cc1
REMARK SMILES IDX 15 1 14 2 13 3 12 4 10 5 11 6 8 7 9 8 7 9 6 10 5 11 4 12
REMARK SMILES IDX 3 13 2 14 1 15 16 16 17 17 18 18 19 19 20 20 21 21 22 22
REMARK SMILES IDX 23 23 24 24 25 25 86 26 26 27 85 28 27 29 28 30 29 31 79 32
REMARK SMILES IDX 30 33 84 34 78 35 80 36 31 37 83 38 77 39 76 40 32 42 64 43
REMARK SMILES IDX 44 44 63 45 45 46 48 47 62 48 81 49 46 50 47 51 61 53 82 54
REMARK SMILES IDX 49 55 33 56 34 57 42 58 35 59 41 60 43 61 40 62 36 63 37 64
REMARK SMILES IDX 38 65 39 66 65 67 66 68 74 69 67 70 73 71 75 72 72 73 68 74
REMARK SMILES IDX 69 75 70 76 71 77 50 78 51 79 59 80 52 81 58 82 60 83 57 84
REMARK SMILES IDX 53 85 54 86 55 87 56 88
REMARK H PARENT 80 41 48 52
REMARK Flexibility Score: inf
ROOT
ATOM      1  O   UNL     1       1.330  -1.186   5.433  1.00  0.00    -0.376 OA
ENDROOT
BRANCH   1   2
ATOM      2  C   UNL     1       1.619  -0.471   4.238  1.00  0.00     0.202 C 
BRANCH   2   3
ATOM      3  C   UNL     1       2.253  -1.259   3.090  1.00  0.00     0.261 C 
BRANCH   3   4
ATOM      4  O   UNL     1       1.427  -2.339   2.617  1.00  0.00    -0.459 OA
BRANCH   4   5
ATOM      5  C   UNL     1       1.991  -3.583   2.543  1.00  0.00     0.368 C 
ATOM      6  O   UNL     1       3.146  -3.830   2.873  1.00  0.00    -0.246 OA
BRANCH   5   7
ATOM      7  C   UNL     1       1.025  -4.626   1.928  1.00  0.00     0.408 C 
ATOM      8  F   UNL     1      -0.291  -4.267   1.983  1.00  0.00    -0.203 F 
BRANCH   7   9
ATOM      9  O   UNL     1       1.313  -5.000   0.587  1.00  0.00    -0.340 OA
BRANCH   9  10
ATOM     10  C   UNL     1       0.619  -4.252  -0.410  1.00  0.00     0.164 C 
BRANCH  10  11
ATOM     11  C   UNL     1       0.978  -2.765  -0.451  1.00  0.00     0.029 C 
BRANCH  11  12
ATOM     12  C   UNL     1       2.486  -2.498  -0.374  1.00  0.00     0.002 C 
BRANCH  12  13
ATOM     13  C   UNL     1       3.197  -2.468  -1.719  1.00  0.00    -0.000 C 
BRANCH  13  14
ATOM     14  C   UNL     1       2.858  -1.256  -2.586  1.00  0.00    -0.003 C 
ATOM     15  C   UNL     1       3.135   0.077  -1.903  1.00  0.00     0.004 C 
ENDBRANCH  13  14
ENDBRANCH  12  13
ENDBRANCH  11  12
ENDBRANCH  10  11
ENDBRANCH   9  10
ENDBRANCH   7   9
ENDBRANCH   5   7
ENDBRANCH   4   5
ENDBRANCH   3   4
ENDBRANCH   2   3
ENDBRANCH   1   2
BRANCH   1  16
ATOM     16  C   UNL     1       0.558  -2.379   5.342  1.00  0.00     0.188 C 
BRANCH  16  17
ATOM     17  C   UNL     1      -0.741  -2.364   4.510  1.00  0.00     0.188 C 
BRANCH  17  18
ATOM     18  O   UNL     1      -1.113  -1.084   4.027  1.00  0.00    -0.376 OA
BRANCH  18  19
ATOM     19  C   UNL     1      -2.300  -0.545   4.590  1.00  0.00     0.202 C 
BRANCH  19  20
ATOM     20  C   UNL     1      -2.208  -0.174   6.079  1.00  0.00     0.261 C 
BRANCH  20  21
ATOM     21  O   UNL     1      -1.799  -1.236   6.962  1.00  0.00    -0.460 OA
BRANCH  21  22
ATOM     22  C   UNL     1      -2.658  -2.270   7.125  1.00  0.00     0.338 C 
ATOM     23  O   UNL     1      -3.775  -2.358   6.644  1.00  0.00    -0.246 OA
BRANCH  22  24
ATOM     24  C   UNL     1      -1.922  -3.389   7.770  1.00  0.00     0.060 A 
ATOM     25  C   UNL     1      -1.932  -4.644   7.145  1.00  0.00     0.016 A 
ATOM     26  C   UNL     1      -1.186  -3.202   8.945  1.00  0.00     0.016 A 
ATOM     27  C   UNL     1      -1.244  -5.720   7.714  1.00  0.00     0.010 A 
ATOM     28  C   UNL     1      -0.511  -4.287   9.523  1.00  0.00     0.010 A 
ATOM     29  C   UNL     1      -0.567  -5.562   8.931  1.00  0.00    -0.014 A 
BRANCH  29  30
ATOM     30  C   UNL     1      -0.128  -6.774   9.678  1.00  0.00     0.031 A 
ATOM     31  C   UNL     1      -1.049  -7.323  10.738  1.00  0.00     0.074 A 
ATOM     32  C   UNL     1       1.019  -7.418   9.390  1.00  0.00     0.049 A 
ATOM     33  N   UNL     1      -0.923  -8.390  11.485  1.00  0.00    -0.248 NA
ATOM     34  C   UNL     1      -2.281  -6.559  10.985  1.00  0.00     0.031 C 
ATOM     35  C   UNL     1       1.984  -7.014   8.369  1.00  0.00     0.029 A 
ATOM     36  N   UNL     1       1.562  -8.560   9.930  1.00  0.00    -0.354 N 
ATOM     37  C   UNL     1      -2.062  -8.431  12.283  1.00  0.00     0.074 A 
ATOM     38  C   UNL     1      -2.840  -7.252  11.964  1.00  0.00     0.031 C 
ATOM     39  C   UNL     1       2.999  -7.897   8.356  1.00  0.00     0.029 A 
ATOM     40  C   UNL     1       2.772  -8.916   9.381  1.00  0.00     0.049 A 
ATOM     41  H   UNL     1       1.124  -9.076  10.645  1.00  0.00     0.167 HD
ATOM     42  C   UNL     1      -2.438  -9.369  13.187  1.00  0.00     0.034 A 
ATOM     43  C   UNL     1       3.603  -9.938   9.677  1.00  0.00     0.034 A 
ATOM     44  C   UNL     1      -1.647 -10.529  13.519  1.00  0.00     0.049 A 
ATOM     45  C   UNL     1       3.202 -10.931  10.746  1.00  0.00     0.074 A 
ATOM     46  C   UNL     1      -1.936 -11.540  14.420  1.00  0.00     0.029 A 
ATOM     47  N   UNL     1      -0.404 -10.828  12.976  1.00  0.00    -0.354 N 
ATOM     48  N   UNL     1       2.110 -10.969  11.477  1.00  0.00    -0.248 NA
ATOM     49  C   UNL     1       4.140 -12.029  11.016  1.00  0.00     0.031 C 
ATOM     50  C   UNL     1      -0.838 -12.405  14.477  1.00  0.00     0.029 A 
ATOM     51  C   UNL     1       0.100 -11.988  13.546  1.00  0.00     0.049 A 
ATOM     52  H   UNL     1       0.054 -10.293  12.288  1.00  0.00     0.167 HD
ATOM     53  C   UNL     1       2.217 -12.117  12.261  1.00  0.00     0.074 A 
ATOM     54  C   UNL     1       3.469 -12.749  11.901  1.00  0.00     0.031 C 
ATOM     55  C   UNL     1       1.355 -12.609  13.191  1.00  0.00     0.034 A 
BRANCH  42  56
ATOM     56  C   UNL     1      -3.743  -9.141  13.914  1.00  0.00     0.023 A 
ATOM     57  C   UNL     1      -4.974  -9.108  13.234  1.00  0.00     0.031 A 
ATOM     58  C   UNL     1      -3.752  -8.913  15.301  1.00  0.00     0.131 A 
ATOM     59  C   UNL     1      -6.149  -8.780  13.928  1.00  0.00     0.055 A 
ATOM     60  C   UNL     1      -4.936  -8.670  16.000  1.00  0.00     0.041 A 
ATOM     61  F   UNL     1      -2.606  -8.905  16.000  1.00  0.00    -0.206 F 
ATOM     62  C   UNL     1      -6.142  -8.587  15.311  1.00  0.00     0.022 A 
BRANCH  59  63
ATOM     63  S   UNL     1      -7.659  -8.459  12.975  1.00  0.00     0.124 S 
ATOM     64  O   UNL     1      -7.231  -7.369  12.101  1.00  0.00    -0.237 OA
ATOM     65  O   UNL     1      -7.901  -9.742  12.325  1.00  0.00    -0.237 OA
ATOM     66  O   UNL     1      -8.635  -8.082  13.996  1.00  0.00    -0.744 OA
ENDBRANCH  59  63
ENDBRANCH  42  56
BRANCH  43  67
ATOM     67  C   UNL     1       4.917 -10.080   8.979  1.00  0.00     0.023 A 
ATOM     68  C   UNL     1       5.212 -11.207   8.193  1.00  0.00     0.031 A 
ATOM     69  C   UNL     1       5.929  -9.120   9.154  1.00  0.00     0.131 A 
ATOM     70  C   UNL     1       6.500 -11.371   7.656  1.00  0.00     0.055 A 
ATOM     71  C   UNL     1       7.190  -9.259   8.570  1.00  0.00     0.041 A 
ATOM     72  F   UNL     1       5.706  -8.027   9.901  1.00  0.00    -0.206 F 
ATOM     73  C   UNL     1       7.486 -10.397   7.828  1.00  0.00     0.022 A 
BRANCH  70  74
ATOM     74  S   UNL     1       6.901 -12.924   6.806  1.00  0.00     0.124 S 
ATOM     75  O   UNL     1       6.648 -13.909   7.852  1.00  0.00    -0.237 OA
ATOM     76  O   UNL     1       5.957 -12.913   5.694  1.00  0.00    -0.237 OA
ATOM     77  O   UNL     1       8.304 -12.756   6.432  1.00  0.00    -0.744 OA
ENDBRANCH  70  74
ENDBRANCH  43  67
BRANCH  55  78
ATOM     78  C   UNL     1       1.716 -13.927  13.840  1.00  0.00     0.023 A 
ATOM     79  C   UNL     1       2.861 -14.075  14.645  1.00  0.00     0.031 A 
ATOM     80  C   UNL     1       0.917 -15.065  13.623  1.00  0.00     0.131 A 
ATOM     81  C   UNL     1       3.215 -15.342  15.135  1.00  0.00     0.055 A 
ATOM     82  C   UNL     1       1.234 -16.307  14.174  1.00  0.00     0.041 A 
ATOM     83  F   UNL     1      -0.188 -14.989  12.863  1.00  0.00    -0.206 F 
ATOM     84  C   UNL     1       2.400 -16.455  14.919  1.00  0.00     0.022 A 
BRANCH  81  85
ATOM     85  S   UNL     1       4.824 -15.542  15.950  1.00  0.00     0.124 S 
ATOM     86  O   UNL     1       5.742 -15.027  14.940  1.00  0.00    -0.237 OA
ATOM     87  O   UNL     1       4.670 -14.724  17.149  1.00  0.00    -0.237 OA
ATOM     88  O   UNL     1       4.910 -16.982  16.189  1.00  0.00    -0.744 OA
ENDBRANCH  81  85
ENDBRANCH  55  78
ENDBRANCH  29  30
ENDBRANCH  22  24
ENDBRANCH  21  22
ENDBRANCH  20  21
ENDBRANCH  19  20
ENDBRANCH  18  19
ENDBRANCH  17  18
ENDBRANCH  16  17
ENDBRANCH   1  16
TORSDOF 26
