REMARK SMILES O=C(NCc1ccc(C(=O)OCCOCCOCCOC(=O)c2ccc(-c3c4nc(c(-c5cc(S(=O)(=O)[O-])ccc5F)c5ccc([nH]5)c(-c5cc(S(=O)(=O)[O-])ccc5F)c5nc(c(-c6cc(S(=O)(=O)[O-])ccc6F)c6ccc3[nH]6)C=C5)C=C4)cc2)o1)Nc1ccc(F)c(Cl)c1
REMARK SMILES IDX 15 1 14 2 13 3 12 4 11 5 9 6 10 7 8 8 5 9 6 10 86 11 7 12
REMARK SMILES IDX 4 13 3 14 1 15 2 16 87 17 88 20 89 21 95 22 90 23 93 24
REMARK SMILES IDX 91 25 94 26 92 27 16 28 17 29 18 30 19 31 20 32 21 33 22 34
REMARK SMILES IDX 23 35 24 36 85 37 25 38 84 39 26 40 27 41 28 42 78 43 29 44
REMARK SMILES IDX 83 45 77 46 79 47 30 48 82 49 76 50 75 51 31 53 63 54 43 55
REMARK SMILES IDX 62 56 44 57 47 58 61 59 80 60 45 61 46 62 60 64 81 65 48 66
REMARK SMILES IDX 32 67 33 68 41 69 34 70 40 71 42 72 39 73 35 74 36 75 37 76
REMARK SMILES IDX 38 77 64 78 65 79 73 80 66 81 72 82 74 83 71 84 67 85 68 86
REMARK SMILES IDX 69 87 70 88 49 89 50 90 58 91 51 92 57 93 59 94 56 95 52 96
REMARK SMILES IDX 53 97 54 98 55 99
REMARK H PARENT 3 18 87 19 79 52 47 63
REMARK Flexibility Score: inf
ROOT
ATOM      1  C   UNL     1       8.407   4.300  -2.740  1.00  0.00     0.188 C 
ENDROOT
BRANCH   1   2
ATOM      2  O   UNL     1       8.609   4.917  -4.007  1.00  0.00    -0.376 OA
BRANCH   2   3
ATOM      3  C   UNL     1       7.852   6.068  -4.356  1.00  0.00     0.202 C 
BRANCH   3   4
ATOM      4  C   UNL     1       6.338   5.886  -4.474  1.00  0.00     0.261 C 
BRANCH   4   5
ATOM      5  O   UNL     1       5.734   5.582  -3.206  1.00  0.00    -0.457 OA
BRANCH   5   6
ATOM      6  C   UNL     1       4.976   4.446  -3.172  1.00  0.00     0.374 C 
ATOM      7  O   UNL     1       4.648   3.800  -4.159  1.00  0.00    -0.242 OA
BRANCH   6   8
ATOM      8  C   UNL     1       4.725   4.073  -1.800  1.00  0.00     0.211 A 
ATOM      9  C   UNL     1       4.468   2.603  -0.173  1.00  0.00     0.124 A 
ATOM     10  C   UNL     1       4.481   3.845   0.427  1.00  0.00     0.048 A 
ATOM     11  O   UNL     1       4.595   2.739  -1.521  1.00  0.00    -0.452 OA
ATOM     12  C   UNL     1       4.646   4.790  -0.617  1.00  0.00     0.058 A 
BRANCH   9  13
ATOM     13  C   UNL     1       4.325   1.213   0.336  1.00  0.00     0.193 C 
BRANCH  13  14
ATOM     14  N   UNL     1       2.918   0.982   0.571  1.00  0.00    -0.331 N 
ATOM     15  O   UNL     1       0.880   0.272   0.097  1.00  0.00    -0.248 OA
ATOM     16  C   UNL     1       2.089   0.070   0.004  1.00  0.00     0.319 C 
ATOM     17  N   UNL     1       2.677  -1.011  -0.589  1.00  0.00    -0.308 N 
ATOM     18  H   UNL     1       2.501   1.573   1.240  1.00  0.00     0.165 HD
ATOM     19  H   UNL     1       3.633  -1.161  -0.404  1.00  0.00     0.171 HD
BRANCH  17  20
ATOM     20  C   UNL     1       2.032  -1.932  -1.442  1.00  0.00     0.044 A 
ATOM     21  C   UNL     1       2.621  -3.190  -1.630  1.00  0.00     0.029 A 
ATOM     22  C   UNL     1       0.852  -1.620  -2.125  1.00  0.00     0.049 A 
ATOM     23  C   UNL     1       2.008  -4.142  -2.451  1.00  0.00     0.043 A 
ATOM     24  C   UNL     1       0.249  -2.568  -2.954  1.00  0.00     0.078 A 
ATOM     25  C   UNL     1       0.819  -3.829  -3.101  1.00  0.00     0.141 A 
ATOM     26  Cl  UNL     1      -1.202  -2.155  -3.790  1.00  0.00    -0.081 Cl
ATOM     27  F   UNL     1       0.226  -4.758  -3.864  1.00  0.00    -0.205 F 
ENDBRANCH  17  20
ENDBRANCH  13  14
ENDBRANCH   9  13
ENDBRANCH   6   8
ENDBRANCH   5   6
ENDBRANCH   4   5
ENDBRANCH   3   4
ENDBRANCH   2   3
ENDBRANCH   1   2
BRANCH   1  28
ATOM     28  C   UNL     1       8.309   5.184  -1.482  1.00  0.00     0.188 C 
BRANCH  28  29
ATOM     29  O   UNL     1       8.812   6.502  -1.650  1.00  0.00    -0.376 OA
BRANCH  29  30
ATOM     30  C   UNL     1       9.963   6.822  -0.880  1.00  0.00     0.202 C 
BRANCH  30  31
ATOM     31  C   UNL     1      11.257   6.283  -1.496  1.00  0.00     0.261 C 
BRANCH  31  32
ATOM     32  O   UNL     1      11.346   4.850  -1.544  1.00  0.00    -0.460 OA
BRANCH  32  33
ATOM     33  C   UNL     1      11.364   4.201  -0.358  1.00  0.00     0.338 C 
ATOM     34  O   UNL     1      11.302   4.698   0.751  1.00  0.00    -0.246 OA
BRANCH  33  35
ATOM     35  C   UNL     1      11.309   2.753  -0.636  1.00  0.00     0.060 A 
ATOM     36  C   UNL     1      10.309   1.984  -0.029  1.00  0.00     0.016 A 
ATOM     37  C   UNL     1      12.245   2.161  -1.488  1.00  0.00     0.016 A 
ATOM     38  C   UNL     1      10.258   0.607  -0.262  1.00  0.00     0.010 A 
ATOM     39  C   UNL     1      12.200   0.784  -1.708  1.00  0.00     0.010 A 
ATOM     40  C   UNL     1      11.220  -0.003  -1.079  1.00  0.00    -0.014 A 
BRANCH  40  41
ATOM     41  C   UNL     1      11.309  -1.481  -1.159  1.00  0.00     0.031 A 
ATOM     42  C   UNL     1      12.257  -2.196  -0.236  1.00  0.00     0.074 A 
ATOM     43  C   UNL     1      10.578  -2.175  -2.049  1.00  0.00     0.049 A 
ATOM     44  N   UNL     1      12.545  -3.469  -0.164  1.00  0.00    -0.248 NA
ATOM     45  C   UNL     1      12.978  -1.355   0.730  1.00  0.00     0.031 C 
ATOM     46  C   UNL     1       9.610  -1.599  -2.981  1.00  0.00     0.029 A 
ATOM     47  N   UNL     1      10.552  -3.519  -2.323  1.00  0.00    -0.354 N 
ATOM     48  C   UNL     1      13.478  -3.586   0.861  1.00  0.00     0.074 A 
ATOM     49  C   UNL     1      13.732  -2.248   1.353  1.00  0.00     0.031 C 
ATOM     50  C   UNL     1       9.098  -2.585  -3.740  1.00  0.00     0.029 A 
ATOM     51  C   UNL     1       9.724  -3.853  -3.368  1.00  0.00     0.049 A 
ATOM     52  H   UNL     1      11.078  -4.182  -1.819  1.00  0.00     0.167 HD
ATOM     53  C   UNL     1      14.064  -4.705   1.351  1.00  0.00     0.034 A 
ATOM     54  C   UNL     1       9.516  -5.042  -3.969  1.00  0.00     0.034 A 
ATOM     55  C   UNL     1      13.832  -6.030   0.833  1.00  0.00     0.049 A 
ATOM     56  C   UNL     1      10.247  -6.265  -3.466  1.00  0.00     0.074 A 
ATOM     57  C   UNL     1      14.371  -7.232   1.260  1.00  0.00     0.029 A 
ATOM     58  N   UNL     1      13.008  -6.327  -0.245  1.00  0.00    -0.354 N 
ATOM     59  N   UNL     1      11.107  -6.366  -2.479  1.00  0.00    -0.248 NA
ATOM     60  C   UNL     1       9.971  -7.533  -4.155  1.00  0.00     0.031 C 
ATOM     61  C   UNL     1      13.920  -8.244   0.405  1.00  0.00     0.029 A 
ATOM     62  C   UNL     1      13.046  -7.686  -0.514  1.00  0.00     0.049 A 
ATOM     63  H   UNL     1      12.474  -5.668  -0.745  1.00  0.00     0.167 HD
ATOM     64  C   UNL     1      11.447  -7.716  -2.410  1.00  0.00     0.074 A 
ATOM     65  C   UNL     1      10.697  -8.388  -3.450  1.00  0.00     0.031 C 
ATOM     66  C   UNL     1      12.296  -8.344  -1.558  1.00  0.00     0.034 A 
BRANCH  53  67
ATOM     67  C   UNL     1      15.050  -4.522   2.477  1.00  0.00     0.023 A 
ATOM     68  C   UNL     1      14.645  -4.049   3.737  1.00  0.00     0.031 A 
ATOM     69  C   UNL     1      16.417  -4.777   2.274  1.00  0.00     0.131 A 
ATOM     70  C   UNL     1      15.605  -3.776   4.723  1.00  0.00     0.055 A 
ATOM     71  C   UNL     1      17.359  -4.574   3.284  1.00  0.00     0.041 A 
ATOM     72  F   UNL     1      16.863  -5.207   1.083  1.00  0.00    -0.206 F 
ATOM     73  C   UNL     1      16.957  -4.056   4.513  1.00  0.00     0.022 A 
BRANCH  70  74
ATOM     74  S   UNL     1      15.077  -2.916   6.230  1.00  0.00     0.124 S 
ATOM     75  O   UNL     1      14.514  -1.683   5.685  1.00  0.00    -0.237 OA
ATOM     76  O   UNL     1      14.121  -3.853   6.809  1.00  0.00    -0.237 OA
ATOM     77  O   UNL     1      16.319  -2.747   6.981  1.00  0.00    -0.744 OA
ENDBRANCH  70  74
ENDBRANCH  53  67
BRANCH  54  78
ATOM     78  C   UNL     1       8.599  -5.146  -5.138  1.00  0.00     0.023 A 
ATOM     79  C   UNL     1       7.409  -5.883  -5.056  1.00  0.00     0.031 A 
ATOM     80  C   UNL     1       8.930  -4.557  -6.371  1.00  0.00     0.131 A 
ATOM     81  C   UNL     1       6.612  -6.052  -6.198  1.00  0.00     0.055 A 
ATOM     82  C   UNL     1       8.111  -4.690  -7.493  1.00  0.00     0.041 A 
ATOM     83  F   UNL     1      10.058  -3.840  -6.499  1.00  0.00    -0.206 F 
ATOM     84  C   UNL     1       6.949  -5.452  -7.413  1.00  0.00     0.022 A 
BRANCH  81  85
ATOM     85  S   UNL     1       5.157  -7.128  -6.081  1.00  0.00     0.124 S 
ATOM     86  O   UNL     1       5.764  -8.407  -5.731  1.00  0.00    -0.237 OA
ATOM     87  O   UNL     1       4.385  -6.476  -5.026  1.00  0.00    -0.237 OA
ATOM     88  O   UNL     1       4.574  -7.056  -7.418  1.00  0.00    -0.744 OA
ENDBRANCH  81  85
ENDBRANCH  54  78
BRANCH  66  89
ATOM     89  C   UNL     1      12.412  -9.843  -1.680  1.00  0.00     0.023 A 
ATOM     90  C   UNL     1      13.030 -10.454  -2.785  1.00  0.00     0.031 A 
ATOM     91  C   UNL     1      11.893 -10.671  -0.668  1.00  0.00     0.131 A 
ATOM     92  C   UNL     1      13.073 -11.854  -2.874  1.00  0.00     0.055 A 
ATOM     93  C   UNL     1      11.984 -12.062  -0.738  1.00  0.00     0.041 A 
ATOM     94  F   UNL     1      11.293 -10.139   0.409  1.00  0.00    -0.206 F 
ATOM     95  C   UNL     1      12.567 -12.661  -1.851  1.00  0.00     0.022 A 
BRANCH  92  96
ATOM     96  S   UNL     1      13.739 -12.613  -4.381  1.00  0.00     0.124 S 
ATOM     97  O   UNL     1      12.854 -12.075  -5.409  1.00  0.00    -0.237 OA
ATOM     98  O   UNL     1      15.112 -12.119  -4.399  1.00  0.00    -0.237 OA
ATOM     99  O   UNL     1      13.601 -14.047  -4.133  1.00  0.00    -0.744 OA
ENDBRANCH  92  96
ENDBRANCH  66  89
ENDBRANCH  40  41
ENDBRANCH  33  35
ENDBRANCH  32  33
ENDBRANCH  31  32
ENDBRANCH  30  31
ENDBRANCH  29  30
ENDBRANCH  28  29
ENDBRANCH   1  28
TORSDOF 23
