REMARK SMILES COc1cc(/C=C/C(=O)OCCOCCOCCOC(=O)c2ccc(-c3c4nc(c(-c5cc(S(=O)(=O)[O-])ccc5F)c5ccc([nH]5)c(-c5cc(S(=O)(=O)[O-])ccc5F)c5nc(c(-c6cc(S(=O)(=O)[O-])ccc6F)c6ccc3[nH]6)C=C5)C=C4)cc2)cc(OC)c1O
REMARK SMILES IDX 15 1 14 2 13 3 12 4 11 5 10 6 8 7 9 8 7 9 6 10 5 11 3 12
REMARK SMILES IDX 4 13 89 14 86 15 85 16 2 17 1 18 90 19 87 21 88 22 16 23
REMARK SMILES IDX 17 24 18 25 19 26 20 27 21 28 22 29 23 30 84 31 24 32 83 33
REMARK SMILES IDX 25 34 26 35 27 36 77 37 28 38 82 39 76 40 78 41 29 42 81 43
REMARK SMILES IDX 75 44 74 45 30 47 62 48 42 49 61 50 43 51 46 52 60 53 79 54
REMARK SMILES IDX 44 55 45 56 59 58 80 59 47 60 31 61 32 62 40 63 33 64 39 65
REMARK SMILES IDX 41 66 38 67 34 68 35 69 36 70 37 71 63 72 64 73 72 74 65 75
REMARK SMILES IDX 71 76 73 77 70 78 66 79 67 80 68 81 69 82 48 83 49 84 57 85
REMARK SMILES IDX 50 86 56 87 58 88 55 89 51 90 52 91 53 92 54 93
REMARK H PARENT 90 20 78 46 46 57
REMARK Flexibility Score: inf
ROOT
ATOM      1  C   UNL     1       1.301  -4.292   7.143  1.00  0.00     0.188 C 
ENDROOT
BRANCH   1   2
ATOM      2  C   UNL     1       0.067  -3.698   7.854  1.00  0.00     0.188 C 
BRANCH   2   3
ATOM      3  O   UNL     1      -0.578  -4.436   8.883  1.00  0.00    -0.376 OA
BRANCH   3   4
ATOM      4  C   UNL     1      -0.945  -5.790   8.661  1.00  0.00     0.202 C 
BRANCH   4   5
ATOM      5  C   UNL     1      -1.662  -6.218   7.370  1.00  0.00     0.261 C 
BRANCH   5   6
ATOM      6  O   UNL     1      -1.118  -5.692   6.149  1.00  0.00    -0.460 OA
BRANCH   6   7
ATOM      7  C   UNL     1      -1.958  -4.901   5.437  1.00  0.00     0.330 C 
ATOM      8  O   UNL     1      -3.120  -4.647   5.717  1.00  0.00    -0.247 OA
BRANCH   7   9
ATOM      9  C   UNL     1      -1.300  -4.253   4.283  1.00  0.00     0.094 C 
ATOM     10  C   UNL     1      -0.187  -4.671   3.659  1.00  0.00     0.016 C 
BRANCH  10  11
ATOM     11  C   UNL     1       0.371  -3.974   2.485  1.00  0.00    -0.018 A 
ATOM     12  C   UNL     1       0.854  -1.935   1.216  1.00  0.00     0.165 A 
ATOM     13  C   UNL     1       0.348  -2.580   2.356  1.00  0.00     0.058 A 
ATOM     14  C   UNL     1       1.426  -2.704   0.191  1.00  0.00     0.200 A 
ATOM     15  C   UNL     1       1.483  -4.103   0.310  1.00  0.00     0.165 A 
ATOM     16  C   UNL     1       0.969  -4.717   1.464  1.00  0.00     0.058 A 
BRANCH  12  17
ATOM     17  O   UNL     1       0.751  -0.573   1.297  1.00  0.00    -0.493 OA
ATOM     18  C   UNL     1       0.780   0.214   0.115  1.00  0.00     0.278 C 
ENDBRANCH  12  17
BRANCH  14  19
ATOM     19  O   UNL     1       1.993  -2.097  -0.895  1.00  0.00    -0.502 OA
ATOM     20  H   UNL     1       1.959  -1.165  -0.982  1.00  0.00     0.293 HD
ENDBRANCH  14  19
BRANCH  15  21
ATOM     21  O   UNL     1       2.032  -5.009  -0.561  1.00  0.00    -0.493 OA
ATOM     22  C   UNL     1       2.442  -4.559  -1.844  1.00  0.00     0.278 C 
ENDBRANCH  15  21
ENDBRANCH  10  11
ENDBRANCH   7   9
ENDBRANCH   6   7
ENDBRANCH   5   6
ENDBRANCH   4   5
ENDBRANCH   3   4
ENDBRANCH   2   3
ENDBRANCH   1   2
BRANCH   1  23
ATOM     23  O   UNL     1       1.586  -5.631   7.476  1.00  0.00    -0.376 OA
BRANCH  23  24
ATOM     24  C   UNL     1       2.548  -5.923   8.475  1.00  0.00     0.202 C 
BRANCH  24  25
ATOM     25  C   UNL     1       2.968  -4.980   9.622  1.00  0.00     0.261 C 
BRANCH  25  26
ATOM     26  O   UNL     1       2.554  -3.614   9.577  1.00  0.00    -0.460 OA
BRANCH  26  27
ATOM     27  C   UNL     1       3.447  -2.732   9.077  1.00  0.00     0.338 C 
ATOM     28  O   UNL     1       4.542  -2.991   8.587  1.00  0.00    -0.246 OA
BRANCH  27  29
ATOM     29  C   UNL     1       2.824  -1.399   9.063  1.00  0.00     0.060 A 
ATOM     30  C   UNL     1       2.510  -0.807   7.833  1.00  0.00     0.016 A 
ATOM     31  C   UNL     1       2.562  -0.730  10.261  1.00  0.00     0.016 A 
ATOM     32  C   UNL     1       1.944   0.468   7.798  1.00  0.00     0.010 A 
ATOM     33  C   UNL     1       2.012   0.555  10.222  1.00  0.00     0.010 A 
ATOM     34  C   UNL     1       1.721   1.170   8.991  1.00  0.00    -0.014 A 
BRANCH  34  35
ATOM     35  C   UNL     1       1.335   2.603   8.951  1.00  0.00     0.031 A 
ATOM     36  C   UNL     1       2.406   3.641   9.138  1.00  0.00     0.074 A 
ATOM     37  C   UNL     1       0.058   2.974   8.747  1.00  0.00     0.049 A 
ATOM     38  N   UNL     1       2.300   4.942   9.216  1.00  0.00    -0.248 NA
ATOM     39  C   UNL     1       3.783   3.139   9.259  1.00  0.00     0.031 C 
ATOM     40  C   UNL     1      -1.058   2.062   8.506  1.00  0.00     0.029 A 
ATOM     41  N   UNL     1      -0.515   4.222   8.721  1.00  0.00    -0.354 N 
ATOM     42  C   UNL     1       3.595   5.416   9.401  1.00  0.00     0.074 A 
ATOM     43  C   UNL     1       4.462   4.258   9.460  1.00  0.00     0.031 C 
ATOM     44  C   UNL     1      -2.186   2.781   8.370  1.00  0.00     0.029 A 
ATOM     45  C   UNL     1      -1.881   4.198   8.557  1.00  0.00     0.049 A 
ATOM     46  H   UNL     1       0.002   5.054   8.812  1.00  0.00     0.167 HD
ATOM     47  C   UNL     1       4.021   6.699   9.504  1.00  0.00     0.034 A 
ATOM     48  C   UNL     1      -2.782   5.203   8.588  1.00  0.00     0.034 A 
ATOM     49  C   UNL     1       3.140   7.841   9.462  1.00  0.00     0.049 A 
ATOM     50  C   UNL     1      -2.296   6.618   8.805  1.00  0.00     0.074 A 
ATOM     51  C   UNL     1       3.466   9.184   9.547  1.00  0.00     0.029 A 
ATOM     52  N   UNL     1       1.758   7.777   9.341  1.00  0.00    -0.354 N 
ATOM     53  N   UNL     1      -1.069   7.056   8.971  1.00  0.00    -0.248 NA
ATOM     54  C   UNL     1      -3.317   7.674   8.834  1.00  0.00     0.031 C 
ATOM     55  C   UNL     1       2.279   9.924   9.557  1.00  0.00     0.029 A 
ATOM     56  C   UNL     1       1.215   9.053   9.386  1.00  0.00     0.049 A 
ATOM     57  H   UNL     1       1.238   6.947   9.238  1.00  0.00     0.167 HD
ATOM     58  C   UNL     1      -1.171   8.442   9.084  1.00  0.00     0.074 A 
ATOM     59  C   UNL     1      -2.577   8.765   8.959  1.00  0.00     0.031 C 
ATOM     60  C   UNL     1      -0.191   9.364   9.265  1.00  0.00     0.034 A 
BRANCH  47  61
ATOM     61  C   UNL     1       5.496   6.923   9.731  1.00  0.00     0.023 A 
ATOM     62  C   UNL     1       6.459   6.548   8.777  1.00  0.00     0.031 A 
ATOM     63  C   UNL     1       5.950   7.495  10.933  1.00  0.00     0.131 A 
ATOM     64  C   UNL     1       7.824   6.681   9.070  1.00  0.00     0.055 A 
ATOM     65  C   UNL     1       7.308   7.701  11.184  1.00  0.00     0.041 A 
ATOM     66  F   UNL     1       5.081   7.850  11.892  1.00  0.00    -0.206 F 
ATOM     67  C   UNL     1       8.255   7.280  10.256  1.00  0.00     0.022 A 
BRANCH  64  68
ATOM     68  S   UNL     1       9.030   5.928   7.944  1.00  0.00     0.124 S 
ATOM     69  O   UNL     1       8.612   4.529   7.955  1.00  0.00    -0.237 OA
ATOM     70  O   UNL     1       8.798   6.655   6.701  1.00  0.00    -0.237 OA
ATOM     71  O   UNL     1      10.315   6.192   8.590  1.00  0.00    -0.744 OA
ENDBRANCH  64  68
ENDBRANCH  47  61
BRANCH  48  72
ATOM     72  C   UNL     1      -4.240   4.917   8.454  1.00  0.00     0.023 A 
ATOM     73  C   UNL     1      -4.989   5.435   7.386  1.00  0.00     0.031 A 
ATOM     74  C   UNL     1      -4.922   4.171   9.434  1.00  0.00     0.131 A 
ATOM     75  C   UNL     1      -6.380   5.244   7.347  1.00  0.00     0.055 A 
ATOM     76  C   UNL     1      -6.295   3.934   9.360  1.00  0.00     0.041 A 
ATOM     77  F   UNL     1      -4.257   3.659  10.482  1.00  0.00    -0.206 F 
ATOM     78  C   UNL     1      -7.035   4.484   8.318  1.00  0.00     0.022 A 
BRANCH  75  79
ATOM     79  S   UNL     1      -7.336   6.088   6.057  1.00  0.00     0.124 S 
ATOM     80  O   UNL     1      -7.005   7.485   6.309  1.00  0.00    -0.237 OA
ATOM     81  O   UNL     1      -6.782   5.506   4.839  1.00  0.00    -0.237 OA
ATOM     82  O   UNL     1      -8.716   5.709   6.354  1.00  0.00    -0.744 OA
ENDBRANCH  75  79
ENDBRANCH  48  72
BRANCH  60  83
ATOM     83  C   UNL     1      -0.600  10.819   9.277  1.00  0.00     0.023 A 
ATOM     84  C   UNL     1      -1.398  11.363  10.298  1.00  0.00     0.031 A 
ATOM     85  C   UNL     1      -0.176  11.676   8.245  1.00  0.00     0.131 A 
ATOM     86  C   UNL     1      -1.790  12.710  10.237  1.00  0.00     0.055 A 
ATOM     87  C   UNL     1      -0.516  13.030   8.223  1.00  0.00     0.041 A 
ATOM     88  F   UNL     1       0.586  11.213   7.241  1.00  0.00    -0.206 F 
ATOM     89  C   UNL     1      -1.339  13.551   9.217  1.00  0.00     0.022 A 
BRANCH  86  90
ATOM     90  S   UNL     1      -2.974  13.332  11.463  1.00  0.00     0.124 S 
ATOM     91  O   UNL     1      -4.117  12.449  11.257  1.00  0.00    -0.237 OA
ATOM     92  O   UNL     1      -2.249  13.154  12.717  1.00  0.00    -0.237 OA
ATOM     93  O   UNL     1      -3.185  14.722  11.062  1.00  0.00    -0.744 OA
ENDBRANCH  86  90
ENDBRANCH  60  83
ENDBRANCH  34  35
ENDBRANCH  27  29
ENDBRANCH  26  27
ENDBRANCH  25  26
ENDBRANCH  24  25
ENDBRANCH  23  24
ENDBRANCH   1  23
TORSDOF 24
