REMARK SMILES CCC1CN(c2cc(F)ccc2C(=O)OCCOCCOCCOC(=O)c2ccc(-c3c4nc(c(-c5cc(S(=O)(=O)[O-])ccc5F)c5ccc([nH]5)c(-c5cc(S(=O)(=O)[O-])ccc5F)c5nc(c(-c6cc(S(=O)(=O)[O-])ccc6F)c6ccc3[nH]6)C=C5)C=C4)cc2)C1
REMARK SMILES IDX 20 1 19 2 18 3 17 4 16 5 15 6 13 7 14 8 12 9 6 10 7 11 8 12
REMARK SMILES IDX 11 13 9 14 10 15 5 16 3 17 4 18 90 19 2 20 1 21 21 22 22 23
REMARK SMILES IDX 23 24 24 25 25 26 26 27 27 28 28 29 89 30 29 31 88 32 30 33
REMARK SMILES IDX 31 34 32 35 82 36 33 37 87 38 81 39 83 40 34 41 86 42 80 43
REMARK SMILES IDX 79 44 35 46 67 47 47 48 66 49 48 50 51 51 65 52 84 53 49 54
REMARK SMILES IDX 50 55 64 57 85 58 52 59 36 60 37 61 45 62 38 63 44 64 46 65
REMARK SMILES IDX 43 66 39 67 40 68 41 69 42 70 68 71 69 72 77 73 70 74 76 75
REMARK SMILES IDX 78 76 75 77 71 78 72 79 73 80 74 81 53 82 54 83 62 84 55 85
REMARK SMILES IDX 61 86 63 87 60 88 56 89 57 90 58 91 59 92
REMARK H PARENT 83 45 51 56
REMARK Flexibility Score: inf
ROOT
ATOM      1  C   UNL     1      -2.851  -4.541   3.787  1.00  0.00     0.188 C 
ENDROOT
BRANCH   1   2
ATOM      2  C   UNL     1      -3.803  -3.896   4.821  1.00  0.00     0.188 C 
BRANCH   2   3
ATOM      3  O   UNL     1      -4.854  -3.050   4.360  1.00  0.00    -0.376 OA
BRANCH   3   4
ATOM      4  C   UNL     1      -4.537  -1.973   3.482  1.00  0.00     0.202 C 
BRANCH   4   5
ATOM      5  C   UNL     1      -3.351  -1.055   3.818  1.00  0.00     0.261 C 
BRANCH   5   6
ATOM      6  O   UNL     1      -2.133  -1.767   4.085  1.00  0.00    -0.460 OA
BRANCH   6   7
ATOM      7  C   UNL     1      -1.439  -1.407   5.192  1.00  0.00     0.340 C 
ATOM      8  O   UNL     1      -1.707  -0.484   5.944  1.00  0.00    -0.246 OA
BRANCH   7   9
ATOM      9  C   UNL     1      -0.410  -2.431   5.502  1.00  0.00     0.083 A 
ATOM     10  C   UNL     1       0.541  -2.907   4.577  1.00  0.00     0.054 A 
ATOM     11  C   UNL     1       1.397  -3.942   5.002  1.00  0.00     0.066 A 
ATOM     12  C   UNL     1       1.311  -4.477   6.284  1.00  0.00     0.125 A 
ATOM     13  C   UNL     1      -0.502  -3.000   6.792  1.00  0.00     0.021 A 
ATOM     14  F   UNL     1       2.170  -5.436   6.653  1.00  0.00    -0.207 F 
ATOM     15  C   UNL     1       0.359  -4.025   7.181  1.00  0.00     0.040 A 
BRANCH  10  16
ATOM     16  N   UNL     1       0.712  -2.413   3.278  1.00  0.00    -0.370 N 
ATOM     17  C   UNL     1       1.273  -1.694   1.450  1.00  0.00     0.028 C 
ATOM     18  C   UNL     1       0.506  -1.146   2.671  1.00  0.00     0.122 C 
ATOM     19  C   UNL     1       1.029  -3.084   2.059  1.00  0.00     0.122 C 
BRANCH  17  20
ATOM     20  C   UNL     1       0.681  -1.405   0.081  1.00  0.00     0.004 C 
ATOM     21  C   UNL     1       0.963   0.040  -0.303  1.00  0.00     0.004 C 
ENDBRANCH  17  20
ENDBRANCH  10  16
ENDBRANCH   7   9
ENDBRANCH   6   7
ENDBRANCH   5   6
ENDBRANCH   4   5
ENDBRANCH   3   4
ENDBRANCH   2   3
ENDBRANCH   1   2
BRANCH   1  22
ATOM     22  O   UNL     1      -3.035  -4.062   2.472  1.00  0.00    -0.376 OA
BRANCH  22  23
ATOM     23  C   UNL     1      -3.725  -4.883   1.548  1.00  0.00     0.202 C 
BRANCH  23  24
ATOM     24  C   UNL     1      -4.981  -5.701   1.920  1.00  0.00     0.261 C 
BRANCH  24  25
ATOM     25  O   UNL     1      -5.149  -6.105   3.285  1.00  0.00    -0.460 OA
BRANCH  25  26
ATOM     26  C   UNL     1      -4.591  -7.280   3.648  1.00  0.00     0.338 C 
ATOM     27  O   UNL     1      -3.916  -8.016   2.937  1.00  0.00    -0.246 OA
BRANCH  26  28
ATOM     28  C   UNL     1      -4.757  -7.449   5.106  1.00  0.00     0.060 A 
ATOM     29  C   UNL     1      -3.614  -7.483   5.915  1.00  0.00     0.016 A 
ATOM     30  C   UNL     1      -6.027  -7.592   5.672  1.00  0.00     0.016 A 
ATOM     31  C   UNL     1      -3.735  -7.703   7.287  1.00  0.00     0.010 A 
ATOM     32  C   UNL     1      -6.145  -7.832   7.046  1.00  0.00     0.010 A 
ATOM     33  C   UNL     1      -4.998  -7.928   7.853  1.00  0.00    -0.014 A 
BRANCH  33  34
ATOM     34  C   UNL     1      -5.088  -8.466   9.235  1.00  0.00     0.031 A 
ATOM     35  C   UNL     1      -5.269  -9.950   9.415  1.00  0.00     0.074 A 
ATOM     36  C   UNL     1      -4.943  -7.671  10.311  1.00  0.00     0.049 A 
ATOM     37  N   UNL     1      -5.363 -10.649  10.516  1.00  0.00    -0.248 NA
ATOM     38  C   UNL     1      -5.353 -10.752   8.184  1.00  0.00     0.031 C 
ATOM     39  C   UNL     1      -4.703  -6.230  10.269  1.00  0.00     0.029 A 
ATOM     40  N   UNL     1      -4.963  -7.971  11.651  1.00  0.00    -0.354 N 
ATOM     41  C   UNL     1      -5.511 -11.971  10.112  1.00  0.00     0.074 A 
ATOM     42  C   UNL     1      -5.542 -11.970   8.666  1.00  0.00     0.031 C 
ATOM     43  C   UNL     1      -4.582  -5.773  11.528  1.00  0.00     0.029 A 
ATOM     44  C   UNL     1      -4.772  -6.880  12.466  1.00  0.00     0.049 A 
ATOM     45  H   UNL     1      -5.101  -8.883  11.997  1.00  0.00     0.167 HD
ATOM     46  C   UNL     1      -5.593 -13.087  10.875  1.00  0.00     0.034 A 
ATOM     47  C   UNL     1      -4.762  -6.782  13.812  1.00  0.00     0.034 A 
ATOM     48  C   UNL     1      -5.567 -13.080  12.315  1.00  0.00     0.049 A 
ATOM     49  C   UNL     1      -4.970  -8.021  14.647  1.00  0.00     0.074 A 
ATOM     50  C   UNL     1      -5.640 -14.157  13.180  1.00  0.00     0.029 A 
ATOM     51  N   UNL     1      -5.469 -11.941  13.102  1.00  0.00    -0.354 N 
ATOM     52  N   UNL     1      -5.135  -9.262  14.253  1.00  0.00    -0.248 NA
ATOM     53  C   UNL     1      -4.994  -7.847  16.107  1.00  0.00     0.031 C 
ATOM     54  C   UNL     1      -5.661 -13.665  14.488  1.00  0.00     0.029 A 
ATOM     55  C   UNL     1      -5.519 -12.287  14.443  1.00  0.00     0.049 A 
ATOM     56  H   UNL     1      -5.378 -11.023  12.759  1.00  0.00     0.167 HD
ATOM     57  C   UNL     1      -5.260 -10.019  15.415  1.00  0.00     0.074 A 
ATOM     58  C   UNL     1      -5.154  -9.096  16.527  1.00  0.00     0.031 C 
ATOM     59  C   UNL     1      -5.433 -11.358  15.545  1.00  0.00     0.034 A 
BRANCH  46  60
ATOM     60  C   UNL     1      -5.759 -14.405  10.162  1.00  0.00     0.023 A 
ATOM     61  C   UNL     1      -4.742 -14.937   9.351  1.00  0.00     0.031 A 
ATOM     62  C   UNL     1      -6.953 -15.135  10.291  1.00  0.00     0.131 A 
ATOM     63  C   UNL     1      -4.958 -16.137   8.658  1.00  0.00     0.055 A 
ATOM     64  C   UNL     1      -7.135 -16.364   9.655  1.00  0.00     0.041 A 
ATOM     65  F   UNL     1      -7.966 -14.663  11.036  1.00  0.00    -0.206 F 
ATOM     66  C   UNL     1      -6.138 -16.866   8.824  1.00  0.00     0.022 A 
BRANCH  63  67
ATOM     67  S   UNL     1      -3.717 -16.679   7.452  1.00  0.00     0.124 S 
ATOM     68  O   UNL     1      -3.743 -15.581   6.489  1.00  0.00    -0.237 OA
ATOM     69  O   UNL     1      -2.512 -16.788   8.266  1.00  0.00    -0.237 OA
ATOM     70  O   UNL     1      -4.251 -17.947   6.957  1.00  0.00    -0.744 OA
ENDBRANCH  63  67
ENDBRANCH  46  60
BRANCH  47  71
ATOM     71  C   UNL     1      -4.565  -5.451  14.448  1.00  0.00     0.023 A 
ATOM     72  C   UNL     1      -3.379  -5.142  15.131  1.00  0.00     0.031 A 
ATOM     73  C   UNL     1      -5.555  -4.456  14.354  1.00  0.00     0.131 A 
ATOM     74  C   UNL     1      -3.211  -3.867  15.695  1.00  0.00     0.055 A 
ATOM     75  C   UNL     1      -5.370  -3.180  14.888  1.00  0.00     0.041 A 
ATOM     76  F   UNL     1      -6.705  -4.705  13.708  1.00  0.00    -0.206 F 
ATOM     77  C   UNL     1      -4.192  -2.880  15.565  1.00  0.00     0.022 A 
BRANCH  74  78
ATOM     78  S   UNL     1      -1.684  -3.509  16.606  1.00  0.00     0.124 S 
ATOM     79  O   UNL     1      -1.810  -4.395  17.757  1.00  0.00    -0.237 OA
ATOM     80  O   UNL     1      -0.656  -3.862  15.632  1.00  0.00    -0.237 OA
ATOM     81  O   UNL     1      -1.792  -2.081  16.901  1.00  0.00    -0.744 OA
ENDBRANCH  74  78
ENDBRANCH  47  71
BRANCH  59  82
ATOM     82  C   UNL     1      -5.497 -11.932  16.938  1.00  0.00     0.023 A 
ATOM     83  C   UNL     1      -6.622 -11.749  17.758  1.00  0.00     0.031 A 
ATOM     84  C   UNL     1      -4.454 -12.749  17.411  1.00  0.00     0.131 A 
ATOM     85  C   UNL     1      -6.673 -12.367  19.018  1.00  0.00     0.055 A 
ATOM     86  C   UNL     1      -4.529 -13.396  18.645  1.00  0.00     0.041 A 
ATOM     87  F   UNL     1      -3.360 -12.960  16.661  1.00  0.00    -0.206 F 
ATOM     88  C   UNL     1      -5.643 -13.205  19.457  1.00  0.00     0.022 A 
BRANCH  85  89
ATOM     89  S   UNL     1      -8.101 -12.053  20.091  1.00  0.00     0.124 S 
ATOM     90  O   UNL     1      -7.963 -10.627  20.368  1.00  0.00    -0.237 OA
ATOM     91  O   UNL     1      -9.225 -12.431  19.240  1.00  0.00    -0.237 OA
ATOM     92  O   UNL     1      -7.871 -12.933  21.236  1.00  0.00    -0.744 OA
ENDBRANCH  85  89
ENDBRANCH  59  82
ENDBRANCH  33  34
ENDBRANCH  26  28
ENDBRANCH  25  26
ENDBRANCH  24  25
ENDBRANCH  23  24
ENDBRANCH  22  23
ENDBRANCH   1  22
TORSDOF 22
