REMARK SMILES CN(C)S(=O)(=O)c1ccc(-n2c(CCC(=O)OCCOCCOCCOC(=O)c3ccc(-c4c5nc(c(-c6cc(S(=O)(=O)[O-])ccc6F)c6ccc([nH]6)c(-c6cc(S(=O)(=O)[O-])ccc6F)c6nc(c(-c7cc(S(=O)(=O)[O-])ccc7F)c7ccc4[nH]7)C=C6)C=C5)cc3)ccc2-c2ccc(F)cc2)cc1
REMARK SMILES IDX 21 1 20 2 19 3 18 4 17 5 15 6 16 7 14 8 13 9 12 10 11 11
REMARK SMILES IDX 94 12 92 13 93 14 10 15 7 16 8 17 103 18 9 19 102 20 4 21
REMARK SMILES IDX 5 22 6 23 2 24 1 25 3 26 95 27 96 28 101 29 97 30 100 31
REMARK SMILES IDX 98 32 99 33 22 34 23 35 24 36 25 37 26 38 27 39 28 40 29 41
REMARK SMILES IDX 30 42 91 43 31 44 90 45 32 46 33 47 34 48 84 49 35 50 89 51
REMARK SMILES IDX 83 52 85 53 36 54 88 55 82 56 81 57 37 59 69 60 49 61 68 62
REMARK SMILES IDX 50 63 53 64 67 65 86 66 51 67 52 68 66 70 87 71 54 72 38 73
REMARK SMILES IDX 39 74 47 75 40 76 46 77 48 78 45 79 41 80 42 81 43 82 44 83
REMARK SMILES IDX 70 84 71 85 79 86 72 87 78 88 80 89 77 90 73 91 74 92 75 93
REMARK SMILES IDX 76 94 55 95 56 96 64 97 57 98 63 99 65 100 62 101 58 102
REMARK SMILES IDX 59 103 60 104 61 105
REMARK H PARENT 85 58 53 69
REMARK Flexibility Score: inf
ROOT
ATOM      1  C   UNL     1       1.937  -2.687   4.856  1.00  0.00     0.188 C 
ENDROOT
BRANCH   1   2
ATOM      2  O   UNL     1       0.461  -2.813   4.473  1.00  0.00    -0.376 OA
BRANCH   2   3
ATOM      3  C   UNL     1      -1.105  -3.928   3.957  1.00  0.00     0.202 C 
BRANCH   3   4
ATOM      4  C   UNL     1      -1.595  -5.517   4.397  1.00  0.00     0.261 C 
BRANCH   4   5
ATOM      5  O   UNL     1      -1.354  -6.022   5.738  1.00  0.00    -0.463 OA
BRANCH   5   6
ATOM      6  C   UNL     1      -0.563  -7.125   5.845  1.00  0.00     0.306 C 
ATOM      7  O   UNL     1      -0.479  -7.984   4.972  1.00  0.00    -0.252 OA
BRANCH   6   8
ATOM      8  C   UNL     1       0.277  -7.190   7.121  1.00  0.00     0.129 C 
BRANCH   8   9
ATOM      9  C   UNL     1       0.897  -5.920   7.721  1.00  0.00     0.066 C 
BRANCH   9  10
ATOM     10  C   UNL     1      -0.099  -4.911   8.171  1.00  0.00     0.024 A 
ATOM     11  N   UNL     1      -0.703  -3.945   7.365  1.00  0.00    -0.314 N 
ATOM     12  C   UNL     1      -1.749  -3.381   8.130  1.00  0.00     0.053 A 
ATOM     13  C   UNL     1      -0.537  -4.727   9.469  1.00  0.00     0.024 A 
ATOM     14  C   UNL     1      -1.563  -3.773   9.444  1.00  0.00     0.029 A 
BRANCH  11  15
ATOM     15  C   UNL     1      -0.394  -3.631   5.992  1.00  0.00     0.046 A 
ATOM     16  C   UNL     1       0.199  -2.635   2.559  1.00  0.00     0.082 A 
ATOM     17  C   UNL     1      -0.805  -1.623   3.630  1.00  0.00     0.024 A 
ATOM     18  C   UNL     1       0.899  -4.189   3.149  1.00  0.00     0.024 A 
ATOM     19  C   UNL     1      -1.091  -2.101   5.337  1.00  0.00     0.028 A 
ATOM     20  C   UNL     1       0.645  -4.678   4.887  1.00  0.00     0.028 A 
BRANCH  16  21
ATOM     21  S   UNL     1       0.840  -1.994   1.047  1.00  0.00     0.242 S 
ATOM     22  O   UNL     1       0.271  -2.794  -0.018  1.00  0.00    -0.207 OA
ATOM     23  O   UNL     1       2.273  -1.893   1.229  1.00  0.00    -0.207 OA
BRANCH  21  24
ATOM     24  N   UNL     1       0.220  -0.398   0.875  1.00  0.00    -0.204 NA
ATOM     25  C   UNL     1       0.984   0.389  -0.134  1.00  0.00     0.124 C 
ATOM     26  C   UNL     1      -1.232  -0.301   0.590  1.00  0.00     0.124 C 
ENDBRANCH  21  24
ENDBRANCH  16  21
ENDBRANCH  11  15
BRANCH  12  27
ATOM     27  C   UNL     1      -2.877  -2.575   7.641  1.00  0.00    -0.001 A 
ATOM     28  C   UNL     1      -3.086  -1.276   8.134  1.00  0.00     0.013 A 
ATOM     29  C   UNL     1      -3.742  -3.076   6.654  1.00  0.00     0.013 A 
ATOM     30  C   UNL     1      -4.093  -0.469   7.595  1.00  0.00     0.040 A 
ATOM     31  C   UNL     1      -4.739  -2.264   6.107  1.00  0.00     0.040 A 
ATOM     32  C   UNL     1      -4.899  -0.966   6.577  1.00  0.00     0.123 A 
ATOM     33  F   UNL     1      -5.839  -0.181   6.034  1.00  0.00    -0.207 F 
ENDBRANCH  12  27
ENDBRANCH   9  10
ENDBRANCH   8   9
ENDBRANCH   6   8
ENDBRANCH   5   6
ENDBRANCH   4   5
ENDBRANCH   3   4
ENDBRANCH   2   3
ENDBRANCH   1   2
BRANCH   1  34
ATOM     34  C   UNL     1       2.177  -2.330   6.341  1.00  0.00     0.188 C 
BRANCH  34  35
ATOM     35  O   UNL     1       1.497  -1.207   6.913  1.00  0.00    -0.376 OA
BRANCH  35  36
ATOM     36  C   UNL     1       1.127  -0.110   6.082  1.00  0.00     0.202 C 
BRANCH  36  37
ATOM     37  C   UNL     1       2.179   0.934   5.796  1.00  0.00     0.261 C 
BRANCH  37  38
ATOM     38  O   UNL     1       3.260   0.295   5.154  1.00  0.00    -0.460 OA
BRANCH  38  39
ATOM     39  C   UNL     1       4.181  -0.160   6.037  1.00  0.00     0.338 C 
ATOM     40  O   UNL     1       4.138  -0.112   7.246  1.00  0.00    -0.246 OA
BRANCH  39  41
ATOM     41  C   UNL     1       5.332  -0.659   5.243  1.00  0.00     0.060 A 
ATOM     42  C   UNL     1       6.340  -1.057   6.120  1.00  0.00     0.016 A 
ATOM     43  C   UNL     1       5.579   0.246   4.205  1.00  0.00     0.016 A 
ATOM     44  C   UNL     1       7.374  -0.172   6.297  1.00  0.00     0.010 A 
ATOM     45  C   UNL     1       6.505   1.222   4.463  1.00  0.00     0.010 A 
ATOM     46  C   UNL     1       7.404   0.992   5.507  1.00  0.00    -0.014 A 
BRANCH  46  47
ATOM     47  C   UNL     1       8.668   1.715   5.497  1.00  0.00     0.031 A 
ATOM     48  C   UNL     1       9.596   0.871   4.568  1.00  0.00     0.074 A 
ATOM     49  C   UNL     1       8.757   2.783   6.353  1.00  0.00     0.049 A 
ATOM     50  N   UNL     1      10.769   0.371   4.798  1.00  0.00    -0.248 NA
ATOM     51  C   UNL     1       9.036   0.280   3.299  1.00  0.00     0.031 C 
ATOM     52  C   UNL     1       7.641   3.399   7.126  1.00  0.00     0.029 A 
ATOM     53  N   UNL     1       9.799   3.578   6.762  1.00  0.00    -0.354 N 
ATOM     54  C   UNL     1      11.166  -0.288   3.611  1.00  0.00     0.074 A 
ATOM     55  C   UNL     1       9.980  -0.560   2.881  1.00  0.00     0.031 C 
ATOM     56  C   UNL     1       8.092   4.374   7.960  1.00  0.00     0.029 A 
ATOM     57  C   UNL     1       9.532   4.500   7.825  1.00  0.00     0.049 A 
ATOM     58  H   UNL     1      10.688   3.517   6.344  1.00  0.00     0.167 HD
ATOM     59  C   UNL     1      12.453  -0.295   3.160  1.00  0.00     0.034 A 
ATOM     60  C   UNL     1      10.445   5.231   8.556  1.00  0.00     0.034 A 
ATOM     61  C   UNL     1      13.264   0.403   4.105  1.00  0.00     0.049 A 
ATOM     62  C   UNL     1      11.716   4.883   7.892  1.00  0.00     0.074 A 
ATOM     63  C   UNL     1      13.625   0.112   5.393  1.00  0.00     0.029 A 
ATOM     64  N   UNL     1      13.420   1.756   3.881  1.00  0.00    -0.354 N 
ATOM     65  N   UNL     1      12.091   5.301   6.721  1.00  0.00    -0.248 NA
ATOM     66  C   UNL     1      12.563   3.861   8.525  1.00  0.00     0.031 C 
ATOM     67  C   UNL     1      13.446   1.351   6.040  1.00  0.00     0.029 A 
ATOM     68  C   UNL     1      13.323   2.381   5.096  1.00  0.00     0.049 A 
ATOM     69  H   UNL     1      13.573   2.190   3.010  1.00  0.00     0.167 HD
ATOM     70  C   UNL     1      13.033   4.371   6.360  1.00  0.00     0.074 A 
ATOM     71  C   UNL     1      13.499   3.758   7.587  1.00  0.00     0.031 C 
ATOM     72  C   UNL     1      12.983   3.786   5.134  1.00  0.00     0.034 A 
BRANCH  59  73
ATOM     73  C   UNL     1      13.050  -0.540   1.798  1.00  0.00     0.023 A 
ATOM     74  C   UNL     1      14.463  -0.491   1.760  1.00  0.00     0.031 A 
ATOM     75  C   UNL     1      12.395  -0.469   0.560  1.00  0.00     0.131 A 
ATOM     76  C   UNL     1      15.149  -0.163   0.589  1.00  0.00     0.055 A 
ATOM     77  C   UNL     1      13.096  -0.237  -0.633  1.00  0.00     0.041 A 
ATOM     78  F   UNL     1      11.063  -0.530   0.449  1.00  0.00    -0.206 F 
ATOM     79  C   UNL     1      14.473  -0.030  -0.617  1.00  0.00     0.022 A 
BRANCH  76  80
ATOM     80  S   UNL     1      16.895   0.295   0.748  1.00  0.00     0.124 S 
ATOM     81  O   UNL     1      16.826   1.418   1.677  1.00  0.00    -0.237 OA
ATOM     82  O   UNL     1      17.484  -0.933   1.275  1.00  0.00    -0.237 OA
ATOM     83  O   UNL     1      17.281   0.633  -0.619  1.00  0.00    -0.744 OA
ENDBRANCH  76  80
ENDBRANCH  59  73
BRANCH  60  84
ATOM     84  C   UNL     1      10.600   6.106   9.815  1.00  0.00     0.023 A 
ATOM     85  C   UNL     1       9.597   6.720  10.593  1.00  0.00     0.031 A 
ATOM     86  C   UNL     1      11.927   6.318  10.327  1.00  0.00     0.131 A 
ATOM     87  C   UNL     1       9.940   7.386  11.820  1.00  0.00     0.055 A 
ATOM     88  C   UNL     1      12.240   6.864  11.571  1.00  0.00     0.041 A 
ATOM     89  F   UNL     1      13.026   6.013   9.624  1.00  0.00    -0.206 F 
ATOM     90  C   UNL     1      11.238   7.390  12.339  1.00  0.00     0.022 A 
BRANCH  87  91
ATOM     91  S   UNL     1       8.715   8.310  12.808  1.00  0.00     0.124 S 
ATOM     92  O   UNL     1       8.754   9.628  12.183  1.00  0.00    -0.237 OA
ATOM     93  O   UNL     1       7.491   7.541  12.617  1.00  0.00    -0.237 OA
ATOM     94  O   UNL     1       9.265   8.258  14.165  1.00  0.00    -0.744 OA
ENDBRANCH  87  91
ENDBRANCH  60  84
BRANCH  72  95
ATOM     95  C   UNL     1      12.251   4.588   4.061  1.00  0.00     0.023 A 
ATOM     96  C   UNL     1      12.703   5.875   3.722  1.00  0.00     0.031 A 
ATOM     97  C   UNL     1      11.060   4.176   3.434  1.00  0.00     0.131 A 
ATOM     98  C   UNL     1      11.981   6.689   2.825  1.00  0.00     0.055 A 
ATOM     99  C   UNL     1      10.331   4.985   2.548  1.00  0.00     0.041 A 
ATOM    100  F   UNL     1      10.553   2.969   3.665  1.00  0.00    -0.206 F 
ATOM    101  C   UNL     1      10.793   6.253   2.238  1.00  0.00     0.022 A 
BRANCH  98 102
ATOM    102  S   UNL     1      12.634   8.326   2.400  1.00  0.00     0.124 S 
ATOM    103  O   UNL     1      12.431   9.079   3.632  1.00  0.00    -0.237 OA
ATOM    104  O   UNL     1      14.020   8.033   2.051  1.00  0.00    -0.237 OA
ATOM    105  O   UNL     1      11.797   8.747   1.276  1.00  0.00    -0.744 OA
ENDBRANCH  98 102
ENDBRANCH  72  95
ENDBRANCH  46  47
ENDBRANCH  39  41
ENDBRANCH  38  39
ENDBRANCH  37  38
ENDBRANCH  36  37
ENDBRANCH  35  36
ENDBRANCH  34  35
ENDBRANCH   1  34
TORSDOF 26
