REMARK SMILES Cc1cscc1C(=O)N1CC[C@H](C(=O)OCCOCCOCCOC(=O)c2ccc(-c3c4nc(c(-c5cc(S(=O)(=O)[O-])ccc5F)c5ccc([nH]5)c(-c5cc(S(=O)(=O)[O-])ccc5F)c5nc(c(-c6cc(S(=O)(=O)[O-])ccc6F)c6ccc3[nH]6)C=C5)C=C4)cc2)[C@H]1C
REMARK SMILES IDX 20 1 19 2 18 3 17 4 16 5 15 6 13 7 14 8 12 9 9 10 10 11
REMARK SMILES IDX 90 12 11 13 91 14 7 15 8 16 6 17 1 18 2 19 3 20 4 21 5 22
REMARK SMILES IDX 21 23 22 24 23 25 24 26 25 27 26 28 27 29 28 30 89 31 29 32
REMARK SMILES IDX 88 33 30 34 31 35 32 36 82 37 33 38 87 39 81 40 83 41 34 42
REMARK SMILES IDX 86 43 80 44 79 45 35 47 67 48 47 49 66 50 48 51 51 52 65 53
REMARK SMILES IDX 84 54 49 55 50 56 64 58 85 59 52 60 36 61 37 62 45 63 38 64
REMARK SMILES IDX 44 65 46 66 43 67 39 68 40 69 41 70 42 71 68 72 69 73 77 74
REMARK SMILES IDX 70 75 76 76 78 77 75 78 71 79 72 80 73 81 74 82 53 83 54 84
REMARK SMILES IDX 62 85 55 86 61 87 63 88 60 89 56 90 57 91 58 92 59 93
REMARK H PARENT 83 46 51 57
REMARK Flexibility Score: inf
ROOT
ATOM      1  C   UNL     1       6.527   3.125  -3.281  1.00  0.00     0.188 C 
ENDROOT
BRANCH   1   2
ATOM      2  C   UNL     1       5.343   4.046  -3.645  1.00  0.00     0.188 C 
BRANCH   2   3
ATOM      3  O   UNL     1       5.729   5.342  -4.043  1.00  0.00    -0.376 OA
BRANCH   3   4
ATOM      4  C   UNL     1       5.764   6.391  -3.090  1.00  0.00     0.202 C 
BRANCH   4   5
ATOM      5  C   UNL     1       5.857   6.196  -1.562  1.00  0.00     0.261 C 
BRANCH   5   6
ATOM      6  O   UNL     1       5.876   4.848  -1.083  1.00  0.00    -0.463 OA
BRANCH   6   7
ATOM      7  C   UNL     1       4.830   4.452  -0.305  1.00  0.00     0.311 C 
ATOM      8  O   UNL     1       3.927   5.185   0.068  1.00  0.00    -0.252 OA
BRANCH   7   9
ATOM      9  C   UNL     1       4.940   2.969   0.013  1.00  0.00     0.123 C 
ATOM     10  N   UNL     1       2.809   1.976   0.476  1.00  0.00    -0.335 N 
ATOM     11  C   UNL     1       3.308   2.589   1.696  1.00  0.00     0.121 C 
ATOM     12  C   UNL     1       3.772   2.185  -0.613  1.00  0.00     0.096 C 
ATOM     13  C   UNL     1       4.808   2.703   1.505  1.00  0.00     0.039 C 
ATOM     14  C   UNL     1       4.225   0.845  -1.193  1.00  0.00     0.032 C 
BRANCH  10  15
ATOM     15  C   UNL     1       1.468   2.224   0.187  1.00  0.00     0.255 C 
ATOM     16  O   UNL     1       1.074   3.371  -0.024  1.00  0.00    -0.269 OA
BRANCH  15  17
ATOM     17  C   UNL     1       0.568   1.066   0.136  1.00  0.00     0.053 A 
ATOM     18  C   UNL     1       2.054  -0.951   0.963  1.00  0.00     0.046 C 
ATOM     19  C   UNL     1       0.796  -0.336   0.451  1.00  0.00    -0.028 A 
ATOM     20  C   UNL     1      -0.341  -1.091   0.215  1.00  0.00     0.069 A 
ATOM     21  S   UNL     1      -1.672  -0.168  -0.304  1.00  0.00    -0.151 S 
ATOM     22  C   UNL     1      -0.751   1.260  -0.254  1.00  0.00     0.079 A 
ENDBRANCH  15  17
ENDBRANCH  10  15
ENDBRANCH   7   9
ENDBRANCH   6   7
ENDBRANCH   5   6
ENDBRANCH   4   5
ENDBRANCH   3   4
ENDBRANCH   2   3
ENDBRANCH   1   2
BRANCH   1  23
ATOM     23  O   UNL     1       7.835   3.653  -3.154  1.00  0.00    -0.376 OA
BRANCH  23  24
ATOM     24  C   UNL     1       8.389   4.387  -4.235  1.00  0.00     0.202 C 
BRANCH  24  25
ATOM     25  C   UNL     1       8.217   3.952  -5.705  1.00  0.00     0.261 C 
BRANCH  25  26
ATOM     26  O   UNL     1       6.941   3.414  -6.085  1.00  0.00    -0.460 OA
BRANCH  26  27
ATOM     27  C   UNL     1       6.919   2.073  -6.306  1.00  0.00     0.338 C 
ATOM     28  O   UNL     1       7.853   1.300  -6.207  1.00  0.00    -0.246 OA
BRANCH  27  29
ATOM     29  C   UNL     1       5.521   1.633  -6.502  1.00  0.00     0.060 A 
ATOM     30  C   UNL     1       4.947   0.761  -5.564  1.00  0.00     0.016 A 
ATOM     31  C   UNL     1       4.801   2.031  -7.627  1.00  0.00     0.016 A 
ATOM     32  C   UNL     1       3.655   0.271  -5.756  1.00  0.00     0.010 A 
ATOM     33  C   UNL     1       3.517   1.514  -7.834  1.00  0.00     0.010 A 
ATOM     34  C   UNL     1       2.948   0.612  -6.915  1.00  0.00    -0.014 A 
BRANCH  34  35
ATOM     35  C   UNL     1       1.704  -0.115  -7.276  1.00  0.00     0.031 A 
ATOM     36  C   UNL     1       1.804  -1.246  -8.264  1.00  0.00     0.074 A 
ATOM     37  C   UNL     1       0.512   0.224  -6.754  1.00  0.00     0.049 A 
ATOM     38  N   UNL     1       0.855  -1.931  -8.845  1.00  0.00    -0.248 NA
ATOM     39  C   UNL     1       3.165  -1.651  -8.650  1.00  0.00     0.031 C 
ATOM     40  C   UNL     1       0.295   1.250  -5.736  1.00  0.00     0.029 A 
ATOM     41  N   UNL     1      -0.748  -0.252  -7.027  1.00  0.00    -0.354 N 
ATOM     42  C   UNL     1       1.500  -2.838  -9.679  1.00  0.00     0.074 A 
ATOM     43  C   UNL     1       2.921  -2.595  -9.545  1.00  0.00     0.031 C 
ATOM     44  C   UNL     1      -1.024   1.344  -5.488  1.00  0.00     0.029 A 
ATOM     45  C   UNL     1      -1.748   0.425  -6.367  1.00  0.00     0.049 A 
ATOM     46  H   UNL     1      -0.919  -1.005  -7.637  1.00  0.00     0.167 HD
ATOM     47  C   UNL     1       0.956  -3.785 -10.482  1.00  0.00     0.034 A 
ATOM     48  C   UNL     1      -3.089   0.343  -6.492  1.00  0.00     0.034 A 
ATOM     49  C   UNL     1      -0.464  -4.003 -10.615  1.00  0.00     0.049 A 
ATOM     50  C   UNL     1      -3.678  -0.644  -7.477  1.00  0.00     0.074 A 
ATOM     51  C   UNL     1      -1.122  -4.936 -11.397  1.00  0.00     0.029 A 
ATOM     52  N   UNL     1      -1.447  -3.270  -9.962  1.00  0.00    -0.354 N 
ATOM     53  N   UNL     1      -3.061  -1.488  -8.274  1.00  0.00    -0.248 NA
ATOM     54  C   UNL     1      -5.144  -0.693  -7.577  1.00  0.00     0.031 C 
ATOM     55  C   UNL     1      -2.498  -4.714 -11.280  1.00  0.00     0.029 A 
ATOM     56  C   UNL     1      -2.703  -3.708 -10.350  1.00  0.00     0.049 A 
ATOM     57  H   UNL     1      -1.276  -2.545  -9.318  1.00  0.00     0.167 HD
ATOM     58  C   UNL     1      -4.066  -2.197  -8.931  1.00  0.00     0.074 A 
ATOM     59  C   UNL     1      -5.326  -1.683  -8.439  1.00  0.00     0.031 C 
ATOM     60  C   UNL     1      -3.956  -3.192  -9.848  1.00  0.00     0.034 A 
BRANCH  47  61
ATOM     61  C   UNL     1       1.899  -4.609 -11.325  1.00  0.00     0.023 A 
ATOM     62  C   UNL     1       2.847  -5.474 -10.751  1.00  0.00     0.031 A 
ATOM     63  C   UNL     1       1.865  -4.508 -12.727  1.00  0.00     0.131 A 
ATOM     64  C   UNL     1       3.762  -6.152 -11.571  1.00  0.00     0.055 A 
ATOM     65  C   UNL     1       2.723  -5.249 -13.541  1.00  0.00     0.041 A 
ATOM     66  F   UNL     1       1.000  -3.678 -13.332  1.00  0.00    -0.206 F 
ATOM     67  C   UNL     1       3.689  -6.067 -12.963  1.00  0.00     0.022 A 
BRANCH  64  68
ATOM     68  S   UNL     1       5.140  -7.034 -10.787  1.00  0.00     0.124 S 
ATOM     69  O   UNL     1       5.787  -5.962 -10.035  1.00  0.00    -0.237 OA
ATOM     70  O   UNL     1       4.456  -8.048  -9.994  1.00  0.00    -0.237 OA
ATOM     71  O   UNL     1       5.910  -7.542 -11.921  1.00  0.00    -0.744 OA
ENDBRANCH  64  68
ENDBRANCH  47  61
BRANCH  48  72
ATOM     72  C   UNL     1      -3.982   1.254  -5.715  1.00  0.00     0.023 A 
ATOM     73  C   UNL     1      -4.923   0.749  -4.803  1.00  0.00     0.031 A 
ATOM     74  C   UNL     1      -3.959   2.644  -5.932  1.00  0.00     0.131 A 
ATOM     75  C   UNL     1      -5.836   1.619  -4.185  1.00  0.00     0.055 A 
ATOM     76  C   UNL     1      -4.826   3.512  -5.265  1.00  0.00     0.041 A 
ATOM     77  F   UNL     1      -3.090   3.183  -6.802  1.00  0.00    -0.206 F 
ATOM     78  C   UNL     1      -5.782   2.998  -4.396  1.00  0.00     0.022 A 
BRANCH  75  79
ATOM     79  S   UNL     1      -7.177   0.906  -3.190  1.00  0.00     0.124 S 
ATOM     80  O   UNL     1      -7.835   0.038  -4.161  1.00  0.00    -0.237 OA
ATOM     81  O   UNL     1      -6.443   0.235  -2.123  1.00  0.00    -0.237 OA
ATOM     82  O   UNL     1      -7.950   2.075  -2.775  1.00  0.00    -0.744 OA
ENDBRANCH  75  79
ENDBRANCH  48  72
BRANCH  60  83
ATOM     83  C   UNL     1      -5.231  -3.851 -10.323  1.00  0.00     0.023 A 
ATOM     84  C   UNL     1      -6.187  -3.171 -11.097  1.00  0.00     0.031 A 
ATOM     85  C   UNL     1      -5.479  -5.199 -10.002  1.00  0.00     0.131 A 
ATOM     86  C   UNL     1      -7.366  -3.828 -11.486  1.00  0.00     0.055 A 
ATOM     87  C   UNL     1      -6.623  -5.864 -10.444  1.00  0.00     0.041 A 
ATOM     88  F   UNL     1      -4.603  -5.898  -9.263  1.00  0.00    -0.206 F 
ATOM     89  C   UNL     1      -7.581  -5.175 -11.181  1.00  0.00     0.022 A 
BRANCH  86  90
ATOM     90  S   UNL     1      -8.661  -2.877 -12.331  1.00  0.00     0.124 S 
ATOM     91  O   UNL     1      -8.952  -1.829 -11.359  1.00  0.00    -0.237 OA
ATOM     92  O   UNL     1      -7.986  -2.446 -13.551  1.00  0.00    -0.237 OA
ATOM     93  O   UNL     1      -9.730  -3.854 -12.529  1.00  0.00    -0.744 OA
ENDBRANCH  86  90
ENDBRANCH  60  83
ENDBRANCH  34  35
ENDBRANCH  27  29
ENDBRANCH  26  27
ENDBRANCH  25  26
ENDBRANCH  24  25
ENDBRANCH  23  24
ENDBRANCH   1  23
TORSDOF 22
