REMARK SMILES C[C@@H]1C(=O)NC(=O)CN1C(=O)NC1(CC(=O)OCCOCCOCCOC(=O)c2ccc(-c3c4nc(c(-c5cc(S(=O)(=O)[O-])ccc5F)c5ccc([nH]5)c(-c5cc(S(=O)(=O)[O-])ccc5F)c5nc(c(-c6cc(S(=O)(=O)[O-])ccc6F)c6ccc3[nH]6)C=C5)C=C4)cc2)CCC1
REMARK SMILES IDX 21 1 20 2 19 3 18 4 17 5 15 6 16 7 14 8 13 9 92 10 94 11
REMARK SMILES IDX 93 12 12 13 10 14 11 15 9 17 1 18 2 19 3 20 4 21 5 22 8 23
REMARK SMILES IDX 6 24 7 26 22 27 23 28 24 29 25 30 26 31 27 32 28 33 29 34
REMARK SMILES IDX 30 35 91 36 31 37 90 38 32 39 33 40 34 41 84 42 35 43 89 44
REMARK SMILES IDX 83 45 85 46 36 47 88 48 82 49 81 50 37 52 69 53 49 54 68 55
REMARK SMILES IDX 50 56 53 57 67 58 86 59 51 60 52 61 66 63 87 64 54 65 38 66
REMARK SMILES IDX 39 67 47 68 40 69 46 70 48 71 45 72 41 73 42 74 43 75 44 76
REMARK SMILES IDX 70 77 71 78 79 79 72 80 78 81 80 82 77 83 73 84 74 85 75 86
REMARK SMILES IDX 76 87 55 88 56 89 64 90 57 91 63 92 65 93 62 94 58 95 59 96
REMARK SMILES IDX 60 97 61 98
REMARK H PARENT 12 16 5 25 85 51 53 62
REMARK Flexibility Score: inf
ROOT
ATOM      1  C   UNL     1      -4.497  -1.937  -2.187  1.00  0.00     0.188 C 
ENDROOT
BRANCH   1   2
ATOM      2  O   UNL     1      -4.810  -3.087  -2.962  1.00  0.00    -0.376 OA
BRANCH   2   3
ATOM      3  C   UNL     1      -3.740  -3.882  -3.446  1.00  0.00     0.202 C 
BRANCH   3   4
ATOM      4  C   UNL     1      -2.668  -3.184  -4.295  1.00  0.00     0.261 C 
BRANCH   4   5
ATOM      5  O   UNL     1      -2.238  -1.900  -3.790  1.00  0.00    -0.463 OA
BRANCH   5   6
ATOM      6  C   UNL     1      -2.409  -0.842  -4.623  1.00  0.00     0.308 C 
ATOM      7  O   UNL     1      -2.825  -0.941  -5.774  1.00  0.00    -0.252 OA
BRANCH   6   8
ATOM      8  C   UNL     1      -2.162   0.519  -4.002  1.00  0.00     0.151 C 
BRANCH   8   9
ATOM      9  C   UNL     1      -1.080   0.759  -2.905  1.00  0.00     0.052 C 
ATOM     10  C   UNL     1      -0.099   1.894  -3.355  1.00  0.00     0.029 C 
ATOM     11  C   UNL     1       0.108  -0.223  -2.924  1.00  0.00     0.029 C 
ATOM     12  C   UNL     1       0.963   0.833  -3.653  1.00  0.00     0.005 C 
BRANCH   9  13
ATOM     13  N   UNL     1      -1.730   1.191  -1.630  1.00  0.00    -0.332 N 
ATOM     14  C   UNL     1      -1.482   1.504  -0.343  1.00  0.00     0.318 C 
ATOM     15  O   UNL     1      -2.420   2.110   0.188  1.00  0.00    -0.249 OA
ATOM     16  H   UNL     1      -2.698   1.278  -1.790  1.00  0.00     0.165 HD
BRANCH  14  17
ATOM     17  N   UNL     1      -0.380   1.192   0.386  1.00  0.00    -0.304 N 
ATOM     18  C   UNL     1       1.852   0.057   0.423  1.00  0.00     0.042 C 
ATOM     19  C   UNL     1       1.001   1.221  -0.084  1.00  0.00     0.174 C 
ATOM     20  C   UNL     1       1.648   2.561   0.295  1.00  0.00     0.249 C 
ATOM     21  O   UNL     1       2.666   2.973  -0.262  1.00  0.00    -0.272 OA
ATOM     22  N   UNL     1       1.152   3.194   1.405  1.00  0.00    -0.293 N 
ATOM     23  C   UNL     1      -0.498   1.406   1.847  1.00  0.00     0.222 C 
ATOM     24  C   UNL     1       0.203   2.700   2.271  1.00  0.00     0.246 C 
ATOM     25  H   UNL     1       1.510   4.089   1.603  1.00  0.00     0.173 HD
ATOM     26  O   UNL     1       0.092   3.191   3.392  1.00  0.00    -0.273 OA
ENDBRANCH  14  17
ENDBRANCH   9  13
ENDBRANCH   8   9
ENDBRANCH   6   8
ENDBRANCH   5   6
ENDBRANCH   4   5
ENDBRANCH   3   4
ENDBRANCH   2   3
ENDBRANCH   1   2
BRANCH   1  27
ATOM     27  C   UNL     1      -3.346  -2.003  -1.169  1.00  0.00     0.188 C 
BRANCH  27  28
ATOM     28  O   UNL     1      -2.878  -3.311  -0.891  1.00  0.00    -0.376 OA
BRANCH  28  29
ATOM     29  C   UNL     1      -2.266  -3.467   0.381  1.00  0.00     0.202 C 
BRANCH  29  30
ATOM     30  C   UNL     1      -3.296  -3.743   1.492  1.00  0.00     0.261 C 
BRANCH  30  31
ATOM     31  O   UNL     1      -4.399  -2.812   1.578  1.00  0.00    -0.460 OA
BRANCH  31  32
ATOM     32  C   UNL     1      -4.107  -1.559   2.004  1.00  0.00     0.338 C 
ATOM     33  O   UNL     1      -3.002  -1.175   2.373  1.00  0.00    -0.246 OA
BRANCH  32  34
ATOM     34  C   UNL     1      -5.245  -0.656   1.673  1.00  0.00     0.060 A 
ATOM     35  C   UNL     1      -4.997   0.431   0.827  1.00  0.00     0.016 A 
ATOM     36  C   UNL     1      -6.534  -0.849   2.161  1.00  0.00     0.016 A 
ATOM     37  C   UNL     1      -5.990   1.359   0.508  1.00  0.00     0.010 A 
ATOM     38  C   UNL     1      -7.539   0.086   1.849  1.00  0.00     0.010 A 
ATOM     39  C   UNL     1      -7.269   1.217   1.048  1.00  0.00    -0.014 A 
BRANCH  39  40
ATOM     40  C   UNL     1      -8.258   2.330   0.936  1.00  0.00     0.031 A 
ATOM     41  C   UNL     1      -8.539   3.165   2.160  1.00  0.00     0.074 A 
ATOM     42  C   UNL     1      -8.873   2.640  -0.222  1.00  0.00     0.049 A 
ATOM     43  N   UNL     1      -9.458   4.074   2.362  1.00  0.00    -0.248 NA
ATOM     44  C   UNL     1      -7.661   2.928   3.315  1.00  0.00     0.031 C 
ATOM     45  C   UNL     1      -8.627   1.997  -1.511  1.00  0.00     0.029 A 
ATOM     46  N   UNL     1      -9.846   3.575  -0.496  1.00  0.00    -0.354 N 
ATOM     47  C   UNL     1      -9.292   4.494   3.679  1.00  0.00     0.074 A 
ATOM     48  C   UNL     1      -8.201   3.717   4.229  1.00  0.00     0.031 C 
ATOM     49  C   UNL     1      -9.438   2.545  -2.434  1.00  0.00     0.029 A 
ATOM     50  C   UNL     1     -10.307   3.532  -1.792  1.00  0.00     0.049 A 
ATOM     51  H   UNL     1     -10.180   4.215   0.173  1.00  0.00     0.167 HD
ATOM     52  C   UNL     1      -9.984   5.440   4.364  1.00  0.00     0.034 A 
ATOM     53  C   UNL     1     -11.338   4.174  -2.384  1.00  0.00     0.034 A 
ATOM     54  C   UNL     1     -11.064   6.215   3.801  1.00  0.00     0.049 A 
ATOM     55  C   UNL     1     -12.177   5.137  -1.573  1.00  0.00     0.074 A 
ATOM     56  C   UNL     1     -11.826   7.198   4.409  1.00  0.00     0.029 A 
ATOM     57  N   UNL     1     -11.545   6.091   2.503  1.00  0.00    -0.354 N 
ATOM     58  N   UNL     1     -12.046   5.493  -0.316  1.00  0.00    -0.248 NA
ATOM     59  C   UNL     1     -13.304   5.781  -2.262  1.00  0.00     0.031 C 
ATOM     60  C   UNL     1     -12.820   7.603   3.512  1.00  0.00     0.029 A 
ATOM     61  C   UNL     1     -12.619   6.948   2.308  1.00  0.00     0.049 A 
ATOM     62  H   UNL     1     -11.177   5.484   1.821  1.00  0.00     0.167 HD
ATOM     63  C   UNL     1     -13.054   6.427  -0.076  1.00  0.00     0.074 A 
ATOM     64  C   UNL     1     -13.776   6.586  -1.321  1.00  0.00     0.031 C 
ATOM     65  C   UNL     1     -13.347   7.099   1.068  1.00  0.00     0.034 A 
BRANCH  52  66
ATOM     66  C   UNL     1      -9.639   5.626   5.825  1.00  0.00     0.023 A 
ATOM     67  C   UNL     1      -8.366   6.048   6.247  1.00  0.00     0.031 A 
ATOM     68  C   UNL     1     -10.590   5.324   6.816  1.00  0.00     0.131 A 
ATOM     69  C   UNL     1      -8.053   6.068   7.615  1.00  0.00     0.055 A 
ATOM     70  C   UNL     1     -10.302   5.438   8.177  1.00  0.00     0.041 A 
ATOM     71  F   UNL     1     -11.816   4.891   6.479  1.00  0.00    -0.206 F 
ATOM     72  C   UNL     1      -9.020   5.793   8.584  1.00  0.00     0.022 A 
BRANCH  69  73
ATOM     73  S   UNL     1      -6.318   6.280   8.104  1.00  0.00     0.124 S 
ATOM     74  O   UNL     1      -5.676   5.178   7.392  1.00  0.00    -0.237 OA
ATOM     75  O   UNL     1      -6.016   7.621   7.617  1.00  0.00    -0.237 OA
ATOM     76  O   UNL     1      -6.352   6.136   9.558  1.00  0.00    -0.744 OA
ENDBRANCH  69  73
ENDBRANCH  52  66
BRANCH  53  77
ATOM     77  C   UNL     1     -11.695   3.881  -3.806  1.00  0.00     0.023 A 
ATOM     78  C   UNL     1     -11.648   4.878  -4.795  1.00  0.00     0.031 A 
ATOM     79  C   UNL     1     -12.146   2.602  -4.185  1.00  0.00     0.131 A 
ATOM     80  C   UNL     1     -12.077   4.590  -6.102  1.00  0.00     0.055 A 
ATOM     81  C   UNL     1     -12.514   2.305  -5.498  1.00  0.00     0.041 A 
ATOM     82  F   UNL     1     -12.227   1.615  -3.279  1.00  0.00    -0.206 F 
ATOM     83  C   UNL     1     -12.492   3.306  -6.464  1.00  0.00     0.022 A 
BRANCH  80  84
ATOM     84  S   UNL     1     -12.165   5.941  -7.310  1.00  0.00     0.124 S 
ATOM     85  O   UNL     1     -13.111   6.849  -6.671  1.00  0.00    -0.237 OA
ATOM     86  O   UNL     1     -10.778   6.391  -7.364  1.00  0.00    -0.237 OA
ATOM     87  O   UNL     1     -12.651   5.283  -8.522  1.00  0.00    -0.744 OA
ENDBRANCH  80  84
ENDBRANCH  53  77
BRANCH  65  88
ATOM     88  C   UNL     1     -14.466   8.116   1.014  1.00  0.00     0.023 A 
ATOM     89  C   UNL     1     -15.804   7.748   0.785  1.00  0.00     0.031 A 
ATOM     90  C   UNL     1     -14.184   9.483   1.196  1.00  0.00     0.131 A 
ATOM     91  C   UNL     1     -16.797   8.737   0.690  1.00  0.00     0.055 A 
ATOM     92  C   UNL     1     -15.185  10.455   1.168  1.00  0.00     0.041 A 
ATOM     93  F   UNL     1     -12.925   9.899   1.412  1.00  0.00    -0.206 F 
ATOM     94  C   UNL     1     -16.499  10.086   0.900  1.00  0.00     0.022 A 
BRANCH  91  95
ATOM     95  S   UNL     1     -18.471   8.251   0.186  1.00  0.00     0.124 S 
ATOM     96  O   UNL     1     -18.226   7.614  -1.104  1.00  0.00    -0.237 OA
ATOM     97  O   UNL     1     -18.878   7.362   1.269  1.00  0.00    -0.237 OA
ATOM     98  O   UNL     1     -19.194   9.520   0.123  1.00  0.00    -0.744 OA
ENDBRANCH  91  95
ENDBRANCH  65  88
ENDBRANCH  39  40
ENDBRANCH  32  34
ENDBRANCH  31  32
ENDBRANCH  30  31
ENDBRANCH  29  30
ENDBRANCH  28  29
ENDBRANCH  27  28
ENDBRANCH   1  27
TORSDOF 23
