REMARK SMILES CC1=C([C@H](NC(=O)[C@@H]2[C@H](C)c3cc(F)ccc3N2C)C(=O)OCCOCCOCCOC(=O)c2ccc(-c3c4nc(c(-c5cc(S(=O)(=O)[O-])ccc5F)c5ccc([nH]5)c(-c5cc(S(=O)(=O)[O-])ccc5F)c5nc(c(-c6cc(S(=O)(=O)[O-])ccc6F)c6ccc3[nH]6)C=C5)C=C4)cc2)[C@@H](C)N=N1
REMARK SMILES IDX 27 1 26 2 25 3 24 4 23 5 22 6 20 7 21 8 4 9 3 10 1 11 2 12
REMARK SMILES IDX 100 13 97 14 99 15 98 16 5 17 6 18 7 20 8 21 9 22 18 23
REMARK SMILES IDX 11 24 10 25 17 26 19 27 12 28 16 29 13 30 15 31 14 32 28 33
REMARK SMILES IDX 29 34 30 35 31 36 32 37 33 38 34 39 35 40 96 41 36 42 95 43
REMARK SMILES IDX 37 44 38 45 39 46 89 47 40 48 94 49 88 50 90 51 41 52 93 53
REMARK SMILES IDX 87 54 86 55 42 57 74 58 54 59 73 60 55 61 58 62 72 63 91 64
REMARK SMILES IDX 56 65 57 66 71 68 92 69 59 70 43 71 44 72 52 73 45 74 51 75
REMARK SMILES IDX 53 76 50 77 46 78 47 79 48 80 49 81 75 82 76 83 84 84 77 85
REMARK SMILES IDX 83 86 85 87 82 88 78 89 79 90 80 91 81 92 60 93 61 94 69 95
REMARK SMILES IDX 62 96 68 97 70 98 67 99 63 100 64 101 65 102 66 103
REMARK H PARENT 5 19 90 56 58 67
REMARK Flexibility Score: inf
ROOT
ATOM      1  C   UNL     1      -2.703   1.693  -1.486  1.00  0.00     0.188 C 
ENDROOT
BRANCH   1   2
ATOM      2  C   UNL     1      -3.255   3.035  -0.957  1.00  0.00     0.188 C 
BRANCH   2   3
ATOM      3  O   UNL     1      -4.392   3.508  -1.661  1.00  0.00    -0.376 OA
BRANCH   3   4
ATOM      4  C   UNL     1      -4.148   4.633  -2.479  1.00  0.00     0.202 C 
BRANCH   4   5
ATOM      5  C   UNL     1      -3.516   4.280  -3.846  1.00  0.00     0.261 C 
BRANCH   5   6
ATOM      6  O   UNL     1      -2.365   3.387  -3.853  1.00  0.00    -0.461 OA
BRANCH   6   7
ATOM      7  C   UNL     1      -1.299   3.920  -3.214  1.00  0.00     0.333 C 
ATOM      8  O   UNL     1      -1.405   5.019  -2.673  1.00  0.00    -0.249 OA
BRANCH   7   9
ATOM      9  C   UNL     1       0.031   3.040  -3.140  1.00  0.00     0.223 C 
BRANCH   9  10
ATOM     10  C   UNL     1       1.023   4.022  -3.644  1.00  0.00     0.012 C 
ATOM     11  C   UNL     1       0.966   5.826  -1.815  1.00  0.00     0.069 C 
ATOM     12  C   UNL     1       1.378   5.209  -3.119  1.00  0.00     0.064 C 
ATOM     13  N   UNL     1       2.106   5.963  -4.004  1.00  0.00    -0.160 NA
ATOM     14  C   UNL     1       1.573   4.020  -5.017  1.00  0.00     0.156 C 
ATOM     15  N   UNL     1       2.227   5.352  -5.103  1.00  0.00    -0.181 NA
ATOM     16  C   UNL     1       0.504   3.916  -6.098  1.00  0.00     0.040 C 
ENDBRANCH   9  10
BRANCH   9  17
ATOM     17  N   UNL     1       0.163   1.682  -3.760  1.00  0.00    -0.337 N 
ATOM     18  C   UNL     1       1.008   0.578  -3.735  1.00  0.00     0.244 C 
ATOM     19  H   UNL     1      -0.584   1.521  -4.380  1.00  0.00     0.164 HD
ATOM     20  O   UNL     1       0.482  -0.420  -4.255  1.00  0.00    -0.273 OA
BRANCH  18  21
ATOM     21  C   UNL     1       2.509   0.466  -3.176  1.00  0.00     0.178 C 
ATOM     22  C   UNL     1       3.365  -0.875  -3.393  1.00  0.00     0.050 C 
ATOM     23  N   UNL     1       2.588   0.645  -1.718  1.00  0.00    -0.362 N 
ATOM     24  C   UNL     1       4.299  -0.846  -2.192  1.00  0.00    -0.016 A 
ATOM     25  C   UNL     1       2.611  -2.201  -3.319  1.00  0.00     0.015 C 
ATOM     26  C   UNL     1       3.810   0.068  -1.282  1.00  0.00     0.041 A 
ATOM     27  C   UNL     1       1.512   0.197  -0.900  1.00  0.00     0.144 C 
ATOM     28  C   UNL     1       5.398  -1.635  -1.849  1.00  0.00     0.045 A 
ATOM     29  C   UNL     1       4.444   0.249  -0.046  1.00  0.00     0.029 A 
ATOM     30  C   UNL     1       6.063  -1.404  -0.637  1.00  0.00     0.123 A 
ATOM     31  C   UNL     1       5.609  -0.449   0.260  1.00  0.00     0.041 A 
ATOM     32  F   UNL     1       7.143  -2.127  -0.314  1.00  0.00    -0.207 F 
ENDBRANCH  18  21
ENDBRANCH   9  17
ENDBRANCH   7   9
ENDBRANCH   6   7
ENDBRANCH   5   6
ENDBRANCH   4   5
ENDBRANCH   3   4
ENDBRANCH   2   3
ENDBRANCH   1   2
BRANCH   1  33
ATOM     33  O   UNL     1      -3.477   0.949  -2.409  1.00  0.00    -0.376 OA
BRANCH  33  34
ATOM     34  C   UNL     1      -4.842   0.760  -2.063  1.00  0.00     0.202 C 
BRANCH  34  35
ATOM     35  C   UNL     1      -5.174   0.242  -0.641  1.00  0.00     0.261 C 
BRANCH  35  36
ATOM     36  O   UNL     1      -4.439   0.886   0.433  1.00  0.00    -0.460 OA
BRANCH  36  37
ATOM     37  C   UNL     1      -3.714   0.072   1.273  1.00  0.00     0.338 C 
ATOM     38  O   UNL     1      -3.909  -1.093   1.439  1.00  0.00    -0.246 OA
BRANCH  37  39
ATOM     39  C   UNL     1      -2.418   0.773   1.657  1.00  0.00     0.060 A 
ATOM     40  C   UNL     1      -2.245   2.137   1.935  1.00  0.00     0.016 A 
ATOM     41  C   UNL     1      -1.270   0.012   1.510  1.00  0.00     0.016 A 
ATOM     42  C   UNL     1      -0.960   2.764   1.831  1.00  0.00     0.010 A 
ATOM     43  C   UNL     1      -0.011   0.635   1.530  1.00  0.00     0.010 A 
ATOM     44  C   UNL     1       0.194   2.035   1.513  1.00  0.00    -0.014 A 
BRANCH  44  45
ATOM     45  C   UNL     1       1.608   2.624   1.589  1.00  0.00     0.031 A 
ATOM     46  C   UNL     1       2.060   2.527   2.979  1.00  0.00     0.074 A 
ATOM     47  C   UNL     1       2.580   3.106   0.737  1.00  0.00     0.049 A 
ATOM     48  N   UNL     1       2.013   3.506   3.815  1.00  0.00    -0.248 NA
ATOM     49  C   UNL     1       2.367   1.216   3.561  1.00  0.00     0.031 C 
ATOM     50  C   UNL     1       2.516   3.194  -0.700  1.00  0.00     0.029 A 
ATOM     51  N   UNL     1       3.916   3.498   0.923  1.00  0.00    -0.354 N 
ATOM     52  C   UNL     1       2.570   2.980   4.958  1.00  0.00     0.074 A 
ATOM     53  C   UNL     1       2.451   1.548   4.849  1.00  0.00     0.031 C 
ATOM     54  C   UNL     1       3.727   3.308  -1.293  1.00  0.00     0.029 A 
ATOM     55  C   UNL     1       4.719   3.467  -0.265  1.00  0.00     0.049 A 
ATOM     56  H   UNL     1       4.273   3.772   1.799  1.00  0.00     0.167 HD
ATOM     57  C   UNL     1       3.426   3.726   5.702  1.00  0.00     0.034 A 
ATOM     58  C   UNL     1       6.063   3.658  -0.449  1.00  0.00     0.034 A 
ATOM     59  C   UNL     1       3.458   5.097   5.266  1.00  0.00     0.049 A 
ATOM     60  C   UNL     1       6.381   4.708   0.559  1.00  0.00     0.074 A 
ATOM     61  C   UNL     1       2.610   6.171   5.378  1.00  0.00     0.029 A 
ATOM     62  N   UNL     1       4.344   5.376   4.253  1.00  0.00    -0.354 N 
ATOM     63  N   UNL     1       5.870   5.914   0.541  1.00  0.00    -0.248 NA
ATOM     64  C   UNL     1       7.065   4.351   1.795  1.00  0.00     0.031 C 
ATOM     65  C   UNL     1       2.959   7.072   4.339  1.00  0.00     0.029 A 
ATOM     66  C   UNL     1       4.054   6.572   3.631  1.00  0.00     0.049 A 
ATOM     67  H   UNL     1       5.096   4.792   4.002  1.00  0.00     0.167 HD
ATOM     68  C   UNL     1       5.747   6.257   1.869  1.00  0.00     0.074 A 
ATOM     69  C   UNL     1       6.662   5.363   2.569  1.00  0.00     0.031 C 
ATOM     70  C   UNL     1       4.662   6.941   2.346  1.00  0.00     0.034 A 
BRANCH  57  71
ATOM     71  C   UNL     1       4.503   3.134   6.553  1.00  0.00     0.023 A 
ATOM     72  C   UNL     1       5.031   1.851   6.323  1.00  0.00     0.031 A 
ATOM     73  C   UNL     1       5.149   3.913   7.523  1.00  0.00     0.131 A 
ATOM     74  C   UNL     1       6.083   1.345   7.085  1.00  0.00     0.055 A 
ATOM     75  C   UNL     1       6.258   3.441   8.231  1.00  0.00     0.041 A 
ATOM     76  F   UNL     1       4.736   5.162   7.788  1.00  0.00    -0.206 F 
ATOM     77  C   UNL     1       6.722   2.143   8.026  1.00  0.00     0.022 A 
BRANCH  74  78
ATOM     78  S   UNL     1       6.606  -0.376   6.865  1.00  0.00     0.124 S 
ATOM     79  O   UNL     1       7.966  -0.213   6.367  1.00  0.00    -0.237 OA
ATOM     80  O   UNL     1       6.480  -0.902   8.222  1.00  0.00    -0.237 OA
ATOM     81  O   UNL     1       5.638  -0.906   5.907  1.00  0.00    -0.744 OA
ENDBRANCH  74  78
ENDBRANCH  57  71
BRANCH  58  82
ATOM     82  C   UNL     1       7.128   3.175  -1.445  1.00  0.00     0.023 A 
ATOM     83  C   UNL     1       7.133   1.909  -2.111  1.00  0.00     0.031 A 
ATOM     84  C   UNL     1       8.349   3.888  -1.547  1.00  0.00     0.131 A 
ATOM     85  C   UNL     1       8.315   1.396  -2.740  1.00  0.00     0.055 A 
ATOM     86  C   UNL     1       9.505   3.383  -2.172  1.00  0.00     0.041 A 
ATOM     87  F   UNL     1       8.478   5.104  -0.997  1.00  0.00    -0.206 F 
ATOM     88  C   UNL     1       9.500   2.126  -2.746  1.00  0.00     0.022 A 
BRANCH  85  89
ATOM     89  S   UNL     1       8.438  -0.224  -3.603  1.00  0.00     0.124 S 
ATOM     90  O   UNL     1       9.204   0.107  -4.805  1.00  0.00    -0.237 OA
ATOM     91  O   UNL     1       9.158  -1.041  -2.631  1.00  0.00    -0.237 OA
ATOM     92  O   UNL     1       7.057  -0.594  -3.874  1.00  0.00    -0.744 OA
ENDBRANCH  85  89
ENDBRANCH  58  82
BRANCH  70  93
ATOM     93  C   UNL     1       3.909   7.952   1.486  1.00  0.00     0.023 A 
ATOM     94  C   UNL     1       3.511   9.156   2.107  1.00  0.00     0.031 A 
ATOM     95  C   UNL     1       3.426   7.743   0.186  1.00  0.00     0.131 A 
ATOM     96  C   UNL     1       2.549   9.998   1.528  1.00  0.00     0.055 A 
ATOM     97  C   UNL     1       2.525   8.632  -0.429  1.00  0.00     0.041 A 
ATOM     98  F   UNL     1       3.748   6.650  -0.514  1.00  0.00    -0.206 F 
ATOM     99  C   UNL     1       2.043   9.737   0.259  1.00  0.00     0.022 A 
BRANCH  96 100
ATOM    100  S   UNL     1       1.859  11.394   2.453  1.00  0.00     0.124 S 
ATOM    101  O   UNL     1       2.082  12.513   1.542  1.00  0.00    -0.237 OA
ATOM    102  O   UNL     1       0.464  10.993   2.620  1.00  0.00    -0.237 OA
ATOM    103  O   UNL     1       2.647  11.426   3.681  1.00  0.00    -0.744 OA
ENDBRANCH  96 100
ENDBRANCH  70  93
ENDBRANCH  44  45
ENDBRANCH  37  39
ENDBRANCH  36  37
ENDBRANCH  35  36
ENDBRANCH  34  35
ENDBRANCH  33  34
ENDBRANCH   1  33
TORSDOF 23
