REMARK SMILES CC(C)C[C@H](C(=O)OCCOCCOCCOC(=O)c1ccc(-c2c3nc(c(-c4cc(S(=O)(=O)[O-])ccc4F)c4ccc([nH]4)c(-c4cc(S(=O)(=O)[O-])ccc4F)c4nc(c(-c5cc(S(=O)(=O)[O-])ccc5F)c5ccc2[nH]5)C=C4)C=C3)cc1)N1C(=O)/C(=C2\C(=O)Nc3ccc(Br)cc32)SC1=S
REMARK SMILES IDX 13 1 12 2 11 3 10 4 9 5 8 6 6 7 7 8 5 9 4 10 2 11 1 12 3 13
REMARK SMILES IDX 83 14 84 15 99 16 85 17 86 18 98 19 100 20 87 21 88 22 97 23
REMARK SMILES IDX 89 24 90 25 91 26 96 27 92 29 94 30 93 31 95 32 14 33 15 34
REMARK SMILES IDX 16 35 17 36 18 37 19 38 20 39 21 40 82 41 22 42 81 43 23 44
REMARK SMILES IDX 24 45 25 46 75 47 26 48 80 49 74 50 76 51 27 52 79 53 73 54
REMARK SMILES IDX 72 55 28 57 60 58 40 59 59 60 41 61 44 62 58 63 77 64 42 65
REMARK SMILES IDX 43 66 57 68 78 69 45 70 29 71 30 72 38 73 31 74 37 75 39 76
REMARK SMILES IDX 36 77 32 78 33 79 34 80 35 81 61 82 62 83 70 84 63 85 69 86
REMARK SMILES IDX 71 87 68 88 64 89 65 90 66 91 67 92 46 93 47 94 55 95 48 96
REMARK SMILES IDX 54 97 56 98 53 99 49 100 50 101 51 102 52 103
REMARK H PARENT 90 28 76 56 44 67
REMARK Flexibility Score: inf
ROOT
ATOM      1  C   UNL     1       0.382  -0.317  -3.553  1.00  0.00     0.188 C 
ENDROOT
BRANCH   1   2
ATOM      2  C   UNL     1       1.242  -0.297  -2.263  1.00  0.00     0.188 C 
BRANCH   2   3
ATOM      3  O   UNL     1       1.671  -1.521  -1.686  1.00  0.00    -0.376 OA
BRANCH   3   4
ATOM      4  C   UNL     1       0.739  -2.588  -1.651  1.00  0.00     0.202 C 
BRANCH   4   5
ATOM      5  C   UNL     1      -0.560  -2.359  -0.864  1.00  0.00     0.261 C 
BRANCH   5   6
ATOM      6  O   UNL     1      -1.218  -1.116  -1.185  1.00  0.00    -0.462 OA
BRANCH   6   7
ATOM      7  C   UNL     1      -1.795  -0.428  -0.154  1.00  0.00     0.329 C 
ATOM      8  O   UNL     1      -1.736  -0.765   1.022  1.00  0.00    -0.250 OA
BRANCH   7   9
ATOM      9  C   UNL     1      -2.648   0.773  -0.654  1.00  0.00     0.202 C 
BRANCH   9  10
ATOM     10  C   UNL     1      -2.012   1.562  -1.835  1.00  0.00     0.040 C 
BRANCH  10  11
ATOM     11  C   UNL     1      -2.293   3.085  -1.834  1.00  0.00    -0.015 C 
ATOM     12  C   UNL     1      -1.605   3.759  -0.644  1.00  0.00     0.007 C 
ATOM     13  C   UNL     1      -1.911   3.743  -3.163  1.00  0.00     0.007 C 
ENDBRANCH  10  11
ENDBRANCH   9  10
BRANCH   9  14
ATOM     14  N   UNL     1      -4.042   0.416  -0.996  1.00  0.00    -0.278 N 
ATOM     15  C   UNL     1      -4.308  -0.809  -1.561  1.00  0.00     0.267 C 
ATOM     16  C   UNL     1      -5.108   1.277  -1.005  1.00  0.00     0.149 C 
ATOM     17  O   UNL     1      -3.845  -1.859  -1.146  1.00  0.00    -0.268 OA
ATOM     18  C   UNL     1      -5.413  -0.708  -2.546  1.00  0.00     0.093 C 
ATOM     19  S   UNL     1      -6.201   0.812  -2.310  1.00  0.00    -0.053 SA
ATOM     20  S   UNL     1      -5.422   2.551   0.020  1.00  0.00    -0.052 S 
ATOM     21  C   UNL     1      -5.799  -1.696  -3.365  1.00  0.00     0.069 C 
ATOM     22  C   UNL     1      -5.237  -3.090  -3.314  1.00  0.00     0.257 C 
ATOM     23  C   UNL     1      -6.989  -1.782  -4.225  1.00  0.00     0.013 A 
ATOM     24  O   UNL     1      -4.092  -3.465  -3.095  1.00  0.00    -0.269 OA
ATOM     25  N   UNL     1      -6.278  -3.902  -3.715  1.00  0.00    -0.321 N 
ATOM     26  C   UNL     1      -7.291  -3.147  -4.296  1.00  0.00     0.049 A 
ATOM     27  C   UNL     1      -7.706  -0.877  -4.988  1.00  0.00     0.026 A 
ATOM     28  H   UNL     1      -6.301  -4.880  -3.605  1.00  0.00     0.170 HD
ATOM     29  C   UNL     1      -8.375  -3.646  -4.984  1.00  0.00     0.028 A 
ATOM     30  C   UNL     1      -8.771  -1.372  -5.750  1.00  0.00     0.018 A 
ATOM     31  C   UNL     1      -9.128  -2.734  -5.722  1.00  0.00     0.018 A 
ATOM     32  Br  UNL     1      -9.718  -0.204  -6.900  1.00  0.00    -0.051 Br
ENDBRANCH   9  14
ENDBRANCH   7   9
ENDBRANCH   6   7
ENDBRANCH   5   6
ENDBRANCH   4   5
ENDBRANCH   3   4
ENDBRANCH   2   3
ENDBRANCH   1   2
BRANCH   1  33
ATOM     33  O   UNL     1       0.623  -1.305  -4.540  1.00  0.00    -0.376 OA
BRANCH  33  34
ATOM     34  C   UNL     1       1.964  -1.520  -4.948  1.00  0.00     0.202 C 
BRANCH  34  35
ATOM     35  C   UNL     1       2.698  -0.308  -5.531  1.00  0.00     0.261 C 
BRANCH  35  36
ATOM     36  O   UNL     1       3.004   0.696  -4.538  1.00  0.00    -0.460 OA
BRANCH  36  37
ATOM     37  C   UNL     1       2.645   1.964  -4.857  1.00  0.00     0.338 C 
ATOM     38  O   UNL     1       2.119   2.331  -5.895  1.00  0.00    -0.246 OA
BRANCH  37  39
ATOM     39  C   UNL     1       2.837   2.885  -3.716  1.00  0.00     0.060 A 
ATOM     40  C   UNL     1       1.732   3.173  -2.917  1.00  0.00     0.016 A 
ATOM     41  C   UNL     1       4.003   3.632  -3.566  1.00  0.00     0.016 A 
ATOM     42  C   UNL     1       1.755   4.250  -2.031  1.00  0.00     0.010 A 
ATOM     43  C   UNL     1       4.041   4.685  -2.630  1.00  0.00     0.010 A 
ATOM     44  C   UNL     1       2.904   5.025  -1.873  1.00  0.00    -0.014 A 
BRANCH  44  45
ATOM     45  C   UNL     1       2.844   6.256  -1.028  1.00  0.00     0.031 A 
ATOM     46  C   UNL     1       2.895   7.606  -1.694  1.00  0.00     0.074 A 
ATOM     47  C   UNL     1       2.635   6.197   0.303  1.00  0.00     0.049 A 
ATOM     48  N   UNL     1       3.032   8.794  -1.163  1.00  0.00    -0.248 NA
ATOM     49  C   UNL     1       2.754   7.613  -3.157  1.00  0.00     0.031 C 
ATOM     50  C   UNL     1       2.380   4.976   1.068  1.00  0.00     0.029 A 
ATOM     51  N   UNL     1       2.591   7.193   1.252  1.00  0.00    -0.354 N 
ATOM     52  C   UNL     1       3.040   9.689  -2.228  1.00  0.00     0.074 A 
ATOM     53  C   UNL     1       2.888   8.901  -3.435  1.00  0.00     0.031 C 
ATOM     54  C   UNL     1       2.207   5.295   2.362  1.00  0.00     0.029 A 
ATOM     55  C   UNL     1       2.434   6.727   2.540  1.00  0.00     0.049 A 
ATOM     56  H   UNL     1       2.665   8.150   1.032  1.00  0.00     0.167 HD
ATOM     57  C   UNL     1       3.176  11.039  -2.201  1.00  0.00     0.034 A 
ATOM     58  C   UNL     1       2.528   7.364   3.727  1.00  0.00     0.034 A 
ATOM     59  C   UNL     1       3.312  11.809  -0.987  1.00  0.00     0.049 A 
ATOM     60  C   UNL     1       2.850   8.843   3.738  1.00  0.00     0.074 A 
ATOM     61  C   UNL     1       3.507  13.173  -0.848  1.00  0.00     0.029 A 
ATOM     62  N   UNL     1       3.270  11.284   0.299  1.00  0.00    -0.354 N 
ATOM     63  N   UNL     1       2.981   9.669   2.725  1.00  0.00    -0.248 NA
ATOM     64  C   UNL     1       3.054   9.471   5.051  1.00  0.00     0.031 C 
ATOM     65  C   UNL     1       3.666  13.458   0.513  1.00  0.00     0.029 A 
ATOM     66  C   UNL     1       3.475  12.290   1.232  1.00  0.00     0.049 A 
ATOM     67  H   UNL     1       3.117  10.336   0.516  1.00  0.00     0.167 HD
ATOM     68  C   UNL     1       3.249  10.918   3.284  1.00  0.00     0.074 A 
ATOM     69  C   UNL     1       3.247  10.739   4.721  1.00  0.00     0.031 C 
ATOM     70  C   UNL     1       3.474  12.105   2.665  1.00  0.00     0.034 A 
BRANCH  57  71
ATOM     71  C   UNL     1       3.297  11.748  -3.528  1.00  0.00     0.023 A 
ATOM     72  C   UNL     1       2.247  11.791  -4.461  1.00  0.00     0.031 A 
ATOM     73  C   UNL     1       4.517  12.355  -3.882  1.00  0.00     0.131 A 
ATOM     74  C   UNL     1       2.463  12.357  -5.728  1.00  0.00     0.055 A 
ATOM     75  C   UNL     1       4.697  12.992  -5.111  1.00  0.00     0.041 A 
ATOM     76  F   UNL     1       5.565  12.322  -3.044  1.00  0.00    -0.206 F 
ATOM     77  C   UNL     1       3.671  12.981  -6.049  1.00  0.00     0.022 A 
BRANCH  74  78
ATOM     78  S   UNL     1       1.200  12.123  -7.010  1.00  0.00     0.124 S 
ATOM     79  O   UNL     1       1.106  10.666  -7.068  1.00  0.00    -0.237 OA
ATOM     80  O   UNL     1       0.047  12.816  -6.448  1.00  0.00    -0.237 OA
ATOM     81  O   UNL     1       1.791  12.748  -8.192  1.00  0.00    -0.744 OA
ENDBRANCH  74  78
ENDBRANCH  57  71
BRANCH  58  82
ATOM     82  C   UNL     1       2.432   6.610   5.017  1.00  0.00     0.023 A 
ATOM     83  C   UNL     1       1.482   6.947   5.997  1.00  0.00     0.031 A 
ATOM     84  C   UNL     1       3.362   5.599   5.331  1.00  0.00     0.131 A 
ATOM     85  C   UNL     1       1.517   6.319   7.254  1.00  0.00     0.055 A 
ATOM     86  C   UNL     1       3.347   4.929   6.556  1.00  0.00     0.041 A 
ATOM     87  F   UNL     1       4.310   5.248   4.448  1.00  0.00    -0.206 F 
ATOM     88  C   UNL     1       2.430   5.300   7.533  1.00  0.00     0.022 A 
BRANCH  85  89
ATOM     89  S   UNL     1       0.428   6.937   8.569  1.00  0.00     0.124 S 
ATOM     90  O   UNL     1       0.843   8.331   8.664  1.00  0.00    -0.237 OA
ATOM     91  O   UNL     1      -0.896   6.697   8.004  1.00  0.00    -0.237 OA
ATOM     92  O   UNL     1       0.774   6.102   9.718  1.00  0.00    -0.744 OA
ENDBRANCH  85  89
ENDBRANCH  58  82
BRANCH  70  93
ATOM     93  C   UNL     1       3.673  13.321   3.542  1.00  0.00     0.023 A 
ATOM     94  C   UNL     1       4.788  13.458   4.388  1.00  0.00     0.031 A 
ATOM     95  C   UNL     1       2.725  14.361   3.530  1.00  0.00     0.131 A 
ATOM     96  C   UNL     1       4.899  14.581   5.223  1.00  0.00     0.055 A 
ATOM     97  C   UNL     1       2.875  15.506   4.313  1.00  0.00     0.041 A 
ATOM     98  F   UNL     1       1.637  14.283   2.747  1.00  0.00    -0.206 F 
ATOM     99  C   UNL     1       3.960  15.615   5.176  1.00  0.00     0.022 A 
BRANCH  96 100
ATOM    100  S   UNL     1       6.239  14.633   6.446  1.00  0.00     0.124 S 
ATOM    101  O   UNL     1       5.988  13.423   7.222  1.00  0.00    -0.237 OA
ATOM    102  O   UNL     1       7.431  14.615   5.605  1.00  0.00    -0.237 OA
ATOM    103  O   UNL     1       6.005  15.887   7.160  1.00  0.00    -0.744 OA
ENDBRANCH  96 100
ENDBRANCH  70  93
ENDBRANCH  44  45
ENDBRANCH  37  39
ENDBRANCH  36  37
ENDBRANCH  35  36
ENDBRANCH  34  35
ENDBRANCH  33  34
ENDBRANCH   1  33
TORSDOF 23
