REMARK SMILES CC[C@@](C)(C(=O)OCCOCCOCCOC(=O)c1ccc(-c2c3nc(c(-c4cc(S(=O)(=O)[O-])ccc4F)c4ccc([nH]4)c(-c4cc(S(=O)(=O)[O-])ccc4F)c4nc(c(-c5cc(S(=O)(=O)[O-])ccc5F)c5ccc2[nH]5)C=C4)C=C3)cc1)n1nnnc1Cc1cccs1
REMARK SMILES IDX 11 1 10 2 9 3 8 4 7 5 5 6 6 7 3 8 4 9 2 10 1 11 82 12 83 13
REMARK SMILES IDX 86 14 84 15 85 16 87 17 88 18 89 19 92 20 90 21 91 22 12 23
REMARK SMILES IDX 13 24 14 25 15 26 16 27 17 28 18 29 19 30 20 31 81 32 21 33
REMARK SMILES IDX 80 34 22 35 23 36 24 37 74 38 25 39 79 40 73 41 75 42 26 43
REMARK SMILES IDX 78 44 72 45 71 46 27 48 59 49 39 50 58 51 40 52 43 53 57 54
REMARK SMILES IDX 76 55 41 56 42 57 56 59 77 60 44 61 28 62 29 63 37 64 30 65
REMARK SMILES IDX 36 66 38 67 35 68 31 69 32 70 33 71 34 72 60 73 61 74 69 75
REMARK SMILES IDX 62 76 68 77 70 78 67 79 63 80 64 81 65 82 66 83 45 84 46 85
REMARK SMILES IDX 54 86 47 87 53 88 55 89 52 90 48 91 49 92 50 93 51 94
REMARK H PARENT 75 47 43 58
REMARK Flexibility Score: inf
ROOT
ATOM      1  C   UNL     1       0.571  -1.105   5.271  1.00  0.00     0.188 C 
ENDROOT
BRANCH   1   2
ATOM      2  O   UNL     1      -0.314  -0.505   6.208  1.00  0.00    -0.376 OA
BRANCH   2   3
ATOM      3  C   UNL     1      -1.447   0.200   5.718  1.00  0.00     0.202 C 
BRANCH   3   4
ATOM      4  C   UNL     1      -1.143   1.478   4.942  1.00  0.00     0.261 C 
BRANCH   4   5
ATOM      5  O   UNL     1      -0.657   1.216   3.604  1.00  0.00    -0.461 OA
BRANCH   5   6
ATOM      6  C   UNL     1       0.533   1.799   3.276  1.00  0.00     0.334 C 
ATOM      7  O   UNL     1       1.194   2.438   4.086  1.00  0.00    -0.249 OA
BRANCH   6   8
ATOM      8  C   UNL     1       0.910   1.644   1.778  1.00  0.00     0.160 C 
ATOM      9  C   UNL     1       0.775   3.085   1.206  1.00  0.00     0.050 C 
BRANCH   8  10
ATOM     10  C   UNL     1      -0.098   0.770   0.981  1.00  0.00     0.039 C 
ATOM     11  C   UNL     1       0.170   0.675  -0.521  1.00  0.00     0.007 C 
ENDBRANCH   8  10
BRANCH   8  12
ATOM     12  N   UNL     1       2.315   1.206   1.724  1.00  0.00    -0.212 N 
ATOM     13  N   UNL     1       3.257   2.141   1.996  1.00  0.00    -0.044 NA
ATOM     14  C   UNL     1       2.964  -0.006   1.539  1.00  0.00     0.157 A 
ATOM     15  N   UNL     1       4.404   1.503   2.095  1.00  0.00    -0.024 NA
ATOM     16  N   UNL     1       4.238   0.182   1.836  1.00  0.00    -0.113 NA
BRANCH  14  17
ATOM     17  C   UNL     1       2.414  -1.340   1.162  1.00  0.00     0.125 C 
BRANCH  17  18
ATOM     18  C   UNL     1       3.181  -2.073   0.088  1.00  0.00     0.012 A 
ATOM     19  C   UNL     1       4.534  -2.350   0.004  1.00  0.00     0.016 A 
ATOM     20  S   UNL     1       2.324  -2.797  -1.216  1.00  0.00    -0.148 S 
ATOM     21  C   UNL     1       4.858  -3.172  -1.114  1.00  0.00     0.012 A 
ATOM     22  C   UNL     1       3.746  -3.497  -1.855  1.00  0.00     0.065 A 
ENDBRANCH  17  18
ENDBRANCH  14  17
ENDBRANCH   8  12
ENDBRANCH   6   8
ENDBRANCH   5   6
ENDBRANCH   4   5
ENDBRANCH   3   4
ENDBRANCH   2   3
ENDBRANCH   1   2
BRANCH   1  23
ATOM     23  C   UNL     1      -0.048  -1.825   4.059  1.00  0.00     0.188 C 
BRANCH  23  24
ATOM     24  O   UNL     1      -1.313  -2.455   4.216  1.00  0.00    -0.376 OA
BRANCH  24  25
ATOM     25  C   UNL     1      -1.434  -3.367   5.305  1.00  0.00     0.202 C 
BRANCH  25  26
ATOM     26  C   UNL     1      -0.547  -4.601   5.176  1.00  0.00     0.261 C 
BRANCH  26  27
ATOM     27  O   UNL     1       0.831  -4.230   5.348  1.00  0.00    -0.460 OA
BRANCH  27  28
ATOM     28  C   UNL     1       1.708  -5.191   4.977  1.00  0.00     0.338 C 
ATOM     29  O   UNL     1       1.431  -6.328   4.641  1.00  0.00    -0.246 OA
BRANCH  28  30
ATOM     30  C   UNL     1       3.087  -4.659   5.018  1.00  0.00     0.060 A 
ATOM     31  C   UNL     1       3.424  -3.492   4.329  1.00  0.00     0.016 A 
ATOM     32  C   UNL     1       4.084  -5.410   5.632  1.00  0.00     0.016 A 
ATOM     33  C   UNL     1       4.758  -3.119   4.165  1.00  0.00     0.010 A 
ATOM     34  C   UNL     1       5.417  -5.001   5.528  1.00  0.00     0.010 A 
ATOM     35  C   UNL     1       5.773  -3.882   4.749  1.00  0.00    -0.014 A 
BRANCH  35  36
ATOM     36  C   UNL     1       7.208  -3.627   4.438  1.00  0.00     0.031 A 
ATOM     37  C   UNL     1       7.997  -4.711   3.752  1.00  0.00     0.074 A 
ATOM     38  C   UNL     1       7.807  -2.456   4.729  1.00  0.00     0.049 A 
ATOM     39  N   UNL     1       9.290  -4.869   3.652  1.00  0.00    -0.248 NA
ATOM     40  C   UNL     1       7.209  -5.775   3.109  1.00  0.00     0.031 C 
ATOM     41  C   UNL     1       7.144  -1.271   5.270  1.00  0.00     0.029 A 
ATOM     42  N   UNL     1       9.123  -2.076   4.609  1.00  0.00    -0.354 N 
ATOM     43  C   UNL     1       9.474  -6.083   2.997  1.00  0.00     0.074 A 
ATOM     44  C   UNL     1       8.156  -6.618   2.727  1.00  0.00     0.031 C 
ATOM     45  C   UNL     1       8.052  -0.293   5.425  1.00  0.00     0.029 A 
ATOM     46  C   UNL     1       9.375  -0.812   5.094  1.00  0.00     0.049 A 
ATOM     47  H   UNL     1       9.817  -2.651   4.215  1.00  0.00     0.167 HD
ATOM     48  C   UNL     1      10.638  -6.696   2.667  1.00  0.00     0.034 A 
ATOM     49  C   UNL     1      10.542  -0.172   5.311  1.00  0.00     0.034 A 
ATOM     50  C   UNL     1      11.937  -6.116   2.909  1.00  0.00     0.049 A 
ATOM     51  C   UNL     1      11.832  -0.896   5.008  1.00  0.00     0.074 A 
ATOM     52  C   UNL     1      13.188  -6.652   2.655  1.00  0.00     0.029 A 
ATOM     53  N   UNL     1      12.151  -4.852   3.447  1.00  0.00    -0.354 N 
ATOM     54  N   UNL     1      12.008  -2.104   4.522  1.00  0.00    -0.248 NA
ATOM     55  C   UNL     1      13.079  -0.178   5.303  1.00  0.00     0.031 C 
ATOM     56  C   UNL     1      14.155  -5.735   3.085  1.00  0.00     0.029 A 
ATOM     57  C   UNL     1      13.510  -4.598   3.545  1.00  0.00     0.049 A 
ATOM     58  H   UNL     1      11.440  -4.228   3.719  1.00  0.00     0.167 HD
ATOM     59  C   UNL     1      13.387  -2.284   4.443  1.00  0.00     0.074 A 
ATOM     60  C   UNL     1      13.993  -1.054   4.911  1.00  0.00     0.031 C 
ATOM     61  C   UNL     1      14.091  -3.368   4.028  1.00  0.00     0.034 A 
BRANCH  48  62
ATOM     62  C   UNL     1      10.547  -8.089   2.093  1.00  0.00     0.023 A 
ATOM     63  C   UNL     1       9.947  -8.352   0.849  1.00  0.00     0.031 A 
ATOM     64  C   UNL     1      11.018  -9.185   2.840  1.00  0.00     0.131 A 
ATOM     65  C   UNL     1       9.764  -9.679   0.428  1.00  0.00     0.055 A 
ATOM     66  C   UNL     1      10.907 -10.497   2.377  1.00  0.00     0.041 A 
ATOM     67  F   UNL     1      11.578  -8.999   4.046  1.00  0.00    -0.206 F 
ATOM     68  C   UNL     1      10.261 -10.752   1.172  1.00  0.00     0.022 A 
BRANCH  65  69
ATOM     69  S   UNL     1       8.732  -9.992  -1.031  1.00  0.00     0.124 S 
ATOM     70  O   UNL     1       7.462  -9.391  -0.630  1.00  0.00    -0.237 OA
ATOM     71  O   UNL     1       9.460  -9.301  -2.088  1.00  0.00    -0.237 OA
ATOM     72  O   UNL     1       8.716 -11.450  -1.135  1.00  0.00    -0.744 OA
ENDBRANCH  65  69
ENDBRANCH  48  62
BRANCH  49  73
ATOM     73  C   UNL     1      10.558   1.182   5.941  1.00  0.00     0.023 A 
ATOM     74  C   UNL     1      11.086   2.296   5.270  1.00  0.00     0.031 A 
ATOM     75  C   UNL     1      10.085   1.369   7.254  1.00  0.00     0.131 A 
ATOM     76  C   UNL     1      11.161   3.537   5.924  1.00  0.00     0.055 A 
ATOM     77  C   UNL     1      10.106   2.618   7.878  1.00  0.00     0.041 A 
ATOM     78  F   UNL     1       9.584   0.337   7.951  1.00  0.00    -0.206 F 
ATOM     79  C   UNL     1      10.657   3.709   7.216  1.00  0.00     0.022 A 
BRANCH  76  80
ATOM     80  S   UNL     1      12.013   4.910   5.099  1.00  0.00     0.124 S 
ATOM     81  O   UNL     1      13.343   4.349   4.885  1.00  0.00    -0.237 OA
ATOM     82  O   UNL     1      11.199   5.103   3.904  1.00  0.00    -0.237 OA
ATOM     83  O   UNL     1      11.944   5.993   6.078  1.00  0.00    -0.744 OA
ENDBRANCH  76  80
ENDBRANCH  49  73
BRANCH  61  84
ATOM     84  C   UNL     1      15.594  -3.241   4.026  1.00  0.00     0.023 A 
ATOM     85  C   UNL     1      16.331  -3.172   5.221  1.00  0.00     0.031 A 
ATOM     86  C   UNL     1      16.294  -3.174   2.808  1.00  0.00     0.131 A 
ATOM     87  C   UNL     1      17.721  -2.987   5.173  1.00  0.00     0.055 A 
ATOM     88  C   UNL     1      17.682  -3.042   2.767  1.00  0.00     0.041 A 
ATOM     89  F   UNL     1      15.637  -3.235   1.639  1.00  0.00    -0.206 F 
ATOM     90  C   UNL     1      18.402  -2.936   3.954  1.00  0.00     0.022 A 
BRANCH  87  91
ATOM     91  S   UNL     1      18.622  -2.735   6.727  1.00  0.00     0.124 S 
ATOM     92  O   UNL     1      17.974  -1.543   7.265  1.00  0.00    -0.237 OA
ATOM     93  O   UNL     1      18.363  -3.980   7.444  1.00  0.00    -0.237 OA
ATOM     94  O   UNL     1      20.006  -2.548   6.295  1.00  0.00    -0.744 OA
ENDBRANCH  87  91
ENDBRANCH  61  84
ENDBRANCH  35  36
ENDBRANCH  28  30
ENDBRANCH  27  28
ENDBRANCH  26  27
ENDBRANCH  25  26
ENDBRANCH  24  25
ENDBRANCH  23  24
ENDBRANCH   1  23
TORSDOF 24
