REMARK SMILES O=C(CSc1nc2c([nH]1)CCCCCC2)OCCOCCOCCOC(=O)c1ccc(-c2c3nc(c(-c4cc(S(=O)(=O)[O-])ccc4F)c4ccc([nH]4)c(-c4cc(S(=O)(=O)[O-])ccc4F)c4nc(c(-c5cc(S(=O)(=O)[O-])ccc5F)c5ccc2[nH]5)C=C4)C=C3)cc1
REMARK SMILES IDX 19 1 18 2 17 3 16 4 2 5 1 6 3 7 4 8 5 9 6 10 9 11 7 12 8 13
REMARK SMILES IDX 15 15 14 16 13 17 12 18 10 20 11 21 20 23 21 24 22 25 23 26
REMARK SMILES IDX 24 27 25 28 26 29 27 30 28 31 29 32 90 33 30 34 89 35 31 36
REMARK SMILES IDX 32 37 33 38 83 39 34 40 88 41 82 42 84 43 35 44 87 45 81 46
REMARK SMILES IDX 80 47 36 49 68 50 48 51 67 52 49 53 52 54 66 55 85 56 50 57
REMARK SMILES IDX 51 58 65 60 86 61 53 62 37 63 38 64 46 65 39 66 45 67 47 68
REMARK SMILES IDX 44 69 40 70 41 71 42 72 43 73 69 74 70 75 78 76 71 77 77 78
REMARK SMILES IDX 79 79 76 80 72 81 73 82 74 83 75 84 54 85 55 86 63 87 56 88
REMARK SMILES IDX 62 89 64 90 61 91 57 92 58 93 59 94 60 95
REMARK H PARENT 9 14 84 48 52 59
REMARK Flexibility Score: 80.00
ROOT
ATOM      1  O   UNL     1       4.514  -1.723  -1.273  1.00  0.00    -0.376 OA
ENDROOT
BRANCH   1   2
ATOM      2  C   UNL     1       5.069  -0.658  -0.518  1.00  0.00     0.202 C 
BRANCH   2   3
ATOM      3  C   UNL     1       4.446  -0.357   0.845  1.00  0.00     0.261 C 
BRANCH   3   4
ATOM      4  O   UNL     1       3.036  -0.047   0.873  1.00  0.00    -0.463 OA
BRANCH   4   5
ATOM      5  C   UNL     1       2.413   1.037   0.376  1.00  0.00     0.316 C 
ATOM      6  O   UNL     1       1.323   1.369   0.844  1.00  0.00    -0.251 OA
BRANCH   5   7
ATOM      7  C   UNL     1       3.051   1.844  -0.725  1.00  0.00     0.200 C 
BRANCH   7   8
ATOM      8  S   UNL     1       4.266   3.000  -0.057  1.00  0.00    -0.076 SA
BRANCH   8   9
ATOM      9  C   UNL     1       3.198   4.227   0.497  1.00  0.00     0.166 A 
ATOM     10  N   UNL     1       3.203   5.476   0.118  1.00  0.00    -0.227 NA
ATOM     11  N   UNL     1       2.208   3.966   1.393  1.00  0.00    -0.337 N 
ATOM     12  C   UNL     1       2.168   6.067   0.809  1.00  0.00     0.063 A 
ATOM     13  C   UNL     1       1.537   5.135   1.616  1.00  0.00     0.039 A 
ATOM     14  H   UNL     1       2.011   3.094   1.806  1.00  0.00     0.168 HD
BRANCH  12  15
ATOM     15  C   UNL     1       1.951   7.530   0.651  1.00  0.00     0.058 C 
BRANCH  15  16
ATOM     16  C   UNL     1       0.953   8.175   1.609  1.00  0.00     0.006 C 
BRANCH  16  17
ATOM     17  C   UNL     1       1.388   8.283   3.077  1.00  0.00     0.000 C 
BRANCH  17  18
ATOM     18  C   UNL     1       1.931   7.043   3.792  1.00  0.00     0.000 CG0
ATOM     19  G   UNL     1       0.978   5.848   3.928  1.00  0.00     0.000 G0
ENDBRANCH  17  18
ENDBRANCH  16  17
ENDBRANCH  15  16
ENDBRANCH  12  15
BRANCH  13  20
ATOM     20  C   UNL     1       0.459   5.233   2.627  1.00  0.00     0.056 C 
BRANCH  20  21
ATOM     21  C   UNL     1       0.978   5.848   3.928  1.00  0.00     0.006 CG0
ATOM     22  G   UNL     1       1.931   7.043   3.792  1.00  0.00     0.000 G0
ENDBRANCH  20  21
ENDBRANCH  13  20
ENDBRANCH   8   9
ENDBRANCH   7   8
ENDBRANCH   5   7
ENDBRANCH   4   5
ENDBRANCH   3   4
ENDBRANCH   2   3
ENDBRANCH   1   2
BRANCH   1  23
ATOM     23  C   UNL     1       3.110  -1.767  -1.454  1.00  0.00     0.188 C 
BRANCH  23  24
ATOM     24  C   UNL     1       2.344  -2.687  -0.483  1.00  0.00     0.188 C 
BRANCH  24  25
ATOM     25  O   UNL     1       3.029  -3.347   0.574  1.00  0.00    -0.376 OA
BRANCH  25  26
ATOM     26  C   UNL     1       4.250  -4.039   0.336  1.00  0.00     0.202 C 
BRANCH  26  27
ATOM     27  C   UNL     1       4.325  -5.090  -0.766  1.00  0.00     0.261 C 
BRANCH  27  28
ATOM     28  O   UNL     1       4.290  -4.526  -2.075  1.00  0.00    -0.460 OA
BRANCH  28  29
ATOM     29  C   UNL     1       3.161  -4.776  -2.775  1.00  0.00     0.338 C 
ATOM     30  O   UNL     1       2.136  -5.273  -2.345  1.00  0.00    -0.246 OA
BRANCH  29  31
ATOM     31  C   UNL     1       3.346  -4.390  -4.185  1.00  0.00     0.060 A 
ATOM     32  C   UNL     1       2.231  -4.516  -5.019  1.00  0.00     0.016 A 
ATOM     33  C   UNL     1       4.617  -4.103  -4.704  1.00  0.00     0.016 A 
ATOM     34  C   UNL     1       2.419  -4.551  -6.385  1.00  0.00     0.010 A 
ATOM     35  C   UNL     1       4.805  -4.142  -6.073  1.00  0.00     0.010 A 
ATOM     36  C   UNL     1       3.717  -4.453  -6.891  1.00  0.00    -0.014 A 
BRANCH  36  37
ATOM     37  C   UNL     1       3.914  -4.819  -8.283  1.00  0.00     0.031 A 
ATOM     38  C   UNL     1       3.594  -3.798  -9.299  1.00  0.00     0.074 A 
ATOM     39  C   UNL     1       4.438  -6.013  -8.621  1.00  0.00     0.049 A 
ATOM     40  N   UNL     1       2.737  -3.878 -10.261  1.00  0.00    -0.248 NA
ATOM     41  C   UNL     1       4.273  -2.500  -9.199  1.00  0.00     0.031 C 
ATOM     42  C   UNL     1       5.056  -6.993  -7.723  1.00  0.00     0.029 A 
ATOM     43  N   UNL     1       4.635  -6.548  -9.859  1.00  0.00    -0.354 N 
ATOM     44  C   UNL     1       2.909  -2.727 -11.020  1.00  0.00     0.074 A 
ATOM     45  C   UNL     1       3.756  -1.856 -10.245  1.00  0.00     0.031 C 
ATOM     46  C   UNL     1       5.749  -7.887  -8.459  1.00  0.00     0.029 A 
ATOM     47  C   UNL     1       5.525  -7.612  -9.870  1.00  0.00     0.049 A 
ATOM     48  H   UNL     1       4.188  -6.212 -10.669  1.00  0.00     0.167 HD
ATOM     49  C   UNL     1       2.507  -2.659 -12.317  1.00  0.00     0.034 A 
ATOM     50  C   UNL     1       6.112  -8.177 -10.953  1.00  0.00     0.034 A 
ATOM     51  C   UNL     1       1.520  -3.666 -12.624  1.00  0.00     0.049 A 
ATOM     52  C   UNL     1       5.276  -7.867 -12.136  1.00  0.00     0.074 A 
ATOM     53  C   UNL     1       0.278  -3.988 -12.110  1.00  0.00     0.029 A 
ATOM     54  N   UNL     1       1.888  -4.743 -13.396  1.00  0.00    -0.354 N 
ATOM     55  N   UNL     1       4.073  -8.335 -12.320  1.00  0.00    -0.248 NA
ATOM     56  C   UNL     1       5.615  -6.707 -12.947  1.00  0.00     0.031 C 
ATOM     57  C   UNL     1       0.188  -5.407 -12.206  1.00  0.00     0.029 A 
ATOM     58  C   UNL     1       1.362  -5.866 -12.805  1.00  0.00     0.049 A 
ATOM     59  H   UNL     1       2.428  -4.714 -14.219  1.00  0.00     0.167 HD
ATOM     60  C   UNL     1       3.375  -7.307 -12.933  1.00  0.00     0.074 A 
ATOM     61  C   UNL     1       4.403  -6.388 -13.409  1.00  0.00     0.031 C 
ATOM     62  C   UNL     1       2.030  -7.153 -12.748  1.00  0.00     0.034 A 
BRANCH  49  63
ATOM     63  C   UNL     1       3.217  -1.861 -13.384  1.00  0.00     0.023 A 
ATOM     64  C   UNL     1       2.630  -1.798 -14.661  1.00  0.00     0.031 A 
ATOM     65  C   UNL     1       4.549  -1.391 -13.296  1.00  0.00     0.131 A 
ATOM     66  C   UNL     1       3.365  -1.353 -15.774  1.00  0.00     0.055 A 
ATOM     67  C   UNL     1       5.248  -0.873 -14.389  1.00  0.00     0.041 A 
ATOM     68  F   UNL     1       5.278  -1.499 -12.178  1.00  0.00    -0.206 F 
ATOM     69  C   UNL     1       4.667  -0.876 -15.644  1.00  0.00     0.022 A 
BRANCH  66  70
ATOM     70  S   UNL     1       2.659  -1.592 -17.425  1.00  0.00     0.124 S 
ATOM     71  O   UNL     1       2.281  -3.001 -17.385  1.00  0.00    -0.237 OA
ATOM     72  O   UNL     1       1.562  -0.630 -17.424  1.00  0.00    -0.237 OA
ATOM     73  O   UNL     1       3.770  -1.272 -18.318  1.00  0.00    -0.744 OA
ENDBRANCH  66  70
ENDBRANCH  49  63
BRANCH  50  74
ATOM     74  C   UNL     1       7.490  -8.726 -11.024  1.00  0.00     0.023 A 
ATOM     75  C   UNL     1       7.893  -9.614 -12.038  1.00  0.00     0.031 A 
ATOM     76  C   UNL     1       8.509  -8.203 -10.194  1.00  0.00     0.131 A 
ATOM     77  C   UNL     1       9.256  -9.956 -12.179  1.00  0.00     0.055 A 
ATOM     78  C   UNL     1       9.851  -8.565 -10.320  1.00  0.00     0.041 A 
ATOM     79  F   UNL     1       8.249  -7.254  -9.281  1.00  0.00    -0.206 F 
ATOM     80  C   UNL     1      10.232  -9.441 -11.321  1.00  0.00     0.022 A 
BRANCH  77  81
ATOM     81  S   UNL     1       9.796 -10.990 -13.575  1.00  0.00     0.124 S 
ATOM     82  O   UNL     1       9.311 -12.309 -13.188  1.00  0.00    -0.237 OA
ATOM     83  O   UNL     1       9.129 -10.359 -14.708  1.00  0.00    -0.237 OA
ATOM     84  O   UNL     1      11.252 -10.840 -13.564  1.00  0.00    -0.744 OA
ENDBRANCH  77  81
ENDBRANCH  50  74
BRANCH  62  85
ATOM     85  C   UNL     1       1.236  -8.315 -12.187  1.00  0.00     0.023 A 
ATOM     86  C   UNL     1       1.508  -8.946 -10.954  1.00  0.00     0.031 A 
ATOM     87  C   UNL     1       0.080  -8.715 -12.882  1.00  0.00     0.131 A 
ATOM     88  C   UNL     1       0.646  -9.947 -10.467  1.00  0.00     0.055 A 
ATOM     89  C   UNL     1      -0.783  -9.694 -12.388  1.00  0.00     0.041 A 
ATOM     90  F   UNL     1      -0.253  -8.130 -14.045  1.00  0.00    -0.206 F 
ATOM     91  C   UNL     1      -0.499 -10.319 -11.180  1.00  0.00     0.022 A 
BRANCH  88  92
ATOM     92  S   UNL     1       1.006 -10.790  -8.894  1.00  0.00     0.124 S 
ATOM     93  O   UNL     1       2.419 -11.133  -9.005  1.00  0.00    -0.237 OA
ATOM     94  O   UNL     1       0.670  -9.767  -7.907  1.00  0.00    -0.237 OA
ATOM     95  O   UNL     1       0.099 -11.939  -8.909  1.00  0.00    -0.744 OA
ENDBRANCH  88  92
ENDBRANCH  62  85
ENDBRANCH  36  37
ENDBRANCH  29  31
ENDBRANCH  28  29
ENDBRANCH  27  28
ENDBRANCH  26  27
ENDBRANCH  25  26
ENDBRANCH  24  25
ENDBRANCH  23  24
ENDBRANCH   1  23
TORSDOF 22
