REMARK SMILES COc1ccc2c(c1C)OC(=O)[C@@H](CC(=O)N[C@@H](CC1=c3ccccc3=NC1)C(=O)OCCOCCOCCOC(=O)c1ccc(-c3c4nc(c(-c5cc(S(=O)(=O)[O-])ccc5F)c5ccc([nH]5)c(-c5cc(S(=O)(=O)[O-])ccc5F)c5nc(c(-c6cc(S(=O)(=O)[O-])ccc6F)c6ccc3[nH]6)C=C5)C=C4)cc1)[C@H]2C
REMARK SMILES IDX 35 1 34 2 33 3 32 4 31 5 29 6 30 7 18 8 17 9 15 10 16 11
REMARK SMILES IDX 14 13 13 14 3 15 4 16 8 17 5 18 7 19 9 20 6 21 10 22 106 23
REMARK SMILES IDX 11 24 107 25 12 26 2 27 1 28 19 29 20 30 21 31 28 32 22 33
REMARK SMILES IDX 26 34 27 35 23 36 25 37 24 38 36 39 37 40 38 41 39 42 40 43
REMARK SMILES IDX 41 44 42 45 43 46 44 47 105 48 45 49 104 50 46 51 47 52
REMARK SMILES IDX 48 53 98 54 49 55 103 56 97 57 99 58 50 59 102 60 96 61
REMARK SMILES IDX 95 62 51 64 83 65 63 66 82 67 64 68 67 69 81 70 100 71 65 72
REMARK SMILES IDX 66 73 80 75 101 76 68 77 52 78 53 79 61 80 54 81 60 82 62 83
REMARK SMILES IDX 59 84 55 85 56 86 57 87 58 88 84 89 85 90 93 91 86 92 92 93
REMARK SMILES IDX 94 94 91 95 87 96 88 97 89 98 90 99 69 100 70 101 78 102
REMARK SMILES IDX 71 103 77 104 79 105 76 106 72 107 73 108 74 109 75 110
REMARK H PARENT 17 12 99 63 67 74
REMARK Flexibility Score: inf
ROOT
ATOM      1  C   UNL     1       5.096  -8.505   3.784  1.00  0.00     0.188 C 
ENDROOT
BRANCH   1   2
ATOM      2  O   UNL     1       6.375  -8.912   3.347  1.00  0.00    -0.376 OA
BRANCH   2   3
ATOM      3  C   UNL     1       7.507  -8.165   3.776  1.00  0.00     0.202 C 
BRANCH   3   4
ATOM      4  C   UNL     1       7.417  -6.636   3.885  1.00  0.00     0.261 C 
BRANCH   4   5
ATOM      5  O   UNL     1       6.392  -6.196   4.800  1.00  0.00    -0.462 OA
BRANCH   5   6
ATOM      6  C   UNL     1       5.584  -5.232   4.320  1.00  0.00     0.329 C 
ATOM      7  O   UNL     1       5.807  -4.595   3.290  1.00  0.00    -0.250 OA
BRANCH   6   8
ATOM      8  C   UNL     1       4.254  -5.043   5.084  1.00  0.00     0.196 C 
BRANCH   8   9
ATOM      9  N   UNL     1       3.725  -5.734   6.269  1.00  0.00    -0.342 N 
ATOM     10  C   UNL     1       2.454  -6.038   6.681  1.00  0.00     0.221 C 
ATOM     11  O   UNL     1       2.352  -6.370   7.871  1.00  0.00    -0.275 OA
ATOM     12  H   UNL     1       4.424  -6.040   6.891  1.00  0.00     0.164 HD
BRANCH  10  13
ATOM     13  C   UNL     1       1.192  -6.156   5.793  1.00  0.00     0.116 C 
BRANCH  13  14
ATOM     14  C   UNL     1       0.706  -4.990   4.915  1.00  0.00     0.116 C 
ATOM     15  C   UNL     1       0.382  -1.259   1.695  1.00  0.00     0.125 A 
ATOM     16  C   UNL     1       1.656  -1.814   1.533  1.00  0.00     0.047 A 
ATOM     17  C   UNL     1      -0.608  -1.924   2.454  1.00  0.00     0.034 A 
ATOM     18  C   UNL     1       1.938  -3.055   2.061  1.00  0.00     0.012 A 
ATOM     19  C   UNL     1      -0.280  -3.158   3.028  1.00  0.00     0.140 A 
ATOM     20  C   UNL     1      -1.972  -1.339   2.666  1.00  0.00     0.052 C 
ATOM     21  C   UNL     1       0.969  -3.719   2.816  1.00  0.00    -0.001 A 
ATOM     22  O   UNL     1      -1.204  -3.859   3.842  1.00  0.00    -0.426 OA
ATOM     23  C   UNL     1       1.347  -4.960   3.537  1.00  0.00     0.035 C 
ATOM     24  C   UNL     1      -0.802  -4.925   4.676  1.00  0.00     0.315 C 
ATOM     25  C   UNL     1       1.308  -6.216   2.675  1.00  0.00     0.014 C 
ATOM     26  O   UNL     1      -1.616  -5.665   5.212  1.00  0.00    -0.251 OA
BRANCH  15  27
ATOM     27  O   UNL     1       0.076  -0.032   1.159  1.00  0.00    -0.496 OA
ATOM     28  C   UNL     1       0.667   0.193  -0.122  1.00  0.00     0.278 C 
ENDBRANCH  15  27
ENDBRANCH  13  14
ENDBRANCH  10  13
ENDBRANCH   8   9
BRANCH   8  29
ATOM     29  C   UNL     1       4.116  -3.508   5.300  1.00  0.00     0.070 C 
BRANCH  29  30
ATOM     30  C   UNL     1       5.154  -3.047   6.293  1.00  0.00    -0.037 C 
ATOM     31  C   UNL     1       5.130  -3.245   7.610  1.00  0.00     0.001 A 
ATOM     32  C   UNL     1       6.504  -2.544   5.867  1.00  0.00     0.174 C 
ATOM     33  C   UNL     1       4.163  -3.751   8.529  1.00  0.00     0.010 A 
ATOM     34  C   UNL     1       6.549  -3.117   7.972  1.00  0.00     0.065 A 
ATOM     35  N   UNL     1       7.369  -2.679   7.066  1.00  0.00    -0.280 NA
ATOM     36  C   UNL     1       4.580  -4.220   9.714  1.00  0.00     0.001 A 
ATOM     37  C   UNL     1       6.926  -3.613   9.315  1.00  0.00     0.028 A 
ATOM     38  C   UNL     1       5.980  -4.165  10.094  1.00  0.00     0.002 A 
ENDBRANCH  29  30
ENDBRANCH   8  29
ENDBRANCH   6   8
ENDBRANCH   5   6
ENDBRANCH   4   5
ENDBRANCH   3   4
ENDBRANCH   2   3
ENDBRANCH   1   2
BRANCH   1  39
ATOM     39  C   UNL     1       4.790  -8.541   5.280  1.00  0.00     0.188 C 
BRANCH  39  40
ATOM     40  O   UNL     1       5.798  -8.308   6.228  1.00  0.00    -0.376 OA
BRANCH  40  41
ATOM     41  C   UNL     1       6.469  -9.393   6.854  1.00  0.00     0.202 C 
BRANCH  41  42
ATOM     42  C   UNL     1       6.121 -10.900   6.729  1.00  0.00     0.261 C 
BRANCH  42  43
ATOM     43  O   UNL     1       5.031 -11.309   5.894  1.00  0.00    -0.460 OA
BRANCH  43  44
ATOM     44  C   UNL     1       3.817 -11.405   6.500  1.00  0.00     0.338 C 
ATOM     45  O   UNL     1       3.587 -11.262   7.694  1.00  0.00    -0.246 OA
BRANCH  44  46
ATOM     46  C   UNL     1       2.768 -11.423   5.450  1.00  0.00     0.060 A 
ATOM     47  C   UNL     1       1.923 -10.306   5.323  1.00  0.00     0.016 A 
ATOM     48  C   UNL     1       2.628 -12.508   4.587  1.00  0.00     0.016 A 
ATOM     49  C   UNL     1       0.944 -10.265   4.330  1.00  0.00     0.010 A 
ATOM     50  C   UNL     1       1.603 -12.494   3.633  1.00  0.00     0.010 A 
ATOM     51  C   UNL     1       0.745 -11.384   3.514  1.00  0.00    -0.014 A 
BRANCH  51  52
ATOM     52  C   UNL     1      -0.506 -11.499   2.726  1.00  0.00     0.031 A 
ATOM     53  C   UNL     1      -1.703 -12.111   3.400  1.00  0.00     0.074 A 
ATOM     54  C   UNL     1      -0.595 -11.078   1.452  1.00  0.00     0.049 A 
ATOM     55  N   UNL     1      -2.867 -12.422   2.897  1.00  0.00    -0.248 NA
ATOM     56  C   UNL     1      -1.564 -12.412   4.836  1.00  0.00     0.031 C 
ATOM     57  C   UNL     1       0.464 -10.400   0.710  1.00  0.00     0.029 A 
ATOM     58  N   UNL     1      -1.630 -11.177   0.552  1.00  0.00    -0.354 N 
ATOM     59  C   UNL     1      -3.595 -12.964   3.949  1.00  0.00     0.074 A 
ATOM     60  C   UNL     1      -2.740 -12.954   5.113  1.00  0.00     0.031 C 
ATOM     61  C   UNL     1       0.034 -10.169  -0.544  1.00  0.00     0.029 A 
ATOM     62  C   UNL     1      -1.313 -10.722  -0.706  1.00  0.00     0.049 A 
ATOM     63  H   UNL     1      -2.514 -11.541   0.787  1.00  0.00     0.167 HD
ATOM     64  C   UNL     1      -4.864 -13.429   3.944  1.00  0.00     0.034 A 
ATOM     65  C   UNL     1      -2.013 -10.775  -1.861  1.00  0.00     0.034 A 
ATOM     66  C   UNL     1      -5.712 -13.440   2.783  1.00  0.00     0.049 A 
ATOM     67  C   UNL     1      -3.399 -11.378  -1.866  1.00  0.00     0.074 A 
ATOM     68  C   UNL     1      -7.017 -13.888   2.689  1.00  0.00     0.029 A 
ATOM     69  N   UNL     1      -5.348 -12.992   1.524  1.00  0.00    -0.354 N 
ATOM     70  N   UNL     1      -4.088 -11.869  -0.863  1.00  0.00    -0.248 NA
ATOM     71  C   UNL     1      -4.107 -11.436  -3.155  1.00  0.00     0.031 C 
ATOM     72  C   UNL     1      -7.421 -13.771   1.360  1.00  0.00     0.029 A 
ATOM     73  C   UNL     1      -6.395 -13.179   0.639  1.00  0.00     0.049 A 
ATOM     74  H   UNL     1      -4.475 -12.598   1.293  1.00  0.00     0.167 HD
ATOM     75  C   UNL     1      -5.317 -12.261  -1.392  1.00  0.00     0.074 A 
ATOM     76  C   UNL     1      -5.282 -11.943  -2.803  1.00  0.00     0.031 C 
ATOM     77  C   UNL     1      -6.374 -12.832  -0.761  1.00  0.00     0.034 A 
BRANCH  64  78
ATOM     78  C   UNL     1      -5.429 -13.985   5.222  1.00  0.00     0.023 A 
ATOM     79  C   UNL     1      -5.758 -15.350   5.299  1.00  0.00     0.031 A 
ATOM     80  C   UNL     1      -5.758 -13.152   6.304  1.00  0.00     0.131 A 
ATOM     81  C   UNL     1      -6.443 -15.835   6.418  1.00  0.00     0.055 A 
ATOM     82  C   UNL     1      -6.404 -13.649   7.436  1.00  0.00     0.041 A 
ATOM     83  F   UNL     1      -5.451 -11.845   6.276  1.00  0.00    -0.206 F 
ATOM     84  C   UNL     1      -6.762 -14.994   7.489  1.00  0.00     0.022 A 
BRANCH  81  85
ATOM     85  S   UNL     1      -6.987 -17.561   6.500  1.00  0.00     0.124 S 
ATOM     86  O   UNL     1      -6.412 -18.000   7.770  1.00  0.00    -0.237 OA
ATOM     87  O   UNL     1      -8.440 -17.422   6.487  1.00  0.00    -0.237 OA
ATOM     88  O   UNL     1      -6.399 -18.172   5.312  1.00  0.00    -0.744 OA
ENDBRANCH  81  85
ENDBRANCH  64  78
BRANCH  65  89
ATOM     89  C   UNL     1      -1.404 -10.226  -3.107  1.00  0.00     0.023 A 
ATOM     90  C   UNL     1      -0.236 -10.790  -3.649  1.00  0.00     0.031 A 
ATOM     91  C   UNL     1      -1.937  -9.084  -3.728  1.00  0.00     0.131 A 
ATOM     92  C   UNL     1       0.396 -10.173  -4.736  1.00  0.00     0.055 A 
ATOM     93  C   UNL     1      -1.339  -8.509  -4.851  1.00  0.00     0.041 A 
ATOM     94  F   UNL     1      -3.051  -8.511  -3.246  1.00  0.00    -0.206 F 
ATOM     95  C   UNL     1      -0.157  -9.046  -5.351  1.00  0.00     0.022 A 
BRANCH  92  96
ATOM     96  S   UNL     1       2.007 -10.760  -5.329  1.00  0.00     0.124 S 
ATOM     97  O   UNL     1       1.768 -10.929  -6.759  1.00  0.00    -0.237 OA
ATOM     98  O   UNL     1       2.877  -9.646  -4.962  1.00  0.00    -0.237 OA
ATOM     99  O   UNL     1       2.222 -11.992  -4.578  1.00  0.00    -0.744 OA
ENDBRANCH  92  96
ENDBRANCH  65  89
BRANCH  77 100
ATOM    100  C   UNL     1      -7.625 -13.144  -1.547  1.00  0.00     0.023 A 
ATOM    101  C   UNL     1      -8.835 -12.504  -1.212  1.00  0.00     0.031 A 
ATOM    102  C   UNL     1      -7.664 -14.195  -2.477  1.00  0.00     0.131 A 
ATOM    103  C   UNL     1     -10.040 -12.957  -1.763  1.00  0.00     0.055 A 
ATOM    104  C   UNL     1      -8.863 -14.613  -3.059  1.00  0.00     0.041 A 
ATOM    105  F   UNL     1      -6.539 -14.844  -2.820  1.00  0.00    -0.206 F 
ATOM    106  C   UNL     1     -10.060 -14.004  -2.690  1.00  0.00     0.022 A 
BRANCH 103 107
ATOM    107  S   UNL     1     -11.631 -12.261  -1.237  1.00  0.00     0.124 S 
ATOM    108  O   UNL     1     -12.219 -11.849  -2.510  1.00  0.00    -0.237 OA
ATOM    109  O   UNL     1     -12.271 -13.407  -0.597  1.00  0.00    -0.237 OA
ATOM    110  O   UNL     1     -11.259 -11.168  -0.345  1.00  0.00    -0.744 OA
ENDBRANCH 103 107
ENDBRANCH  77 100
ENDBRANCH  51  52
ENDBRANCH  44  46
ENDBRANCH  43  44
ENDBRANCH  42  43
ENDBRANCH  41  42
ENDBRANCH  40  41
ENDBRANCH  39  40
ENDBRANCH   1  39
TORSDOF 26
