REMARK SMILES Cc1oc2cc3c(cc2c1C)[C@H](C)[C@@H](CC(=O)N[C@H](CC1=c2ccccc2=NC1)C(=O)OCCOCCOCCOC(=O)c1ccc(-c2c4nc(c(-c5cc(S(=O)(=O)[O-])ccc5F)c5ccc([nH]5)c(-c5cc(S(=O)(=O)[O-])ccc5F)c5nc(c(-c6cc(S(=O)(=O)[O-])ccc6F)c6ccc2[nH]6)C=C5)C=C4)cc1)C(=O)O3
REMARK SMILES IDX 36 1 35 2 34 3 33 4 32 5 30 6 31 7 19 8 18 9 16 10 17 11
REMARK SMILES IDX 15 13 14 14 1 15 2 16 3 17 10 18 4 19 9 20 11 21 5 22 8 23
REMARK SMILES IDX 6 24 7 25 109 26 12 27 107 28 13 29 108 30 20 31 21 32 22 33
REMARK SMILES IDX 29 34 23 35 27 36 28 37 24 38 26 39 25 40 37 41 38 42 39 43
REMARK SMILES IDX 40 44 41 45 42 46 43 47 44 48 45 49 106 50 46 51 105 52
REMARK SMILES IDX 47 53 48 54 49 55 99 56 50 57 104 58 98 59 100 60 51 61
REMARK SMILES IDX 103 62 97 63 96 64 52 66 84 67 64 68 83 69 65 70 68 71 82 72
REMARK SMILES IDX 101 73 66 74 67 75 81 77 102 78 69 79 53 80 54 81 62 82
REMARK SMILES IDX 55 83 61 84 63 85 60 86 56 87 57 88 58 89 59 90 85 91 86 92
REMARK SMILES IDX 94 93 87 94 93 95 95 96 92 97 88 98 89 99 90 100 91 101
REMARK SMILES IDX 70 102 71 103 79 104 72 105 78 106 80 107 77 108 73 109
REMARK SMILES IDX 74 110 75 111 76 112
REMARK H PARENT 18 12 100 65 68 76
REMARK Flexibility Score: inf
ROOT
ATOM      1  C   UNL     1       2.211   9.783   8.867  1.00  0.00     0.188 C 
ENDROOT
BRANCH   1   2
ATOM      2  O   UNL     1       3.489  10.346   8.918  1.00  0.00    -0.376 OA
BRANCH   2   3
ATOM      3  C   UNL     1       3.790  11.023   7.722  1.00  0.00     0.202 C 
BRANCH   3   4
ATOM      4  C   UNL     1       3.490  10.411   6.303  1.00  0.00     0.261 C 
BRANCH   4   5
ATOM      5  O   UNL     1       2.159   9.907   5.885  1.00  0.00    -0.462 OA
BRANCH   5   6
ATOM      6  C   UNL     1       1.885   8.576   5.624  1.00  0.00     0.329 C 
ATOM      7  O   UNL     1       2.623   7.681   6.032  1.00  0.00    -0.250 OA
BRANCH   6   8
ATOM      8  C   UNL     1       0.520   8.256   4.760  1.00  0.00     0.196 C 
BRANCH   8   9
ATOM      9  N   UNL     1       0.523   9.071   3.453  1.00  0.00    -0.342 N 
ATOM     10  C   UNL     1       0.697  10.350   3.014  1.00  0.00     0.221 C 
ATOM     11  O   UNL     1       0.583  10.504   1.784  1.00  0.00    -0.275 OA
ATOM     12  H   UNL     1       0.341   8.477   2.688  1.00  0.00     0.164 HD
BRANCH  10  13
ATOM     13  C   UNL     1       1.033  11.634   3.817  1.00  0.00     0.116 C 
BRANCH  13  14
ATOM     14  C   UNL     1      -0.129  12.409   4.469  1.00  0.00     0.116 C 
ATOM     15  C   UNL     1      -4.471  15.259  11.245  1.00  0.00     0.088 C 
ATOM     16  C   UNL     1      -3.536  14.859  10.173  1.00  0.00     0.105 A 
ATOM     17  O   UNL     1      -3.872  13.722   9.502  1.00  0.00    -0.461 OA
ATOM     18  C   UNL     1      -2.391  15.418   9.630  1.00  0.00    -0.002 A 
ATOM     19  C   UNL     1      -2.970  13.570   8.497  1.00  0.00     0.138 A 
ATOM     20  C   UNL     1      -1.996  14.555   8.562  1.00  0.00     0.024 A 
ATOM     21  C   UNL     1      -1.735  16.695   9.989  1.00  0.00     0.049 C 
ATOM     22  C   UNL     1      -3.035  12.613   7.500  1.00  0.00     0.095 A 
ATOM     23  C   UNL     1      -0.935  14.532   7.626  1.00  0.00     0.020 A 
ATOM     24  C   UNL     1      -2.053  12.717   6.509  1.00  0.00     0.138 A 
ATOM     25  C   UNL     1      -0.958  13.603   6.572  1.00  0.00    -0.001 A 
ATOM     26  O   UNL     1      -2.254  11.905   5.402  1.00  0.00    -0.426 OA
ATOM     27  C   UNL     1       0.235  13.396   5.616  1.00  0.00     0.035 C 
ATOM     28  C   UNL     1      -1.018  11.436   5.128  1.00  0.00     0.315 C 
ATOM     29  C   UNL     1       0.832  14.695   5.069  1.00  0.00     0.014 C 
ATOM     30  O   UNL     1      -0.643  10.350   5.496  1.00  0.00    -0.251 OA
ENDBRANCH  13  14
ENDBRANCH  10  13
ENDBRANCH   8   9
BRANCH   8  31
ATOM     31  C   UNL     1      -1.084   7.559   5.211  1.00  0.00     0.070 C 
BRANCH  31  32
ATOM     32  C   UNL     1      -1.817   7.188   6.798  1.00  0.00    -0.037 C 
ATOM     33  C   UNL     1      -1.323   6.354   7.813  1.00  0.00     0.001 A 
ATOM     34  C   UNL     1      -1.701   8.595   7.244  1.00  0.00     0.174 C 
ATOM     35  C   UNL     1      -1.663   5.949   9.630  1.00  0.00     0.010 A 
ATOM     36  C   UNL     1       0.145   7.306   7.568  1.00  0.00     0.065 A 
ATOM     37  N   UNL     1      -0.213   8.577   7.324  1.00  0.00    -0.280 NA
ATOM     38  C   UNL     1      -0.428   6.073  10.811  1.00  0.00     0.001 A 
ATOM     39  C   UNL     1       1.605   7.117   8.584  1.00  0.00     0.028 A 
ATOM     40  C   UNL     1       1.406   6.870  10.120  1.00  0.00     0.002 A 
ENDBRANCH  31  32
ENDBRANCH   8  31
ENDBRANCH   6   8
ENDBRANCH   5   6
ENDBRANCH   4   5
ENDBRANCH   3   4
ENDBRANCH   2   3
ENDBRANCH   1   2
BRANCH   1  41
ATOM     41  C   UNL     1       0.983  10.621   8.485  1.00  0.00     0.188 C 
BRANCH  41  42
ATOM     42  O   UNL     1       0.982  12.009   8.646  1.00  0.00    -0.376 OA
BRANCH  42  43
ATOM     43  C   UNL     1       1.187  12.511   9.933  1.00  0.00     0.202 C 
BRANCH  43  44
ATOM     44  C   UNL     1       0.601  11.834  11.185  1.00  0.00     0.261 C 
BRANCH  44  45
ATOM     45  O   UNL     1       0.782  10.414  11.348  1.00  0.00    -0.460 OA
BRANCH  45  46
ATOM     46  C   UNL     1      -0.336   9.640  11.273  1.00  0.00     0.338 C 
ATOM     47  O   UNL     1      -1.484  10.018  11.111  1.00  0.00    -0.246 OA
BRANCH  46  48
ATOM     48  C   UNL     1       0.064   8.226  11.158  1.00  0.00     0.060 A 
ATOM     49  C   UNL     1       0.941   7.332  12.303  1.00  0.00     0.016 A 
ATOM     50  C   UNL     1      -0.285   7.467   9.616  1.00  0.00     0.016 A 
ATOM     51  C   UNL     1       1.538   5.702  12.033  1.00  0.00     0.010 A 
ATOM     52  C   UNL     1       0.375   5.590   9.202  1.00  0.00     0.010 A 
ATOM     53  C   UNL     1       1.401   4.833  10.509  1.00  0.00    -0.014 A 
BRANCH  53  54
ATOM     54  C   UNL     1       2.711   4.037  10.159  1.00  0.00     0.031 A 
ATOM     55  C   UNL     1       2.247   2.924   9.285  1.00  0.00     0.074 A 
ATOM     56  C   UNL     1       4.021   4.521  10.154  1.00  0.00     0.049 A 
ATOM     57  N   UNL     1       2.185   2.879   7.993  1.00  0.00    -0.248 NA
ATOM     58  C   UNL     1       1.441   1.900   9.960  1.00  0.00     0.031 C 
ATOM     59  C   UNL     1       4.683   5.316   9.085  1.00  0.00     0.029 A 
ATOM     60  N   UNL     1       5.173   3.924  10.793  1.00  0.00    -0.354 N 
ATOM     61  C   UNL     1       1.366   1.791   7.677  1.00  0.00     0.074 A 
ATOM     62  C   UNL     1       0.857   1.285   8.928  1.00  0.00     0.031 C 
ATOM     63  C   UNL     1       6.016   5.103   9.061  1.00  0.00     0.029 A 
ATOM     64  C   UNL     1       6.391   4.136  10.081  1.00  0.00     0.049 A 
ATOM     65  H   UNL     1       5.121   3.420  11.637  1.00  0.00     0.167 HD
ATOM     66  C   UNL     1       1.209   1.300   6.416  1.00  0.00     0.034 A 
ATOM     67  C   UNL     1       7.455   3.265   9.956  1.00  0.00     0.034 A 
ATOM     68  C   UNL     1       2.077   1.915   5.454  1.00  0.00     0.049 A 
ATOM     69  C   UNL     1       7.101   2.551   8.669  1.00  0.00     0.074 A 
ATOM     70  C   UNL     1       2.001   2.692   4.325  1.00  0.00     0.029 A 
ATOM     71  N   UNL     1       3.423   1.724   5.662  1.00  0.00    -0.354 N 
ATOM     72  N   UNL     1       7.174   3.047   7.459  1.00  0.00    -0.248 NA
ATOM     73  C   UNL     1       6.119   1.480   8.855  1.00  0.00     0.031 C 
ATOM     74  C   UNL     1       3.300   3.274   4.173  1.00  0.00     0.029 A 
ATOM     75  C   UNL     1       4.127   2.799   5.192  1.00  0.00     0.049 A 
ATOM     76  H   UNL     1       3.821   0.930   6.088  1.00  0.00     0.167 HD
ATOM     77  C   UNL     1       5.985   2.635   6.843  1.00  0.00     0.074 A 
ATOM     78  C   UNL     1       5.363   1.737   7.798  1.00  0.00     0.031 C 
ATOM     79  C   UNL     1       5.439   3.171   5.707  1.00  0.00     0.034 A 
BRANCH  66  80
ATOM     80  C   UNL     1       0.520   0.011   6.117  1.00  0.00     0.023 A 
ATOM     81  C   UNL     1      -0.869  -0.137   5.953  1.00  0.00     0.031 A 
ATOM     82  C   UNL     1       1.335  -1.120   5.907  1.00  0.00     0.131 A 
ATOM     83  C   UNL     1      -1.390  -1.394   5.580  1.00  0.00     0.055 A 
ATOM     84  C   UNL     1       0.816  -2.352   5.514  1.00  0.00     0.041 A 
ATOM     85  F   UNL     1       2.664  -1.036   6.081  1.00  0.00    -0.206 F 
ATOM     86  C   UNL     1      -0.553  -2.493   5.345  1.00  0.00     0.022 A 
BRANCH  83  87
ATOM     87  S   UNL     1      -3.175  -1.682   5.379  1.00  0.00     0.124 S 
ATOM     88  O   UNL     1      -3.259  -2.206   4.018  1.00  0.00    -0.237 OA
ATOM     89  O   UNL     1      -3.444  -2.654   6.436  1.00  0.00    -0.237 OA
ATOM     90  O   UNL     1      -3.766  -0.363   5.579  1.00  0.00    -0.744 OA
ENDBRANCH  83  87
ENDBRANCH  66  80
BRANCH  67  91
ATOM     91  C   UNL     1       7.945   2.534  11.174  1.00  0.00     0.023 A 
ATOM     92  C   UNL     1       7.885   1.145  11.381  1.00  0.00     0.031 A 
ATOM     93  C   UNL     1       8.382   3.316  12.258  1.00  0.00     0.131 A 
ATOM     94  C   UNL     1       7.908   0.642  12.692  1.00  0.00     0.055 A 
ATOM     95  C   UNL     1       8.490   2.802  13.551  1.00  0.00     0.041 A 
ATOM     96  F   UNL     1       8.661   4.618  12.081  1.00  0.00    -0.206 F 
ATOM     97  C   UNL     1       8.177   1.470  13.783  1.00  0.00     0.022 A 
BRANCH  94  98
ATOM     98  S   UNL     1       7.380  -1.062  13.040  1.00  0.00     0.124 S 
ATOM     99  O   UNL     1       8.445  -1.548  13.913  1.00  0.00    -0.237 OA
ATOM    100  O   UNL     1       6.092  -0.832  13.688  1.00  0.00    -0.237 OA
ATOM    101  O   UNL     1       7.321  -1.678  11.719  1.00  0.00    -0.744 OA
ENDBRANCH  94  98
ENDBRANCH  67  91
BRANCH  79 102
ATOM    102  C   UNL     1       6.203   4.234   4.960  1.00  0.00     0.023 A 
ATOM    103  C   UNL     1       5.595   5.465   4.596  1.00  0.00     0.031 A 
ATOM    104  C   UNL     1       7.446   3.916   4.392  1.00  0.00     0.131 A 
ATOM    105  C   UNL     1       6.180   6.262   3.599  1.00  0.00     0.055 A 
ATOM    106  C   UNL     1       8.055   4.750   3.456  1.00  0.00     0.041 A 
ATOM    107  F   UNL     1       8.046   2.745   4.657  1.00  0.00    -0.206 F 
ATOM    108  C   UNL     1       7.410   5.908   3.035  1.00  0.00     0.022 A 
BRANCH 105 109
ATOM    109  S   UNL     1       5.329   7.680   2.836  1.00  0.00     0.124 S 
ATOM    110  O   UNL     1       6.297   8.761   3.018  1.00  0.00    -0.237 OA
ATOM    111  O   UNL     1       5.163   7.222   1.457  1.00  0.00    -0.237 OA
ATOM    112  O   UNL     1       4.088   7.831   3.583  1.00  0.00    -0.744 OA
ENDBRANCH 105 109
ENDBRANCH  79 102
ENDBRANCH  53  54
ENDBRANCH  46  48
ENDBRANCH  45  46
ENDBRANCH  44  45
ENDBRANCH  43  44
ENDBRANCH  42  43
ENDBRANCH  41  42
ENDBRANCH   1  41
TORSDOF 25
