REMARK SMILES COc1ccc([C@@H]([NH3+])CC(=O)OCCOCCOCCOC(=O)c2ccc(-c3c4nc(c(-c5cc(S(=O)(=O)[O-])ccc5F)c5ccc([nH]5)c(-c5cc(S(=O)(=O)[O-])ccc5F)c5nc(c(-c6cc(S(=O)(=O)[O-])ccc6F)c6ccc3[nH]6)C=C5)C=C4)cc2)cc1
REMARK SMILES IDX 16 1 15 2 14 3 13 4 12 5 10 6 11 7 9 8 7 9 6 10 3 11 4 12
REMARK SMILES IDX 88 13 5 14 87 15 2 16 1 17 8 18 17 22 18 23 19 24 20 25
REMARK SMILES IDX 21 26 22 27 23 28 24 29 25 30 86 31 26 32 85 33 27 34 28 35
REMARK SMILES IDX 29 36 79 37 30 38 84 39 78 40 80 41 31 42 83 43 77 44 76 45
REMARK SMILES IDX 32 47 64 48 44 49 63 50 45 51 48 52 62 53 81 54 46 55 47 56
REMARK SMILES IDX 61 58 82 59 49 60 33 61 34 62 42 63 35 64 41 65 43 66 40 67
REMARK SMILES IDX 36 68 37 69 38 70 39 71 65 72 66 73 74 74 67 75 73 76 75 77
REMARK SMILES IDX 72 78 68 79 69 80 70 81 71 82 50 83 51 84 59 85 52 86 58 87
REMARK SMILES IDX 60 88 57 89 53 90 54 91 55 92 56 93
REMARK H PARENT 8 19 8 20 8 21 80 46 48 57
REMARK Flexibility Score: inf
ROOT
ATOM      1  C   UNL     1       2.797  -6.864   3.592  1.00  0.00     0.188 C 
ENDROOT
BRANCH   1   2
ATOM      2  O   UNL     1       2.149  -7.469   2.477  1.00  0.00    -0.376 OA
BRANCH   2   3
ATOM      3  C   UNL     1       1.522  -6.587   1.547  1.00  0.00     0.202 C 
BRANCH   3   4
ATOM      4  C   UNL     1       0.408  -5.678   2.093  1.00  0.00     0.261 C 
BRANCH   4   5
ATOM      5  O   UNL     1       0.783  -4.921   3.263  1.00  0.00    -0.463 OA
BRANCH   5   6
ATOM      6  C   UNL     1      -0.043  -5.035   4.337  1.00  0.00     0.312 C 
ATOM      7  O   UNL     1      -1.088  -5.679   4.337  1.00  0.00    -0.252 OA
BRANCH   6   8
ATOM      8  C   UNL     1       0.479  -4.391   5.607  1.00  0.00     0.192 C 
BRANCH   8   9
ATOM      9  C   UNL     1       1.508  -3.259   5.495  1.00  0.00     0.223 C 
BRANCH   9  10
ATOM     10  C   UNL     1       1.197  -2.205   4.455  1.00  0.00     0.010 A 
ATOM     11  C   UNL     1       0.661  -0.438   2.339  1.00  0.00     0.118 A 
ATOM     12  C   UNL     1      -0.362  -0.836   3.198  1.00  0.00     0.047 A 
ATOM     13  C   UNL     1       1.970  -0.845   2.590  1.00  0.00     0.047 A 
ATOM     14  C   UNL     1      -0.098  -1.712   4.253  1.00  0.00     0.014 A 
ATOM     15  C   UNL     1       2.234  -1.716   3.647  1.00  0.00     0.014 A 
BRANCH  11  16
ATOM     16  O   UNL     1       0.301   0.389   1.309  1.00  0.00    -0.497 OA
ATOM     17  C   UNL     1       0.965   0.098   0.082  1.00  0.00     0.278 C 
ENDBRANCH  11  16
ENDBRANCH   9  10
BRANCH   9  18
ATOM     18  N   UNL     1       1.653  -2.614   6.809  1.00  0.00    -0.351 N 
ATOM     19  H   UNL     1       0.766  -2.188   7.078  1.00  0.00     0.345 HD
ATOM     20  H   UNL     1       2.374  -1.895   6.758  1.00  0.00     0.345 HD
ATOM     21  H   UNL     1       1.919  -3.312   7.504  1.00  0.00     0.345 HD
ENDBRANCH   9  18
ENDBRANCH   8   9
ENDBRANCH   6   8
ENDBRANCH   5   6
ENDBRANCH   4   5
ENDBRANCH   3   4
ENDBRANCH   2   3
ENDBRANCH   1   2
BRANCH   1  22
ATOM     22  C   UNL     1       3.894  -5.844   3.268  1.00  0.00     0.188 C 
BRANCH  22  23
ATOM     23  O   UNL     1       3.567  -4.896   2.262  1.00  0.00    -0.376 OA
BRANCH  23  24
ATOM     24  C   UNL     1       4.598  -3.997   1.848  1.00  0.00     0.202 C 
BRANCH  24  25
ATOM     25  C   UNL     1       5.964  -4.611   1.487  1.00  0.00     0.261 C 
BRANCH  25  26
ATOM     26  O   UNL     1       6.636  -5.312   2.554  1.00  0.00    -0.460 OA
BRANCH  26  27
ATOM     27  C   UNL     1       6.745  -4.685   3.750  1.00  0.00     0.338 C 
ATOM     28  O   UNL     1       6.554  -3.498   3.958  1.00  0.00    -0.246 OA
BRANCH  27  29
ATOM     29  C   UNL     1       6.859  -5.712   4.823  1.00  0.00     0.060 A 
ATOM     30  C   UNL     1       6.230  -5.448   6.047  1.00  0.00     0.016 A 
ATOM     31  C   UNL     1       7.505  -6.937   4.626  1.00  0.00     0.016 A 
ATOM     32  C   UNL     1       6.305  -6.371   7.093  1.00  0.00     0.010 A 
ATOM     33  C   UNL     1       7.581  -7.863   5.677  1.00  0.00     0.010 A 
ATOM     34  C   UNL     1       7.022  -7.564   6.932  1.00  0.00    -0.014 A 
BRANCH  34  35
ATOM     35  C   UNL     1       7.350  -8.374   8.138  1.00  0.00     0.031 A 
ATOM     36  C   UNL     1       8.722  -8.231   8.747  1.00  0.00     0.074 A 
ATOM     37  C   UNL     1       6.431  -9.153   8.739  1.00  0.00     0.049 A 
ATOM     38  N   UNL     1       9.213  -8.769   9.834  1.00  0.00    -0.248 NA
ATOM     39  C   UNL     1       9.666  -7.360   8.030  1.00  0.00     0.031 C 
ATOM     40  C   UNL     1       5.059  -9.356   8.275  1.00  0.00     0.029 A 
ATOM     41  N   UNL     1       6.511  -9.910   9.883  1.00  0.00    -0.354 N 
ATOM     42  C   UNL     1      10.518  -8.295   9.936  1.00  0.00     0.074 A 
ATOM     43  C   UNL     1      10.757  -7.473   8.770  1.00  0.00     0.031 C 
ATOM     44  C   UNL     1       4.424 -10.173   9.134  1.00  0.00     0.029 A 
ATOM     45  C   UNL     1       5.348 -10.577  10.194  1.00  0.00     0.049 A 
ATOM     46  H   UNL     1       7.327  -9.970  10.431  1.00  0.00     0.167 HD
ATOM     47  C   UNL     1      11.429  -8.507  10.919  1.00  0.00     0.034 A 
ATOM     48  C   UNL     1       5.064 -11.421  11.208  1.00  0.00     0.034 A 
ATOM     49  C   UNL     1      11.191  -9.342  12.071  1.00  0.00     0.049 A 
ATOM     50  C   UNL     1       6.124 -11.709  12.248  1.00  0.00     0.074 A 
ATOM     51  C   UNL     1      12.046  -9.618  13.125  1.00  0.00     0.029 A 
ATOM     52  N   UNL     1      10.022 -10.051  12.317  1.00  0.00    -0.354 N 
ATOM     53  N   UNL     1       7.346 -11.235  12.343  1.00  0.00    -0.248 NA
ATOM     54  C   UNL     1       5.754 -12.633  13.329  1.00  0.00     0.031 C 
ATOM     55  C   UNL     1      11.427 -10.553  13.962  1.00  0.00     0.029 A 
ATOM     56  C   UNL     1      10.147 -10.789  13.486  1.00  0.00     0.049 A 
ATOM     57  H   UNL     1       9.221 -10.032  11.745  1.00  0.00     0.167 HD
ATOM     58  C   UNL     1       7.874 -11.777  13.515  1.00  0.00     0.074 A 
ATOM     59  C   UNL     1       6.830 -12.591  14.100  1.00  0.00     0.031 C 
ATOM     60  C   UNL     1       9.108 -11.614  14.060  1.00  0.00     0.034 A 
BRANCH  47  61
ATOM     61  C   UNL     1      12.785  -7.861  10.755  1.00  0.00     0.023 A 
ATOM     62  C   UNL     1      12.942  -6.463  10.720  1.00  0.00     0.031 A 
ATOM     63  C   UNL     1      13.935  -8.655  10.600  1.00  0.00     0.131 A 
ATOM     64  C   UNL     1      14.204  -5.906  10.461  1.00  0.00     0.055 A 
ATOM     65  C   UNL     1      15.202  -8.092  10.430  1.00  0.00     0.041 A 
ATOM     66  F   UNL     1      13.846  -9.994  10.596  1.00  0.00    -0.206 F 
ATOM     67  C   UNL     1      15.340  -6.710  10.345  1.00  0.00     0.022 A 
BRANCH  64  68
ATOM     68  S   UNL     1      14.314  -4.127  10.123  1.00  0.00     0.124 S 
ATOM     69  O   UNL     1      13.410  -3.987   8.984  1.00  0.00    -0.237 OA
ATOM     70  O   UNL     1      13.858  -3.539  11.377  1.00  0.00    -0.237 OA
ATOM     71  O   UNL     1      15.728  -3.924   9.815  1.00  0.00    -0.744 OA
ENDBRANCH  64  68
ENDBRANCH  47  61
BRANCH  48  72
ATOM     72  C   UNL     1       3.729 -12.087  11.293  1.00  0.00     0.023 A 
ATOM     73  C   UNL     1       2.875 -11.883  12.391  1.00  0.00     0.031 A 
ATOM     74  C   UNL     1       3.322 -13.005  10.308  1.00  0.00     0.131 A 
ATOM     75  C   UNL     1       1.688 -12.625  12.503  1.00  0.00     0.055 A 
ATOM     76  C   UNL     1       2.111 -13.694  10.393  1.00  0.00     0.041 A 
ATOM     77  F   UNL     1       4.101 -13.246   9.242  1.00  0.00    -0.206 F 
ATOM     78  C   UNL     1       1.292 -13.517  11.504  1.00  0.00     0.022 A 
BRANCH  75  79
ATOM     79  S   UNL     1       0.712 -12.484  14.027  1.00  0.00     0.124 S 
ATOM     80  O   UNL     1       1.681 -12.893  15.038  1.00  0.00    -0.237 OA
ATOM     81  O   UNL     1       0.347 -11.072  14.023  1.00  0.00    -0.237 OA
ATOM     82  O   UNL     1      -0.395 -13.413  13.810  1.00  0.00    -0.744 OA
ENDBRANCH  75  79
ENDBRANCH  48  72
BRANCH  60  83
ATOM     83  C   UNL     1       9.374 -12.294  15.386  1.00  0.00     0.023 A 
ATOM     84  C   UNL     1       9.335 -13.694  15.527  1.00  0.00     0.031 A 
ATOM     85  C   UNL     1       9.626 -11.528  16.539  1.00  0.00     0.131 A 
ATOM     86  C   UNL     1       9.454 -14.275  16.799  1.00  0.00     0.055 A 
ATOM     87  C   UNL     1       9.825 -12.117  17.789  1.00  0.00     0.041 A 
ATOM     88  F   UNL     1       9.675 -10.188  16.473  1.00  0.00    -0.206 F 
ATOM     89  C   UNL     1       9.718 -13.497  17.928  1.00  0.00     0.022 A 
BRANCH  86  90
ATOM     90  S   UNL     1       9.113 -16.048  16.980  1.00  0.00     0.124 S 
ATOM     91  O   UNL     1       7.779 -16.160  16.400  1.00  0.00    -0.237 OA
ATOM     92  O   UNL     1      10.195 -16.653  16.210  1.00  0.00    -0.237 OA
ATOM     93  O   UNL     1       9.182 -16.265  18.424  1.00  0.00    -0.744 OA
ENDBRANCH  86  90
ENDBRANCH  60  83
ENDBRANCH  34  35
ENDBRANCH  27  29
ENDBRANCH  26  27
ENDBRANCH  25  26
ENDBRANCH  24  25
ENDBRANCH  23  24
ENDBRANCH  22  23
ENDBRANCH   1  22
TORSDOF 24
