REMARK SMILES COCC[C@H]([NH3+])C(=O)N1CC(n2cc(C(=O)OCCOCCOCCOC(=O)c3ccc(-c4c5nc(c(-c6cc(S(=O)(=O)[O-])ccc6F)c6ccc([nH]6)c(-c6cc(S(=O)(=O)[O-])ccc6F)c6nc(c(-c7cc(S(=O)(=O)[O-])ccc7F)c7ccc4[nH]7)C=C6)C=C5)cc3)nn2)C1
REMARK SMILES IDX 21 1 20 2 19 3 18 4 17 5 15 6 16 7 14 8 12 9 13 10 93 11
REMARK SMILES IDX 92 12 11 13 7 14 8 15 9 16 10 17 94 18 5 19 4 20 3 21 2 22
REMARK SMILES IDX 1 23 6 24 22 28 23 29 24 30 25 31 26 32 27 33 28 34 29 35
REMARK SMILES IDX 30 36 91 37 31 38 90 39 32 40 33 41 34 42 84 43 35 44 89 45
REMARK SMILES IDX 83 46 85 47 36 48 88 49 82 50 81 51 37 53 69 54 49 55 68 56
REMARK SMILES IDX 50 57 53 58 67 59 86 60 51 61 52 62 66 64 87 65 54 66 38 67
REMARK SMILES IDX 39 68 47 69 40 70 46 71 48 72 45 73 41 74 42 75 43 76 44 77
REMARK SMILES IDX 70 78 71 79 79 80 72 81 78 82 80 83 77 84 73 85 74 86 75 87
REMARK SMILES IDX 76 88 55 89 56 90 64 91 57 92 63 93 65 94 62 95 58 96 59 97
REMARK SMILES IDX 60 98 61 99
REMARK H PARENT 6 25 6 26 6 27 85 52 53 63
REMARK Flexibility Score: inf
ROOT
ATOM      1  C   UNL     1       0.786   7.993 -10.287  1.00  0.00     0.188 C 
ENDROOT
BRANCH   1   2
ATOM      2  O   UNL     1       1.060   7.688 -11.649  1.00  0.00    -0.376 OA
BRANCH   2   3
ATOM      3  C   UNL     1       0.716   6.420 -12.187  1.00  0.00     0.202 C 
BRANCH   3   4
ATOM      4  C   UNL     1       1.296   5.148 -11.546  1.00  0.00     0.261 C 
BRANCH   4   5
ATOM      5  O   UNL     1       1.157   5.071 -10.119  1.00  0.00    -0.458 OA
BRANCH   5   6
ATOM      6  C   UNL     1       2.300   5.248  -9.391  1.00  0.00     0.360 C 
ATOM      7  O   UNL     1       3.423   5.295  -9.871  1.00  0.00    -0.244 OA
BRANCH   6   8
ATOM      8  C   UNL     1       2.031   5.444  -7.972  1.00  0.00     0.190 A 
ATOM      9  N   UNL     1       1.206   5.510  -5.970  1.00  0.00    -0.245 N 
ATOM     10  C   UNL     1       0.888   5.155  -7.250  1.00  0.00     0.147 A 
ATOM     11  N   UNL     1       2.432   6.046  -5.902  1.00  0.00    -0.066 NA
ATOM     12  N   UNL     1       2.951   6.011  -7.121  1.00  0.00    -0.123 NA
BRANCH   9  13
ATOM     13  C   UNL     1       0.458   5.057  -4.843  1.00  0.00     0.148 C 
ATOM     14  C   UNL     1       0.444   3.583  -1.907  1.00  0.00     0.280 C 
ATOM     15  O   UNL     1      -0.179   4.195  -1.038  1.00  0.00    -0.268 OA
ATOM     16  N   UNL     1       0.871   4.194  -3.047  1.00  0.00    -0.333 N 
ATOM     17  C   UNL     1       0.849   5.592  -3.458  1.00  0.00     0.149 C 
ATOM     18  C   UNL     1       1.060   3.702  -4.391  1.00  0.00     0.149 C 
BRANCH  14  19
ATOM     19  C   UNL     1       0.891   2.121  -1.681  1.00  0.00     0.273 C 
BRANCH  19  20
ATOM     20  C   UNL     1       2.414   2.032  -1.511  1.00  0.00     0.104 C 
BRANCH  20  21
ATOM     21  C   UNL     1       2.997   2.996  -0.472  1.00  0.00     0.166 C 
BRANCH  21  22
ATOM     22  O   UNL     1       2.662   2.626   0.864  1.00  0.00    -0.384 OA
ATOM     23  C   UNL     1       1.533   3.312   1.393  1.00  0.00     0.194 C 
ENDBRANCH  21  22
ENDBRANCH  20  21
ENDBRANCH  19  20
BRANCH  19  24
ATOM     24  N   UNL     1       0.446   1.228  -2.775  1.00  0.00    -0.347 N 
ATOM     25  H   UNL     1       0.878   1.521  -3.651  1.00  0.00     0.345 HD
ATOM     26  H   UNL     1      -0.569   1.278  -2.863  1.00  0.00     0.345 HD
ATOM     27  H   UNL     1       0.722   0.269  -2.565  1.00  0.00     0.345 HD
ENDBRANCH  19  24
ENDBRANCH  14  19
ENDBRANCH   9  13
ENDBRANCH   6   8
ENDBRANCH   5   6
ENDBRANCH   4   5
ENDBRANCH   3   4
ENDBRANCH   2   3
ENDBRANCH   1   2
BRANCH   1  28
ATOM     28  C   UNL     1      -0.482   7.469  -9.576  1.00  0.00     0.188 C 
BRANCH  28  29
ATOM     29  O   UNL     1      -1.210   6.471 -10.276  1.00  0.00    -0.376 OA
BRANCH  29  30
ATOM     30  C   UNL     1      -2.554   6.784 -10.632  1.00  0.00     0.202 C 
BRANCH  30  31
ATOM     31  C   UNL     1      -2.759   7.896 -11.660  1.00  0.00     0.261 C 
BRANCH  31  32
ATOM     32  O   UNL     1      -1.947   9.041 -11.460  1.00  0.00    -0.460 OA
BRANCH  32  33
ATOM     33  C   UNL     1      -2.316   9.829 -10.430  1.00  0.00     0.338 C 
ATOM     34  O   UNL     1      -3.066   9.532  -9.517  1.00  0.00    -0.246 OA
BRANCH  33  35
ATOM     35  C   UNL     1      -1.719  11.152 -10.633  1.00  0.00     0.060 A 
ATOM     36  C   UNL     1      -1.863  12.073  -9.596  1.00  0.00     0.016 A 
ATOM     37  C   UNL     1      -1.340  11.530 -11.930  1.00  0.00     0.016 A 
ATOM     38  C   UNL     1      -1.870  13.409  -9.922  1.00  0.00     0.010 A 
ATOM     39  C   UNL     1      -1.375  12.860 -12.258  1.00  0.00     0.010 A 
ATOM     40  C   UNL     1      -1.735  13.768 -11.267  1.00  0.00    -0.014 A 
BRANCH  40  41
ATOM     41  C   UNL     1      -1.982  15.146 -11.618  1.00  0.00     0.031 A 
ATOM     42  C   UNL     1      -0.863  16.050 -11.308  1.00  0.00     0.074 A 
ATOM     43  C   UNL     1      -3.103  15.527 -12.256  1.00  0.00     0.049 A 
ATOM     44  N   UNL     1      -0.846  17.029 -10.469  1.00  0.00    -0.248 NA
ATOM     45  C   UNL     1       0.447  15.730 -11.898  1.00  0.00     0.031 C 
ATOM     46  C   UNL     1      -4.132  14.670 -12.852  1.00  0.00     0.029 A 
ATOM     47  N   UNL     1      -3.496  16.780 -12.609  1.00  0.00    -0.354 N 
ATOM     48  C   UNL     1       0.413  17.597 -10.599  1.00  0.00     0.074 A 
ATOM     49  C   UNL     1       1.218  16.651 -11.323  1.00  0.00     0.031 C 
ATOM     50  C   UNL     1      -4.900  15.415 -13.678  1.00  0.00     0.029 A 
ATOM     51  C   UNL     1      -4.492  16.808 -13.575  1.00  0.00     0.049 A 
ATOM     52  H   UNL     1      -3.108  17.594 -12.215  1.00  0.00     0.167 HD
ATOM     53  C   UNL     1       0.620  18.912 -10.332  1.00  0.00     0.034 A 
ATOM     54  C   UNL     1      -4.881  17.885 -14.305  1.00  0.00     0.034 A 
ATOM     55  C   UNL     1      -0.407  19.445  -9.468  1.00  0.00     0.049 A 
ATOM     56  C   UNL     1      -4.457  19.098 -13.560  1.00  0.00     0.074 A 
ATOM     57  C   UNL     1      -0.882  19.089  -8.218  1.00  0.00     0.029 A 
ATOM     58  N   UNL     1      -1.379  20.253 -10.012  1.00  0.00    -0.354 N 
ATOM     59  N   UNL     1      -4.950  19.445 -12.403  1.00  0.00    -0.248 NA
ATOM     60  C   UNL     1      -3.161  19.683 -13.873  1.00  0.00     0.031 C 
ATOM     61  C   UNL     1      -2.292  19.281  -8.287  1.00  0.00     0.029 A 
ATOM     62  C   UNL     1      -2.594  19.805  -9.546  1.00  0.00     0.049 A 
ATOM     63  H   UNL     1      -1.232  21.012 -10.622  1.00  0.00     0.167 HD
ATOM     64  C   UNL     1      -3.870  19.922 -11.676  1.00  0.00     0.074 A 
ATOM     65  C   UNL     1      -2.823  20.150 -12.668  1.00  0.00     0.031 C 
ATOM     66  C   UNL     1      -3.828  19.821 -10.313  1.00  0.00     0.034 A 
BRANCH  53  67
ATOM     67  C   UNL     1       1.570  19.769 -11.129  1.00  0.00     0.023 A 
ATOM     68  C   UNL     1       1.795  21.083 -10.692  1.00  0.00     0.031 A 
ATOM     69  C   UNL     1       2.060  19.455 -12.422  1.00  0.00     0.131 A 
ATOM     70  C   UNL     1       2.422  22.021 -11.531  1.00  0.00     0.055 A 
ATOM     71  C   UNL     1       2.754  20.367 -13.218  1.00  0.00     0.041 A 
ATOM     72  F   UNL     1       1.808  18.289 -13.030  1.00  0.00    -0.206 F 
ATOM     73  C   UNL     1       2.917  21.668 -12.784  1.00  0.00     0.022 A 
BRANCH  70  74
ATOM     74  S   UNL     1       2.418  23.759 -11.028  1.00  0.00     0.124 S 
ATOM     75  O   UNL     1       1.002  23.985 -10.758  1.00  0.00    -0.237 OA
ATOM     76  O   UNL     1       3.301  23.736  -9.868  1.00  0.00    -0.237 OA
ATOM     77  O   UNL     1       2.946  24.451 -12.202  1.00  0.00    -0.744 OA
ENDBRANCH  70  74
ENDBRANCH  53  67
BRANCH  54  78
ATOM     78  C   UNL     1      -5.283  17.887 -15.736  1.00  0.00     0.023 A 
ATOM     79  C   UNL     1      -5.995  18.954 -16.319  1.00  0.00     0.031 A 
ATOM     80  C   UNL     1      -4.764  16.912 -16.621  1.00  0.00     0.131 A 
ATOM     81  C   UNL     1      -6.168  19.010 -17.721  1.00  0.00     0.055 A 
ATOM     82  C   UNL     1      -4.953  16.963 -18.002  1.00  0.00     0.041 A 
ATOM     83  F   UNL     1      -3.978  15.917 -16.181  1.00  0.00    -0.206 F 
ATOM     84  C   UNL     1      -5.651  18.020 -18.561  1.00  0.00     0.022 A 
BRANCH  81  85
ATOM     85  S   UNL     1      -6.985  20.445 -18.487  1.00  0.00     0.124 S 
ATOM     86  O   UNL     1      -8.373  20.266 -18.077  1.00  0.00    -0.237 OA
ATOM     87  O   UNL     1      -6.271  21.567 -17.889  1.00  0.00    -0.237 OA
ATOM     88  O   UNL     1      -6.737  20.256 -19.917  1.00  0.00    -0.744 OA
ENDBRANCH  81  85
ENDBRANCH  54  78
BRANCH  66  89
ATOM     89  C   UNL     1      -5.106  19.467  -9.573  1.00  0.00     0.023 A 
ATOM     90  C   UNL     1      -5.886  18.312  -9.815  1.00  0.00     0.031 A 
ATOM     91  C   UNL     1      -5.482  20.286  -8.492  1.00  0.00     0.131 A 
ATOM     92  C   UNL     1      -6.999  18.025  -8.999  1.00  0.00     0.055 A 
ATOM     93  C   UNL     1      -6.571  19.987  -7.673  1.00  0.00     0.041 A 
ATOM     94  F   UNL     1      -4.768  21.384  -8.189  1.00  0.00    -0.206 F 
ATOM     95  C   UNL     1      -7.338  18.857  -7.928  1.00  0.00     0.022 A 
BRANCH  92  96
ATOM     96  S   UNL     1      -8.039  16.564  -9.325  1.00  0.00     0.124 S 
ATOM     97  O   UNL     1      -8.270  16.621 -10.763  1.00  0.00    -0.237 OA
ATOM     98  O   UNL     1      -7.197  15.467  -8.854  1.00  0.00    -0.237 OA
ATOM     99  O   UNL     1      -9.230  16.807  -8.508  1.00  0.00    -0.744 OA
ENDBRANCH  92  96
ENDBRANCH  66  89
ENDBRANCH  40  41
ENDBRANCH  33  35
ENDBRANCH  32  33
ENDBRANCH  31  32
ENDBRANCH  30  31
ENDBRANCH  29  30
ENDBRANCH  28  29
ENDBRANCH   1  28
TORSDOF 26
