REMARK SMILES C[C@@H]1[C@@H](C(=O)OCCOCCOCCOC(=O)c2ccc(-c3c4nc(c(-c5cc(S(=O)(=O)[O-])ccc5F)c5ccc([nH]5)c(-c5cc(S(=O)(=O)[O-])ccc5F)c5nc(c(-c6cc(S(=O)(=O)[O-])ccc6F)c6ccc3[nH]6)C=C5)C=C4)cc2)CC[N@@H+]1[C@H]1CC[C@@H](C(F)(F)F)CC1
REMARK SMILES IDX 11 1 10 2 9 3 8 4 7 5 6 6 4 7 5 8 3 9 1 10 2 11 83 12 81 13
REMARK SMILES IDX 82 14 84 16 85 17 93 18 86 19 92 20 87 21 88 22 89 23 90 24
REMARK SMILES IDX 91 25 12 26 13 27 14 28 15 29 16 30 17 31 18 32 19 33 80 34
REMARK SMILES IDX 20 35 79 36 21 37 22 38 23 39 73 40 24 41 78 42 72 43 74 44
REMARK SMILES IDX 25 45 77 46 71 47 70 48 26 50 58 51 38 52 57 53 39 54 42 55
REMARK SMILES IDX 56 56 75 57 40 58 41 59 55 61 76 62 43 63 27 64 28 65 36 66
REMARK SMILES IDX 29 67 35 68 37 69 34 70 30 71 31 72 32 73 33 74 59 75 60 76
REMARK SMILES IDX 68 77 61 78 67 79 69 80 66 81 62 82 63 83 64 84 65 85 44 86
REMARK SMILES IDX 45 87 53 88 46 89 52 90 54 91 51 92 47 93 48 94 49 95 50 96
REMARK H PARENT 83 15 74 49 42 60
REMARK Flexibility Score: inf
ROOT
ATOM      1  C   UNL     1       0.195   3.542  -2.368  1.00  0.00     0.188 C 
ENDROOT
BRANCH   1   2
ATOM      2  C   UNL     1       0.386   2.453  -3.442  1.00  0.00     0.188 C 
BRANCH   2   3
ATOM      3  O   UNL     1      -0.276   2.595  -4.682  1.00  0.00    -0.376 OA
BRANCH   3   4
ATOM      4  C   UNL     1      -1.673   2.374  -4.804  1.00  0.00     0.202 C 
BRANCH   4   5
ATOM      5  C   UNL     1      -2.530   1.574  -3.809  1.00  0.00     0.261 C 
BRANCH   5   6
ATOM      6  O   UNL     1      -2.100   1.629  -2.450  1.00  0.00    -0.463 OA
BRANCH   6   7
ATOM      7  C   UNL     1      -1.747   0.434  -1.896  1.00  0.00     0.315 C 
ATOM      8  O   UNL     1      -1.921  -0.657  -2.420  1.00  0.00    -0.252 OA
BRANCH   7   9
ATOM      9  C   UNL     1      -1.068   0.669  -0.562  1.00  0.00     0.162 C 
ATOM     10  C   UNL     1       1.326   0.659   0.171  1.00  0.00     0.076 C 
ATOM     11  C   UNL     1       0.197  -0.195  -0.418  1.00  0.00     0.195 C 
ATOM     12  N   UNL     1      -0.267  -1.333   0.371  1.00  0.00    -0.330 N 
ATOM     13  C   UNL     1      -1.956   0.269   0.595  1.00  0.00     0.083 C 
ATOM     14  C   UNL     1      -1.664  -1.204   0.756  1.00  0.00     0.263 C 
ATOM     15  H   UNL     1      -0.082  -2.027  -0.353  1.00  0.00     0.348 HD
BRANCH  12  16
ATOM     16  C   UNL     1       0.566  -2.227   1.149  1.00  0.00     0.184 C 
ATOM     17  C   UNL     1       1.806  -2.745   0.397  1.00  0.00     0.066 C 
ATOM     18  C   UNL     1       0.906  -1.631   2.523  1.00  0.00     0.066 C 
ATOM     19  C   UNL     1       2.676  -3.652   1.274  1.00  0.00     0.019 C 
ATOM     20  C   UNL     1       1.752  -2.580   3.361  1.00  0.00     0.019 C 
ATOM     21  C   UNL     1       3.023  -3.054   2.646  1.00  0.00     0.095 C 
BRANCH  21  22
ATOM     22  C   UNL     1       4.089  -1.963   2.567  1.00  0.00     0.391 C 
ATOM     23  F   UNL     1       4.349  -1.471   3.802  1.00  0.00    -0.171 F 
ATOM     24  F   UNL     1       5.246  -2.451   2.077  1.00  0.00    -0.171 F 
ATOM     25  F   UNL     1       3.717  -0.924   1.795  1.00  0.00    -0.171 F 
ENDBRANCH  21  22
ENDBRANCH  12  16
ENDBRANCH   7   9
ENDBRANCH   6   7
ENDBRANCH   5   6
ENDBRANCH   4   5
ENDBRANCH   3   4
ENDBRANCH   2   3
ENDBRANCH   1   2
BRANCH   1  26
ATOM     26  O   UNL     1      -0.959   4.347  -2.407  1.00  0.00    -0.376 OA
BRANCH  26  27
ATOM     27  C   UNL     1      -1.044   5.381  -3.374  1.00  0.00     0.202 C 
BRANCH  27  28
ATOM     28  C   UNL     1       0.149   5.995  -4.144  1.00  0.00     0.261 C 
BRANCH  28  29
ATOM     29  O   UNL     1       1.341   5.212  -4.297  1.00  0.00    -0.460 OA
BRANCH  29  30
ATOM     30  C   UNL     1       2.398   5.605  -3.542  1.00  0.00     0.338 C 
ATOM     31  O   UNL     1       2.429   6.550  -2.762  1.00  0.00    -0.246 OA
BRANCH  30  32
ATOM     32  C   UNL     1       3.470   4.594  -3.627  1.00  0.00     0.060 A 
ATOM     33  C   UNL     1       3.768   3.818  -2.495  1.00  0.00     0.016 A 
ATOM     34  C   UNL     1       4.213   4.447  -4.797  1.00  0.00     0.016 A 
ATOM     35  C   UNL     1       4.816   2.897  -2.529  1.00  0.00     0.010 A 
ATOM     36  C   UNL     1       5.283   3.545  -4.818  1.00  0.00     0.010 A 
ATOM     37  C   UNL     1       5.605   2.782  -3.679  1.00  0.00    -0.014 A 
BRANCH  37  38
ATOM     38  C   UNL     1       6.878   2.016  -3.640  1.00  0.00     0.031 A 
ATOM     39  C   UNL     1       8.162   2.775  -3.432  1.00  0.00     0.074 A 
ATOM     40  C   UNL     1       6.902   0.678  -3.782  1.00  0.00     0.049 A 
ATOM     41  N   UNL     1       9.398   2.352  -3.479  1.00  0.00    -0.248 NA
ATOM     42  C   UNL     1       8.025   4.209  -3.135  1.00  0.00     0.031 C 
ATOM     43  C   UNL     1       5.726  -0.178  -3.919  1.00  0.00     0.029 A 
ATOM     44  N   UNL     1       7.962  -0.193  -3.848  1.00  0.00    -0.354 N 
ATOM     45  C   UNL     1      10.189   3.467  -3.224  1.00  0.00     0.074 A 
ATOM     46  C   UNL     1       9.291   4.591  -3.062  1.00  0.00     0.031 C 
ATOM     47  C   UNL     1       6.131  -1.452  -4.069  1.00  0.00     0.029 A 
ATOM     48  C   UNL     1       7.593  -1.496  -4.088  1.00  0.00     0.049 A 
ATOM     49  H   UNL     1       8.898   0.089  -3.734  1.00  0.00     0.167 HD
ATOM     50  C   UNL     1      11.539   3.545  -3.127  1.00  0.00     0.034 A 
ATOM     51  C   UNL     1       8.348  -2.588  -4.330  1.00  0.00     0.034 A 
ATOM     52  C   UNL     1      12.424   2.421  -3.310  1.00  0.00     0.049 A 
ATOM     53  C   UNL     1       9.856  -2.452  -4.343  1.00  0.00     0.074 A 
ATOM     54  C   UNL     1      13.806   2.392  -3.243  1.00  0.00     0.029 A 
ATOM     55  N   UNL     1      12.016   1.127  -3.608  1.00  0.00    -0.354 N 
ATOM     56  N   UNL     1      10.596  -1.390  -4.117  1.00  0.00    -0.248 NA
ATOM     57  C   UNL     1      10.630  -3.666  -4.641  1.00  0.00     0.031 C 
ATOM     58  C   UNL     1      14.236   1.103  -3.576  1.00  0.00     0.029 A 
ATOM     59  C   UNL     1      13.120   0.302  -3.761  1.00  0.00     0.049 A 
ATOM     60  H   UNL     1      11.079   0.838  -3.698  1.00  0.00     0.167 HD
ATOM     61  C   UNL     1      11.919  -1.821  -4.203  1.00  0.00     0.074 A 
ATOM     62  C   UNL     1      11.875  -3.239  -4.491  1.00  0.00     0.031 C 
ATOM     63  C   UNL     1      13.067  -1.112  -4.050  1.00  0.00     0.034 A 
BRANCH  50  64
ATOM     64  C   UNL     1      12.137   4.906  -2.861  1.00  0.00     0.023 A 
ATOM     65  C   UNL     1      11.886   5.604  -1.666  1.00  0.00     0.031 A 
ATOM     66  C   UNL     1      12.950   5.526  -3.827  1.00  0.00     0.131 A 
ATOM     67  C   UNL     1      12.385   6.904  -1.497  1.00  0.00     0.055 A 
ATOM     68  C   UNL     1      13.512   6.786  -3.617  1.00  0.00     0.041 A 
ATOM     69  F   UNL     1      13.203   4.920  -4.998  1.00  0.00    -0.206 F 
ATOM     70  C   UNL     1      13.219   7.489  -2.453  1.00  0.00     0.022 A 
BRANCH  67  71
ATOM     71  S   UNL     1      11.811   7.875  -0.077  1.00  0.00     0.124 S 
ATOM     72  O   UNL     1      10.366   7.886  -0.292  1.00  0.00    -0.237 OA
ATOM     73  O   UNL     1      12.283   7.087   1.056  1.00  0.00    -0.237 OA
ATOM     74  O   UNL     1      12.471   9.167  -0.256  1.00  0.00    -0.744 OA
ENDBRANCH  67  71
ENDBRANCH  50  64
BRANCH  51  75
ATOM     75  C   UNL     1       7.714  -3.906  -4.635  1.00  0.00     0.023 A 
ATOM     76  C   UNL     1       7.947  -5.027  -3.821  1.00  0.00     0.031 A 
ATOM     77  C   UNL     1       6.936  -4.087  -5.793  1.00  0.00     0.131 A 
ATOM     78  C   UNL     1       7.462  -6.287  -4.207  1.00  0.00     0.055 A 
ATOM     79  C   UNL     1       6.401  -5.329  -6.138  1.00  0.00     0.041 A 
ATOM     80  F   UNL     1       6.689  -3.053  -6.614  1.00  0.00    -0.206 F 
ATOM     81  C   UNL     1       6.676  -6.442  -5.351  1.00  0.00     0.022 A 
BRANCH  78  82
ATOM     82  S   UNL     1       7.970  -7.743  -3.252  1.00  0.00     0.124 S 
ATOM     83  O   UNL     1       9.423  -7.669  -3.350  1.00  0.00    -0.237 OA
ATOM     84  O   UNL     1       7.399  -7.460  -1.939  1.00  0.00    -0.237 OA
ATOM     85  O   UNL     1       7.351  -8.855  -3.971  1.00  0.00    -0.744 OA
ENDBRANCH  78  82
ENDBRANCH  51  75
BRANCH  63  86
ATOM     86  C   UNL     1      14.371  -1.873  -4.126  1.00  0.00     0.023 A 
ATOM     87  C   UNL     1      14.811  -2.485  -5.313  1.00  0.00     0.031 A 
ATOM     88  C   UNL     1      15.186  -1.988  -2.985  1.00  0.00     0.131 A 
ATOM     89  C   UNL     1      16.002  -3.230  -5.317  1.00  0.00     0.055 A 
ATOM     90  C   UNL     1      16.402  -2.673  -3.012  1.00  0.00     0.041 A 
ATOM     91  F   UNL     1      14.817  -1.427  -1.821  1.00  0.00    -0.206 F 
ATOM     92  C   UNL     1      16.809  -3.311  -4.179  1.00  0.00     0.022 A 
BRANCH  89  93
ATOM     93  S   UNL     1      16.438  -4.172  -6.804  1.00  0.00     0.124 S 
ATOM     94  O   UNL     1      15.276  -5.040  -6.965  1.00  0.00    -0.237 OA
ATOM     95  O   UNL     1      16.592  -3.122  -7.806  1.00  0.00    -0.237 OA
ATOM     96  O   UNL     1      17.675  -4.855  -6.429  1.00  0.00    -0.744 OA
ENDBRANCH  89  93
ENDBRANCH  63  86
ENDBRANCH  37  38
ENDBRANCH  30  32
ENDBRANCH  29  30
ENDBRANCH  28  29
ENDBRANCH  27  28
ENDBRANCH  26  27
ENDBRANCH   1  26
TORSDOF 22
