REMARK SMILES CC1CCN(C(=O)Nc2nccnc2C(=O)OCCOCCOCCOC(=O)c2ccc(-c3c4nc(c(-c5cc(S(=O)(=O)[O-])ccc5F)c5ccc([nH]5)c(-c5cc(S(=O)(=O)[O-])ccc5F)c5nc(c(-c6cc(S(=O)(=O)[O-])ccc6F)c6ccc3[nH]6)C=C5)C=C4)cc2)CC1
REMARK SMILES IDX 22 1 21 2 20 3 19 4 18 5 17 6 15 7 16 8 14 9 9 10 10 11
REMARK SMILES IDX 11 12 13 13 12 14 8 15 1 16 2 17 3 18 93 19 4 20 92 21 5 22
REMARK SMILES IDX 6 23 7 24 23 26 24 27 25 28 26 29 27 30 28 31 29 32 30 33
REMARK SMILES IDX 91 34 31 35 90 36 32 37 33 38 34 39 84 40 35 41 89 42 83 43
REMARK SMILES IDX 85 44 36 45 88 46 82 47 81 48 37 50 69 51 49 52 68 53 50 54
REMARK SMILES IDX 53 55 67 56 86 57 51 58 52 59 66 61 87 62 54 63 38 64 39 65
REMARK SMILES IDX 47 66 40 67 46 68 48 69 45 70 41 71 42 72 43 73 44 74 70 75
REMARK SMILES IDX 71 76 79 77 72 78 78 79 80 80 77 81 73 82 74 83 75 84 76 85
REMARK SMILES IDX 55 86 56 87 64 88 57 89 63 90 65 91 62 92 58 93 59 94 60 95
REMARK SMILES IDX 61 96
REMARK H PARENT 8 25 85 49 53 60
REMARK Flexibility Score: inf
ROOT
ATOM      1  C   UNL     1       5.541  -2.083   1.109  1.00  0.00     0.188 C 
ENDROOT
BRANCH   1   2
ATOM      2  C   UNL     1       6.446  -3.305   0.857  1.00  0.00     0.188 C 
BRANCH   2   3
ATOM      3  O   UNL     1       7.770  -3.122   0.366  1.00  0.00    -0.376 OA
BRANCH   3   4
ATOM      4  C   UNL     1       8.007  -2.196  -0.686  1.00  0.00     0.202 C 
BRANCH   4   5
ATOM      5  C   UNL     1       7.243  -2.395  -1.999  1.00  0.00     0.261 C 
BRANCH   5   6
ATOM      6  O   UNL     1       5.814  -2.438  -1.824  1.00  0.00    -0.458 OA
BRANCH   6   7
ATOM      7  C   UNL     1       5.193  -3.484  -2.433  1.00  0.00     0.360 C 
ATOM      8  O   UNL     1       5.718  -4.237  -3.240  1.00  0.00    -0.244 OA
BRANCH   7   9
ATOM      9  C   UNL     1       3.800  -3.677  -1.930  1.00  0.00     0.191 A 
ATOM     10  C   UNL     1       2.903  -2.639  -1.618  1.00  0.00     0.167 A 
ATOM     11  N   UNL     1       1.620  -2.948  -1.319  1.00  0.00    -0.235 NA
ATOM     12  C   UNL     1       1.293  -4.259  -1.204  1.00  0.00     0.133 A 
ATOM     13  N   UNL     1       3.462  -5.000  -1.811  1.00  0.00    -0.244 NA
ATOM     14  C   UNL     1       2.204  -5.266  -1.417  1.00  0.00     0.132 A 
BRANCH  10  15
ATOM     15  N   UNL     1       3.306  -1.294  -1.617  1.00  0.00    -0.290 N 
ATOM     16  C   UNL     1      -2.488   0.043  -0.035  1.00  0.00     0.008 C 
ATOM     17  C   UNL     1      -1.036   0.192   0.421  1.00  0.00    -0.011 C 
ATOM     18  C   UNL     1      -0.337   1.307  -0.379  1.00  0.00     0.025 C 
ATOM     19  C   UNL     1      -0.280  -1.144   0.291  1.00  0.00     0.025 C 
ATOM     20  C   UNL     1       1.172   1.354  -0.125  1.00  0.00     0.121 C 
ATOM     21  C   UNL     1       1.205  -0.952   0.607  1.00  0.00     0.121 C 
ATOM     22  N   UNL     1       1.765   0.029  -0.318  1.00  0.00    -0.324 N 
ATOM     23  C   UNL     1       2.766  -0.117  -1.236  1.00  0.00     0.323 C 
ATOM     24  O   UNL     1       3.301   0.877  -1.750  1.00  0.00    -0.248 OA
ATOM     25  H   UNL     1       4.211  -1.181  -1.988  1.00  0.00     0.173 HD
ENDBRANCH  10  15
ENDBRANCH   7   9
ENDBRANCH   6   7
ENDBRANCH   5   6
ENDBRANCH   4   5
ENDBRANCH   3   4
ENDBRANCH   2   3
ENDBRANCH   1   2
BRANCH   1  26
ATOM     26  O   UNL     1       6.167  -0.822   0.938  1.00  0.00    -0.376 OA
BRANCH  26  27
ATOM     27  C   UNL     1       6.298  -0.044   2.124  1.00  0.00     0.202 C 
BRANCH  27  28
ATOM     28  C   UNL     1       7.371  -0.564   3.091  1.00  0.00     0.261 C 
BRANCH  28  29
ATOM     29  O   UNL     1       7.119  -1.877   3.622  1.00  0.00    -0.460 OA
BRANCH  29  30
ATOM     30  C   UNL     1       6.019  -2.010   4.398  1.00  0.00     0.338 C 
ATOM     31  O   UNL     1       5.241  -1.128   4.717  1.00  0.00    -0.246 OA
BRANCH  30  32
ATOM     32  C   UNL     1       5.791  -3.451   4.631  1.00  0.00     0.060 A 
ATOM     33  C   UNL     1       4.544  -3.993   4.298  1.00  0.00     0.016 A 
ATOM     34  C   UNL     1       6.790  -4.256   5.184  1.00  0.00     0.016 A 
ATOM     35  C   UNL     1       4.279  -5.338   4.559  1.00  0.00     0.010 A 
ATOM     36  C   UNL     1       6.518  -5.599   5.459  1.00  0.00     0.010 A 
ATOM     37  C   UNL     1       5.248  -6.136   5.182  1.00  0.00    -0.014 A 
BRANCH  37  38
ATOM     38  C   UNL     1       4.853  -7.457   5.734  1.00  0.00     0.031 A 
ATOM     39  C   UNL     1       4.427  -7.527   7.176  1.00  0.00     0.074 A 
ATOM     40  C   UNL     1       4.829  -8.562   4.969  1.00  0.00     0.049 A 
ATOM     41  N   UNL     1       3.984  -8.545   7.867  1.00  0.00    -0.248 NA
ATOM     42  C   UNL     1       4.518  -6.272   7.937  1.00  0.00     0.031 C 
ATOM     43  C   UNL     1       5.196  -8.623   3.556  1.00  0.00     0.029 A 
ATOM     44  N   UNL     1       4.472  -9.850   5.282  1.00  0.00    -0.354 N 
ATOM     45  C   UNL     1       3.732  -8.053   9.143  1.00  0.00     0.074 A 
ATOM     46  C   UNL     1       4.126  -6.659   9.139  1.00  0.00     0.031 C 
ATOM     47  C   UNL     1       5.040  -9.886   3.121  1.00  0.00     0.029 A 
ATOM     48  C   UNL     1       4.581 -10.725   4.228  1.00  0.00     0.049 A 
ATOM     49  H   UNL     1       4.166 -10.121   6.177  1.00  0.00     0.167 HD
ATOM     50  C   UNL     1       3.206  -8.694  10.217  1.00  0.00     0.034 A 
ATOM     51  C   UNL     1       4.340 -12.051   4.167  1.00  0.00     0.034 A 
ATOM     52  C   UNL     1       2.852 -10.092  10.222  1.00  0.00     0.049 A 
ATOM     53  C   UNL     1       3.837 -12.769   5.397  1.00  0.00     0.074 A 
ATOM     54  C   UNL     1       2.309 -10.843  11.251  1.00  0.00     0.029 A 
ATOM     55  N   UNL     1       3.026 -10.960   9.150  1.00  0.00    -0.354 N 
ATOM     56  N   UNL     1       3.568 -12.286   6.589  1.00  0.00    -0.248 NA
ATOM     57  C   UNL     1       3.589 -14.210   5.262  1.00  0.00     0.031 C 
ATOM     58  C   UNL     1       2.221 -12.175  10.825  1.00  0.00     0.029 A 
ATOM     59  C   UNL     1       2.633 -12.243   9.503  1.00  0.00     0.049 A 
ATOM     60  H   UNL     1       3.379 -10.702   8.268  1.00  0.00     0.167 HD
ATOM     61  C   UNL     1       3.083 -13.360   7.333  1.00  0.00     0.074 A 
ATOM     62  C   UNL     1       3.091 -14.511   6.453  1.00  0.00     0.031 C 
ATOM     63  C   UNL     1       2.657 -13.389   8.623  1.00  0.00     0.034 A 
BRANCH  50  64
ATOM     64  C   UNL     1       3.045  -7.882  11.480  1.00  0.00     0.023 A 
ATOM     65  C   UNL     1       2.200  -6.758  11.530  1.00  0.00     0.031 A 
ATOM     66  C   UNL     1       3.805  -8.184  12.623  1.00  0.00     0.131 A 
ATOM     67  C   UNL     1       2.212  -5.922  12.657  1.00  0.00     0.055 A 
ATOM     68  C   UNL     1       3.743  -7.399  13.776  1.00  0.00     0.041 A 
ATOM     69  F   UNL     1       4.645  -9.230  12.629  1.00  0.00    -0.206 F 
ATOM     70  C   UNL     1       2.960  -6.248  13.790  1.00  0.00     0.022 A 
BRANCH  67  71
ATOM     71  S   UNL     1       1.384  -4.311  12.547  1.00  0.00     0.124 S 
ATOM     72  O   UNL     1       2.033  -3.724  11.376  1.00  0.00    -0.237 OA
ATOM     73  O   UNL     1      -0.015  -4.687  12.381  1.00  0.00    -0.237 OA
ATOM     74  O   UNL     1       1.713  -3.669  13.818  1.00  0.00    -0.744 OA
ENDBRANCH  67  71
ENDBRANCH  50  64
BRANCH  51  75
ATOM     75  C   UNL     1       4.573 -12.801   2.901  1.00  0.00     0.023 A 
ATOM     76  C   UNL     1       3.505 -13.372   2.191  1.00  0.00     0.031 A 
ATOM     77  C   UNL     1       5.875 -12.997   2.409  1.00  0.00     0.131 A 
ATOM     78  C   UNL     1       3.760 -14.145   1.047  1.00  0.00     0.055 A 
ATOM     79  C   UNL     1       6.121 -13.731   1.248  1.00  0.00     0.041 A 
ATOM     80  F   UNL     1       6.929 -12.470   3.053  1.00  0.00    -0.206 F 
ATOM     81  C   UNL     1       5.060 -14.318   0.565  1.00  0.00     0.022 A 
BRANCH  78  82
ATOM     82  S   UNL     1       2.368 -14.967   0.225  1.00  0.00     0.124 S 
ATOM     83  O   UNL     1       1.888 -15.858   1.274  1.00  0.00    -0.237 OA
ATOM     84  O   UNL     1       1.502 -13.839  -0.105  1.00  0.00    -0.237 OA
ATOM     85  O   UNL     1       2.990 -15.626  -0.921  1.00  0.00    -0.744 OA
ENDBRANCH  78  82
ENDBRANCH  51  75
BRANCH  63  86
ATOM     86  C   UNL     1       2.111 -14.701   9.138  1.00  0.00     0.023 A 
ATOM     87  C   UNL     1       2.922 -15.840   9.289  1.00  0.00     0.031 A 
ATOM     88  C   UNL     1       0.746 -14.818   9.460  1.00  0.00     0.131 A 
ATOM     89  C   UNL     1       2.351 -17.059   9.687  1.00  0.00     0.055 A 
ATOM     90  C   UNL     1       0.195 -16.017   9.914  1.00  0.00     0.041 A 
ATOM     91  F   UNL     1      -0.078 -13.765   9.334  1.00  0.00    -0.206 F 
ATOM     92  C   UNL     1       0.996 -17.151  10.014  1.00  0.00     0.022 A 
BRANCH  89  93
ATOM     93  S   UNL     1       3.379 -18.555   9.663  1.00  0.00     0.124 S 
ATOM     94  O   UNL     1       3.868 -18.567   8.288  1.00  0.00    -0.237 OA
ATOM     95  O   UNL     1       4.372 -18.265  10.691  1.00  0.00    -0.237 OA
ATOM     96  O   UNL     1       2.438 -19.623   9.995  1.00  0.00    -0.744 OA
ENDBRANCH  89  93
ENDBRANCH  63  86
ENDBRANCH  37  38
ENDBRANCH  30  32
ENDBRANCH  29  30
ENDBRANCH  28  29
ENDBRANCH  27  28
ENDBRANCH  26  27
ENDBRANCH   1  26
TORSDOF 21
