REMARK SMILES O=C(OCCOCCOCCOC(=O)c1csc(C[NH2+][C@H]2CCSc3ccc(F)cc32)c1)c1ccc(-c2c3nc(c(-c4cc(S(=O)(=O)[O-])ccc4F)c4ccc([nH]4)c(-c4cc(S(=O)(=O)[O-])ccc4F)c4nc(c(-c5cc(S(=O)(=O)[O-])ccc5F)c5ccc2[nH]5)C=C4)C=C3)cc1
REMARK SMILES IDX 7 1 6 2 5 3 4 4 3 5 2 6 1 7 33 8 34 9 95 10 35 11 94 12
REMARK SMILES IDX 36 13 37 14 38 15 88 16 39 17 93 18 87 19 89 20 40 21 92 22
REMARK SMILES IDX 86 23 85 24 41 26 73 27 53 28 72 29 54 30 57 31 71 32 90 33
REMARK SMILES IDX 55 34 56 35 70 37 91 38 58 39 42 40 43 41 51 42 44 43 50 44
REMARK SMILES IDX 52 45 49 46 45 47 46 48 47 49 48 50 74 51 75 52 83 53 76 54
REMARK SMILES IDX 82 55 84 56 81 57 77 58 78 59 79 60 80 61 59 62 60 63 68 64
REMARK SMILES IDX 61 65 67 66 69 67 66 68 62 69 63 70 64 71 65 72 8 73 9 74
REMARK SMILES IDX 10 75 11 76 12 77 13 78 14 79 15 80 16 81 32 82 17 83 18 84
REMARK SMILES IDX 19 85 20 86 21 89 22 90 31 91 23 92 25 93 30 94 24 95 26 96
REMARK SMILES IDX 28 97 27 98 29 99
REMARK H PARENT 89 25 57 36 20 87 20 88
REMARK Flexibility Score: inf
ROOT
ATOM      1  C   UNL     1      -6.177   6.131   7.690  1.00  0.00     0.188 C 
ENDROOT
BRANCH   1   2
ATOM      2  O   UNL     1      -5.868   4.732   7.620  1.00  0.00    -0.376 OA
BRANCH   2   3
ATOM      3  C   UNL     1      -6.075   4.043   8.858  1.00  0.00     0.202 C 
BRANCH   3   4
ATOM      4  C   UNL     1      -4.872   4.041   9.802  1.00  0.00     0.261 C 
BRANCH   4   5
ATOM      5  O   UNL     1      -4.096   5.240   9.736  1.00  0.00    -0.460 OA
BRANCH   5   6
ATOM      6  C   UNL     1      -3.144   5.587   8.839  1.00  0.00     0.338 C 
ATOM      7  O   UNL     1      -2.620   6.693   8.992  1.00  0.00    -0.246 OA
BRANCH   6   8
ATOM      8  C   UNL     1      -2.705   4.767   7.651  1.00  0.00     0.060 A 
ATOM      9  C   UNL     1      -1.806   5.407   6.781  1.00  0.00     0.016 A 
ATOM     10  C   UNL     1      -3.068   3.454   7.326  1.00  0.00     0.016 A 
ATOM     11  C   UNL     1      -1.275   4.749   5.669  1.00  0.00     0.010 A 
ATOM     12  C   UNL     1      -2.517   2.784   6.221  1.00  0.00     0.010 A 
ATOM     13  C   UNL     1      -1.598   3.421   5.393  1.00  0.00    -0.014 A 
BRANCH  13  14
ATOM     14  C   UNL     1      -0.860   2.665   4.354  1.00  0.00     0.031 A 
ATOM     15  C   UNL     1      -1.457   2.372   3.014  1.00  0.00     0.074 A 
ATOM     16  C   UNL     1       0.369   2.205   4.657  1.00  0.00     0.049 A 
ATOM     17  N   UNL     1      -0.878   1.857   1.962  1.00  0.00    -0.248 NA
ATOM     18  C   UNL     1      -2.872   2.711   2.820  1.00  0.00     0.031 C 
ATOM     19  C   UNL     1       1.032   2.391   5.948  1.00  0.00     0.029 A 
ATOM     20  N   UNL     1       1.267   1.475   3.920  1.00  0.00    -0.354 N 
ATOM     21  C   UNL     1      -1.838   1.872   0.958  1.00  0.00     0.074 A 
ATOM     22  C   UNL     1      -3.055   2.385   1.545  1.00  0.00     0.031 C 
ATOM     23  C   UNL     1       2.222   1.775   5.920  1.00  0.00     0.029 A 
ATOM     24  C   UNL     1       2.404   1.139   4.617  1.00  0.00     0.049 A 
ATOM     25  H   UNL     1       1.112   1.216   2.983  1.00  0.00     0.167 HD
ATOM     26  C   UNL     1      -1.700   1.508  -0.339  1.00  0.00     0.034 A 
ATOM     27  C   UNL     1       3.474   0.403   4.253  1.00  0.00     0.034 A 
ATOM     28  C   UNL     1      -0.512   0.908  -0.882  1.00  0.00     0.049 A 
ATOM     29  C   UNL     1       3.562  -0.092   2.833  1.00  0.00     0.074 A 
ATOM     30  C   UNL     1      -0.270   0.527  -2.190  1.00  0.00     0.029 A 
ATOM     31  N   UNL     1       0.614   0.565  -0.149  1.00  0.00    -0.354 N 
ATOM     32  N   UNL     1       2.716   0.091   1.845  1.00  0.00    -0.248 NA
ATOM     33  C   UNL     1       4.753  -0.868   2.461  1.00  0.00     0.031 C 
ATOM     34  C   UNL     1       0.971  -0.110  -2.233  1.00  0.00     0.029 A 
ATOM     35  C   UNL     1       1.535  -0.067  -0.967  1.00  0.00     0.049 A 
ATOM     36  H   UNL     1       0.739   0.744   0.811  1.00  0.00     0.167 HD
ATOM     37  C   UNL     1       3.291  -0.508   0.728  1.00  0.00     0.074 A 
ATOM     38  C   UNL     1       4.561  -1.054   1.161  1.00  0.00     0.031 C 
ATOM     39  C   UNL     1       2.811  -0.589  -0.538  1.00  0.00     0.034 A 
BRANCH  26  40
ATOM     40  C   UNL     1      -2.833   1.784  -1.289  1.00  0.00     0.023 A 
ATOM     41  C   UNL     1      -3.555   0.734  -1.882  1.00  0.00     0.031 A 
ATOM     42  C   UNL     1      -3.073   3.097  -1.732  1.00  0.00     0.131 A 
ATOM     43  C   UNL     1      -4.468   1.016  -2.907  1.00  0.00     0.055 A 
ATOM     44  C   UNL     1      -4.008   3.376  -2.728  1.00  0.00     0.041 A 
ATOM     45  F   UNL     1      -2.371   4.122  -1.223  1.00  0.00    -0.206 F 
ATOM     46  C   UNL     1      -4.704   2.331  -3.328  1.00  0.00     0.022 A 
BRANCH  43  47
ATOM     47  S   UNL     1      -5.340  -0.313  -3.780  1.00  0.00     0.124 S 
ATOM     48  O   UNL     1      -6.739   0.067  -3.590  1.00  0.00    -0.237 OA
ATOM     49  O   UNL     1      -4.834  -0.169  -5.142  1.00  0.00    -0.237 OA
ATOM     50  O   UNL     1      -4.928  -1.523  -3.077  1.00  0.00    -0.744 OA
ENDBRANCH  43  47
ENDBRANCH  26  40
BRANCH  27  51
ATOM     51  C   UNL     1       4.562   0.173   5.248  1.00  0.00     0.023 A 
ATOM     52  C   UNL     1       4.309  -0.522   6.446  1.00  0.00     0.031 A 
ATOM     53  C   UNL     1       5.831   0.748   5.073  1.00  0.00     0.131 A 
ATOM     54  C   UNL     1       5.288  -0.568   7.448  1.00  0.00     0.055 A 
ATOM     55  C   UNL     1       6.825   0.646   6.048  1.00  0.00     0.041 A 
ATOM     56  F   UNL     1       6.115   1.432   3.954  1.00  0.00    -0.206 F 
ATOM     57  C   UNL     1       6.550   0.001   7.250  1.00  0.00     0.022 A 
BRANCH  54  58
ATOM     58  S   UNL     1       4.906  -1.239   9.091  1.00  0.00     0.124 S 
ATOM     59  O   UNL     1       5.780  -2.406   9.151  1.00  0.00    -0.237 OA
ATOM     60  O   UNL     1       5.276  -0.129   9.966  1.00  0.00    -0.237 OA
ATOM     61  O   UNL     1       3.476  -1.522   9.024  1.00  0.00    -0.744 OA
ENDBRANCH  54  58
ENDBRANCH  27  51
BRANCH  39  62
ATOM     62  C   UNL     1       3.643  -1.280  -1.590  1.00  0.00     0.023 A 
ATOM     63  C   UNL     1       4.098  -0.553  -2.708  1.00  0.00     0.031 A 
ATOM     64  C   UNL     1       3.831  -2.671  -1.578  1.00  0.00     0.131 A 
ATOM     65  C   UNL     1       4.671  -1.229  -3.792  1.00  0.00     0.055 A 
ATOM     66  C   UNL     1       4.448  -3.335  -2.640  1.00  0.00     0.041 A 
ATOM     67  F   UNL     1       3.404  -3.408  -0.540  1.00  0.00    -0.206 F 
ATOM     68  C   UNL     1       4.854  -2.615  -3.760  1.00  0.00     0.022 A 
BRANCH  65  69
ATOM     69  S   UNL     1       5.097  -0.351  -5.321  1.00  0.00     0.124 S 
ATOM     70  O   UNL     1       6.543  -0.547  -5.388  1.00  0.00    -0.237 OA
ATOM     71  O   UNL     1       4.322  -1.080  -6.321  1.00  0.00    -0.237 OA
ATOM     72  O   UNL     1       4.666   1.021  -5.073  1.00  0.00    -0.744 OA
ENDBRANCH  65  69
ENDBRANCH  39  62
ENDBRANCH  13  14
ENDBRANCH   6   8
ENDBRANCH   5   6
ENDBRANCH   4   5
ENDBRANCH   3   4
ENDBRANCH   2   3
ENDBRANCH   1   2
BRANCH   1  73
ATOM     73  C   UNL     1      -7.120   6.583   6.569  1.00  0.00     0.188 C 
BRANCH  73  74
ATOM     74  O   UNL     1      -8.449   6.058   6.623  1.00  0.00    -0.376 OA
BRANCH  74  75
ATOM     75  C   UNL     1      -8.593   4.649   6.458  1.00  0.00     0.202 C 
BRANCH  75  76
ATOM     76  C   UNL     1      -8.315   4.085   5.061  1.00  0.00     0.261 C 
BRANCH  76  77
ATOM     77  O   UNL     1      -7.038   4.473   4.525  1.00  0.00    -0.460 OA
BRANCH  77  78
ATOM     78  C   UNL     1      -7.072   4.851   3.210  1.00  0.00     0.339 C 
ATOM     79  O   UNL     1      -8.084   4.820   2.520  1.00  0.00    -0.246 OA
BRANCH  78  80
ATOM     80  C   UNL     1      -5.789   5.319   2.678  1.00  0.00     0.071 A 
ATOM     81  C   UNL     1      -5.578   5.332   1.311  1.00  0.00     0.081 A 
ATOM     82  C   UNL     1      -4.631   5.847   3.363  1.00  0.00     0.037 A 
ATOM     83  S   UNL     1      -4.106   6.048   0.861  1.00  0.00    -0.142 S 
ATOM     84  C   UNL     1      -3.641   6.300   2.497  1.00  0.00     0.060 A 
BRANCH  84  85
ATOM     85  C   UNL     1      -2.342   7.030   2.795  1.00  0.00     0.308 C 
BRANCH  85  86
ATOM     86  N   UNL     1      -1.221   6.466   2.051  1.00  0.00    -0.336 N 
ATOM     87  H   UNL     1      -1.562   6.245   1.116  1.00  0.00     0.347 HD
ATOM     88  H   UNL     1      -0.920   5.676   2.622  1.00  0.00     0.347 HD
BRANCH  86  89
ATOM     89  C   UNL     1      -0.000   7.272   1.887  1.00  0.00     0.215 C 
ATOM     90  C   UNL     1      -0.283   8.551   1.068  1.00  0.00     0.081 C 
ATOM     91  C   UNL     1       0.826   7.436   3.157  1.00  0.00     0.026 A 
ATOM     92  C   UNL     1       0.838   9.567   1.156  1.00  0.00     0.081 C 
ATOM     93  C   UNL     1       1.181   8.687   3.697  1.00  0.00     0.017 A 
ATOM     94  C   UNL     1       1.357   6.285   3.773  1.00  0.00     0.050 A 
ATOM     95  S   UNL     1       0.861  10.223   2.849  1.00  0.00    -0.125 SA
ATOM     96  C   UNL     1       1.910   8.766   4.896  1.00  0.00     0.018 A 
ATOM     97  C   UNL     1       2.102   6.381   4.946  1.00  0.00     0.123 A 
ATOM     98  C   UNL     1       2.359   7.610   5.529  1.00  0.00     0.040 A 
ATOM     99  F   UNL     1       2.566   5.271   5.530  1.00  0.00    -0.207 F 
ENDBRANCH  86  89
ENDBRANCH  85  86
ENDBRANCH  84  85
ENDBRANCH  78  80
ENDBRANCH  77  78
ENDBRANCH  76  77
ENDBRANCH  75  76
ENDBRANCH  74  75
ENDBRANCH  73  74
ENDBRANCH   1  73
TORSDOF 23
