REMARK SMILES CC(C)(C)OC(=O)N[C@@H](Cc1c[nH]c2cccc(Cl)c12)C(=O)OCCOCCOCCOC(=O)c1ccc(-c2c3nc(c(-c4cc(S(=O)(=O)[O-])ccc4F)c4ccc([nH]4)c(-c4cc(S(=O)(=O)[O-])ccc4F)c4nc(c(-c5cc(S(=O)(=O)[O-])ccc5F)c5ccc2[nH]5)C=C4)C=C3)cc1
REMARK SMILES IDX 27 1 26 2 25 3 24 4 23 5 21 6 22 7 9 8 8 9 6 10 7 11 5 13
REMARK SMILES IDX 2 14 1 15 3 16 4 17 10 18 11 19 12 20 20 21 13 22 14 23
REMARK SMILES IDX 18 24 15 26 17 27 19 28 16 29 28 30 29 31 30 32 31 33 32 34
REMARK SMILES IDX 33 35 34 36 35 37 36 38 97 39 37 40 96 41 38 42 39 43 40 44
REMARK SMILES IDX 90 45 41 46 95 47 89 48 91 49 42 50 94 51 88 52 87 53 43 55
REMARK SMILES IDX 75 56 55 57 74 58 56 59 59 60 73 61 92 62 57 63 58 64 72 66
REMARK SMILES IDX 93 67 60 68 44 69 45 70 53 71 46 72 52 73 54 74 51 75 47 76
REMARK SMILES IDX 48 77 49 78 50 79 76 80 77 81 85 82 78 83 84 84 86 85 83 86
REMARK SMILES IDX 79 87 80 88 81 89 82 90 61 91 62 92 70 93 63 94 69 95 71 96
REMARK SMILES IDX 68 97 64 98 65 99 66 100 67 101
REMARK H PARENT 8 12 13 25 91 54 59 65
REMARK Flexibility Score: inf
ROOT
ATOM      1  C   UNL     1      -0.997   0.721  -5.492  1.00  0.00     0.188 C 
ENDROOT
BRANCH   1   2
ATOM      2  O   UNL     1      -1.247   1.222  -6.790  1.00  0.00    -0.376 OA
BRANCH   2   3
ATOM      3  C   UNL     1      -0.674   0.568  -7.907  1.00  0.00     0.202 C 
BRANCH   3   4
ATOM      4  C   UNL     1       0.756  -0.004  -7.872  1.00  0.00     0.261 C 
BRANCH   4   5
ATOM      5  O   UNL     1       1.141  -0.804  -6.734  1.00  0.00    -0.462 OA
BRANCH   5   6
ATOM      6  C   UNL     1       2.056  -0.278  -5.876  1.00  0.00     0.329 C 
ATOM      7  O   UNL     1       2.544   0.842  -6.000  1.00  0.00    -0.250 OA
BRANCH   6   8
ATOM      8  C   UNL     1       2.553  -1.271  -4.802  1.00  0.00     0.200 C 
BRANCH   8   9
ATOM      9  N   UNL     1       1.639  -2.322  -4.319  1.00  0.00    -0.308 N 
ATOM     10  C   UNL     1       1.086  -2.490  -3.074  1.00  0.00     0.408 C 
ATOM     11  O   UNL     1       0.433  -3.489  -2.819  1.00  0.00    -0.225 OA
ATOM     12  H   UNL     1       1.390  -3.002  -4.985  1.00  0.00     0.168 HD
BRANCH  10  13
ATOM     13  O   UNL     1       1.316  -1.460  -2.217  1.00  0.00    -0.444 OA
BRANCH  13  14
ATOM     14  C   UNL     1       0.764  -1.476  -0.860  1.00  0.00     0.106 C 
ATOM     15  C   UNL     1       1.169  -0.126  -0.240  1.00  0.00     0.056 C 
ATOM     16  C   UNL     1       1.368  -2.604  -0.019  1.00  0.00     0.056 C 
ATOM     17  C   UNL     1      -0.767  -1.542  -0.833  1.00  0.00     0.056 C 
ENDBRANCH  13  14
ENDBRANCH  10  13
ENDBRANCH   8   9
BRANCH   8  18
ATOM     18  C   UNL     1       3.861  -1.905  -5.342  1.00  0.00     0.075 C 
BRANCH  18  19
ATOM     19  C   UNL     1       3.639  -2.903  -6.460  1.00  0.00    -0.018 A 
ATOM     20  C   UNL     1       3.425  -4.255  -6.250  1.00  0.00     0.087 A 
ATOM     21  C   UNL     1       3.501  -2.680  -7.884  1.00  0.00     0.021 A 
ATOM     22  N   UNL     1       3.056  -4.827  -7.432  1.00  0.00    -0.361 N 
ATOM     23  C   UNL     1       3.011  -3.878  -8.424  1.00  0.00     0.047 A 
ATOM     24  C   UNL     1       3.652  -1.609  -8.797  1.00  0.00     0.050 A 
ATOM     25  H   UNL     1       2.852  -5.782  -7.556  1.00  0.00     0.166 HD
ATOM     26  C   UNL     1       2.572  -4.003  -9.752  1.00  0.00     0.027 A 
ATOM     27  C   UNL     1       3.192  -1.694 -10.115  1.00  0.00     0.021 A 
ATOM     28  Cl  UNL     1       4.479  -0.209  -8.275  1.00  0.00    -0.084 Cl
ATOM     29  C   UNL     1       2.632  -2.877 -10.577  1.00  0.00     0.004 A 
ENDBRANCH  18  19
ENDBRANCH   8  18
ENDBRANCH   6   8
ENDBRANCH   5   6
ENDBRANCH   4   5
ENDBRANCH   3   4
ENDBRANCH   2   3
ENDBRANCH   1   2
BRANCH   1  30
ATOM     30  C   UNL     1      -1.187  -0.781  -5.195  1.00  0.00     0.188 C 
BRANCH  30  31
ATOM     31  O   UNL     1      -1.244  -1.668  -6.292  1.00  0.00    -0.376 OA
BRANCH  31  32
ATOM     32  C   UNL     1      -2.451  -2.112  -6.888  1.00  0.00     0.202 C 
BRANCH  32  33
ATOM     33  C   UNL     1      -3.788  -1.370  -6.830  1.00  0.00     0.261 C 
BRANCH  33  34
ATOM     34  O   UNL     1      -3.833  -0.269  -5.955  1.00  0.00    -0.460 OA
BRANCH  34  35
ATOM     35  C   UNL     1      -4.054  -0.662  -4.688  1.00  0.00     0.338 C 
ATOM     36  O   UNL     1      -4.114  -1.800  -4.258  1.00  0.00    -0.246 OA
BRANCH  35  37
ATOM     37  C   UNL     1      -4.177   0.528  -3.857  1.00  0.00     0.060 A 
ATOM     38  C   UNL     1      -3.793   0.350  -2.527  1.00  0.00     0.016 A 
ATOM     39  C   UNL     1      -5.179   1.401  -4.266  1.00  0.00     0.016 A 
ATOM     40  C   UNL     1      -4.662   0.773  -1.563  1.00  0.00     0.010 A 
ATOM     41  C   UNL     1      -6.082   1.762  -3.310  1.00  0.00     0.010 A 
ATOM     42  C   UNL     1      -5.854   1.353  -1.994  1.00  0.00    -0.014 A 
BRANCH  42  43
ATOM     43  C   UNL     1      -6.851   1.643  -0.998  1.00  0.00     0.031 A 
ATOM     44  C   UNL     1      -6.531   2.905  -0.305  1.00  0.00     0.074 A 
ATOM     45  C   UNL     1      -7.958   0.891  -0.873  1.00  0.00     0.049 A 
ATOM     46  N   UNL     1      -6.054   3.050   0.887  1.00  0.00    -0.248 NA
ATOM     47  C   UNL     1      -6.441   4.115  -1.145  1.00  0.00     0.031 C 
ATOM     48  C   UNL     1      -8.427  -0.189  -1.747  1.00  0.00     0.029 A 
ATOM     49  N   UNL     1      -8.975   1.025   0.009  1.00  0.00    -0.354 N 
ATOM     50  C   UNL     1      -5.863   4.421   1.012  1.00  0.00     0.074 A 
ATOM     51  C   UNL     1      -5.794   4.940  -0.326  1.00  0.00     0.031 C 
ATOM     52  C   UNL     1      -9.738  -0.418  -1.500  1.00  0.00     0.029 A 
ATOM     53  C   UNL     1     -10.155   0.404  -0.376  1.00  0.00     0.049 A 
ATOM     54  H   UNL     1      -8.886   1.522   0.854  1.00  0.00     0.167 HD
ATOM     55  C   UNL     1      -6.162   5.070   2.170  1.00  0.00     0.034 A 
ATOM     56  C   UNL     1     -11.384   0.670   0.137  1.00  0.00     0.034 A 
ATOM     57  C   UNL     1      -6.286   4.141   3.262  1.00  0.00     0.049 A 
ATOM     58  C   UNL     1     -11.184   1.418   1.406  1.00  0.00     0.074 A 
ATOM     59  C   UNL     1      -5.434   3.246   3.877  1.00  0.00     0.029 A 
ATOM     60  N   UNL     1      -7.562   3.763   3.606  1.00  0.00    -0.354 N 
ATOM     61  N   UNL     1     -10.677   0.897   2.488  1.00  0.00    -0.248 NA
ATOM     62  C   UNL     1     -11.120   2.871   1.324  1.00  0.00     0.031 C 
ATOM     63  C   UNL     1      -6.248   2.134   4.230  1.00  0.00     0.029 A 
ATOM     64  C   UNL     1      -7.568   2.419   3.872  1.00  0.00     0.049 A 
ATOM     65  H   UNL     1      -8.343   4.360   3.653  1.00  0.00     0.167 HD
ATOM     66  C   UNL     1      -9.845   1.886   2.993  1.00  0.00     0.074 A 
ATOM     67  C   UNL     1     -10.236   3.109   2.296  1.00  0.00     0.031 C 
ATOM     68  C   UNL     1      -8.721   1.559   3.695  1.00  0.00     0.034 A 
BRANCH  55  69
ATOM     69  C   UNL     1      -6.764   6.457   2.195  1.00  0.00     0.023 A 
ATOM     70  C   UNL     1      -7.288   7.098   1.054  1.00  0.00     0.031 A 
ATOM     71  C   UNL     1      -7.033   7.089   3.421  1.00  0.00     0.131 A 
ATOM     72  C   UNL     1      -7.999   8.299   1.129  1.00  0.00     0.055 A 
ATOM     73  C   UNL     1      -7.807   8.254   3.510  1.00  0.00     0.041 A 
ATOM     74  F   UNL     1      -6.604   6.559   4.577  1.00  0.00    -0.206 F 
ATOM     75  C   UNL     1      -8.292   8.868   2.360  1.00  0.00     0.022 A 
BRANCH  72  76
ATOM     76  S   UNL     1      -8.578   9.109  -0.389  1.00  0.00     0.124 S 
ATOM     77  O   UNL     1     -10.012   9.215  -0.147  1.00  0.00    -0.237 OA
ATOM     78  O   UNL     1      -7.832  10.364  -0.353  1.00  0.00    -0.237 OA
ATOM     79  O   UNL     1      -8.180   8.185  -1.447  1.00  0.00    -0.744 OA
ENDBRANCH  72  76
ENDBRANCH  55  69
BRANCH  56  80
ATOM     80  C   UNL     1     -12.664   0.767  -0.608  1.00  0.00     0.023 A 
ATOM     81  C   UNL     1     -12.667   1.036  -1.988  1.00  0.00     0.031 A 
ATOM     82  C   UNL     1     -13.879   0.935   0.083  1.00  0.00     0.131 A 
ATOM     83  C   UNL     1     -13.821   1.527  -2.616  1.00  0.00     0.055 A 
ATOM     84  C   UNL     1     -15.033   1.413  -0.547  1.00  0.00     0.041 A 
ATOM     85  F   UNL     1     -13.945   0.717   1.406  1.00  0.00    -0.206 F 
ATOM     86  C   UNL     1     -15.003   1.729  -1.902  1.00  0.00     0.022 A 
BRANCH  83  87
ATOM     87  S   UNL     1     -13.771   1.982  -4.371  1.00  0.00     0.124 S 
ATOM     88  O   UNL     1     -15.075   1.531  -4.852  1.00  0.00    -0.237 OA
ATOM     89  O   UNL     1     -13.592   3.427  -4.298  1.00  0.00    -0.237 OA
ATOM     90  O   UNL     1     -12.632   1.224  -4.883  1.00  0.00    -0.744 OA
ENDBRANCH  83  87
ENDBRANCH  56  80
BRANCH  68  91
ATOM     91  C   UNL     1      -8.551   0.126   4.144  1.00  0.00     0.023 A 
ATOM     92  C   UNL     1      -8.295  -0.083   5.507  1.00  0.00     0.031 A 
ATOM     93  C   UNL     1      -8.417  -0.976   3.277  1.00  0.00     0.131 A 
ATOM     94  C   UNL     1      -7.877  -1.336   5.963  1.00  0.00     0.055 A 
ATOM     95  C   UNL     1      -8.062  -2.245   3.747  1.00  0.00     0.041 A 
ATOM     96  F   UNL     1      -8.543  -0.842   1.951  1.00  0.00    -0.206 F 
ATOM     97  C   UNL     1      -7.773  -2.426   5.095  1.00  0.00     0.022 A 
BRANCH  94  98
ATOM     98  S   UNL     1      -7.328  -1.538   7.675  1.00  0.00     0.124 S 
ATOM     99  O   UNL     1      -8.253  -2.548   8.180  1.00  0.00    -0.237 OA
ATOM    100  O   UNL     1      -5.946  -1.982   7.504  1.00  0.00    -0.237 OA
ATOM    101  O   UNL     1      -7.481  -0.207   8.256  1.00  0.00    -0.744 OA
ENDBRANCH  94  98
ENDBRANCH  68  91
ENDBRANCH  42  43
ENDBRANCH  35  37
ENDBRANCH  34  35
ENDBRANCH  33  34
ENDBRANCH  32  33
ENDBRANCH  31  32
ENDBRANCH  30  31
ENDBRANCH   1  30
TORSDOF 25
