REMARK SMILES CC1(C)[C@@](C)(C(=O)Nc2ccc(Cl)cc2Cl)CC[C@]1(C)C(=O)OCCOCCOCCOC(=O)c1ccc(-c2c3nc(c(-c4cc(S(=O)(=O)[O-])ccc4F)c4ccc([nH]4)c(-c4cc(S(=O)(=O)[O-])ccc4F)c4nc(c(-c5cc(S(=O)(=O)[O-])ccc5F)c5ccc2[nH]5)C=C4)C=C3)cc1
REMARK SMILES IDX 28 1 27 2 26 3 25 4 24 5 23 6 21 7 22 8 19 9 1 10 2 11 3 12
REMARK SMILES IDX 4 13 5 14 17 15 18 16 20 17 6 18 7 19 8 20 9 22 10 23 15 24
REMARK SMILES IDX 11 25 14 26 16 27 12 28 13 29 29 30 30 31 31 32 32 33 33 34
REMARK SMILES IDX 34 35 35 36 36 37 97 38 37 39 96 40 38 41 39 42 40 43 90 44
REMARK SMILES IDX 41 45 95 46 89 47 91 48 42 49 94 50 88 51 87 52 43 54 75 55
REMARK SMILES IDX 55 56 74 57 56 58 59 59 73 60 92 61 57 62 58 63 72 65 93 66
REMARK SMILES IDX 60 67 44 68 45 69 53 70 46 71 52 72 54 73 51 74 47 75 48 76
REMARK SMILES IDX 49 77 50 78 76 79 77 80 85 81 78 82 84 83 86 84 83 85 79 86
REMARK SMILES IDX 80 87 81 88 82 89 61 90 62 91 70 92 63 93 69 94 71 95 68 96
REMARK SMILES IDX 64 97 65 98 66 99 67 100
REMARK H PARENT 8 21 91 53 59 64
REMARK Flexibility Score: inf
ROOT
ATOM      1  C   UNL     1      -3.024   2.329  -1.078  1.00  0.00     0.188 C 
ENDROOT
BRANCH   1   2
ATOM      2  C   UNL     1      -3.205   3.555  -1.952  1.00  0.00     0.188 C 
BRANCH   2   3
ATOM      3  O   UNL     1      -3.199   3.390  -3.364  1.00  0.00    -0.376 OA
BRANCH   3   4
ATOM      4  C   UNL     1      -2.746   2.172  -3.937  1.00  0.00     0.202 C 
BRANCH   4   5
ATOM      5  C   UNL     1      -1.228   1.906  -3.966  1.00  0.00     0.261 C 
BRANCH   5   6
ATOM      6  O   UNL     1      -0.532   1.700  -2.707  1.00  0.00    -0.463 OA
BRANCH   6   7
ATOM      7  C   UNL     1       0.176   2.769  -2.252  1.00  0.00     0.312 C 
ATOM      8  O   UNL     1       0.142   3.865  -2.808  1.00  0.00    -0.252 OA
BRANCH   7   9
ATOM      9  C   UNL     1       1.117   2.512  -1.039  1.00  0.00     0.071 C 
ATOM     10  C   UNL     1       1.502   0.040  -0.716  1.00  0.00     0.013 C 
ATOM     11  C   UNL     1       0.924   1.298  -0.010  1.00  0.00    -0.005 C 
ATOM     12  C   UNL     1      -0.535   0.962   0.339  1.00  0.00     0.013 C 
ATOM     13  C   UNL     1       1.610   1.812   1.380  1.00  0.00     0.053 C 
ATOM     14  C   UNL     1       0.879   1.621   2.751  1.00  0.00     0.022 C 
ATOM     15  C   UNL     1       1.540   3.381   1.225  1.00  0.00     0.018 C 
ATOM     16  C   UNL     1       0.987   3.743  -0.140  1.00  0.00     0.020 C 
ATOM     17  C   UNL     1       2.529   2.515  -1.685  1.00  0.00     0.024 C 
BRANCH  13  18
ATOM     18  C   UNL     1       3.079   1.353   1.627  1.00  0.00     0.230 C 
ATOM     19  O   UNL     1       4.025   2.090   1.319  1.00  0.00    -0.274 OA
ATOM     20  N   UNL     1       3.447   0.187   2.249  1.00  0.00    -0.324 N 
ATOM     21  H   UNL     1       4.390   0.210   2.530  1.00  0.00     0.170 HD
BRANCH  20  22
ATOM     22  C   UNL     1       2.833  -1.040   2.594  1.00  0.00     0.060 A 
ATOM     23  C   UNL     1       1.604  -1.439   2.092  1.00  0.00     0.029 A 
ATOM     24  C   UNL     1       3.488  -1.955   3.433  1.00  0.00     0.066 A 
ATOM     25  C   UNL     1       1.034  -2.684   2.345  1.00  0.00     0.023 A 
ATOM     26  C   UNL     1       2.918  -3.204   3.733  1.00  0.00     0.043 A 
ATOM     27  Cl  UNL     1       5.010  -1.569   4.157  1.00  0.00    -0.082 Cl
ATOM     28  C   UNL     1       1.698  -3.568   3.171  1.00  0.00     0.042 A 
ATOM     29  Cl  UNL     1       1.000  -5.104   3.492  1.00  0.00    -0.084 Cl
ENDBRANCH  20  22
ENDBRANCH  13  18
ENDBRANCH   7   9
ENDBRANCH   6   7
ENDBRANCH   5   6
ENDBRANCH   4   5
ENDBRANCH   3   4
ENDBRANCH   2   3
ENDBRANCH   1   2
BRANCH   1  30
ATOM     30  O   UNL     1      -3.762   1.199  -1.508  1.00  0.00    -0.376 OA
BRANCH  30  31
ATOM     31  C   UNL     1      -4.112   0.261  -0.499  1.00  0.00     0.202 C 
BRANCH  31  32
ATOM     32  C   UNL     1      -5.428   0.698   0.148  1.00  0.00     0.261 C 
BRANCH  32  33
ATOM     33  O   UNL     1      -5.338   1.952   0.854  1.00  0.00    -0.460 OA
BRANCH  33  34
ATOM     34  C   UNL     1      -4.505   1.973   1.922  1.00  0.00     0.338 C 
ATOM     35  O   UNL     1      -3.917   1.009   2.396  1.00  0.00    -0.246 OA
BRANCH  34  36
ATOM     36  C   UNL     1      -4.198   3.383   2.261  1.00  0.00     0.060 A 
ATOM     37  C   UNL     1      -2.858   3.731   2.476  1.00  0.00     0.016 A 
ATOM     38  C   UNL     1      -5.191   4.359   2.337  1.00  0.00     0.016 A 
ATOM     39  C   UNL     1      -2.508   5.037   2.814  1.00  0.00     0.010 A 
ATOM     40  C   UNL     1      -4.843   5.669   2.689  1.00  0.00     0.010 A 
ATOM     41  C   UNL     1      -3.504   6.008   2.966  1.00  0.00    -0.014 A 
BRANCH  41  42
ATOM     42  C   UNL     1      -3.169   7.310   3.601  1.00  0.00     0.031 A 
ATOM     43  C   UNL     1      -3.561   7.528   5.039  1.00  0.00     0.074 A 
ATOM     44  C   UNL     1      -2.489   8.265   2.941  1.00  0.00     0.049 A 
ATOM     45  N   UNL     1      -3.441   8.594   5.787  1.00  0.00    -0.248 NA
ATOM     46  C   UNL     1      -4.181   6.381   5.718  1.00  0.00     0.031 C 
ATOM     47  C   UNL     1      -1.993   8.156   1.571  1.00  0.00     0.029 A 
ATOM     48  N   UNL     1      -2.100   9.521   3.341  1.00  0.00    -0.354 N 
ATOM     49  C   UNL     1      -3.990   8.254   7.020  1.00  0.00     0.074 A 
ATOM     50  C   UNL     1      -4.479   6.896   6.899  1.00  0.00     0.031 C 
ATOM     51  C   UNL     1      -1.371   9.302   1.241  1.00  0.00     0.029 A 
ATOM     52  C   UNL     1      -1.468  10.243   2.356  1.00  0.00     0.049 A 
ATOM     53  H   UNL     1      -2.259   9.871   4.247  1.00  0.00     0.167 HD
ATOM     54  C   UNL     1      -4.073   9.001   8.149  1.00  0.00     0.034 A 
ATOM     55  C   UNL     1      -1.047  11.525   2.342  1.00  0.00     0.034 A 
ATOM     56  C   UNL     1      -3.585  10.356   8.251  1.00  0.00     0.049 A 
ATOM     57  C   UNL     1      -1.232  12.373   3.578  1.00  0.00     0.074 A 
ATOM     58  C   UNL     1      -3.605  11.199   9.349  1.00  0.00     0.029 A 
ATOM     59  N   UNL     1      -3.002  11.075   7.214  1.00  0.00    -0.354 N 
ATOM     60  N   UNL     1      -1.761  12.048   4.737  1.00  0.00    -0.248 NA
ATOM     61  C   UNL     1      -0.755  13.760   3.505  1.00  0.00     0.031 C 
ATOM     62  C   UNL     1      -3.121  12.451   8.951  1.00  0.00     0.029 A 
ATOM     63  C   UNL     1      -2.702  12.364   7.633  1.00  0.00     0.049 A 
ATOM     64  H   UNL     1      -2.828  10.722   6.311  1.00  0.00     0.167 HD
ATOM     65  C   UNL     1      -1.655  13.185   5.537  1.00  0.00     0.074 A 
ATOM     66  C   UNL     1      -0.992  14.192   4.734  1.00  0.00     0.031 C 
ATOM     67  C   UNL     1      -2.063  13.376   6.820  1.00  0.00     0.034 A 
BRANCH  54  68
ATOM     68  C   UNL     1      -4.786   8.384   9.332  1.00  0.00     0.023 A 
ATOM     69  C   UNL     1      -4.330   7.203   9.946  1.00  0.00     0.031 A 
ATOM     70  C   UNL     1      -5.982   8.950   9.810  1.00  0.00     0.131 A 
ATOM     71  C   UNL     1      -5.114   6.575  10.926  1.00  0.00     0.055 A 
ATOM     72  C   UNL     1      -6.705   8.373  10.856  1.00  0.00     0.041 A 
ATOM     73  F   UNL     1      -6.484  10.061   9.250  1.00  0.00    -0.206 F 
ATOM     74  C   UNL     1      -6.285   7.167  11.405  1.00  0.00     0.022 A 
BRANCH  71  75
ATOM     75  S   UNL     1      -4.688   4.882  11.420  1.00  0.00     0.124 S 
ATOM     76  O   UNL     1      -4.696   4.187  10.134  1.00  0.00    -0.237 OA
ATOM     77  O   UNL     1      -3.381   5.055  12.044  1.00  0.00    -0.237 OA
ATOM     78  O   UNL     1      -5.770   4.506  12.328  1.00  0.00    -0.744 OA
ENDBRANCH  71  75
ENDBRANCH  54  68
BRANCH  55  79
ATOM     79  C   UNL     1      -0.462  12.110   1.099  1.00  0.00     0.023 A 
ATOM     80  C   UNL     1       0.865  12.568   1.056  1.00  0.00     0.031 A 
ATOM     81  C   UNL     1      -1.247  12.256  -0.060  1.00  0.00     0.131 A 
ATOM     82  C   UNL     1       1.356  13.179  -0.110  1.00  0.00     0.055 A 
ATOM     83  C   UNL     1      -0.736  12.812  -1.234  1.00  0.00     0.041 A 
ATOM     84  F   UNL     1      -2.525  11.847  -0.070  1.00  0.00    -0.206 F 
ATOM     85  C   UNL     1       0.571  13.287  -1.260  1.00  0.00     0.022 A 
BRANCH  82  86
ATOM     86  S   UNL     1       3.021  13.902  -0.082  1.00  0.00     0.124 S 
ATOM     87  O   UNL     1       2.892  14.904   0.970  1.00  0.00    -0.237 OA
ATOM     88  O   UNL     1       3.850  12.743   0.234  1.00  0.00    -0.237 OA
ATOM     89  O   UNL     1       3.185  14.432  -1.434  1.00  0.00    -0.744 OA
ENDBRANCH  82  86
ENDBRANCH  55  79
BRANCH  67  90
ATOM     90  C   UNL     1      -1.764  14.722   7.445  1.00  0.00     0.023 A 
ATOM     91  C   UNL     1      -2.314  15.915   6.943  1.00  0.00     0.031 A 
ATOM     92  C   UNL     1      -0.884  14.816   8.540  1.00  0.00     0.131 A 
ATOM     93  C   UNL     1      -1.919  17.150   7.480  1.00  0.00     0.055 A 
ATOM     94  C   UNL     1      -0.558  16.043   9.121  1.00  0.00     0.041 A 
ATOM     95  F   UNL     1      -0.321  13.715   9.063  1.00  0.00    -0.206 F 
ATOM     96  C   UNL     1      -1.060  17.221   8.579  1.00  0.00     0.022 A 
BRANCH  93  97
ATOM     97  S   UNL     1      -2.430  18.671   6.631  1.00  0.00     0.124 S 
ATOM     98  O   UNL     1      -1.931  18.444   5.279  1.00  0.00    -0.237 OA
ATOM     99  O   UNL     1      -3.880  18.644   6.789  1.00  0.00    -0.237 OA
ATOM    100  O   UNL     1      -1.744  19.726   7.376  1.00  0.00    -0.744 OA
ENDBRANCH  93  97
ENDBRANCH  67  90
ENDBRANCH  41  42
ENDBRANCH  34  36
ENDBRANCH  33  34
ENDBRANCH  32  33
ENDBRANCH  31  32
ENDBRANCH  30  31
ENDBRANCH   1  30
TORSDOF 22
