REMARK SMILES Cc1cc(C(=O)OCCOCCOCCOC(=O)c2ccc(-c3c4nc(c(-c5cc(S(=O)(=O)[O-])ccc5F)c5ccc([nH]5)c(-c5cc(S(=O)(=O)[O-])ccc5F)c5nc(c(-c6cc(S(=O)(=O)[O-])ccc6F)c6ccc3[nH]6)C=C5)C=C4)cc2)ccc1NS(=O)(=O)c1ccc2c(c1)CCC2
REMARK SMILES IDX 11 1 10 2 9 3 8 4 7 5 5 6 6 7 4 8 1 9 2 10 3 11 84 12 83 13
REMARK SMILES IDX 82 14 85 15 86 17 87 18 88 19 89 20 90 21 94 22 91 23 93 24
REMARK SMILES IDX 92 25 95 26 97 27 96 28 12 29 13 30 14 31 15 32 16 33 17 34
REMARK SMILES IDX 18 35 19 36 20 37 81 38 21 39 80 40 22 41 23 42 24 43 74 44
REMARK SMILES IDX 25 45 79 46 73 47 75 48 26 49 78 50 72 51 71 52 27 54 59 55
REMARK SMILES IDX 39 56 58 57 40 58 43 59 57 60 76 61 41 62 42 63 56 65 77 66
REMARK SMILES IDX 44 67 28 68 29 69 37 70 30 71 36 72 38 73 35 74 31 75 32 76
REMARK SMILES IDX 33 77 34 78 60 79 61 80 69 81 62 82 68 83 70 84 67 85 63 86
REMARK SMILES IDX 64 87 65 88 66 89 45 90 46 91 54 92 47 93 53 94 55 95 52 96
REMARK SMILES IDX 48 97 49 98 50 99 51 100
REMARK H PARENT 85 16 75 53 43 64
REMARK Flexibility Score: inf
ROOT
ATOM      1  C   UNL     1      -4.117  -5.303  -2.253  1.00  0.00     0.188 C 
ENDROOT
BRANCH   1   2
ATOM      2  O   UNL     1      -5.221  -4.367  -2.244  1.00  0.00    -0.376 OA
BRANCH   2   3
ATOM      3  C   UNL     1      -5.230  -3.437  -1.151  1.00  0.00     0.202 C 
BRANCH   3   4
ATOM      4  C   UNL     1      -4.827  -1.835  -1.404  1.00  0.00     0.261 C 
BRANCH   4   5
ATOM      5  O   UNL     1      -4.016  -0.649  -0.476  1.00  0.00    -0.460 OA
BRANCH   5   6
ATOM      6  C   UNL     1      -2.888  -0.481   0.359  1.00  0.00     0.338 C 
ATOM      7  O   UNL     1      -2.291  -1.280   1.065  1.00  0.00    -0.246 OA
BRANCH   6   8
ATOM      8  C   UNL     1      -1.907   0.609   0.261  1.00  0.00     0.060 A 
ATOM      9  C   UNL     1       1.883   0.641  -0.356  1.00  0.00     0.046 C 
ATOM     10  C   UNL     1       0.482   1.145  -0.109  1.00  0.00    -0.026 A 
ATOM     11  C   UNL     1      -0.596   0.264  -0.192  1.00  0.00     0.021 A 
ATOM     12  C   UNL     1       0.190   2.424   0.348  1.00  0.00     0.052 A 
ATOM     13  C   UNL     1      -0.943   2.628   1.145  1.00  0.00     0.028 A 
ATOM     14  C   UNL     1      -1.998   1.706   1.107  1.00  0.00     0.018 A 
BRANCH  12  15
ATOM     15  N   UNL     1       0.986   3.511  -0.121  1.00  0.00    -0.279 N 
ATOM     16  H   UNL     1       1.967   3.460  -0.066  1.00  0.00     0.180 HD
BRANCH  15  17
ATOM     17  S   UNL     1       0.245   4.898  -0.778  1.00  0.00     0.261 S 
ATOM     18  O   UNL     1       0.387   5.927   0.235  1.00  0.00    -0.201 OA
ATOM     19  O   UNL     1       0.831   5.082  -2.090  1.00  0.00    -0.201 OA
BRANCH  17  20
ATOM     20  C   UNL     1      -1.513   4.650  -1.030  1.00  0.00     0.088 A 
ATOM     21  C   UNL     1      -2.048   3.459  -1.556  1.00  0.00     0.022 A 
ATOM     22  C   UNL     1      -2.363   5.634  -0.507  1.00  0.00     0.026 A 
ATOM     23  C   UNL     1      -3.403   3.146  -1.335  1.00  0.00     0.005 A 
ATOM     24  C   UNL     1      -3.698   5.324  -0.334  1.00  0.00    -0.043 A 
ATOM     25  C   UNL     1      -4.191   4.058  -0.652  1.00  0.00    -0.045 A 
ATOM     26  C   UNL     1      -4.777   6.187   0.230  1.00  0.00     0.036 C 
ATOM     27  C   UNL     1      -5.581   3.885  -0.113  1.00  0.00     0.036 C 
ATOM     28  C   UNL     1      -5.716   5.122   0.799  1.00  0.00     0.010 C 
ENDBRANCH  17  20
ENDBRANCH  15  17
ENDBRANCH  12  15
ENDBRANCH   6   8
ENDBRANCH   5   6
ENDBRANCH   4   5
ENDBRANCH   3   4
ENDBRANCH   2   3
ENDBRANCH   1   2
BRANCH   1  29
ATOM     29  C   UNL     1      -3.567  -5.334  -3.666  1.00  0.00     0.188 C 
BRANCH  29  30
ATOM     30  O   UNL     1      -3.646  -3.978  -4.096  1.00  0.00    -0.376 OA
BRANCH  30  31
ATOM     31  C   UNL     1      -4.047  -3.783  -5.431  1.00  0.00     0.202 C 
BRANCH  31  32
ATOM     32  C   UNL     1      -2.801  -3.705  -6.300  1.00  0.00     0.261 C 
BRANCH  32  33
ATOM     33  O   UNL     1      -1.949  -2.638  -5.822  1.00  0.00    -0.460 OA
BRANCH  33  34
ATOM     34  C   UNL     1      -0.788  -3.071  -5.217  1.00  0.00     0.338 C 
ATOM     35  O   UNL     1       0.181  -3.430  -5.823  1.00  0.00    -0.246 OA
BRANCH  34  36
ATOM     36  C   UNL     1      -0.920  -2.965  -3.728  1.00  0.00     0.060 A 
ATOM     37  C   UNL     1      -0.397  -3.868  -2.820  1.00  0.00     0.016 A 
ATOM     38  C   UNL     1      -1.683  -1.985  -3.181  1.00  0.00     0.016 A 
ATOM     39  C   UNL     1      -0.880  -3.943  -1.455  1.00  0.00     0.010 A 
ATOM     40  C   UNL     1      -2.116  -2.112  -1.836  1.00  0.00     0.010 A 
ATOM     41  C   UNL     1      -1.923  -3.165  -0.911  1.00  0.00    -0.014 A 
BRANCH  41  42
ATOM     42  C   UNL     1      -2.779  -3.624   0.499  1.00  0.00     0.031 A 
ATOM     43  C   UNL     1      -3.813  -2.841   1.593  1.00  0.00     0.074 A 
ATOM     44  C   UNL     1      -2.617  -4.889   0.956  1.00  0.00     0.049 A 
ATOM     45  N   UNL     1      -3.541  -2.599   2.866  1.00  0.00    -0.248 NA
ATOM     46  C   UNL     1      -5.151  -2.242   1.328  1.00  0.00     0.031 C 
ATOM     47  C   UNL     1      -3.234  -5.504   2.130  1.00  0.00     0.029 A 
ATOM     48  N   UNL     1      -1.675  -5.822   0.556  1.00  0.00    -0.354 N 
ATOM     49  C   UNL     1      -4.556  -1.786   3.404  1.00  0.00     0.074 A 
ATOM     50  C   UNL     1      -5.418  -1.434   2.341  1.00  0.00     0.031 C 
ATOM     51  C   UNL     1      -2.438  -6.506   2.542  1.00  0.00     0.029 A 
ATOM     52  C   UNL     1      -1.258  -6.502   1.696  1.00  0.00     0.049 A 
ATOM     53  H   UNL     1      -1.360  -5.976  -0.363  1.00  0.00     0.167 HD
ATOM     54  C   UNL     1      -4.887  -1.639   4.718  1.00  0.00     0.034 A 
ATOM     55  C   UNL     1       0.042  -6.413   2.097  1.00  0.00     0.034 A 
ATOM     56  C   UNL     1      -4.256  -2.684   5.465  1.00  0.00     0.049 A 
ATOM     57  C   UNL     1       0.177  -5.855   3.495  1.00  0.00     0.074 A 
ATOM     58  C   UNL     1      -4.663  -3.987   5.692  1.00  0.00     0.029 A 
ATOM     59  N   UNL     1      -2.897  -2.628   5.674  1.00  0.00    -0.354 N 
ATOM     60  N   UNL     1      -0.762  -5.210   4.138  1.00  0.00    -0.248 NA
ATOM     61  C   UNL     1       1.391  -6.011   4.285  1.00  0.00     0.031 C 
ATOM     62  C   UNL     1      -3.496  -4.753   5.930  1.00  0.00     0.029 A 
ATOM     63  C   UNL     1      -2.413  -3.891   5.939  1.00  0.00     0.049 A 
ATOM     64  H   UNL     1      -2.352  -1.809   5.639  1.00  0.00     0.167 HD
ATOM     65  C   UNL     1      -0.289  -4.828   5.370  1.00  0.00     0.074 A 
ATOM     66  C   UNL     1       1.042  -5.403   5.430  1.00  0.00     0.031 C 
ATOM     67  C   UNL     1      -1.007  -4.052   6.238  1.00  0.00     0.034 A 
BRANCH  54  68
ATOM     68  C   UNL     1      -6.110  -0.843   5.163  1.00  0.00     0.023 A 
ATOM     69  C   UNL     1      -6.988  -1.333   6.150  1.00  0.00     0.031 A 
ATOM     70  C   UNL     1      -6.469   0.401   4.588  1.00  0.00     0.131 A 
ATOM     71  C   UNL     1      -8.203  -0.669   6.437  1.00  0.00     0.055 A 
ATOM     72  C   UNL     1      -7.704   1.024   4.827  1.00  0.00     0.041 A 
ATOM     73  F   UNL     1      -5.646   1.025   3.728  1.00  0.00    -0.206 F 
ATOM     74  C   UNL     1      -8.589   0.476   5.742  1.00  0.00     0.022 A 
BRANCH  71  75
ATOM     75  S   UNL     1      -9.284  -1.309   7.752  1.00  0.00     0.124 S 
ATOM     76  O   UNL     1      -9.530  -2.679   7.316  1.00  0.00    -0.237 OA
ATOM     77  O   UNL     1      -8.451  -1.145   8.938  1.00  0.00    -0.237 OA
ATOM     78  O   UNL     1     -10.451  -0.428   7.693  1.00  0.00    -0.744 OA
ENDBRANCH  71  75
ENDBRANCH  54  68
BRANCH  55  79
ATOM     79  C   UNL     1       1.041  -6.299   0.976  1.00  0.00     0.023 A 
ATOM     80  C   UNL     1       0.896  -7.200  -0.110  1.00  0.00     0.031 A 
ATOM     81  C   UNL     1       1.892  -5.203   0.778  1.00  0.00     0.131 A 
ATOM     82  C   UNL     1       1.438  -6.918  -1.373  1.00  0.00     0.055 A 
ATOM     83  C   UNL     1       2.512  -4.968  -0.465  1.00  0.00     0.041 A 
ATOM     84  F   UNL     1       2.060  -4.282   1.738  1.00  0.00    -0.206 F 
ATOM     85  C   UNL     1       2.262  -5.808  -1.556  1.00  0.00     0.022 A 
BRANCH  82  86
ATOM     86  S   UNL     1       0.775  -7.813  -2.824  1.00  0.00     0.124 S 
ATOM     87  O   UNL     1       1.783  -8.844  -3.037  1.00  0.00    -0.237 OA
ATOM     88  O   UNL     1      -0.530  -8.274  -2.353  1.00  0.00    -0.237 OA
ATOM     89  O   UNL     1       0.701  -6.782  -3.854  1.00  0.00    -0.744 OA
ENDBRANCH  82  86
ENDBRANCH  55  79
BRANCH  67  90
ATOM     90  C   UNL     1      -0.471  -3.383   7.486  1.00  0.00     0.023 A 
ATOM     91  C   UNL     1       0.895  -3.207   7.716  1.00  0.00     0.031 A 
ATOM     92  C   UNL     1      -1.334  -2.810   8.457  1.00  0.00     0.131 A 
ATOM     93  C   UNL     1       1.361  -2.613   8.897  1.00  0.00     0.055 A 
ATOM     94  C   UNL     1      -0.868  -2.104   9.569  1.00  0.00     0.041 A 
ATOM     95  F   UNL     1      -2.670  -2.906   8.369  1.00  0.00    -0.206 F 
ATOM     96  C   UNL     1       0.493  -2.025   9.811  1.00  0.00     0.022 A 
BRANCH  93  97
ATOM     97  S   UNL     1       3.124  -2.768   9.264  1.00  0.00     0.124 S 
ATOM     98  O   UNL     1       3.306  -4.218   9.239  1.00  0.00    -0.237 OA
ATOM     99  O   UNL     1       3.740  -2.035   8.163  1.00  0.00    -0.237 OA
ATOM    100  O   UNL     1       3.257  -2.151  10.581  1.00  0.00    -0.744 OA
ENDBRANCH  93  97
ENDBRANCH  67  90
ENDBRANCH  41  42
ENDBRANCH  34  36
ENDBRANCH  33  34
ENDBRANCH  32  33
ENDBRANCH  31  32
ENDBRANCH  30  31
ENDBRANCH  29  30
ENDBRANCH   1  29
TORSDOF 23
