REMARK SMILES Cc1ccccc1CN1C(=O)[C@H](CC(=O)OCCOCCOCCOC(=O)c2ccc(-c3c4nc(c(-c5cc(S(=O)(=O)[O-])ccc5F)c5ccc([nH]5)c(-c5cc(S(=O)(=O)[O-])ccc5F)c5nc(c(-c6cc(S(=O)(=O)[O-])ccc6F)c6ccc3[nH]6)C=C5)C=C4)cc2)n2c(nc3ccccc32)[C@H]1C
REMARK SMILES IDX 20 1 19 2 18 3 17 4 16 5 14 6 15 7 13 8 12 9 9 10 10 11
REMARK SMILES IDX 100 12 11 13 92 14 101 15 91 16 93 17 99 18 94 19 98 20
REMARK SMILES IDX 95 21 97 22 96 23 8 24 7 25 1 26 2 27 3 28 4 29 6 30 5 31
REMARK SMILES IDX 21 32 22 33 23 34 24 35 25 36 26 37 27 38 28 39 29 40 90 41
REMARK SMILES IDX 30 42 89 43 31 44 32 45 33 46 83 47 34 48 88 49 82 50 84 51
REMARK SMILES IDX 35 52 87 53 81 54 80 55 36 57 68 58 48 59 67 60 49 61 52 62
REMARK SMILES IDX 66 63 85 64 50 65 51 66 65 68 86 69 53 70 37 71 38 72 46 73
REMARK SMILES IDX 39 74 45 75 47 76 44 77 40 78 41 79 42 80 43 81 69 82 70 83
REMARK SMILES IDX 78 84 71 85 77 86 79 87 76 88 72 89 73 90 74 91 75 92 54 93
REMARK SMILES IDX 55 94 63 95 56 96 62 97 64 98 61 99 57 100 58 101 59 102
REMARK SMILES IDX 60 103
REMARK H PARENT 84 56 52 67
REMARK Flexibility Score: inf
ROOT
ATOM      1  C   UNL     1       6.341   0.810  -5.422  1.00  0.00     0.188 C 
ENDROOT
BRANCH   1   2
ATOM      2  O   UNL     1       6.965   1.789  -6.264  1.00  0.00    -0.376 OA
BRANCH   2   3
ATOM      3  C   UNL     1       6.625   3.154  -6.013  1.00  0.00     0.202 C 
BRANCH   3   4
ATOM      4  C   UNL     1       5.630   3.881  -7.043  1.00  0.00     0.261 C 
BRANCH   4   5
ATOM      5  O   UNL     1       4.165   3.361  -7.323  1.00  0.00    -0.463 OA
BRANCH   5   6
ATOM      6  C   UNL     1       2.796   3.604  -7.238  1.00  0.00     0.308 C 
ATOM      7  O   UNL     1       2.149   3.184  -8.206  1.00  0.00    -0.252 OA
BRANCH   6   8
ATOM      8  C   UNL     1       1.892   4.288  -6.031  1.00  0.00     0.158 C 
BRANCH   8   9
ATOM      9  C   UNL     1       1.060   3.432  -4.888  1.00  0.00     0.189 C 
ATOM     10  N   UNL     1       0.183   3.253  -2.434  1.00  0.00    -0.327 N 
ATOM     11  C   UNL     1       1.194   3.804  -3.307  1.00  0.00     0.247 C 
ATOM     12  C   UNL     1      -1.012   4.045  -2.735  1.00  0.00     0.149 C 
ATOM     13  O   UNL     1       1.917   4.697  -2.880  1.00  0.00    -0.272 OA
ATOM     14  C   UNL     1      -1.353   3.759  -4.173  1.00  0.00     0.133 A 
ATOM     15  C   UNL     1      -2.249   3.881  -1.864  1.00  0.00     0.040 C 
ATOM     16  N   UNL     1      -0.396   3.427  -5.123  1.00  0.00    -0.313 N 
ATOM     17  N   UNL     1      -2.569   3.668  -4.669  1.00  0.00    -0.231 NA
ATOM     18  C   UNL     1      -1.065   2.860  -6.174  1.00  0.00     0.069 A 
ATOM     19  C   UNL     1      -2.410   3.051  -5.873  1.00  0.00     0.089 A 
ATOM     20  C   UNL     1      -0.651   2.177  -7.314  1.00  0.00     0.028 A 
ATOM     21  C   UNL     1      -3.397   2.571  -6.739  1.00  0.00     0.030 A 
ATOM     22  C   UNL     1      -1.644   1.704  -8.173  1.00  0.00     0.002 A 
ATOM     23  C   UNL     1      -2.997   1.893  -7.891  1.00  0.00     0.002 A 
BRANCH  10  24
ATOM     24  C   UNL     1       0.504   2.894  -0.981  1.00  0.00     0.156 C 
BRANCH  24  25
ATOM     25  C   UNL     1      -0.043   1.544  -0.416  1.00  0.00    -0.026 A 
ATOM     26  C   UNL     1       2.136   0.564   0.579  1.00  0.00     0.044 C 
ATOM     27  C   UNL     1       0.748   0.448   0.006  1.00  0.00    -0.046 A 
ATOM     28  C   UNL     1       0.175  -0.841   0.177  1.00  0.00     0.004 A 
ATOM     29  C   UNL     1      -1.196  -1.025   0.159  1.00  0.00     0.000 A 
ATOM     30  C   UNL     1      -1.416   1.350  -0.197  1.00  0.00     0.006 A 
ATOM     31  C   UNL     1      -1.993   0.097   0.065  1.00  0.00     0.000 A 
ENDBRANCH  24  25
ENDBRANCH  10  24
ENDBRANCH   8   9
ENDBRANCH   6   8
ENDBRANCH   5   6
ENDBRANCH   4   5
ENDBRANCH   3   4
ENDBRANCH   2   3
ENDBRANCH   1   2
BRANCH   1  32
ATOM     32  C   UNL     1       6.867   0.571  -3.970  1.00  0.00     0.188 C 
BRANCH  32  33
ATOM     33  O   UNL     1       6.602   1.652  -3.087  1.00  0.00    -0.376 OA
BRANCH  33  34
ATOM     34  C   UNL     1       6.796   1.421  -1.689  1.00  0.00     0.202 C 
BRANCH  34  35
ATOM     35  C   UNL     1       5.848   0.425  -1.030  1.00  0.00     0.261 C 
BRANCH  35  36
ATOM     36  O   UNL     1       4.450   0.440  -1.360  1.00  0.00    -0.460 OA
BRANCH  36  37
ATOM     37  C   UNL     1       3.672   1.309  -2.016  1.00  0.00     0.338 C 
ATOM     38  O   UNL     1       2.551   0.950  -2.380  1.00  0.00    -0.246 OA
BRANCH  37  39
ATOM     39  C   UNL     1       4.144   2.609  -2.510  1.00  0.00     0.060 A 
ATOM     40  C   UNL     1       4.011   2.691  -3.863  1.00  0.00     0.016 A 
ATOM     41  C   UNL     1       4.576   3.761  -1.857  1.00  0.00     0.016 A 
ATOM     42  C   UNL     1       4.265   3.910  -4.494  1.00  0.00     0.010 A 
ATOM     43  C   UNL     1       4.890   4.967  -2.606  1.00  0.00     0.010 A 
ATOM     44  C   UNL     1       4.700   5.121  -3.998  1.00  0.00    -0.014 A 
BRANCH  44  45
ATOM     45  C   UNL     1       4.308   6.444  -4.866  1.00  0.00     0.031 A 
ATOM     46  C   UNL     1       3.441   7.268  -3.928  1.00  0.00     0.074 A 
ATOM     47  C   UNL     1       4.752   7.237  -5.953  1.00  0.00     0.049 A 
ATOM     48  N   UNL     1       3.932   7.465  -2.742  1.00  0.00    -0.248 NA
ATOM     49  C   UNL     1       2.181   7.984  -4.123  1.00  0.00     0.031 C 
ATOM     50  C   UNL     1       3.937   8.304  -6.611  1.00  0.00     0.029 A 
ATOM     51  N   UNL     1       6.004   7.493  -6.624  1.00  0.00    -0.354 N 
ATOM     52  C   UNL     1       3.396   8.614  -2.266  1.00  0.00     0.074 A 
ATOM     53  C   UNL     1       2.168   8.786  -3.037  1.00  0.00     0.031 C 
ATOM     54  C   UNL     1       4.704   9.216  -7.252  1.00  0.00     0.029 A 
ATOM     55  C   UNL     1       6.109   8.880  -7.075  1.00  0.00     0.049 A 
ATOM     56  H   UNL     1       6.704   6.815  -6.762  1.00  0.00     0.167 HD
ATOM     57  C   UNL     1       4.263   9.558  -1.774  1.00  0.00     0.034 A 
ATOM     58  C   UNL     1       7.118   9.844  -7.106  1.00  0.00     0.034 A 
ATOM     59  C   UNL     1       5.569   9.439  -2.410  1.00  0.00     0.049 A 
ATOM     60  C   UNL     1       8.375   9.498  -6.330  1.00  0.00     0.074 A 
ATOM     61  C   UNL     1       5.681   9.383  -3.774  1.00  0.00     0.029 A 
ATOM     62  N   UNL     1       6.881   9.272  -1.926  1.00  0.00    -0.354 N 
ATOM     63  N   UNL     1       8.625   9.972  -5.137  1.00  0.00    -0.248 NA
ATOM     64  C   UNL     1       9.389   8.543  -6.775  1.00  0.00     0.031 C 
ATOM     65  C   UNL     1       6.705   8.495  -3.930  1.00  0.00     0.029 A 
ATOM     66  C   UNL     1       7.651   8.808  -2.996  1.00  0.00     0.049 A 
ATOM     67  H   UNL     1       7.196   9.448  -1.010  1.00  0.00     0.167 HD
ATOM     68  C   UNL     1       9.421   9.017  -4.511  1.00  0.00     0.074 A 
ATOM     69  C   UNL     1      10.075   8.341  -5.634  1.00  0.00     0.031 C 
ATOM     70  C   UNL     1       9.050   8.473  -3.277  1.00  0.00     0.034 A 
BRANCH  57  71
ATOM     71  C   UNL     1       3.801  10.822  -1.198  1.00  0.00     0.023 A 
ATOM     72  C   UNL     1       4.563  11.976  -1.407  1.00  0.00     0.031 A 
ATOM     73  C   UNL     1       2.748  10.857  -0.277  1.00  0.00     0.131 A 
ATOM     74  C   UNL     1       4.348  13.092  -0.609  1.00  0.00     0.055 A 
ATOM     75  C   UNL     1       2.499  11.995   0.481  1.00  0.00     0.041 A 
ATOM     76  F   UNL     1       1.988   9.772  -0.053  1.00  0.00    -0.206 F 
ATOM     77  C   UNL     1       3.324  13.110   0.340  1.00  0.00     0.022 A 
BRANCH  74  78
ATOM     78  S   UNL     1       5.557  14.432  -0.709  1.00  0.00     0.124 S 
ATOM     79  O   UNL     1       6.812  13.721  -0.488  1.00  0.00    -0.237 OA
ATOM     80  O   UNL     1       5.327  14.948  -2.053  1.00  0.00    -0.237 OA
ATOM     81  O   UNL     1       5.154  15.319   0.381  1.00  0.00    -0.744 OA
ENDBRANCH  74  78
ENDBRANCH  57  71
BRANCH  58  82
ATOM     82  C   UNL     1       6.948  11.385  -7.205  1.00  0.00     0.023 A 
ATOM     83  C   UNL     1       7.386  12.193  -8.281  1.00  0.00     0.031 A 
ATOM     84  C   UNL     1       6.604  12.100  -6.031  1.00  0.00     0.131 A 
ATOM     85  C   UNL     1       7.505  13.611  -8.122  1.00  0.00     0.055 A 
ATOM     86  C   UNL     1       6.768  13.478  -5.859  1.00  0.00     0.041 A 
ATOM     87  F   UNL     1       6.102  11.464  -4.979  1.00  0.00    -0.206 F 
ATOM     88  C   UNL     1       7.232  14.245  -6.907  1.00  0.00     0.022 A 
BRANCH  85  89
ATOM     89  S   UNL     1       7.972  14.693  -9.519  1.00  0.00     0.124 S 
ATOM     90  O   UNL     1       9.428  14.592  -9.527  1.00  0.00    -0.237 OA
ATOM     91  O   UNL     1       7.289  14.068 -10.649  1.00  0.00    -0.237 OA
ATOM     92  O   UNL     1       7.442  16.003  -9.143  1.00  0.00    -0.744 OA
ENDBRANCH  85  89
ENDBRANCH  58  82
BRANCH  70  93
ATOM     93  C   UNL     1       9.588   7.109  -2.889  1.00  0.00     0.023 A 
ATOM     94  C   UNL     1      10.934   6.746  -3.057  1.00  0.00     0.031 A 
ATOM     95  C   UNL     1       8.717   6.093  -2.434  1.00  0.00     0.131 A 
ATOM     96  C   UNL     1      11.334   5.407  -2.871  1.00  0.00     0.055 A 
ATOM     97  C   UNL     1       9.124   4.777  -2.218  1.00  0.00     0.041 A 
ATOM     98  F   UNL     1       7.422   6.332  -2.198  1.00  0.00    -0.206 F 
ATOM     99  C   UNL     1      10.440   4.425  -2.446  1.00  0.00     0.022 A 
BRANCH  96 100
ATOM    100  S   UNL     1      13.051   4.945  -3.224  1.00  0.00     0.124 S 
ATOM    101  O   UNL     1      13.021   4.830  -4.691  1.00  0.00    -0.237 OA
ATOM    102  O   UNL     1      13.806   6.033  -2.681  1.00  0.00    -0.237 OA
ATOM    103  O   UNL     1      13.194   3.658  -2.519  1.00  0.00    -0.744 OA
ENDBRANCH  96 100
ENDBRANCH  70  93
ENDBRANCH  44  45
ENDBRANCH  37  39
ENDBRANCH  36  37
ENDBRANCH  35  36
ENDBRANCH  34  35
ENDBRANCH  33  34
ENDBRANCH  32  33
ENDBRANCH   1  32
TORSDOF 23
