REMARK SMILES O=C(OCCOCCOCCOC(=O)C1([NH+]2CCOCC2)CCC1)c1ccc(-c2c3nc(c(-c4cc(S(=O)(=O)[O-])ccc4F)c4ccc([nH]4)c(-c4cc(S(=O)(=O)[O-])ccc4F)c4nc(c(-c5cc(S(=O)(=O)[O-])ccc5F)c5ccc2[nH]5)C=C4)C=C3)cc1
REMARK SMILES IDX 7 1 6 2 5 3 4 4 3 5 2 6 1 7 25 8 26 9 87 10 27 11 86 12
REMARK SMILES IDX 28 13 29 14 30 15 80 16 31 17 85 18 79 19 81 20 32 21 84 22
REMARK SMILES IDX 78 23 77 24 33 26 65 27 45 28 64 29 46 30 49 31 63 32 82 33
REMARK SMILES IDX 47 34 48 35 62 37 83 38 50 39 34 40 35 41 43 42 36 43 42 44
REMARK SMILES IDX 44 45 41 46 37 47 38 48 39 49 40 50 66 51 67 52 75 53 68 54
REMARK SMILES IDX 74 55 76 56 73 57 69 58 70 59 71 60 72 61 51 62 52 63 60 64
REMARK SMILES IDX 53 65 59 66 61 67 58 68 54 69 55 70 56 71 57 72 8 73 9 74
REMARK SMILES IDX 10 75 11 76 12 77 13 78 14 79 15 80 22 81 24 82 23 83 16 84
REMARK SMILES IDX 17 85 21 86 18 88 20 89 19 90
REMARK H PARENT 81 25 49 36 16 87
REMARK Flexibility Score: inf
ROOT
ATOM      1  C   UNL     1       2.405  -1.432  -0.402  1.00  0.00     0.188 C 
ENDROOT
BRANCH   1   2
ATOM      2  O   UNL     1       3.738  -1.004  -0.707  1.00  0.00    -0.376 OA
BRANCH   2   3
ATOM      3  C   UNL     1       4.669  -1.284   0.343  1.00  0.00     0.202 C 
BRANCH   3   4
ATOM      4  C   UNL     1       4.771  -0.172   1.400  1.00  0.00     0.261 C 
BRANCH   4   5
ATOM      5  O   UNL     1       3.513   0.451   1.706  1.00  0.00    -0.460 OA
BRANCH   5   6
ATOM      6  C   UNL     1       2.801   1.352   0.986  1.00  0.00     0.338 C 
ATOM      7  O   UNL     1       1.651   1.589   1.365  1.00  0.00    -0.246 OA
BRANCH   6   8
ATOM      8  C   UNL     1       3.300   2.095  -0.225  1.00  0.00     0.060 A 
ATOM      9  C   UNL     1       4.508   1.885  -0.896  1.00  0.00     0.016 A 
ATOM     10  C   UNL     1       2.457   3.112  -0.719  1.00  0.00     0.016 A 
ATOM     11  C   UNL     1       4.907   2.700  -1.957  1.00  0.00     0.010 A 
ATOM     12  C   UNL     1       2.843   3.932  -1.784  1.00  0.00     0.010 A 
ATOM     13  C   UNL     1       4.098   3.756  -2.370  1.00  0.00    -0.014 A 
BRANCH  13  14
ATOM     14  C   UNL     1       4.684   4.799  -3.236  1.00  0.00     0.031 A 
ATOM     15  C   UNL     1       5.335   5.967  -2.569  1.00  0.00     0.074 A 
ATOM     16  C   UNL     1       4.724   4.661  -4.569  1.00  0.00     0.049 A 
ATOM     17  N   UNL     1       5.905   7.011  -3.103  1.00  0.00    -0.248 NA
ATOM     18  C   UNL     1       5.354   5.941  -1.099  1.00  0.00     0.031 C 
ATOM     19  C   UNL     1       4.217   3.502  -5.288  1.00  0.00     0.029 A 
ATOM     20  N   UNL     1       5.219   5.477  -5.551  1.00  0.00    -0.354 N 
ATOM     21  C   UNL     1       6.360   7.769  -2.033  1.00  0.00     0.074 A 
ATOM     22  C   UNL     1       5.971   7.077  -0.823  1.00  0.00     0.031 C 
ATOM     23  C   UNL     1       4.437   3.673  -6.600  1.00  0.00     0.029 A 
ATOM     24  C   UNL     1       5.013   4.989  -6.819  1.00  0.00     0.049 A 
ATOM     25  H   UNL     1       5.677   6.329  -5.367  1.00  0.00     0.167 HD
ATOM     26  C   UNL     1       7.035   8.943  -2.068  1.00  0.00     0.034 A 
ATOM     27  C   UNL     1       5.212   5.552  -8.026  1.00  0.00     0.034 A 
ATOM     28  C   UNL     1       7.332   9.638  -3.295  1.00  0.00     0.049 A 
ATOM     29  C   UNL     1       5.820   6.924  -8.051  1.00  0.00     0.074 A 
ATOM     30  C   UNL     1       7.916  10.878  -3.472  1.00  0.00     0.029 A 
ATOM     31  N   UNL     1       7.032   9.153  -4.566  1.00  0.00    -0.354 N 
ATOM     32  N   UNL     1       6.199   7.666  -7.035  1.00  0.00    -0.248 NA
ATOM     33  C   UNL     1       6.031   7.536  -9.365  1.00  0.00     0.031 C 
ATOM     34  C   UNL     1       7.910  11.169  -4.843  1.00  0.00     0.029 A 
ATOM     35  C   UNL     1       7.390  10.081  -5.530  1.00  0.00     0.049 A 
ATOM     36  H   UNL     1       6.624   8.277  -4.753  1.00  0.00     0.167 HD
ATOM     37  C   UNL     1       6.716   8.829  -7.586  1.00  0.00     0.074 A 
ATOM     38  C   UNL     1       6.601   8.686  -9.027  1.00  0.00     0.031 C 
ATOM     39  C   UNL     1       7.247   9.910  -6.960  1.00  0.00     0.034 A 
BRANCH  26  40
ATOM     40  C   UNL     1       7.358   9.554  -0.727  1.00  0.00     0.023 A 
ATOM     41  C   UNL     1       8.196   8.900   0.196  1.00  0.00     0.031 A 
ATOM     42  C   UNL     1       6.682  10.710  -0.300  1.00  0.00     0.131 A 
ATOM     43  C   UNL     1       8.239   9.335   1.530  1.00  0.00     0.055 A 
ATOM     44  C   UNL     1       6.805  11.192   1.004  1.00  0.00     0.041 A 
ATOM     45  F   UNL     1       5.843  11.355  -1.125  1.00  0.00    -0.206 F 
ATOM     46  C   UNL     1       7.566  10.490   1.935  1.00  0.00     0.022 A 
BRANCH  43  47
ATOM     47  S   UNL     1       9.005   8.247   2.766  1.00  0.00     0.124 S 
ATOM     48  O   UNL     1       8.212   7.023   2.612  1.00  0.00    -0.237 OA
ATOM     49  O   UNL     1      10.381   8.178   2.324  1.00  0.00    -0.237 OA
ATOM     50  O   UNL     1       8.782   8.959   4.031  1.00  0.00    -0.744 OA
ENDBRANCH  43  47
ENDBRANCH  26  40
BRANCH  27  51
ATOM     51  C   UNL     1       4.752   4.854  -9.264  1.00  0.00     0.023 A 
ATOM     52  C   UNL     1       5.649   4.392 -10.239  1.00  0.00     0.031 A 
ATOM     53  C   UNL     1       3.378   4.612  -9.469  1.00  0.00     0.131 A 
ATOM     54  C   UNL     1       5.163   3.720 -11.376  1.00  0.00     0.055 A 
ATOM     55  C   UNL     1       2.904   3.911 -10.579  1.00  0.00     0.041 A 
ATOM     56  F   UNL     1       2.474   5.026  -8.567  1.00  0.00    -0.206 F 
ATOM     57  C   UNL     1       3.799   3.464 -11.543  1.00  0.00     0.022 A 
BRANCH  54  58
ATOM     58  S   UNL     1       6.333   3.221 -12.670  1.00  0.00     0.124 S 
ATOM     59  O   UNL     1       6.911   4.502 -13.060  1.00  0.00    -0.237 OA
ATOM     60  O   UNL     1       7.220   2.312 -11.951  1.00  0.00    -0.237 OA
ATOM     61  O   UNL     1       5.482   2.591 -13.678  1.00  0.00    -0.744 OA
ENDBRANCH  54  58
ENDBRANCH  27  51
BRANCH  39  62
ATOM     62  C   UNL     1       7.785  10.997  -7.848  1.00  0.00     0.023 A 
ATOM     63  C   UNL     1       6.934  11.834  -8.588  1.00  0.00     0.031 A 
ATOM     64  C   UNL     1       9.172  11.195  -7.945  1.00  0.00     0.131 A 
ATOM     65  C   UNL     1       7.485  12.809  -9.430  1.00  0.00     0.055 A 
ATOM     66  C   UNL     1       9.712  12.200  -8.745  1.00  0.00     0.041 A 
ATOM     67  F   UNL     1      10.023  10.416  -7.257  1.00  0.00    -0.206 F 
ATOM     68  C   UNL     1       8.867  13.008  -9.501  1.00  0.00     0.022 A 
BRANCH  65  69
ATOM     69  S   UNL     1       6.372  13.780 -10.482  1.00  0.00     0.124 S 
ATOM     70  O   UNL     1       5.805  12.753 -11.350  1.00  0.00    -0.237 OA
ATOM     71  O   UNL     1       5.457  14.372  -9.511  1.00  0.00    -0.237 OA
ATOM     72  O   UNL     1       7.268  14.727 -11.144  1.00  0.00    -0.744 OA
ENDBRANCH  65  69
ENDBRANCH  39  62
ENDBRANCH  13  14
ENDBRANCH   6   8
ENDBRANCH   5   6
ENDBRANCH   4   5
ENDBRANCH   3   4
ENDBRANCH   2   3
ENDBRANCH   1   2
BRANCH   1  73
ATOM     73  C   UNL     1       2.095  -2.834  -0.921  1.00  0.00     0.188 C 
BRANCH  73  74
ATOM     74  O   UNL     1       3.178  -3.731  -0.678  1.00  0.00    -0.376 OA
BRANCH  74  75
ATOM     75  C   UNL     1       3.612  -4.426  -1.850  1.00  0.00     0.202 C 
BRANCH  75  76
ATOM     76  C   UNL     1       4.490  -3.584  -2.788  1.00  0.00     0.261 C 
BRANCH  76  77
ATOM     77  O   UNL     1       3.849  -2.451  -3.394  1.00  0.00    -0.459 OA
BRANCH  77  78
ATOM     78  C   UNL     1       2.852  -2.688  -4.300  1.00  0.00     0.368 C 
ATOM     79  O   UNL     1       2.420  -3.820  -4.517  1.00  0.00    -0.245 OA
BRANCH  78  80
ATOM     80  C   UNL     1       2.385  -1.330  -5.017  1.00  0.00     0.196 C 
ATOM     81  C   UNL     1       0.912  -0.916  -4.705  1.00  0.00     0.081 C 
ATOM     82  C   UNL     1       2.811   0.016  -4.372  1.00  0.00     0.081 C 
ATOM     83  C   UNL     1       1.374   0.541  -4.512  1.00  0.00     0.014 C 
BRANCH  80  84
ATOM     84  N   UNL     1       2.679  -1.393  -6.476  1.00  0.00    -0.317 N 
ATOM     85  C   UNL     1       4.115  -1.527  -6.795  1.00  0.00     0.292 C 
ATOM     86  C   UNL     1       1.990  -0.559  -7.462  1.00  0.00     0.292 C 
ATOM     87  H   UNL     1       2.170  -2.265  -6.625  1.00  0.00     0.349 HD
ATOM     88  C   UNL     1       4.812  -0.235  -7.253  1.00  0.00     0.221 C 
ATOM     89  C   UNL     1       2.742   0.714  -7.851  1.00  0.00     0.221 C 
ATOM     90  O   UNL     1       4.071   0.420  -8.281  1.00  0.00    -0.370 OA
ENDBRANCH  80  84
ENDBRANCH  78  80
ENDBRANCH  77  78
ENDBRANCH  76  77
ENDBRANCH  75  76
ENDBRANCH  74  75
ENDBRANCH  73  74
ENDBRANCH   1  73
TORSDOF 21
