REMARK SMILES CCN(C(=O)c1ccccc1C(=O)OCCOCCOCCOC(=O)c1ccc(-c2c3nc(c(-c4cc(S(=O)(=O)[O-])ccc4F)c4ccc([nH]4)c(-c4cc(S(=O)(=O)[O-])ccc4F)c4nc(c(-c5cc(S(=O)(=O)[O-])ccc5F)c5ccc2[nH]5)C=C4)C=C3)cc1)[C@H](CCO)c1ccccc1
REMARK SMILES IDX 17 1 16 2 15 3 14 4 12 5 13 6 11 7 6 8 7 9 8 10 10 11 9 12
REMARK SMILES IDX 4 13 5 14 3 15 2 16 1 17 89 18 93 19 94 20 98 21 95 22 97 23
REMARK SMILES IDX 96 24 90 25 91 26 92 27 18 29 19 30 20 31 21 32 22 33 23 34
REMARK SMILES IDX 24 35 25 36 26 37 27 38 88 39 28 40 87 41 29 42 30 43 31 44
REMARK SMILES IDX 81 45 32 46 86 47 80 48 82 49 33 50 85 51 79 52 78 53 34 55
REMARK SMILES IDX 66 56 46 57 65 58 47 59 50 60 64 61 83 62 48 63 49 64 63 66
REMARK SMILES IDX 84 67 51 68 35 69 36 70 44 71 37 72 43 73 45 74 42 75 38 76
REMARK SMILES IDX 39 77 40 78 41 79 67 80 68 81 76 82 69 83 75 84 77 85 74 86
REMARK SMILES IDX 70 87 71 88 72 89 73 90 52 91 53 92 61 93 54 94 60 95 62 96
REMARK SMILES IDX 59 97 55 98 56 99 57 100 58 101
REMARK H PARENT 92 28 82 54 50 65
REMARK Flexibility Score: inf
ROOT
ATOM      1  O   UNL     1       6.448   0.570  -6.747  1.00  0.00    -0.376 OA
ENDROOT
BRANCH   1   2
ATOM      2  C   UNL     1       6.254  -0.284  -5.633  1.00  0.00     0.202 C 
BRANCH   2   3
ATOM      3  C   UNL     1       5.939   0.257  -4.234  1.00  0.00     0.261 C 
BRANCH   3   4
ATOM      4  O   UNL     1       5.022   1.357  -4.176  1.00  0.00    -0.460 OA
BRANCH   4   5
ATOM      5  C   UNL     1       5.517   2.535  -3.728  1.00  0.00     0.339 C 
ATOM      6  O   UNL     1       6.673   2.751  -3.403  1.00  0.00    -0.246 OA
BRANCH   5   7
ATOM      7  C   UNL     1       4.474   3.586  -3.688  1.00  0.00     0.072 A 
ATOM      8  C   UNL     1       3.149   3.382  -3.268  1.00  0.00     0.054 A 
ATOM      9  C   UNL     1       2.254   4.470  -3.292  1.00  0.00     0.015 A 
ATOM     10  C   UNL     1       2.676   5.739  -3.694  1.00  0.00     0.001 A 
ATOM     11  C   UNL     1       4.891   4.872  -4.080  1.00  0.00     0.016 A 
ATOM     12  C   UNL     1       3.995   5.940  -4.089  1.00  0.00     0.001 A 
BRANCH   8  13
ATOM     13  C   UNL     1       2.536   2.061  -2.962  1.00  0.00     0.255 C 
ATOM     14  O   UNL     1       1.638   1.752  -3.747  1.00  0.00    -0.269 OA
BRANCH  13  15
ATOM     15  N   UNL     1       2.922   1.242  -1.840  1.00  0.00    -0.332 N 
BRANCH  15  16
ATOM     16  C   UNL     1       4.278   1.477  -1.294  1.00  0.00     0.117 C 
ATOM     17  C   UNL     1       4.722   1.299   0.140  1.00  0.00     0.027 C 
ENDBRANCH  15  16
BRANCH  15  18
ATOM     18  C   UNL     1       2.310  -0.141  -1.889  1.00  0.00     0.118 C 
BRANCH  18  19
ATOM     19  C   UNL     1       2.776  -1.153  -0.856  1.00  0.00    -0.025 A 
ATOM     20  C   UNL     1       3.098  -2.462  -1.249  1.00  0.00     0.006 A 
ATOM     21  C   UNL     1       2.782  -0.859   0.513  1.00  0.00     0.006 A 
ATOM     22  C   UNL     1       3.506  -3.409  -0.306  1.00  0.00     0.000 A 
ATOM     23  C   UNL     1       3.251  -1.779   1.448  1.00  0.00     0.000 A 
ATOM     24  C   UNL     1       3.619  -3.054   1.037  1.00  0.00     0.000 A 
ENDBRANCH  18  19
BRANCH  18  25
ATOM     25  C   UNL     1       0.744  -0.218  -2.048  1.00  0.00     0.058 C 
BRANCH  25  26
ATOM     26  C   UNL     1      -0.107  -0.673  -0.863  1.00  0.00     0.158 C 
BRANCH  26  27
ATOM     27  O   UNL     1      -0.132   0.286   0.186  1.00  0.00    -0.396 OA
ATOM     28  H   UNL     1       0.768   0.422   0.521  1.00  0.00     0.210 HD
ENDBRANCH  26  27
ENDBRANCH  25  26
ENDBRANCH  18  25
ENDBRANCH  15  18
ENDBRANCH  13  15
ENDBRANCH   8  13
ENDBRANCH   5   7
ENDBRANCH   4   5
ENDBRANCH   3   4
ENDBRANCH   2   3
ENDBRANCH   1   2
BRANCH   1  29
ATOM     29  C   UNL     1       5.766   1.811  -6.812  1.00  0.00     0.188 C 
BRANCH  29  30
ATOM     30  C   UNL     1       4.220   1.816  -6.792  1.00  0.00     0.188 C 
BRANCH  30  31
ATOM     31  O   UNL     1       3.614   0.573  -6.535  1.00  0.00    -0.376 OA
BRANCH  31  32
ATOM     32  C   UNL     1       3.405  -0.337  -7.598  1.00  0.00     0.202 C 
BRANCH  32  33
ATOM     33  C   UNL     1       3.916  -0.178  -9.050  1.00  0.00     0.261 C 
BRANCH  33  34
ATOM     34  O   UNL     1       4.741   0.942  -9.383  1.00  0.00    -0.460 OA
BRANCH  34  35
ATOM     35  C   UNL     1       4.125   2.008  -9.955  1.00  0.00     0.338 C 
ATOM     36  O   UNL     1       2.936   2.104 -10.222  1.00  0.00    -0.246 OA
BRANCH  35  37
ATOM     37  C   UNL     1       5.079   3.142  -9.975  1.00  0.00     0.060 A 
ATOM     38  C   UNL     1       4.781   4.295  -9.230  1.00  0.00     0.016 A 
ATOM     39  C   UNL     1       6.285   3.050 -10.671  1.00  0.00     0.016 A 
ATOM     40  C   UNL     1       5.678   5.366  -9.199  1.00  0.00     0.010 A 
ATOM     41  C   UNL     1       7.167   4.137 -10.666  1.00  0.00     0.010 A 
ATOM     42  C   UNL     1       6.856   5.312  -9.955  1.00  0.00    -0.014 A 
BRANCH  42  43
ATOM     43  C   UNL     1       7.636   6.554 -10.202  1.00  0.00     0.031 A 
ATOM     44  C   UNL     1       7.368   7.304 -11.481  1.00  0.00     0.074 A 
ATOM     45  C   UNL     1       8.546   7.019  -9.327  1.00  0.00     0.049 A 
ATOM     46  N   UNL     1       7.969   8.353 -11.977  1.00  0.00    -0.248 NA
ATOM     47  C   UNL     1       6.271   6.786 -12.316  1.00  0.00     0.031 C 
ATOM     48  C   UNL     1       8.857   6.423  -8.030  1.00  0.00     0.029 A 
ATOM     49  N   UNL     1       9.389   8.103  -9.409  1.00  0.00    -0.354 N 
ATOM     50  C   UNL     1       7.332   8.616 -13.185  1.00  0.00     0.074 A 
ATOM     51  C   UNL     1       6.324   7.593 -13.362  1.00  0.00     0.031 C 
ATOM     52  C   UNL     1       9.834   7.141  -7.444  1.00  0.00     0.029 A 
ATOM     53  C   UNL     1      10.250   8.218  -8.342  1.00  0.00     0.049 A 
ATOM     54  H   UNL     1       9.377   8.738 -10.162  1.00  0.00     0.167 HD
ATOM     55  C   UNL     1       7.562   9.622 -14.065  1.00  0.00     0.034 A 
ATOM     56  C   UNL     1      11.275   9.072  -8.133  1.00  0.00     0.034 A 
ATOM     57  C   UNL     1       8.582  10.625 -13.885  1.00  0.00     0.049 A 
ATOM     58  C   UNL     1      11.586  10.122  -9.180  1.00  0.00     0.074 A 
ATOM     59  C   UNL     1       8.893  11.691 -14.710  1.00  0.00     0.029 A 
ATOM     60  N   UNL     1       9.467  10.679 -12.817  1.00  0.00    -0.354 N 
ATOM     61  N   UNL     1      10.976  10.364 -10.319  1.00  0.00    -0.248 NA
ATOM     62  C   UNL     1      12.722  11.015  -8.910  1.00  0.00     0.031 C 
ATOM     63  C   UNL     1      10.018  12.336 -14.187  1.00  0.00     0.029 A 
ATOM     64  C   UNL     1      10.349  11.736 -12.982  1.00  0.00     0.049 A 
ATOM     65  H   UNL     1       9.468  10.057 -12.053  1.00  0.00     0.167 HD
ATOM     66  C   UNL     1      11.631  11.462 -10.877  1.00  0.00     0.074 A 
ATOM     67  C   UNL     1      12.672  11.840  -9.946  1.00  0.00     0.031 C 
ATOM     68  C   UNL     1      11.388  12.104 -12.049  1.00  0.00     0.034 A 
BRANCH  55  69
ATOM     69  C   UNL     1       6.732   9.643 -15.326  1.00  0.00     0.023 A 
ATOM     70  C   UNL     1       5.337   9.815 -15.294  1.00  0.00     0.031 A 
ATOM     71  C   UNL     1       7.344   9.458 -16.579  1.00  0.00     0.131 A 
ATOM     72  C   UNL     1       4.595   9.728 -16.481  1.00  0.00     0.055 A 
ATOM     73  C   UNL     1       6.609   9.459 -17.765  1.00  0.00     0.041 A 
ATOM     74  F   UNL     1       8.669   9.261 -16.670  1.00  0.00    -0.206 F 
ATOM     75  C   UNL     1       5.223   9.580 -17.720  1.00  0.00     0.022 A 
BRANCH  72  76
ATOM     76  S   UNL     1       2.785   9.660 -16.368  1.00  0.00     0.124 S 
ATOM     77  O   UNL     1       2.587   8.486 -15.521  1.00  0.00    -0.237 OA
ATOM     78  O   UNL     1       2.459  10.946 -15.764  1.00  0.00    -0.237 OA
ATOM     79  O   UNL     1       2.361   9.495 -17.757  1.00  0.00    -0.744 OA
ENDBRANCH  72  76
ENDBRANCH  55  69
BRANCH  56  80
ATOM     80  C   UNL     1      12.130   8.957  -6.912  1.00  0.00     0.023 A 
ATOM     81  C   UNL     1      12.232  10.012  -5.990  1.00  0.00     0.031 A 
ATOM     82  C   UNL     1      12.922   7.815  -6.690  1.00  0.00     0.131 A 
ATOM     83  C   UNL     1      13.142   9.927  -4.924  1.00  0.00     0.055 A 
ATOM     84  C   UNL     1      13.778   7.710  -5.592  1.00  0.00     0.041 A 
ATOM     85  F   UNL     1      12.876   6.780  -7.544  1.00  0.00    -0.206 F 
ATOM     86  C   UNL     1      13.903   8.777  -4.709  1.00  0.00     0.022 A 
BRANCH  83  87
ATOM     87  S   UNL     1      13.395  11.389  -3.878  1.00  0.00     0.124 S 
ATOM     88  O   UNL     1      13.820  12.383  -4.858  1.00  0.00    -0.237 OA
ATOM     89  O   UNL     1      12.069  11.582  -3.301  1.00  0.00    -0.237 OA
ATOM     90  O   UNL     1      14.427  10.959  -2.936  1.00  0.00    -0.744 OA
ENDBRANCH  83  87
ENDBRANCH  56  80
BRANCH  68  91
ATOM     91  C   UNL     1      12.225  13.324 -12.363  1.00  0.00     0.023 A 
ATOM     92  C   UNL     1      13.610  13.244 -12.590  1.00  0.00     0.031 A 
ATOM     93  C   UNL     1      11.619  14.593 -12.437  1.00  0.00     0.131 A 
ATOM     94  C   UNL     1      14.351  14.414 -12.822  1.00  0.00     0.055 A 
ATOM     95  C   UNL     1      12.349  15.743 -12.738  1.00  0.00     0.041 A 
ATOM     96  F   UNL     1      10.300  14.734 -12.225  1.00  0.00    -0.206 F 
ATOM     97  C   UNL     1      13.726  15.660 -12.918  1.00  0.00     0.022 A 
BRANCH  94  98
ATOM     98  S   UNL     1      16.160  14.301 -12.896  1.00  0.00     0.124 S 
ATOM     99  O   UNL     1      16.479  13.713 -11.599  1.00  0.00    -0.237 OA
ATOM    100  O   UNL     1      16.373  13.441 -14.055  1.00  0.00    -0.237 OA
ATOM    101  O   UNL     1      16.584  15.690 -13.068  1.00  0.00    -0.744 OA
ENDBRANCH  94  98
ENDBRANCH  68  91
ENDBRANCH  42  43
ENDBRANCH  35  37
ENDBRANCH  34  35
ENDBRANCH  33  34
ENDBRANCH  32  33
ENDBRANCH  31  32
ENDBRANCH  30  31
ENDBRANCH  29  30
ENDBRANCH   1  29
TORSDOF 28
