REMARK SMILES [NH3+]CCn1cc(C(=O)N[C@@H]2CCCCC[C@H]2C(=O)OCCOCCOCCOC(=O)c2ccc(-c3c4nc(c(-c5cc(S(=O)(=O)[O-])ccc5F)c5ccc([nH]5)c(-c5cc(S(=O)(=O)[O-])ccc5F)c5nc(c(-c6cc(S(=O)(=O)[O-])ccc6F)c6ccc3[nH]6)C=C5)C=C4)cc2)nn1
REMARK SMILES IDX 22 1 21 2 20 3 19 4 17 5 18 6 16 7 10 8 9 9 7 10 8 11 6 13
REMARK SMILES IDX 4 14 5 15 95 16 94 17 3 18 2 19 1 20 11 24 15 26 14 27 13 28
REMARK SMILES IDX 12 29 23 31 24 32 25 33 26 34 27 35 28 36 29 37 30 38 31 39
REMARK SMILES IDX 32 40 93 41 33 42 92 43 34 44 35 45 36 46 86 47 37 48 91 49
REMARK SMILES IDX 85 50 87 51 38 52 90 53 84 54 83 55 39 57 71 58 51 59 70 60
REMARK SMILES IDX 52 61 55 62 69 63 88 64 53 65 54 66 68 68 89 69 56 70 40 71
REMARK SMILES IDX 41 72 49 73 42 74 48 75 50 76 47 77 43 78 44 79 45 80 46 81
REMARK SMILES IDX 72 82 73 83 81 84 74 85 80 86 82 87 79 88 75 89 76 90 77 91
REMARK SMILES IDX 78 92 57 93 58 94 66 95 59 96 65 97 67 98 64 99 60 100
REMARK SMILES IDX 61 101 62 102 63 103
REMARK H PARENT 9 12 1 21 1 22 1 23 87 56 55 67
REMARK Flexibility Score: 100.00
ROOT
ATOM      1  O   UNL     1       1.382  -1.127   0.814  1.00  0.00    -0.376 OA
ENDROOT
BRANCH   1   2
ATOM      2  C   UNL     1       0.535  -2.001   1.559  1.00  0.00     0.202 C 
BRANCH   2   3
ATOM      3  C   UNL     1      -0.925  -2.354   1.130  1.00  0.00     0.261 C 
BRANCH   3   4
ATOM      4  O   UNL     1      -1.380  -2.022  -0.202  1.00  0.00    -0.463 OA
BRANCH   4   5
ATOM      5  C   UNL     1      -2.092  -0.882  -0.399  1.00  0.00     0.311 C 
ATOM      6  O   UNL     1      -2.357  -0.092   0.499  1.00  0.00    -0.252 OA
BRANCH   5   7
ATOM      7  C   UNL     1      -2.514  -0.663  -1.869  1.00  0.00     0.121 C 
BRANCH   7   8
ATOM      8  C   UNL     1      -1.382  -0.621  -2.925  1.00  0.00     0.096 C 
BRANCH   8   9
ATOM      9  N   UNL     1      -1.588   0.460  -3.917  1.00  0.00    -0.347 N 
ATOM     10  C   UNL     1      -1.319   1.810  -3.983  1.00  0.00     0.273 C 
ATOM     11  O   UNL     1      -1.575   2.329  -5.074  1.00  0.00    -0.267 OA
ATOM     12  H   UNL     1      -2.027   0.132  -4.735  1.00  0.00     0.164 HD
BRANCH  10  13
ATOM     13  C   UNL     1      -0.783   2.597  -2.876  1.00  0.00     0.170 A 
ATOM     14  N   UNL     1       0.031   3.419  -1.020  1.00  0.00    -0.246 N 
ATOM     15  C   UNL     1      -0.528   2.294  -1.556  1.00  0.00     0.145 A 
ATOM     16  N   UNL     1      -0.004   4.421  -1.911  1.00  0.00    -0.066 NA
ATOM     17  N   UNL     1      -0.475   3.932  -3.050  1.00  0.00    -0.125 NA
BRANCH  14  18
ATOM     18  C   UNL     1       0.567   3.681   0.302  1.00  0.00     0.207 C 
BRANCH  18  19
ATOM     19  C   UNL     1       0.660   2.493   1.278  1.00  0.00     0.282 C 
BRANCH  19  20
ATOM     20  N   UNL     1       1.988   1.884   1.335  1.00  0.00    -0.356 N 
ATOM     21  H   UNL     1       1.978   1.108   1.997  1.00  0.00     0.344 HD
ATOM     22  H   UNL     1       2.669   2.581   1.637  1.00  0.00     0.344 HD
ATOM     23  H   UNL     1       2.243   1.538   0.409  1.00  0.00     0.344 HD
ENDBRANCH  19  20
ENDBRANCH  18  19
ENDBRANCH  14  18
ENDBRANCH  10  13
ENDBRANCH   8   9
BRANCH   8  24
ATOM     24  C   UNL     1      -1.174  -1.920  -3.741  1.00  0.00     0.026 CG0
ATOM     25  G   UNL     1      -1.104  -3.226  -2.967  1.00  0.00     0.000 G0
ENDBRANCH   8  24
ENDBRANCH   7   8
BRANCH   7  26
ATOM     26  C   UNL     1      -3.683  -1.568  -2.264  1.00  0.00     0.017 C 
BRANCH  26  27
ATOM     27  C   UNL     1      -3.534  -3.047  -1.919  1.00  0.00     0.001 C 
BRANCH  27  28
ATOM     28  C   UNL     1      -2.450  -3.860  -2.627  1.00  0.00     0.000 C 
BRANCH  28  29
ATOM     29  C   UNL     1      -1.104  -3.226  -2.967  1.00  0.00     0.002 CG0
ATOM     30  G   UNL     1      -1.174  -1.920  -3.741  1.00  0.00     0.000 G0
ENDBRANCH  28  29
ENDBRANCH  27  28
ENDBRANCH  26  27
ENDBRANCH   7  26
ENDBRANCH   5   7
ENDBRANCH   4   5
ENDBRANCH   3   4
ENDBRANCH   2   3
ENDBRANCH   1   2
BRANCH   1  31
ATOM     31  C   UNL     1       0.995  -0.995  -0.534  1.00  0.00     0.188 C 
BRANCH  31  32
ATOM     32  C   UNL     1       2.039  -0.456  -1.466  1.00  0.00     0.188 C 
BRANCH  32  33
ATOM     33  O   UNL     1       2.655  -1.540  -2.163  1.00  0.00    -0.376 OA
BRANCH  33  34
ATOM     34  C   UNL     1       3.587  -2.282  -1.385  1.00  0.00     0.202 C 
BRANCH  34  35
ATOM     35  C   UNL     1       4.972  -1.651  -1.286  1.00  0.00     0.261 C 
BRANCH  35  36
ATOM     36  O   UNL     1       4.921  -0.243  -1.142  1.00  0.00    -0.460 OA
BRANCH  36  37
ATOM     37  C   UNL     1       4.675   0.467  -2.282  1.00  0.00     0.338 C 
ATOM     38  O   UNL     1       4.547   0.050  -3.404  1.00  0.00    -0.246 OA
BRANCH  37  39
ATOM     39  C   UNL     1       4.601   1.886  -1.878  1.00  0.00     0.060 A 
ATOM     40  C   UNL     1       4.611   2.830  -2.902  1.00  0.00     0.016 A 
ATOM     41  C   UNL     1       4.879   2.220  -0.544  1.00  0.00     0.016 A 
ATOM     42  C   UNL     1       5.293   3.999  -2.661  1.00  0.00     0.010 A 
ATOM     43  C   UNL     1       5.564   3.372  -0.308  1.00  0.00     0.010 A 
ATOM     44  C   UNL     1       5.891   4.151  -1.409  1.00  0.00    -0.014 A 
BRANCH  44  45
ATOM     45  C   UNL     1       6.953   5.110  -1.248  1.00  0.00     0.031 A 
ATOM     46  C   UNL     1       6.434   6.451  -0.950  1.00  0.00     0.074 A 
ATOM     47  C   UNL     1       8.244   4.722  -1.232  1.00  0.00     0.049 A 
ATOM     48  N   UNL     1       6.293   7.432  -1.777  1.00  0.00    -0.248 NA
ATOM     49  C   UNL     1       5.723   6.633   0.328  1.00  0.00     0.031 C 
ATOM     50  C   UNL     1       8.798   3.362  -1.242  1.00  0.00     0.029 A 
ATOM     51  N   UNL     1       9.355   5.489  -1.118  1.00  0.00    -0.354 N 
ATOM     52  C   UNL     1       5.751   8.453  -1.012  1.00  0.00     0.074 A 
ATOM     53  C   UNL     1       5.134   7.807   0.109  1.00  0.00     0.031 C 
ATOM     54  C   UNL     1      10.112   3.408  -0.912  1.00  0.00     0.029 A 
ATOM     55  C   UNL     1      10.523   4.798  -0.802  1.00  0.00     0.049 A 
ATOM     56  H   UNL     1       9.338   6.465  -1.248  1.00  0.00     0.167 HD
ATOM     57  C   UNL     1       6.199   9.729  -1.160  1.00  0.00     0.034 A 
ATOM     58  C   UNL     1      11.706   5.356  -0.414  1.00  0.00     0.034 A 
ATOM     59  C   UNL     1       6.883   9.877  -2.435  1.00  0.00     0.049 A 
ATOM     60  C   UNL     1      11.668   6.769  -0.885  1.00  0.00     0.074 A 
ATOM     61  C   UNL     1       6.521   9.658  -3.752  1.00  0.00     0.029 A 
ATOM     62  N   UNL     1       8.264   9.896  -2.435  1.00  0.00    -0.354 N 
ATOM     63  N   UNL     1      11.632   7.096  -2.150  1.00  0.00    -0.248 NA
ATOM     64  C   UNL     1      11.127   7.773   0.024  1.00  0.00     0.031 C 
ATOM     65  C   UNL     1       7.672   9.073  -4.362  1.00  0.00     0.029 A 
ATOM     66  C   UNL     1       8.707   9.051  -3.425  1.00  0.00     0.049 A 
ATOM     67  H   UNL     1       8.833  10.425  -1.830  1.00  0.00     0.167 HD
ATOM     68  C   UNL     1      10.698   8.121  -2.237  1.00  0.00     0.074 A 
ATOM     69  C   UNL     1      10.481   8.548  -0.854  1.00  0.00     0.031 C 
ATOM     70  C   UNL     1       9.963   8.319  -3.374  1.00  0.00     0.034 A 
BRANCH  57  71
ATOM     71  C   UNL     1       6.431  10.673   0.009  1.00  0.00     0.023 A 
ATOM     72  C   UNL     1       7.042  11.898  -0.303  1.00  0.00     0.031 A 
ATOM     73  C   UNL     1       6.372  10.364   1.391  1.00  0.00     0.131 A 
ATOM     74  C   UNL     1       7.696  12.654   0.683  1.00  0.00     0.055 A 
ATOM     75  C   UNL     1       6.979  11.147   2.376  1.00  0.00     0.041 A 
ATOM     76  F   UNL     1       5.787   9.271   1.887  1.00  0.00    -0.206 F 
ATOM     77  C   UNL     1       7.684  12.278   2.021  1.00  0.00     0.022 A 
BRANCH  74  78
ATOM     78  S   UNL     1       8.724  14.036   0.141  1.00  0.00     0.124 S 
ATOM     79  O   UNL     1       9.575  13.389  -0.852  1.00  0.00    -0.237 OA
ATOM     80  O   UNL     1       7.723  14.965  -0.371  1.00  0.00    -0.237 OA
ATOM     81  O   UNL     1       9.397  14.455   1.368  1.00  0.00    -0.744 OA
ENDBRANCH  74  78
ENDBRANCH  57  71
BRANCH  58  82
ATOM     82  C   UNL     1      12.599   4.874   0.686  1.00  0.00     0.023 A 
ATOM     83  C   UNL     1      13.948   5.276   0.833  1.00  0.00     0.031 A 
ATOM     84  C   UNL     1      12.035   4.172   1.777  1.00  0.00     0.131 A 
ATOM     85  C   UNL     1      14.664   4.968   2.021  1.00  0.00     0.055 A 
ATOM     86  C   UNL     1      12.742   3.877   2.945  1.00  0.00     0.041 A 
ATOM     87  F   UNL     1      10.740   3.819   1.781  1.00  0.00    -0.206 F 
ATOM     88  C   UNL     1      14.059   4.281   3.076  1.00  0.00     0.022 A 
BRANCH  85  89
ATOM     89  S   UNL     1      16.392   5.516   2.251  1.00  0.00     0.124 S 
ATOM     90  O   UNL     1      17.101   4.745   1.236  1.00  0.00    -0.237 OA
ATOM     91  O   UNL     1      16.300   6.954   2.028  1.00  0.00    -0.237 OA
ATOM     92  O   UNL     1      16.694   5.131   3.631  1.00  0.00    -0.744 OA
ENDBRANCH  85  89
ENDBRANCH  58  82
BRANCH  70  93
ATOM     93  C   UNL     1      10.380   7.585  -4.638  1.00  0.00     0.023 A 
ATOM     94  C   UNL     1      10.418   6.178  -4.799  1.00  0.00     0.031 A 
ATOM     95  C   UNL     1      10.630   8.374  -5.774  1.00  0.00     0.131 A 
ATOM     96  C   UNL     1      10.704   5.620  -6.065  1.00  0.00     0.055 A 
ATOM     97  C   UNL     1      10.891   7.819  -7.026  1.00  0.00     0.041 A 
ATOM     98  F   UNL     1      10.586   9.715  -5.692  1.00  0.00    -0.206 F 
ATOM     99  C   UNL     1      10.933   6.439  -7.176  1.00  0.00     0.022 A 
BRANCH  96 100
ATOM    100  S   UNL     1      10.803   3.812  -6.298  1.00  0.00     0.124 S 
ATOM    101  O   UNL     1      11.675   3.376  -5.214  1.00  0.00    -0.237 OA
ATOM    102  O   UNL     1       9.405   3.403  -6.199  1.00  0.00    -0.237 OA
ATOM    103  O   UNL     1      11.382   3.671  -7.636  1.00  0.00    -0.744 OA
ENDBRANCH  96 100
ENDBRANCH  70  93
ENDBRANCH  44  45
ENDBRANCH  37  39
ENDBRANCH  36  37
ENDBRANCH  35  36
ENDBRANCH  34  35
ENDBRANCH  33  34
ENDBRANCH  32  33
ENDBRANCH  31  32
ENDBRANCH   1  31
TORSDOF 25
