REMARK SMILES CN1C(=O)/C(=C/c2ccc(OCC(=O)OCCOCCOCCOC(=O)c3ccc(-c4c5nc(c(-c6cc(S(=O)(=O)[O-])ccc6F)c6ccc([nH]6)c(-c6cc(S(=O)(=O)[O-])ccc6F)c6nc(c(-c7cc(S(=O)(=O)[O-])ccc7F)c7ccc4[nH]7)C=C6)C=C5)cc3)c(Br)c2)C(=O)NC1=S
REMARK SMILES IDX 19 1 18 2 17 3 16 4 15 5 13 6 14 7 12 8 11 9 10 10 7 11 8 12
REMARK SMILES IDX 92 13 9 14 90 15 91 16 6 17 1 18 2 19 3 20 96 21 4 22 5 23
REMARK SMILES IDX 95 24 97 25 93 26 94 28 20 29 21 30 22 31 23 32 24 33 25 34
REMARK SMILES IDX 26 35 27 36 28 37 89 38 29 39 88 40 30 41 31 42 32 43 82 44
REMARK SMILES IDX 33 45 87 46 81 47 83 48 34 49 86 50 80 51 79 52 35 54 67 55
REMARK SMILES IDX 47 56 66 57 48 58 51 59 65 60 84 61 49 62 50 63 64 65 85 66
REMARK SMILES IDX 52 67 36 68 37 69 45 70 38 71 44 72 46 73 43 74 39 75 40 76
REMARK SMILES IDX 41 77 42 78 68 79 69 80 77 81 70 82 76 83 78 84 75 85 71 86
REMARK SMILES IDX 72 87 73 88 74 89 53 90 54 91 62 92 55 93 61 94 63 95 60 96
REMARK SMILES IDX 56 97 57 98 58 99 59 100
REMARK H PARENT 95 27 83 53 51 64
REMARK Flexibility Score: inf
ROOT
ATOM      1  C   UNL     1      -6.907   4.867   1.077  1.00  0.00     0.188 C 
ENDROOT
BRANCH   1   2
ATOM      2  O   UNL     1      -7.878   5.822   0.664  1.00  0.00    -0.376 OA
BRANCH   2   3
ATOM      3  C   UNL     1      -8.436   6.702   1.625  1.00  0.00     0.202 C 
BRANCH   3   4
ATOM      4  C   UNL     1      -9.354   6.076   2.677  1.00  0.00     0.261 C 
BRANCH   4   5
ATOM      5  O   UNL     1      -8.715   5.140   3.570  1.00  0.00    -0.461 OA
BRANCH   5   6
ATOM      6  C   UNL     1      -9.082   3.832   3.444  1.00  0.00     0.344 C 
ATOM      7  O   UNL     1      -9.860   3.412   2.595  1.00  0.00    -0.248 OA
BRANCH   6   8
ATOM      8  C   UNL     1      -8.526   2.946   4.569  1.00  0.00     0.352 C 
BRANCH   8   9
ATOM      9  O   UNL     1      -7.283   3.211   5.182  1.00  0.00    -0.481 OA
BRANCH   9  10
ATOM     10  C   UNL     1      -6.069   2.780   4.732  1.00  0.00     0.134 A 
ATOM     11  C   UNL     1      -3.342   2.449   3.978  1.00  0.00    -0.023 A 
ATOM     12  C   UNL     1      -3.687   3.391   4.934  1.00  0.00     0.012 A 
ATOM     13  C   UNL     1      -4.352   1.622   3.466  1.00  0.00     0.027 A 
ATOM     14  C   UNL     1      -5.027   3.532   5.317  1.00  0.00     0.048 A 
ATOM     15  C   UNL     1      -5.707   1.783   3.823  1.00  0.00     0.060 A 
ATOM     16  Br  UNL     1      -6.876   0.569   2.953  1.00  0.00    -0.047 Br
BRANCH  11  17
ATOM     17  C   UNL     1      -1.981   2.387   3.421  1.00  0.00     0.027 C 
ATOM     18  C   UNL     1       1.403   0.059   0.980  1.00  0.00     0.156 C 
ATOM     19  N   UNL     1       0.343   0.041   1.991  1.00  0.00    -0.288 N 
ATOM     20  C   UNL     1      -0.015   1.299   2.484  1.00  0.00     0.265 C 
ATOM     21  C   UNL     1      -0.221  -1.147   2.445  1.00  0.00     0.182 C 
ATOM     22  O   UNL     1       0.533   2.351   2.160  1.00  0.00    -0.268 OA
ATOM     23  C   UNL     1      -1.187   1.299   3.397  1.00  0.00     0.106 C 
ATOM     24  N   UNL     1      -1.062  -1.059   3.520  1.00  0.00    -0.298 N 
ATOM     25  S   UNL     1      -0.021  -2.693   1.863  1.00  0.00    -0.040 S 
ATOM     26  C   UNL     1      -1.522   0.067   4.126  1.00  0.00     0.263 C 
ATOM     27  H   UNL     1      -1.373  -1.913   3.899  1.00  0.00     0.172 HD
ATOM     28  O   UNL     1      -2.158   0.033   5.170  1.00  0.00    -0.269 OA
ENDBRANCH  11  17
ENDBRANCH   9  10
ENDBRANCH   8   9
ENDBRANCH   6   8
ENDBRANCH   5   6
ENDBRANCH   4   5
ENDBRANCH   3   4
ENDBRANCH   2   3
ENDBRANCH   1   2
BRANCH   1  29
ATOM     29  C   UNL     1      -5.986   5.191   2.265  1.00  0.00     0.188 C 
BRANCH  29  30
ATOM     30  O   UNL     1      -5.644   6.567   2.370  1.00  0.00    -0.376 OA
BRANCH  30  31
ATOM     31  C   UNL     1      -4.253   6.841   2.295  1.00  0.00     0.202 C 
BRANCH  31  32
ATOM     32  C   UNL     1      -3.749   6.775   0.856  1.00  0.00     0.261 C 
BRANCH  32  33
ATOM     33  O   UNL     1      -3.934   5.465   0.282  1.00  0.00    -0.460 OA
BRANCH  33  34
ATOM     34  C   UNL     1      -2.858   4.662   0.237  1.00  0.00     0.338 C 
ATOM     35  O   UNL     1      -1.732   4.928   0.649  1.00  0.00    -0.246 OA
BRANCH  34  36
ATOM     36  C   UNL     1      -3.211   3.391  -0.422  1.00  0.00     0.060 A 
ATOM     37  C   UNL     1      -4.127   2.507   0.156  1.00  0.00     0.016 A 
ATOM     38  C   UNL     1      -2.551   3.029  -1.594  1.00  0.00     0.016 A 
ATOM     39  C   UNL     1      -4.319   1.230  -0.384  1.00  0.00     0.010 A 
ATOM     40  C   UNL     1      -2.800   1.779  -2.173  1.00  0.00     0.010 A 
ATOM     41  C   UNL     1      -3.648   0.843  -1.550  1.00  0.00    -0.014 A 
BRANCH  41  42
ATOM     42  C   UNL     1      -3.743  -0.550  -2.083  1.00  0.00     0.031 A 
ATOM     43  C   UNL     1      -2.492  -1.395  -2.171  1.00  0.00     0.074 A 
ATOM     44  C   UNL     1      -4.916  -1.067  -2.500  1.00  0.00     0.049 A 
ATOM     45  N   UNL     1      -2.295  -2.544  -2.764  1.00  0.00    -0.248 NA
ATOM     46  C   UNL     1      -1.297  -0.858  -1.501  1.00  0.00     0.031 C 
ATOM     47  C   UNL     1      -6.218  -0.406  -2.407  1.00  0.00     0.029 A 
ATOM     48  N   UNL     1      -5.199  -2.267  -3.109  1.00  0.00    -0.354 N 
ATOM     49  C   UNL     1      -0.951  -2.853  -2.565  1.00  0.00     0.074 A 
ATOM     50  C   UNL     1      -0.377  -1.752  -1.827  1.00  0.00     0.031 C 
ATOM     51  C   UNL     1      -7.155  -1.202  -2.947  1.00  0.00     0.029 A 
ATOM     52  C   UNL     1      -6.513  -2.389  -3.504  1.00  0.00     0.049 A 
ATOM     53  H   UNL     1      -4.526  -2.972  -3.250  1.00  0.00     0.167 HD
ATOM     54  C   UNL     1      -0.253  -3.946  -2.964  1.00  0.00     0.034 A 
ATOM     55  C   UNL     1      -7.119  -3.311  -4.281  1.00  0.00     0.034 A 
ATOM     56  C   UNL     1      -0.829  -5.022  -3.730  1.00  0.00     0.049 A 
ATOM     57  C   UNL     1      -6.297  -4.445  -4.847  1.00  0.00     0.074 A 
ATOM     58  C   UNL     1      -0.216  -6.167  -4.208  1.00  0.00     0.029 A 
ATOM     59  N   UNL     1      -2.150  -5.072  -4.157  1.00  0.00    -0.354 N 
ATOM     60  N   UNL     1      -5.024  -4.715  -4.667  1.00  0.00    -0.248 NA
ATOM     61  C   UNL     1      -6.991  -5.390  -5.731  1.00  0.00     0.031 C 
ATOM     62  C   UNL     1      -1.141  -6.864  -4.993  1.00  0.00     0.029 A 
ATOM     63  C   UNL     1      -2.357  -6.200  -4.936  1.00  0.00     0.049 A 
ATOM     64  H   UNL     1      -2.839  -4.404  -3.938  1.00  0.00     0.167 HD
ATOM     65  C   UNL     1      -4.774  -5.876  -5.396  1.00  0.00     0.074 A 
ATOM     66  C   UNL     1      -6.031  -6.260  -6.006  1.00  0.00     0.031 C 
ATOM     67  C   UNL     1      -3.614  -6.564  -5.547  1.00  0.00     0.034 A 
BRANCH  54  68
ATOM     68  C   UNL     1       1.232  -3.974  -2.669  1.00  0.00     0.023 A 
ATOM     69  C   UNL     1       1.748  -4.093  -1.364  1.00  0.00     0.031 A 
ATOM     70  C   UNL     1       2.150  -3.841  -3.727  1.00  0.00     0.131 A 
ATOM     71  C   UNL     1       3.133  -3.990  -1.145  1.00  0.00     0.055 A 
ATOM     72  C   UNL     1       3.528  -3.828  -3.511  1.00  0.00     0.041 A 
ATOM     73  F   UNL     1       1.719  -3.708  -4.991  1.00  0.00    -0.206 F 
ATOM     74  C   UNL     1       4.026  -3.888  -2.214  1.00  0.00     0.022 A 
BRANCH  71  75
ATOM     75  S   UNL     1       3.787  -3.907   0.550  1.00  0.00     0.124 S 
ATOM     76  O   UNL     1       3.520  -2.513   0.899  1.00  0.00    -0.237 OA
ATOM     77  O   UNL     1       3.004  -4.911   1.260  1.00  0.00    -0.237 OA
ATOM     78  O   UNL     1       5.202  -4.234   0.383  1.00  0.00    -0.744 OA
ENDBRANCH  71  75
ENDBRANCH  54  68
BRANCH  55  79
ATOM     79  C   UNL     1      -8.556  -3.157  -4.659  1.00  0.00     0.023 A 
ATOM     80  C   UNL     1      -9.514  -4.120  -4.306  1.00  0.00     0.031 A 
ATOM     81  C   UNL     1      -8.983  -2.062  -5.436  1.00  0.00     0.131 A 
ATOM     82  C   UNL     1     -10.838  -3.991  -4.759  1.00  0.00     0.055 A 
ATOM     83  C   UNL     1     -10.312  -1.907  -5.832  1.00  0.00     0.041 A 
ATOM     84  F   UNL     1      -8.108  -1.117  -5.815  1.00  0.00    -0.206 F 
ATOM     85  C   UNL     1     -11.247  -2.882  -5.504  1.00  0.00     0.022 A 
BRANCH  82  86
ATOM     86  S   UNL     1     -12.006  -5.342  -4.437  1.00  0.00     0.124 S 
ATOM     87  O   UNL     1     -11.341  -6.468  -5.082  1.00  0.00    -0.237 OA
ATOM     88  O   UNL     1     -12.044  -5.369  -2.979  1.00  0.00    -0.237 OA
ATOM     89  O   UNL     1     -13.237  -4.890  -5.083  1.00  0.00    -0.744 OA
ENDBRANCH  82  86
ENDBRANCH  55  79
BRANCH  67  90
ATOM     90  C   UNL     1      -3.666  -7.830  -6.368  1.00  0.00     0.023 A 
ATOM     91  C   UNL     1      -3.909  -7.809  -7.752  1.00  0.00     0.031 A 
ATOM     92  C   UNL     1      -3.474  -9.079  -5.750  1.00  0.00     0.131 A 
ATOM     93  C   UNL     1      -4.006  -9.014  -8.463  1.00  0.00     0.055 A 
ATOM     94  C   UNL     1      -3.511 -10.272  -6.473  1.00  0.00     0.041 A 
ATOM     95  F   UNL     1      -3.241  -9.160  -4.430  1.00  0.00    -0.206 F 
ATOM     96  C   UNL     1      -3.791 -10.244  -7.836  1.00  0.00     0.022 A 
BRANCH  93  97
ATOM     97  S   UNL     1      -4.507  -8.962 -10.206  1.00  0.00     0.124 S 
ATOM     98  O   UNL     1      -5.804  -8.297 -10.129  1.00  0.00    -0.237 OA
ATOM     99  O   UNL     1      -3.430  -8.190 -10.818  1.00  0.00    -0.237 OA
ATOM    100  O   UNL     1      -4.555 -10.371 -10.592  1.00  0.00    -0.744 OA
ENDBRANCH  93  97
ENDBRANCH  67  90
ENDBRANCH  41  42
ENDBRANCH  34  36
ENDBRANCH  33  34
ENDBRANCH  32  33
ENDBRANCH  31  32
ENDBRANCH  30  31
ENDBRANCH  29  30
ENDBRANCH   1  29
TORSDOF 23
