REMARK SMILES Cc1cc2nc(S/C(=C\c3ccc(O)cc3)C(=O)OCCOCCOCCOC(=O)c3ccc(-c4c5nc(c(-c6cc(S(=O)(=O)[O-])ccc6F)c6ccc([nH]6)c(-c6cc(S(=O)(=O)[O-])ccc6F)c6nc(c(-c7cc(S(=O)(=O)[O-])ccc7F)c7ccc4[nH]7)C=C6)C=C5)cc3)[nH]c2cc1C
REMARK SMILES IDX 24 1 23 2 22 3 21 4 20 5 19 6 17 7 18 8 8 9 9 10 7 11 6 12
REMARK SMILES IDX 1 13 2 14 3 15 97 16 4 17 96 18 98 19 5 20 95 21 94 22 10 24
REMARK SMILES IDX 11 25 16 26 12 27 15 28 13 29 14 30 25 32 26 33 27 34 28 35
REMARK SMILES IDX 29 36 30 37 31 38 32 39 93 40 33 41 92 42 34 43 35 44 36 45
REMARK SMILES IDX 86 46 37 47 91 48 85 49 87 50 38 51 90 52 84 53 83 54 39 56
REMARK SMILES IDX 71 57 51 58 70 59 52 60 55 61 69 62 88 63 53 64 54 65 68 67
REMARK SMILES IDX 89 68 56 69 40 70 41 71 49 72 42 73 48 74 50 75 47 76 43 77
REMARK SMILES IDX 44 78 45 79 46 80 72 81 73 82 81 83 74 84 80 85 82 86 79 87
REMARK SMILES IDX 75 88 76 89 77 90 78 91 57 92 58 93 66 94 59 95 65 96 67 97
REMARK SMILES IDX 64 98 60 99 61 100 62 101 63 102
REMARK H PARENT 94 23 14 31 87 55 55 66
REMARK Flexibility Score: inf
ROOT
ATOM      1  C   UNL     1      -7.032  -2.102   2.230  1.00  0.00     0.188 C 
ENDROOT
BRANCH   1   2
ATOM      2  C   UNL     1      -7.916  -1.095   1.461  1.00  0.00     0.188 C 
BRANCH   2   3
ATOM      3  O   UNL     1      -9.214  -1.492   1.029  1.00  0.00    -0.376 OA
BRANCH   3   4
ATOM      4  C   UNL     1      -9.380  -2.725   0.342  1.00  0.00     0.202 C 
BRANCH   4   5
ATOM      5  C   UNL     1      -8.457  -3.069  -0.838  1.00  0.00     0.261 C 
BRANCH   5   6
ATOM      6  O   UNL     1      -7.057  -2.908  -0.560  1.00  0.00    -0.459 OA
BRANCH   6   7
ATOM      7  C   UNL     1      -6.361  -2.072  -1.382  1.00  0.00     0.345 C 
ATOM      8  O   UNL     1      -6.797  -1.570  -2.408  1.00  0.00    -0.246 OA
BRANCH   7   9
ATOM      9  C   UNL     1      -4.987  -1.781  -0.817  1.00  0.00     0.101 C 
ATOM     10  C   UNL     1      -4.338  -2.834  -0.280  1.00  0.00     0.031 C 
BRANCH   9  11
ATOM     11  S   UNL     1      -4.593  -0.094  -0.921  1.00  0.00    -0.044 SA
BRANCH  11  12
ATOM     12  C   UNL     1      -2.886   0.093  -0.859  1.00  0.00     0.171 A 
ATOM     13  C   UNL     1       2.663   1.855   0.235  1.00  0.00     0.044 C 
ATOM     14  C   UNL     1       1.483   1.005  -0.157  1.00  0.00    -0.046 A 
ATOM     15  C   UNL     1       0.194   1.566  -0.008  1.00  0.00     0.034 A 
ATOM     16  C   UNL     1       1.627  -0.281  -0.722  1.00  0.00    -0.046 A 
ATOM     17  C   UNL     1      -0.928   0.845  -0.441  1.00  0.00     0.090 A 
ATOM     18  C   UNL     1       0.516  -0.942  -1.282  1.00  0.00     0.032 A 
ATOM     19  C   UNL     1       2.953  -0.996  -0.739  1.00  0.00     0.044 C 
ATOM     20  N   UNL     1      -2.269   1.106  -0.291  1.00  0.00    -0.222 NA
ATOM     21  C   UNL     1      -0.737  -0.349  -1.119  1.00  0.00     0.066 A 
ATOM     22  N   UNL     1      -2.002  -0.732  -1.490  1.00  0.00    -0.333 N 
ATOM     23  H   UNL     1      -2.231  -1.470  -2.100  1.00  0.00     0.169 HD
ENDBRANCH  11  12
ENDBRANCH   9  11
BRANCH  10  24
ATOM     24  C   UNL     1      -3.015  -2.945   0.341  1.00  0.00    -0.024 A 
ATOM     25  C   UNL     1      -2.618  -2.186   1.446  1.00  0.00     0.012 A 
ATOM     26  C   UNL     1      -2.109  -3.848  -0.239  1.00  0.00     0.012 A 
ATOM     27  C   UNL     1      -1.293  -2.246   1.892  1.00  0.00     0.047 A 
ATOM     28  C   UNL     1      -0.794  -3.918   0.216  1.00  0.00     0.047 A 
ATOM     29  C   UNL     1      -0.389  -3.088   1.252  1.00  0.00     0.115 A 
BRANCH  29  30
ATOM     30  O   UNL     1       0.935  -3.079   1.579  1.00  0.00    -0.508 OA
ATOM     31  H   UNL     1       1.242  -2.530   2.273  1.00  0.00     0.293 HD
ENDBRANCH  29  30
ENDBRANCH  10  24
ENDBRANCH   7   9
ENDBRANCH   6   7
ENDBRANCH   5   6
ENDBRANCH   4   5
ENDBRANCH   3   4
ENDBRANCH   2   3
ENDBRANCH   1   2
BRANCH   1  32
ATOM     32  O   UNL     1      -7.614  -3.376   2.384  1.00  0.00    -0.376 OA
BRANCH  32  33
ATOM     33  C   UNL     1      -8.231  -3.702   3.616  1.00  0.00     0.202 C 
BRANCH  33  34
ATOM     34  C   UNL     1      -8.968  -2.685   4.516  1.00  0.00     0.261 C 
BRANCH  34  35
ATOM     35  O   UNL     1      -8.690  -1.291   4.348  1.00  0.00    -0.460 OA
BRANCH  35  36
ATOM     36  C   UNL     1      -7.705  -0.762   5.111  1.00  0.00     0.338 C 
ATOM     37  O   UNL     1      -6.988  -1.364   5.896  1.00  0.00    -0.246 OA
BRANCH  36  38
ATOM     38  C   UNL     1      -7.508   0.644   4.697  1.00  0.00     0.060 A 
ATOM     39  C   UNL     1      -6.332   1.000   4.023  1.00  0.00     0.016 A 
ATOM     40  C   UNL     1      -8.486   1.604   4.963  1.00  0.00     0.016 A 
ATOM     41  C   UNL     1      -6.125   2.322   3.623  1.00  0.00     0.010 A 
ATOM     42  C   UNL     1      -8.266   2.933   4.583  1.00  0.00     0.010 A 
ATOM     43  C   UNL     1      -7.075   3.305   3.932  1.00  0.00    -0.014 A 
BRANCH  43  44
ATOM     44  C   UNL     1      -6.753   4.742   3.733  1.00  0.00     0.031 A 
ATOM     45  C   UNL     1      -6.297   5.545   4.923  1.00  0.00     0.074 A 
ATOM     46  C   UNL     1      -6.850   5.325   2.524  1.00  0.00     0.049 A 
ATOM     47  N   UNL     1      -6.036   6.822   5.017  1.00  0.00    -0.248 NA
ATOM     48  C   UNL     1      -6.120   4.798   6.178  1.00  0.00     0.031 C 
ATOM     49  C   UNL     1      -7.223   4.643   1.287  1.00  0.00     0.029 A 
ATOM     50  N   UNL     1      -6.649   6.629   2.143  1.00  0.00    -0.354 N 
ATOM     51  C   UNL     1      -5.670   7.037   6.342  1.00  0.00     0.074 A 
ATOM     52  C   UNL     1      -5.783   5.763   7.020  1.00  0.00     0.031 C 
ATOM     53  C   UNL     1      -7.235   5.539   0.283  1.00  0.00     0.029 A 
ATOM     54  C   UNL     1      -6.916   6.864   0.813  1.00  0.00     0.049 A 
ATOM     55  H   UNL     1      -6.343   7.331   2.762  1.00  0.00     0.167 HD
ATOM     56  C   UNL     1      -5.268   8.188   6.935  1.00  0.00     0.034 A 
ATOM     57  C   UNL     1      -6.930   8.018   0.114  1.00  0.00     0.034 A 
ATOM     58  C   UNL     1      -5.175   9.454   6.248  1.00  0.00     0.049 A 
ATOM     59  C   UNL     1      -6.584   9.310   0.822  1.00  0.00     0.074 A 
ATOM     60  C   UNL     1      -4.768  10.678   6.750  1.00  0.00     0.029 A 
ATOM     61  N   UNL     1      -5.509   9.664   4.916  1.00  0.00    -0.354 N 
ATOM     62  N   UNL     1      -6.234   9.501   2.074  1.00  0.00    -0.248 NA
ATOM     63  C   UNL     1      -6.634  10.540   0.021  1.00  0.00     0.031 C 
ATOM     64  C   UNL     1      -4.938  11.641   5.750  1.00  0.00     0.029 A 
ATOM     65  C   UNL     1      -5.360  11.005   4.593  1.00  0.00     0.049 A 
ATOM     66  H   UNL     1      -5.809   8.964   4.292  1.00  0.00     0.167 HD
ATOM     67  C   UNL     1      -5.987  10.868   2.197  1.00  0.00     0.074 A 
ATOM     68  C   UNL     1      -6.215  11.448   0.890  1.00  0.00     0.031 C 
ATOM     69  C   UNL     1      -5.602  11.578   3.289  1.00  0.00     0.034 A 
BRANCH  56  70
ATOM     70  C   UNL     1      -4.958   8.136   8.412  1.00  0.00     0.023 A 
ATOM     71  C   UNL     1      -3.910   7.352   8.925  1.00  0.00     0.031 A 
ATOM     72  C   UNL     1      -5.744   8.861   9.326  1.00  0.00     0.131 A 
ATOM     73  C   UNL     1      -3.723   7.254  10.313  1.00  0.00     0.055 A 
ATOM     74  C   UNL     1      -5.499   8.827  10.700  1.00  0.00     0.041 A 
ATOM     75  F   UNL     1      -6.776   9.607   8.900  1.00  0.00    -0.206 F 
ATOM     76  C   UNL     1      -4.492   8.007  11.202  1.00  0.00     0.022 A 
BRANCH  73  77
ATOM     77  S   UNL     1      -2.562   6.012  10.946  1.00  0.00     0.124 S 
ATOM     78  O   UNL     1      -3.110   4.780  10.384  1.00  0.00    -0.237 OA
ATOM     79  O   UNL     1      -1.289   6.457  10.391  1.00  0.00    -0.237 OA
ATOM     80  O   UNL     1      -2.687   6.135  12.397  1.00  0.00    -0.744 OA
ENDBRANCH  73  77
ENDBRANCH  56  70
BRANCH  57  81
ATOM     81  C   UNL     1      -7.332   8.032  -1.325  1.00  0.00     0.023 A 
ATOM     82  C   UNL     1      -6.449   8.468  -2.326  1.00  0.00     0.031 A 
ATOM     83  C   UNL     1      -8.638   7.677  -1.711  1.00  0.00     0.131 A 
ATOM     84  C   UNL     1      -6.895   8.585  -3.653  1.00  0.00     0.055 A 
ATOM     85  C   UNL     1      -9.058   7.735  -3.041  1.00  0.00     0.041 A 
ATOM     86  F   UNL     1      -9.530   7.267  -0.795  1.00  0.00    -0.206 F 
ATOM     87  C   UNL     1      -8.188   8.205  -4.019  1.00  0.00     0.022 A 
BRANCH  84  88
ATOM     88  S   UNL     1      -5.795   9.348  -4.878  1.00  0.00     0.124 S 
ATOM     89  O   UNL     1      -5.555  10.659  -4.285  1.00  0.00    -0.237 OA
ATOM     90  O   UNL     1      -4.662   8.429  -4.886  1.00  0.00    -0.237 OA
ATOM     91  O   UNL     1      -6.598   9.354  -6.100  1.00  0.00    -0.744 OA
ENDBRANCH  84  88
ENDBRANCH  57  81
BRANCH  69  92
ATOM     92  C   UNL     1      -5.356  13.059   3.102  1.00  0.00     0.023 A 
ATOM     93  C   UNL     1      -6.391  13.950   2.769  1.00  0.00     0.031 A 
ATOM     94  C   UNL     1      -4.060  13.585   3.258  1.00  0.00     0.131 A 
ATOM     95  C   UNL     1      -6.104  15.306   2.546  1.00  0.00     0.055 A 
ATOM     96  C   UNL     1      -3.793  14.946   3.103  1.00  0.00     0.041 A 
ATOM     97  F   UNL     1      -3.030  12.783   3.572  1.00  0.00    -0.206 F 
ATOM     98  C   UNL     1      -4.815  15.813   2.731  1.00  0.00     0.022 A 
BRANCH  95  99
ATOM     99  S   UNL     1      -7.417  16.384   1.911  1.00  0.00     0.124 S 
ATOM    100  O   UNL     1      -7.788  15.712   0.669  1.00  0.00    -0.237 OA
ATOM    101  O   UNL     1      -8.407  16.336   2.982  1.00  0.00    -0.237 OA
ATOM    102  O   UNL     1      -6.751  17.674   1.742  1.00  0.00    -0.744 OA
ENDBRANCH  95  99
ENDBRANCH  69  92
ENDBRANCH  43  44
ENDBRANCH  36  38
ENDBRANCH  35  36
ENDBRANCH  34  35
ENDBRANCH  33  34
ENDBRANCH  32  33
ENDBRANCH   1  32
TORSDOF 24
