REMARK SMILES Cc1cccc(-n2ncc(C(=O)Nc3cccc(C(=O)OCCOCCOCCOC(=O)c4ccc(-c5c6nc(c(-c7cc(S(=O)(=O)[O-])ccc7F)c7ccc([nH]7)c(-c7cc(S(=O)(=O)[O-])ccc7F)c7nc(c(-c8cc(S(=O)(=O)[O-])ccc8F)c8ccc5[nH]8)C=C7)C=C6)cc4)c3C)c2C)c1
REMARK SMILES IDX 25 1 24 2 23 3 22 4 21 5 19 6 20 7 18 8 14 9 15 10 96 11
REMARK SMILES IDX 16 12 97 13 17 14 13 15 11 16 12 17 10 19 7 20 8 21 98 22
REMARK SMILES IDX 9 23 99 24 6 25 1 26 2 27 3 28 100 29 4 30 5 31 26 32 27 33
REMARK SMILES IDX 28 34 29 35 30 36 31 37 32 38 33 39 34 40 95 41 35 42 94 43
REMARK SMILES IDX 36 44 37 45 38 46 88 47 39 48 93 49 87 50 89 51 40 52 92 53
REMARK SMILES IDX 86 54 85 55 41 57 73 58 53 59 72 60 54 61 57 62 71 63 90 64
REMARK SMILES IDX 55 65 56 66 70 68 91 69 58 70 42 71 43 72 51 73 44 74 50 75
REMARK SMILES IDX 52 76 49 77 45 78 46 79 47 80 48 81 74 82 75 83 83 84 76 85
REMARK SMILES IDX 82 86 84 87 81 88 77 89 78 90 79 91 80 92 59 93 60 94 68 95
REMARK SMILES IDX 61 96 67 97 69 98 66 99 62 100 63 101 64 102 65 103
REMARK H PARENT 13 18 89 56 57 67
REMARK Flexibility Score: inf
ROOT
ATOM      1  C   UNL     1      -2.949  13.552  -2.275  1.00  0.00     0.188 C 
ENDROOT
BRANCH   1   2
ATOM      2  O   UNL     1      -1.619  13.444  -2.792  1.00  0.00    -0.376 OA
BRANCH   2   3
ATOM      3  C   UNL     1      -1.387  12.884  -4.090  1.00  0.00     0.202 C 
BRANCH   3   4
ATOM      4  C   UNL     1      -0.940  11.362  -4.352  1.00  0.00     0.261 C 
BRANCH   4   5
ATOM      5  O   UNL     1      -1.798  10.249  -3.872  1.00  0.00    -0.460 OA
BRANCH   5   6
ATOM      6  C   UNL     1      -2.111   8.965  -4.296  1.00  0.00     0.338 C 
ATOM      7  O   UNL     1      -1.718   8.594  -5.398  1.00  0.00    -0.246 OA
BRANCH   6   8
ATOM      8  C   UNL     1      -3.174   7.888  -3.330  1.00  0.00     0.065 A 
ATOM      9  C   UNL     1      -4.113   6.210  -1.587  1.00  0.00     0.045 A 
ATOM     10  C   UNL     1      -4.540   5.409  -2.627  1.00  0.00     0.026 A 
ATOM     11  C   UNL     1      -3.386   7.425  -1.850  1.00  0.00    -0.013 A 
ATOM     12  C   UNL     1      -4.384   5.833  -3.946  1.00  0.00     0.003 A 
ATOM     13  C   UNL     1      -2.726   7.766  -0.454  1.00  0.00     0.047 C 
ATOM     14  C   UNL     1      -3.768   7.048  -4.285  1.00  0.00     0.016 A 
BRANCH   9  15
ATOM     15  N   UNL     1      -4.466   5.841  -0.261  1.00  0.00    -0.322 N 
ATOM     16  C   UNL     1      -4.127   4.760   0.530  1.00  0.00     0.259 C 
ATOM     17  O   UNL     1      -4.771   4.592   1.568  1.00  0.00    -0.269 OA
ATOM     18  H   UNL     1      -5.071   6.480   0.180  1.00  0.00     0.170 HD
BRANCH  16  19
ATOM     19  C   UNL     1      -2.985   3.912   0.206  1.00  0.00     0.081 A 
ATOM     20  N   UNL     1      -1.508   2.241   0.168  1.00  0.00    -0.237 N 
ATOM     21  N   UNL     1      -0.950   3.221  -0.575  1.00  0.00    -0.175 NA
ATOM     22  C   UNL     1      -2.671   2.678   0.786  1.00  0.00     0.054 A 
ATOM     23  C   UNL     1      -1.849   4.196  -0.573  1.00  0.00     0.149 A 
ATOM     24  C   UNL     1      -3.306   1.994   1.951  1.00  0.00     0.068 C 
BRANCH  20  25
ATOM     25  C   UNL     1      -0.884   0.968   0.172  1.00  0.00     0.065 A 
ATOM     26  C   UNL     1       2.670  -0.357  -0.121  1.00  0.00     0.044 C 
ATOM     27  C   UNL     1       1.175  -0.315  -0.023  1.00  0.00    -0.049 A 
ATOM     28  C   UNL     1       0.424  -1.494   0.040  1.00  0.00     0.003 A 
ATOM     29  C   UNL     1       0.509   0.912   0.016  1.00  0.00     0.031 A 
ATOM     30  C   UNL     1      -0.968  -1.444   0.166  1.00  0.00     0.002 A 
ATOM     31  C   UNL     1      -1.627  -0.214   0.245  1.00  0.00     0.028 A 
ENDBRANCH  20  25
ENDBRANCH  16  19
ENDBRANCH   9  15
ENDBRANCH   6   8
ENDBRANCH   5   6
ENDBRANCH   4   5
ENDBRANCH   3   4
ENDBRANCH   2   3
ENDBRANCH   1   2
BRANCH   1  32
ATOM     32  C   UNL     1      -4.089  14.130  -3.071  1.00  0.00     0.188 C 
BRANCH  32  33
ATOM     33  O   UNL     1      -4.376  13.257  -4.160  1.00  0.00    -0.376 OA
BRANCH  33  34
ATOM     34  C   UNL     1      -5.471  13.678  -4.952  1.00  0.00     0.202 C 
BRANCH  34  35
ATOM     35  C   UNL     1      -6.830  13.683  -4.220  1.00  0.00     0.261 C 
BRANCH  35  36
ATOM     36  O   UNL     1      -7.295  12.352  -3.888  1.00  0.00    -0.460 OA
BRANCH  36  37
ATOM     37  C   UNL     1      -7.356  12.013  -2.548  1.00  0.00     0.338 C 
ATOM     38  O   UNL     1      -8.306  12.229  -1.844  1.00  0.00    -0.246 OA
BRANCH  37  39
ATOM     39  C   UNL     1      -6.160  11.185  -2.170  1.00  0.00     0.060 A 
ATOM     40  C   UNL     1      -5.608  11.037  -0.892  1.00  0.00     0.016 A 
ATOM     41  C   UNL     1      -5.452  10.660  -3.201  1.00  0.00     0.016 A 
ATOM     42  C   UNL     1      -4.256  10.540  -0.694  1.00  0.00     0.010 A 
ATOM     43  C   UNL     1      -4.106  10.387  -2.991  1.00  0.00     0.010 A 
ATOM     44  C   UNL     1      -3.380  10.258  -1.758  1.00  0.00    -0.014 A 
BRANCH  44  45
ATOM     45  C   UNL     1      -1.696  10.039  -1.582  1.00  0.00     0.031 A 
ATOM     46  C   UNL     1      -0.581   8.774  -2.015  1.00  0.00     0.074 A 
ATOM     47  C   UNL     1      -1.041  11.065  -0.994  1.00  0.00     0.049 A 
ATOM     48  N   UNL     1       0.700   8.878  -1.749  1.00  0.00    -0.248 NA
ATOM     49  C   UNL     1      -0.705   7.404  -2.655  1.00  0.00     0.031 C 
ATOM     50  C   UNL     1       0.382  11.386  -0.975  1.00  0.00     0.029 A 
ATOM     51  N   UNL     1      -1.579  12.031  -0.150  1.00  0.00    -0.354 N 
ATOM     52  C   UNL     1       1.413   7.941  -2.480  1.00  0.00     0.074 A 
ATOM     53  C   UNL     1       0.516   6.950  -2.883  1.00  0.00     0.031 C 
ATOM     54  C   UNL     1       0.628  12.197   0.063  1.00  0.00     0.029 A 
ATOM     55  C   UNL     1      -0.602  12.300   0.817  1.00  0.00     0.049 A 
ATOM     56  H   UNL     1      -2.471  12.443  -0.219  1.00  0.00     0.167 HD
ATOM     57  C   UNL     1       2.714   8.109  -2.800  1.00  0.00     0.034 A 
ATOM     58  C   UNL     1      -0.844  11.976   2.114  1.00  0.00     0.034 A 
ATOM     59  C   UNL     1       3.347   8.866  -1.748  1.00  0.00     0.049 A 
ATOM     60  C   UNL     1       0.149  10.917   2.576  1.00  0.00     0.074 A 
ATOM     61  C   UNL     1       3.848  10.131  -1.551  1.00  0.00     0.029 A 
ATOM     62  N   UNL     1       3.186   8.330  -0.487  1.00  0.00    -0.354 N 
ATOM     63  N   UNL     1       1.235  10.599   1.912  1.00  0.00    -0.248 NA
ATOM     64  C   UNL     1      -0.015  10.079   3.759  1.00  0.00     0.031 C 
ATOM     65  C   UNL     1       3.771  10.392  -0.131  1.00  0.00     0.029 A 
ATOM     66  C   UNL     1       3.302   9.256   0.518  1.00  0.00     0.049 A 
ATOM     67  H   UNL     1       3.005   7.375  -0.324  1.00  0.00     0.167 HD
ATOM     68  C   UNL     1       1.813   9.480   2.439  1.00  0.00     0.074 A 
ATOM     69  C   UNL     1       1.006   9.212   3.625  1.00  0.00     0.031 C 
ATOM     70  C   UNL     1       2.865   8.821   1.849  1.00  0.00     0.034 A 
BRANCH  57  71
ATOM     71  C   UNL     1       3.319   7.582  -4.085  1.00  0.00     0.023 A 
ATOM     72  C   UNL     1       4.699   7.721  -4.287  1.00  0.00     0.031 A 
ATOM     73  C   UNL     1       2.588   7.107  -5.213  1.00  0.00     0.131 A 
ATOM     74  C   UNL     1       5.283   7.427  -5.538  1.00  0.00     0.055 A 
ATOM     75  C   UNL     1       3.182   6.748  -6.429  1.00  0.00     0.041 A 
ATOM     76  F   UNL     1       1.250   7.025  -5.229  1.00  0.00    -0.206 F 
ATOM     77  C   UNL     1       4.539   6.923  -6.604  1.00  0.00     0.022 A 
BRANCH  74  78
ATOM     78  S   UNL     1       7.035   7.809  -5.789  1.00  0.00     0.124 S 
ATOM     79  O   UNL     1       7.045   9.264  -5.675  1.00  0.00    -0.237 OA
ATOM     80  O   UNL     1       7.672   7.069  -4.705  1.00  0.00    -0.237 OA
ATOM     81  O   UNL     1       7.308   7.294  -7.130  1.00  0.00    -0.744 OA
ENDBRANCH  74  78
ENDBRANCH  57  71
BRANCH  58  82
ATOM     82  C   UNL     1      -2.290  12.241   2.472  1.00  0.00     0.023 A 
ATOM     83  C   UNL     1      -2.804  13.530   2.123  1.00  0.00     0.031 A 
ATOM     84  C   UNL     1      -3.242  11.257   2.769  1.00  0.00     0.131 A 
ATOM     85  C   UNL     1      -4.178  13.750   1.927  1.00  0.00     0.055 A 
ATOM     86  C   UNL     1      -4.627  11.508   2.656  1.00  0.00     0.041 A 
ATOM     87  F   UNL     1      -2.870   9.994   3.022  1.00  0.00    -0.206 F 
ATOM     88  C   UNL     1      -5.096  12.741   2.196  1.00  0.00     0.022 A 
BRANCH  85  89
ATOM     89  S   UNL     1      -4.768  15.255   1.077  1.00  0.00     0.124 S 
ATOM     90  O   UNL     1      -5.392  15.998   2.166  1.00  0.00    -0.237 OA
ATOM     91  O   UNL     1      -3.553  15.844   0.524  1.00  0.00    -0.237 OA
ATOM     92  O   UNL     1      -5.683  14.717   0.071  1.00  0.00    -0.744 OA
ENDBRANCH  85  89
ENDBRANCH  58  82
BRANCH  70  93
ATOM     93  C   UNL     1       3.486   7.595   2.496  1.00  0.00     0.023 A 
ATOM     94  C   UNL     1       3.660   7.568   3.882  1.00  0.00     0.031 A 
ATOM     95  C   UNL     1       3.955   6.453   1.799  1.00  0.00     0.131 A 
ATOM     96  C   UNL     1       4.125   6.413   4.527  1.00  0.00     0.055 A 
ATOM     97  C   UNL     1       4.542   5.356   2.434  1.00  0.00     0.041 A 
ATOM     98  F   UNL     1       3.821   6.304   0.475  1.00  0.00    -0.206 F 
ATOM     99  C   UNL     1       4.601   5.317   3.814  1.00  0.00     0.022 A 
BRANCH  96 100
ATOM    100  S   UNL     1       3.947   6.328   6.321  1.00  0.00     0.124 S 
ATOM    101  O   UNL     1       4.551   7.580   6.761  1.00  0.00    -0.237 OA
ATOM    102  O   UNL     1       2.495   6.241   6.460  1.00  0.00    -0.237 OA
ATOM    103  O   UNL     1       4.682   5.118   6.680  1.00  0.00    -0.744 OA
ENDBRANCH  96 100
ENDBRANCH  70  93
ENDBRANCH  44  45
ENDBRANCH  37  39
ENDBRANCH  36  37
ENDBRANCH  35  36
ENDBRANCH  34  35
ENDBRANCH  33  34
ENDBRANCH  32  33
ENDBRANCH   1  32
TORSDOF 23
