REMARK SMILES Cc1cc(F)c([C@@](C)(C(=O)OCCOCCOCCOC(=O)c2ccc(-c3c4nc(c(-c5cc(S(=O)(=O)[O-])ccc5F)c5ccc([nH]5)c(-c5cc(S(=O)(=O)[O-])ccc5F)c5nc(c(-c6cc(S(=O)(=O)[O-])ccc6F)c6ccc3[nH]6)C=C5)C=C4)cc2)[NH+]2CC[NH2+]CC2)cc1F
REMARK SMILES IDX 16 1 15 2 14 3 13 4 12 5 11 6 9 7 10 8 7 9 8 10 6 11 1 12
REMARK SMILES IDX 2 13 3 14 93 15 4 16 92 17 94 18 5 19 86 20 87 21 91 22
REMARK SMILES IDX 88 24 90 25 89 26 17 29 18 30 19 31 20 32 21 33 22 34 23 35
REMARK SMILES IDX 24 36 85 37 25 38 84 39 26 40 27 41 28 42 78 43 29 44 83 45
REMARK SMILES IDX 77 46 79 47 30 48 82 49 76 50 75 51 31 53 63 54 43 55 62 56
REMARK SMILES IDX 44 57 47 58 61 59 80 60 45 61 46 62 60 64 81 65 48 66 32 67
REMARK SMILES IDX 33 68 41 69 34 70 40 71 42 72 39 73 35 74 36 75 37 76 38 77
REMARK SMILES IDX 64 78 65 79 73 80 66 81 72 82 74 83 71 84 67 85 68 86 69 87
REMARK SMILES IDX 70 88 49 89 50 90 58 91 51 92 57 93 59 94 56 95 52 96 53 97
REMARK SMILES IDX 54 98 55 99
REMARK H PARENT 86 23 89 27 89 28 79 52 47 63
REMARK Flexibility Score: inf
ROOT
ATOM      1  C   UNL     1       2.233  -2.982   4.708  1.00  0.00     0.188 C 
ENDROOT
BRANCH   1   2
ATOM      2  C   UNL     1       2.052  -3.900   5.934  1.00  0.00     0.188 C 
BRANCH   2   3
ATOM      3  O   UNL     1       2.801  -5.105   6.004  1.00  0.00    -0.376 OA
BRANCH   3   4
ATOM      4  C   UNL     1       2.760  -5.989   4.889  1.00  0.00     0.202 C 
BRANCH   4   5
ATOM      5  C   UNL     1       1.372  -6.424   4.427  1.00  0.00     0.261 C 
BRANCH   5   6
ATOM      6  O   UNL     1       0.719  -5.378   3.677  1.00  0.00    -0.458 OA
BRANCH   6   7
ATOM      7  C   UNL     1      -0.590  -5.148   3.962  1.00  0.00     0.372 C 
ATOM      8  O   UNL     1      -1.180  -5.753   4.857  1.00  0.00    -0.244 OA
BRANCH   7   9
ATOM      9  C   UNL     1      -1.313  -4.114   3.010  1.00  0.00     0.221 C 
ATOM     10  C   UNL     1      -2.086  -5.053   2.048  1.00  0.00     0.098 C 
BRANCH   9  11
ATOM     11  C   UNL     1      -0.431  -3.195   2.112  1.00  0.00     0.062 A 
ATOM     12  C   UNL     1       1.783  -0.508  -0.540  1.00  0.00     0.047 C 
ATOM     13  C   UNL     1       1.056  -1.436   0.382  1.00  0.00    -0.012 A 
ATOM     14  C   UNL     1       1.329  -2.806   0.433  1.00  0.00     0.046 A 
ATOM     15  C   UNL     1       0.019  -0.963   1.166  1.00  0.00     0.126 A 
ATOM     16  C   UNL     1       0.590  -3.664   1.271  1.00  0.00     0.133 A 
ATOM     17  C   UNL     1      -0.702  -1.818   1.995  1.00  0.00     0.053 A 
ATOM     18  F   UNL     1      -0.332   0.330   1.117  1.00  0.00    -0.207 F 
ATOM     19  F   UNL     1       0.860  -4.974   1.193  1.00  0.00    -0.206 F 
ENDBRANCH   9  11
BRANCH   9  20
ATOM     20  N   UNL     1      -2.236  -3.322   3.870  1.00  0.00    -0.308 N 
ATOM     21  C   UNL     1      -1.763  -2.598   5.043  1.00  0.00     0.325 C 
ATOM     22  C   UNL     1      -3.642  -3.096   3.592  1.00  0.00     0.325 C 
ATOM     23  H   UNL     1      -2.036  -4.282   3.588  1.00  0.00     0.349 HD
ATOM     24  C   UNL     1      -2.141  -1.094   5.026  1.00  0.00     0.322 C 
ATOM     25  C   UNL     1      -3.977  -1.594   3.464  1.00  0.00     0.322 C 
ATOM     26  N   UNL     1      -3.481  -0.735   4.546  1.00  0.00    -0.337 N 
ATOM     27  H   UNL     1      -3.453   0.226   4.205  1.00  0.00     0.346 HD
ATOM     28  H   UNL     1      -4.119  -0.852   5.333  1.00  0.00     0.346 HD
ENDBRANCH   9  20
ENDBRANCH   7   9
ENDBRANCH   6   7
ENDBRANCH   5   6
ENDBRANCH   4   5
ENDBRANCH   3   4
ENDBRANCH   2   3
ENDBRANCH   1   2
BRANCH   1  29
ATOM     29  O   UNL     1       3.386  -3.102   3.892  1.00  0.00    -0.376 OA
BRANCH  29  30
ATOM     30  C   UNL     1       4.654  -3.094   4.533  1.00  0.00     0.202 C 
BRANCH  30  31
ATOM     31  C   UNL     1       5.029  -1.827   5.305  1.00  0.00     0.261 C 
BRANCH  31  32
ATOM     32  O   UNL     1       4.153  -1.587   6.421  1.00  0.00    -0.460 OA
BRANCH  32  33
ATOM     33  C   UNL     1       3.551  -0.369   6.429  1.00  0.00     0.338 C 
ATOM     34  O   UNL     1       3.730   0.544   5.644  1.00  0.00    -0.246 OA
BRANCH  33  35
ATOM     35  C   UNL     1       2.475  -0.364   7.438  1.00  0.00     0.060 A 
ATOM     36  C   UNL     1       2.759  -0.389   8.804  1.00  0.00     0.016 A 
ATOM     37  C   UNL     1       1.155  -0.239   6.990  1.00  0.00     0.016 A 
ATOM     38  C   UNL     1       1.709  -0.271   9.727  1.00  0.00     0.010 A 
ATOM     39  C   UNL     1       0.117  -0.128   7.913  1.00  0.00     0.010 A 
ATOM     40  C   UNL     1       0.380  -0.131   9.287  1.00  0.00    -0.014 A 
BRANCH  40  41
ATOM     41  C   UNL     1      -0.709   0.254  10.220  1.00  0.00     0.031 A 
ATOM     42  C   UNL     1      -1.789  -0.697  10.643  1.00  0.00     0.074 A 
ATOM     43  C   UNL     1      -0.783   1.548  10.585  1.00  0.00     0.049 A 
ATOM     44  N   UNL     1      -2.716  -0.526  11.551  1.00  0.00    -0.248 NA
ATOM     45  C   UNL     1      -1.866  -1.985   9.941  1.00  0.00     0.031 C 
ATOM     46  C   UNL     1       0.107   2.600  10.092  1.00  0.00     0.029 A 
ATOM     47  N   UNL     1      -1.641   2.202  11.431  1.00  0.00    -0.354 N 
ATOM     48  C   UNL     1      -3.469  -1.694  11.557  1.00  0.00     0.074 A 
ATOM     49  C   UNL     1      -2.936  -2.536  10.506  1.00  0.00     0.031 C 
ATOM     50  C   UNL     1      -0.228   3.761  10.669  1.00  0.00     0.029 A 
ATOM     51  C   UNL     1      -1.350   3.538  11.578  1.00  0.00     0.049 A 
ATOM     52  H   UNL     1      -2.392   1.759  11.888  1.00  0.00     0.167 HD
ATOM     53  C   UNL     1      -4.485  -2.035  12.390  1.00  0.00     0.034 A 
ATOM     54  C   UNL     1      -1.894   4.471  12.384  1.00  0.00     0.034 A 
ATOM     55  C   UNL     1      -5.002  -1.161  13.418  1.00  0.00     0.049 A 
ATOM     56  C   UNL     1      -2.963   4.054  13.359  1.00  0.00     0.074 A 
ATOM     57  C   UNL     1      -5.944  -1.446  14.392  1.00  0.00     0.029 A 
ATOM     58  N   UNL     1      -4.641   0.168  13.596  1.00  0.00    -0.354 N 
ATOM     59  N   UNL     1      -3.520   2.876  13.515  1.00  0.00    -0.248 NA
ATOM     60  C   UNL     1      -3.452   5.076  14.293  1.00  0.00     0.031 C 
ATOM     61  C   UNL     1      -6.199  -0.278  15.113  1.00  0.00     0.029 A 
ATOM     62  C   UNL     1      -5.362   0.722  14.643  1.00  0.00     0.049 A 
ATOM     63  H   UNL     1      -3.970   0.647  13.058  1.00  0.00     0.167 HD
ATOM     64  C   UNL     1      -4.406   3.008  14.581  1.00  0.00     0.074 A 
ATOM     65  C   UNL     1      -4.287   4.374  15.049  1.00  0.00     0.031 C 
ATOM     66  C   UNL     1      -5.242   2.082  15.116  1.00  0.00     0.034 A 
BRANCH  53  67
ATOM     67  C   UNL     1      -5.072  -3.427  12.304  1.00  0.00     0.023 A 
ATOM     68  C   UNL     1      -6.450  -3.616  12.081  1.00  0.00     0.031 A 
ATOM     69  C   UNL     1      -4.295  -4.556  12.624  1.00  0.00     0.131 A 
ATOM     70  C   UNL     1      -7.011  -4.894  12.220  1.00  0.00     0.055 A 
ATOM     71  C   UNL     1      -4.851  -5.833  12.718  1.00  0.00     0.041 A 
ATOM     72  F   UNL     1      -2.979  -4.433  12.866  1.00  0.00    -0.206 F 
ATOM     73  C   UNL     1      -6.218  -6.004  12.530  1.00  0.00     0.022 A 
BRANCH  70  74
ATOM     74  S   UNL     1      -8.802  -5.161  12.088  1.00  0.00     0.124 S 
ATOM     75  O   UNL     1      -8.881  -6.130  10.997  1.00  0.00    -0.237 OA
ATOM     76  O   UNL     1      -9.132  -5.685  13.411  1.00  0.00    -0.237 OA
ATOM     77  O   UNL     1      -9.333  -3.837  11.783  1.00  0.00    -0.744 OA
ENDBRANCH  70  74
ENDBRANCH  53  67
BRANCH  54  78
ATOM     78  C   UNL     1      -1.300   5.838  12.390  1.00  0.00     0.023 A 
ATOM     79  C   UNL     1      -1.350   6.661  11.251  1.00  0.00     0.031 A 
ATOM     80  C   UNL     1      -0.540   6.273  13.490  1.00  0.00     0.131 A 
ATOM     81  C   UNL     1      -0.600   7.844  11.216  1.00  0.00     0.055 A 
ATOM     82  C   UNL     1       0.150   7.485  13.476  1.00  0.00     0.041 A 
ATOM     83  F   UNL     1      -0.442   5.507  14.588  1.00  0.00    -0.206 F 
ATOM     84  C   UNL     1       0.136   8.269  12.328  1.00  0.00     0.022 A 
BRANCH  81  85
ATOM     85  S   UNL     1      -0.433   8.797   9.681  1.00  0.00     0.124 S 
ATOM     86  O   UNL     1      -0.997  10.088  10.062  1.00  0.00    -0.237 OA
ATOM     87  O   UNL     1       1.014   8.777   9.474  1.00  0.00    -0.237 OA
ATOM     88  O   UNL     1      -1.208   8.028   8.713  1.00  0.00    -0.744 OA
ENDBRANCH  81  85
ENDBRANCH  54  78
BRANCH  66  89
ATOM     89  C   UNL     1      -6.123   2.488  16.275  1.00  0.00     0.023 A 
ATOM     90  C   UNL     1      -6.001   1.836  17.518  1.00  0.00     0.031 A 
ATOM     91  C   UNL     1      -7.170   3.412  16.111  1.00  0.00     0.131 A 
ATOM     92  C   UNL     1      -6.933   2.088  18.533  1.00  0.00     0.055 A 
ATOM     93  C   UNL     1      -8.066   3.697  17.143  1.00  0.00     0.041 A 
ATOM     94  F   UNL     1      -7.338   4.052  14.943  1.00  0.00    -0.206 F 
ATOM     95  C   UNL     1      -7.959   3.023  18.355  1.00  0.00     0.022 A 
BRANCH  92  96
ATOM     96  S   UNL     1      -6.906   1.152  20.087  1.00  0.00     0.124 S 
ATOM     97  O   UNL     1      -6.691   2.209  21.073  1.00  0.00    -0.237 OA
ATOM     98  O   UNL     1      -8.235   0.545  20.104  1.00  0.00    -0.237 OA
ATOM     99  O   UNL     1      -5.794   0.222  19.919  1.00  0.00    -0.744 OA
ENDBRANCH  92  96
ENDBRANCH  66  89
ENDBRANCH  40  41
ENDBRANCH  33  35
ENDBRANCH  32  33
ENDBRANCH  31  32
ENDBRANCH  30  31
ENDBRANCH  29  30
ENDBRANCH   1  29
TORSDOF 22
