REMARK SMILES CCn1nc(C(=O)OCCOCCOCCOC(=O)c2ccc(-c3c4nc(c(-c5cc(S(=O)(=O)[O-])ccc5F)c5ccc([nH]5)c(-c5cc(S(=O)(=O)[O-])ccc5F)c5nc(c(-c6cc(S(=O)(=O)[O-])ccc6F)c6ccc3[nH]6)C=C5)C=C4)cc2)c2c1CC[C@H]([NH2+]Cc1nn(CC)c3ccccc13)C2
REMARK SMILES IDX 12 1 11 2 10 3 9 4 8 5 6 6 7 7 5 8 3 9 4 10 84 11 83 12
REMARK SMILES IDX 85 13 101 14 86 15 87 16 2 17 1 18 88 19 89 22 90 23 91 24
REMARK SMILES IDX 100 25 92 26 95 27 99 28 96 29 98 30 97 31 93 32 94 33 13 34
REMARK SMILES IDX 14 35 15 36 16 37 17 38 18 39 19 40 20 41 21 42 82 43 22 44
REMARK SMILES IDX 81 45 23 46 24 47 25 48 75 49 26 50 80 51 74 52 76 53 27 54
REMARK SMILES IDX 79 55 73 56 72 57 28 59 60 60 40 61 59 62 41 63 44 64 58 65
REMARK SMILES IDX 77 66 42 67 43 68 57 70 78 71 45 72 29 73 30 74 38 75 31 76
REMARK SMILES IDX 37 77 39 78 36 79 32 80 33 81 34 82 35 83 61 84 62 85 70 86
REMARK SMILES IDX 63 87 69 88 71 89 68 90 64 91 65 92 66 93 67 94 46 95 47 96
REMARK SMILES IDX 55 97 48 98 54 99 56 100 53 101 49 102 50 103 51 104 52 105
REMARK H PARENT 88 20 88 21 76 58 44 69
REMARK Flexibility Score: inf
ROOT
ATOM      1  C   UNL     1       0.394   3.006  -8.134  1.00  0.00     0.188 C 
ENDROOT
BRANCH   1   2
ATOM      2  O   UNL     1       1.521   3.511  -8.884  1.00  0.00    -0.376 OA
BRANCH   2   3
ATOM      3  C   UNL     1       2.981   3.532  -8.781  1.00  0.00     0.202 C 
BRANCH   3   4
ATOM      4  C   UNL     1       4.168   4.157  -7.595  1.00  0.00     0.261 C 
BRANCH   4   5
ATOM      5  O   UNL     1       4.497   3.791  -5.916  1.00  0.00    -0.458 OA
BRANCH   5   6
ATOM      6  C   UNL     1       4.637   3.335  -4.529  1.00  0.00     0.359 C 
ATOM      7  O   UNL     1       5.483   3.960  -3.882  1.00  0.00    -0.244 OA
BRANCH   6   8
ATOM      8  C   UNL     1       3.824   2.122  -3.692  1.00  0.00     0.174 A 
ATOM      9  N   UNL     1       2.476   1.444  -2.076  1.00  0.00    -0.269 N 
ATOM     10  N   UNL     1       3.276   2.476  -2.490  1.00  0.00    -0.165 NA
ATOM     11  C   UNL     1       2.594   0.319  -2.837  1.00  0.00     0.043 A 
ATOM     12  C   UNL     1       3.344   0.732  -3.910  1.00  0.00     0.014 A 
ATOM     13  C   UNL     1       1.836  -0.999  -2.749  1.00  0.00     0.062 C 
ATOM     14  C   UNL     1       3.240  -0.150  -5.073  1.00  0.00     0.105 C 
ATOM     15  C   UNL     1       2.227  -2.010  -3.886  1.00  0.00     0.072 C 
ATOM     16  C   UNL     1       2.226  -1.290  -5.234  1.00  0.00     0.187 C 
BRANCH   9  17
ATOM     17  C   UNL     1       1.458   1.687  -1.062  1.00  0.00     0.141 C 
ATOM     18  C   UNL     1       1.339   0.593  -0.011  1.00  0.00     0.029 C 
ENDBRANCH   9  17
BRANCH  16  19
ATOM     19  N   UNL     1       2.536  -2.065  -6.481  1.00  0.00    -0.338 N 
ATOM     20  H   UNL     1       2.000  -2.932  -6.453  1.00  0.00     0.346 HD
ATOM     21  H   UNL     1       3.546  -2.208  -6.480  1.00  0.00     0.346 HD
BRANCH  19  22
ATOM     22  C   UNL     1       2.213  -1.353  -7.788  1.00  0.00     0.320 C 
BRANCH  22  23
ATOM     23  C   UNL     1       2.845   0.013  -7.902  1.00  0.00     0.124 A 
ATOM     24  N   UNL     1       2.157   1.073  -7.508  1.00  0.00    -0.171 NA
ATOM     25  C   UNL     1       4.176   0.375  -8.104  1.00  0.00     0.029 A 
ATOM     26  N   UNL     1       2.998   1.937  -6.897  1.00  0.00    -0.265 N 
ATOM     27  C   UNL     1       4.352   1.429  -7.173  1.00  0.00     0.069 A 
ATOM     28  C   UNL     1       5.271  -0.209  -8.773  1.00  0.00     0.012 A 
ATOM     29  C   UNL     1       5.702   1.630  -6.749  1.00  0.00     0.028 A 
ATOM     30  C   UNL     1       6.568   0.197  -8.487  1.00  0.00     0.001 A 
ATOM     31  C   UNL     1       6.782   1.054  -7.431  1.00  0.00     0.002 A 
BRANCH  26  32
ATOM     32  C   UNL     1       2.231   2.951  -6.030  1.00  0.00     0.141 C 
ATOM     33  C   UNL     1       1.902   4.543  -6.212  1.00  0.00     0.029 C 
ENDBRANCH  26  32
ENDBRANCH  22  23
ENDBRANCH  19  22
ENDBRANCH  16  19
ENDBRANCH   6   8
ENDBRANCH   5   6
ENDBRANCH   4   5
ENDBRANCH   3   4
ENDBRANCH   2   3
ENDBRANCH   1   2
BRANCH   1  34
ATOM     34  C   UNL     1      -0.377   1.619  -7.957  1.00  0.00     0.188 C 
BRANCH  34  35
ATOM     35  O   UNL     1      -1.103   0.977  -8.988  1.00  0.00    -0.376 OA
BRANCH  35  36
ATOM     36  C   UNL     1      -1.113   1.615 -10.238  1.00  0.00     0.202 C 
BRANCH  36  37
ATOM     37  C   UNL     1      -2.184   2.697 -10.399  1.00  0.00     0.261 C 
BRANCH  37  38
ATOM     38  O   UNL     1      -2.168   3.710  -9.395  1.00  0.00    -0.460 OA
BRANCH  38  39
ATOM     39  C   UNL     1      -2.761   3.428  -8.210  1.00  0.00     0.338 C 
ATOM     40  O   UNL     1      -3.379   2.413  -7.917  1.00  0.00    -0.246 OA
BRANCH  39  41
ATOM     41  C   UNL     1      -2.566   4.580  -7.276  1.00  0.00     0.060 A 
ATOM     42  C   UNL     1      -3.529   4.603  -6.271  1.00  0.00     0.016 A 
ATOM     43  C   UNL     1      -2.073   5.766  -7.842  1.00  0.00     0.016 A 
ATOM     44  C   UNL     1      -4.402   5.659  -6.314  1.00  0.00     0.010 A 
ATOM     45  C   UNL     1      -2.947   6.819  -7.901  1.00  0.00     0.010 A 
ATOM     46  C   UNL     1      -4.170   6.660  -7.261  1.00  0.00    -0.014 A 
BRANCH  46  47
ATOM     47  C   UNL     1      -5.291   7.488  -7.633  1.00  0.00     0.031 A 
ATOM     48  C   UNL     1      -5.615   8.514  -6.638  1.00  0.00     0.074 A 
ATOM     49  C   UNL     1      -5.931   7.343  -8.809  1.00  0.00     0.049 A 
ATOM     50  N   UNL     1      -6.696   8.623  -5.948  1.00  0.00    -0.248 NA
ATOM     51  C   UNL     1      -4.534   9.424  -6.238  1.00  0.00     0.031 C 
ATOM     52  C   UNL     1      -5.544   6.524  -9.961  1.00  0.00     0.029 A 
ATOM     53  N   UNL     1      -7.014   8.026  -9.262  1.00  0.00    -0.354 N 
ATOM     54  C   UNL     1      -6.511   9.742  -5.152  1.00  0.00     0.074 A 
ATOM     55  C   UNL     1      -5.113  10.068  -5.229  1.00  0.00     0.031 C 
ATOM     56  C   UNL     1      -6.225   6.955 -11.047  1.00  0.00     0.029 A 
ATOM     57  C   UNL     1      -7.156   7.997 -10.642  1.00  0.00     0.049 A 
ATOM     58  H   UNL     1      -7.641   8.498  -8.667  1.00  0.00     0.167 HD
ATOM     59  C   UNL     1      -7.568  10.437  -4.659  1.00  0.00     0.034 A 
ATOM     60  C   UNL     1      -7.886   8.866 -11.389  1.00  0.00     0.034 A 
ATOM     61  C   UNL     1      -8.779   9.651  -4.699  1.00  0.00     0.049 A 
ATOM     62  C   UNL     1      -8.915   9.456 -10.488  1.00  0.00     0.074 A 
ATOM     63  C   UNL     1      -9.151   8.443  -4.138  1.00  0.00     0.029 A 
ATOM     64  N   UNL     1      -9.688   9.887  -5.708  1.00  0.00    -0.354 N 
ATOM     65  N   UNL     1      -9.878   8.760  -9.945  1.00  0.00    -0.248 NA
ATOM     66  C   UNL     1      -8.604  10.702  -9.798  1.00  0.00     0.031 C 
ATOM     67  C   UNL     1      -9.939   7.797  -5.134  1.00  0.00     0.029 A 
ATOM     68  C   UNL     1     -10.057   8.665  -6.222  1.00  0.00     0.049 A 
ATOM     69  H   UNL     1     -10.013  10.768  -6.006  1.00  0.00     0.167 HD
ATOM     70  C   UNL     1      -9.982   9.232  -8.644  1.00  0.00     0.074 A 
ATOM     71  C   UNL     1      -9.257  10.501  -8.648  1.00  0.00     0.031 C 
ATOM     72  C   UNL     1     -10.386   8.423  -7.617  1.00  0.00     0.034 A 
BRANCH  59  73
ATOM     73  C   UNL     1      -7.554  11.922  -4.416  1.00  0.00     0.023 A 
ATOM     74  C   UNL     1      -8.696  12.491  -3.830  1.00  0.00     0.031 A 
ATOM     75  C   UNL     1      -6.612  12.835  -4.949  1.00  0.00     0.131 A 
ATOM     76  C   UNL     1      -8.900  13.880  -3.854  1.00  0.00     0.055 A 
ATOM     77  C   UNL     1      -6.781  14.219  -4.899  1.00  0.00     0.041 A 
ATOM     78  F   UNL     1      -5.530  12.447  -5.635  1.00  0.00    -0.206 F 
ATOM     79  C   UNL     1      -7.945  14.749  -4.375  1.00  0.00     0.022 A 
BRANCH  76  80
ATOM     80  S   UNL     1     -10.520  14.514  -3.361  1.00  0.00     0.124 S 
ATOM     81  O   UNL     1     -11.421  13.680  -4.150  1.00  0.00    -0.237 OA
ATOM     82  O   UNL     1     -10.510  14.271  -1.923  1.00  0.00    -0.237 OA
ATOM     83  O   UNL     1     -10.466  15.919  -3.758  1.00  0.00    -0.744 OA
ENDBRANCH  76  80
ENDBRANCH  59  73
BRANCH  60  84
ATOM     84  C   UNL     1      -7.487   9.427 -12.712  1.00  0.00     0.023 A 
ATOM     85  C   UNL     1      -8.394  10.088 -13.563  1.00  0.00     0.031 A 
ATOM     86  C   UNL     1      -6.120   9.497 -13.079  1.00  0.00     0.131 A 
ATOM     87  C   UNL     1      -7.929  10.752 -14.724  1.00  0.00     0.055 A 
ATOM     88  C   UNL     1      -5.670  10.130 -14.238  1.00  0.00     0.041 A 
ATOM     89  F   UNL     1      -5.152   9.028 -12.276  1.00  0.00    -0.206 F 
ATOM     90  C   UNL     1      -6.575  10.767 -15.066  1.00  0.00     0.022 A 
BRANCH  87  91
ATOM     91  S   UNL     1      -9.077  11.720 -15.755  1.00  0.00     0.124 S 
ATOM     92  O   UNL     1      -9.820  10.678 -16.452  1.00  0.00    -0.237 OA
ATOM     93  O   UNL     1      -9.816  12.493 -14.763  1.00  0.00    -0.237 OA
ATOM     94  O   UNL     1      -8.185  12.513 -16.602  1.00  0.00    -0.744 OA
ENDBRANCH  87  91
ENDBRANCH  60  84
BRANCH  72  95
ATOM     95  C   UNL     1     -10.980   7.064  -7.951  1.00  0.00     0.023 A 
ATOM     96  C   UNL     1     -10.331   6.080  -8.731  1.00  0.00     0.031 A 
ATOM     97  C   UNL     1     -12.188   6.700  -7.327  1.00  0.00     0.131 A 
ATOM     98  C   UNL     1     -10.898   4.798  -8.873  1.00  0.00     0.055 A 
ATOM     99  C   UNL     1     -12.733   5.420  -7.448  1.00  0.00     0.041 A 
ATOM    100  F   UNL     1     -12.843   7.575  -6.546  1.00  0.00    -0.206 F 
ATOM    101  C   UNL     1     -12.092   4.465  -8.227  1.00  0.00     0.022 A 
BRANCH  98 102
ATOM    102  S   UNL     1     -10.092   3.541  -9.916  1.00  0.00     0.124 S 
ATOM    103  O   UNL     1      -9.780   4.263 -11.143  1.00  0.00    -0.237 OA
ATOM    104  O   UNL     1      -8.950   3.141  -9.098  1.00  0.00    -0.237 OA
ATOM    105  O   UNL     1     -11.123   2.511 -10.063  1.00  0.00    -0.744 OA
ENDBRANCH  98 102
ENDBRANCH  72  95
ENDBRANCH  46  47
ENDBRANCH  39  41
ENDBRANCH  38  39
ENDBRANCH  37  38
ENDBRANCH  36  37
ENDBRANCH  35  36
ENDBRANCH  34  35
ENDBRANCH   1  34
TORSDOF 25
