REMARK SMILES C[C@](NC(=O)NCCC[NH3+])(C(=O)OCCOCCOCCOC(=O)c1ccc(-c2c3nc(c(-c4cc(S(=O)(=O)[O-])ccc4F)c4ccc([nH]4)c(-c4cc(S(=O)(=O)[O-])ccc4F)c4nc(c(-c5cc(S(=O)(=O)[O-])ccc5F)c5ccc2[nH]5)C=C4)C=C3)cc1)C(F)(F)F
REMARK SMILES IDX 17 1 16 2 15 3 14 4 13 5 11 6 12 7 2 8 1 9 88 10 89 11 90 12
REMARK SMILES IDX 91 13 3 14 4 15 5 17 6 18 7 20 8 21 9 22 10 23 18 27 19 28
REMARK SMILES IDX 20 29 21 30 22 31 23 32 24 33 25 34 26 35 87 36 27 37 86 38
REMARK SMILES IDX 28 39 29 40 30 41 80 42 31 43 85 44 79 45 81 46 32 47 84 48
REMARK SMILES IDX 78 49 77 50 33 52 65 53 45 54 64 55 46 56 49 57 63 58 82 59
REMARK SMILES IDX 47 60 48 61 62 63 83 64 50 65 34 66 35 67 43 68 36 69 42 70
REMARK SMILES IDX 44 71 41 72 37 73 38 74 39 75 40 76 66 77 67 78 75 79 68 80
REMARK SMILES IDX 74 81 76 82 73 83 69 84 70 85 71 86 72 87 51 88 52 89 60 90
REMARK SMILES IDX 53 91 59 92 61 93 58 94 54 95 55 96 56 97 57 98
REMARK H PARENT 3 16 6 19 10 24 10 25 10 26 81 51 49 62
REMARK Flexibility Score: inf
ROOT
ATOM      1  C   UNL     1      -2.464  -0.555   1.750  1.00  0.00     0.188 C 
ENDROOT
BRANCH   1   2
ATOM      2  O   UNL     1      -3.796  -0.492   1.285  1.00  0.00    -0.376 OA
BRANCH   2   3
ATOM      3  C   UNL     1      -4.188   0.530   0.384  1.00  0.00     0.202 C 
BRANCH   3   4
ATOM      4  C   UNL     1      -3.291   1.645  -0.200  1.00  0.00     0.261 C 
BRANCH   4   5
ATOM      5  O   UNL     1      -1.868   1.466  -0.218  1.00  0.00    -0.461 OA
BRANCH   5   6
ATOM      6  C   UNL     1      -1.178   2.243   0.662  1.00  0.00     0.341 C 
ATOM      7  O   UNL     1      -1.722   3.008   1.452  1.00  0.00    -0.249 OA
BRANCH   6   8
ATOM      8  C   UNL     1       0.347   2.155   0.495  1.00  0.00     0.232 C 
ATOM      9  C   UNL     1       0.680   3.545  -0.091  1.00  0.00     0.058 C 
BRANCH   8  10
ATOM     10  C   UNL     1       0.776   1.872   1.967  1.00  0.00     0.422 C 
ATOM     11  F   UNL     1       0.039   0.876   2.520  1.00  0.00    -0.168 F 
ATOM     12  F   UNL     1       2.057   1.461   2.095  1.00  0.00    -0.168 F 
ATOM     13  F   UNL     1       0.647   2.962   2.754  1.00  0.00    -0.168 F 
ENDBRANCH   8  10
BRANCH   8  14
ATOM     14  N   UNL     1       0.814   1.110  -0.473  1.00  0.00    -0.315 N 
ATOM     15  C   UNL     1       2.024   0.591  -0.751  1.00  0.00     0.315 C 
ATOM     16  H   UNL     1       0.087   0.726  -1.015  1.00  0.00     0.166 HD
ATOM     17  O   UNL     1       2.068  -0.445  -1.418  1.00  0.00    -0.249 OA
ATOM     18  N   UNL     1       3.190   1.128  -0.354  1.00  0.00    -0.338 N 
ATOM     19  H   UNL     1       3.943   0.494  -0.380  1.00  0.00     0.165 HD
BRANCH  18  20
ATOM     20  C   UNL     1       3.565   2.453   0.107  1.00  0.00     0.123 C 
BRANCH  20  21
ATOM     21  C   UNL     1       4.766   2.510   1.044  1.00  0.00     0.082 C 
BRANCH  21  22
ATOM     22  C   UNL     1       6.061   2.970   0.385  1.00  0.00     0.260 C 
BRANCH  22  23
ATOM     23  N   UNL     1       5.930   4.275  -0.261  1.00  0.00    -0.358 N 
ATOM     24  H   UNL     1       5.229   4.221  -0.999  1.00  0.00     0.344 HD
ATOM     25  H   UNL     1       6.827   4.547  -0.663  1.00  0.00     0.344 HD
ATOM     26  H   UNL     1       5.643   4.969   0.430  1.00  0.00     0.344 HD
ENDBRANCH  22  23
ENDBRANCH  21  22
ENDBRANCH  20  21
ENDBRANCH  18  20
ENDBRANCH   8  14
ENDBRANCH   6   8
ENDBRANCH   5   6
ENDBRANCH   4   5
ENDBRANCH   3   4
ENDBRANCH   2   3
ENDBRANCH   1   2
BRANCH   1  27
ATOM     27  C   UNL     1      -1.464  -1.160   0.754  1.00  0.00     0.188 C 
BRANCH  27  28
ATOM     28  O   UNL     1      -1.919  -1.258  -0.577  1.00  0.00    -0.376 OA
BRANCH  28  29
ATOM     29  C   UNL     1      -2.761  -2.348  -0.932  1.00  0.00     0.202 C 
BRANCH  29  30
ATOM     30  C   UNL     1      -3.344  -3.413   0.035  1.00  0.00     0.261 C 
BRANCH  30  31
ATOM     31  O   UNL     1      -2.892  -3.453   1.393  1.00  0.00    -0.460 OA
BRANCH  31  32
ATOM     32  C   UNL     1      -1.815  -4.231   1.663  1.00  0.00     0.338 C 
ATOM     33  O   UNL     1      -1.202  -4.925   0.869  1.00  0.00    -0.246 OA
BRANCH  32  34
ATOM     34  C   UNL     1      -1.360  -3.910   3.038  1.00  0.00     0.060 A 
ATOM     35  C   UNL     1      -0.109  -3.300   3.213  1.00  0.00     0.016 A 
ATOM     36  C   UNL     1      -2.166  -4.183   4.144  1.00  0.00     0.016 A 
ATOM     37  C   UNL     1       0.347  -2.976   4.493  1.00  0.00     0.010 A 
ATOM     38  C   UNL     1      -1.693  -3.891   5.429  1.00  0.00     0.010 A 
ATOM     39  C   UNL     1      -0.424  -3.310   5.614  1.00  0.00    -0.014 A 
BRANCH  39  40
ATOM     40  C   UNL     1       0.181  -3.256   6.971  1.00  0.00     0.031 A 
ATOM     41  C   UNL     1       0.745  -4.530   7.544  1.00  0.00     0.074 A 
ATOM     42  C   UNL     1       0.252  -2.113   7.677  1.00  0.00     0.049 A 
ATOM     43  N   UNL     1       1.240  -4.764   8.731  1.00  0.00    -0.248 NA
ATOM     44  C   UNL     1       0.741  -5.698   6.649  1.00  0.00     0.031 C 
ATOM     45  C   UNL     1      -0.191  -0.801   7.210  1.00  0.00     0.029 A 
ATOM     46  N   UNL     1       0.719  -1.877   8.948  1.00  0.00    -0.354 N 
ATOM     47  C   UNL     1       1.601  -6.108   8.730  1.00  0.00     0.074 A 
ATOM     48  C   UNL     1       1.231  -6.642   7.437  1.00  0.00     0.031 C 
ATOM     49  C   UNL     1       0.010   0.099   8.189  1.00  0.00     0.029 A 
ATOM     50  C   UNL     1       0.553  -0.577   9.367  1.00  0.00     0.049 A 
ATOM     51  H   UNL     1       1.133  -2.574   9.507  1.00  0.00     0.167 HD
ATOM     52  C   UNL     1       2.191  -6.829   9.715  1.00  0.00     0.034 A 
ATOM     53  C   UNL     1       0.781  -0.010  10.571  1.00  0.00     0.034 A 
ATOM     54  C   UNL     1       2.537  -6.290  11.007  1.00  0.00     0.049 A 
ATOM     55  C   UNL     1       1.331  -0.861  11.695  1.00  0.00     0.074 A 
ATOM     56  C   UNL     1       3.139  -6.933  12.075  1.00  0.00     0.029 A 
ATOM     57  N   UNL     1       2.300  -4.983  11.415  1.00  0.00    -0.354 N 
ATOM     58  N   UNL     1       1.663  -2.133  11.688  1.00  0.00    -0.248 NA
ATOM     59  C   UNL     1       1.542  -0.198  12.990  1.00  0.00     0.031 C 
ATOM     60  C   UNL     1       3.188  -6.042  13.153  1.00  0.00     0.029 A 
ATOM     61  C   UNL     1       2.707  -4.813  12.730  1.00  0.00     0.049 A 
ATOM     62  H   UNL     1       1.901  -4.280  10.853  1.00  0.00     0.167 HD
ATOM     63  C   UNL     1       2.158  -2.406  12.963  1.00  0.00     0.074 A 
ATOM     64  C   UNL     1       2.092  -1.166  13.707  1.00  0.00     0.031 C 
ATOM     65  C   UNL     1       2.632  -3.574  13.470  1.00  0.00     0.034 A 
BRANCH  52  66
ATOM     66  C   UNL     1       2.437  -8.295   9.448  1.00  0.00     0.023 A 
ATOM     67  C   UNL     1       3.306  -8.729   8.432  1.00  0.00     0.031 A 
ATOM     68  C   UNL     1       1.764  -9.274  10.201  1.00  0.00     0.131 A 
ATOM     69  C   UNL     1       3.424 -10.099   8.149  1.00  0.00     0.055 A 
ATOM     70  C   UNL     1       1.952 -10.638   9.972  1.00  0.00     0.041 A 
ATOM     71  F   UNL     1       0.901  -8.921  11.166  1.00  0.00    -0.206 F 
ATOM     72  C   UNL     1       2.774 -11.057   8.930  1.00  0.00     0.022 A 
BRANCH  69  73
ATOM     73  S   UNL     1       4.317 -10.602   6.653  1.00  0.00     0.124 S 
ATOM     74  O   UNL     1       3.570  -9.897   5.613  1.00  0.00    -0.237 OA
ATOM     75  O   UNL     1       5.667 -10.116   6.912  1.00  0.00    -0.237 OA
ATOM     76  O   UNL     1       4.168 -12.056   6.638  1.00  0.00    -0.744 OA
ENDBRANCH  69  73
ENDBRANCH  52  66
BRANCH  53  77
ATOM     77  C   UNL     1       0.444   1.426  10.813  1.00  0.00     0.023 A 
ATOM     78  C   UNL     1       1.431   2.355  11.181  1.00  0.00     0.031 A 
ATOM     79  C   UNL     1      -0.889   1.873  10.757  1.00  0.00     0.131 A 
ATOM     80  C   UNL     1       1.065   3.666  11.529  1.00  0.00     0.055 A 
ATOM     81  C   UNL     1      -1.240   3.193  11.043  1.00  0.00     0.041 A 
ATOM     82  F   UNL     1      -1.877   1.026  10.425  1.00  0.00    -0.206 F 
ATOM     83  C   UNL     1      -0.261   4.096  11.446  1.00  0.00     0.022 A 
BRANCH  80  84
ATOM     84  S   UNL     1       2.337   4.776  12.196  1.00  0.00     0.124 S 
ATOM     85  O   UNL     1       2.795   4.033  13.364  1.00  0.00    -0.237 OA
ATOM     86  O   UNL     1       3.276   4.866  11.084  1.00  0.00    -0.237 OA
ATOM     87  O   UNL     1       1.598   6.003  12.487  1.00  0.00    -0.744 OA
ENDBRANCH  80  84
ENDBRANCH  53  77
BRANCH  65  88
ATOM     88  C   UNL     1       3.175  -3.552  14.881  1.00  0.00     0.023 A 
ATOM     89  C   UNL     1       2.355  -3.297  15.995  1.00  0.00     0.031 A 
ATOM     90  C   UNL     1       4.543  -3.790  15.113  1.00  0.00     0.131 A 
ATOM     91  C   UNL     1       2.918  -3.228  17.279  1.00  0.00     0.055 A 
ATOM     92  C   UNL     1       5.085  -3.789  16.399  1.00  0.00     0.041 A 
ATOM     93  F   UNL     1       5.378  -4.035  14.090  1.00  0.00    -0.206 F 
ATOM     94  C   UNL     1       4.274  -3.493  17.490  1.00  0.00     0.022 A 
BRANCH  91  95
ATOM     95  S   UNL     1       1.877  -2.688  18.663  1.00  0.00     0.124 S 
ATOM     96  O   UNL     1       1.422  -1.378  18.207  1.00  0.00    -0.237 OA
ATOM     97  O   UNL     1       0.860  -3.733  18.715  1.00  0.00    -0.237 OA
ATOM     98  O   UNL     1       2.798  -2.663  19.797  1.00  0.00    -0.744 OA
ENDBRANCH  91  95
ENDBRANCH  65  88
ENDBRANCH  39  40
ENDBRANCH  32  34
ENDBRANCH  31  32
ENDBRANCH  30  31
ENDBRANCH  29  30
ENDBRANCH  28  29
ENDBRANCH  27  28
ENDBRANCH   1  27
TORSDOF 26
