REMARK SMILES Cc1ccc(OCCC[N@H+]2CCCC[C@@H]2C(=O)OCCOCCOCCOC(=O)c2ccc(-c3c4nc(c(-c5cc(S(=O)(=O)[O-])ccc5F)c5ccc([nH]5)c(-c5cc(S(=O)(=O)[O-])ccc5F)c5nc(c(-c6cc(S(=O)(=O)[O-])ccc6F)c6ccc3[nH]6)C=C5)C=C4)cc2)cc1C
REMARK SMILES IDX 22 1 21 2 20 3 19 4 18 5 16 6 17 7 15 8 10 9 11 10 12 12
REMARK SMILES IDX 14 13 13 14 9 15 8 16 7 17 6 18 5 19 1 20 2 21 3 22 94 23
REMARK SMILES IDX 4 24 93 25 95 26 23 27 24 28 25 29 26 30 27 31 28 32 29 33
REMARK SMILES IDX 30 34 31 35 92 36 32 37 91 38 33 39 34 40 35 41 85 42 36 43
REMARK SMILES IDX 90 44 84 45 86 46 37 47 89 48 83 49 82 50 38 52 70 53 50 54
REMARK SMILES IDX 69 55 51 56 54 57 68 58 87 59 52 60 53 61 67 63 88 64 55 65
REMARK SMILES IDX 39 66 40 67 48 68 41 69 47 70 49 71 46 72 42 73 43 74 44 75
REMARK SMILES IDX 45 76 71 77 72 78 80 79 73 80 79 81 81 82 78 83 74 84 75 85
REMARK SMILES IDX 76 86 77 87 56 88 57 89 65 90 58 91 64 92 66 93 63 94 59 95
REMARK SMILES IDX 60 96 61 97 62 98
REMARK H PARENT 10 11 86 51 54 62
REMARK Flexibility Score: inf
ROOT
ATOM      1  C   UNL     1       1.440   1.536  -1.861  1.00  0.00     0.188 C 
ENDROOT
BRANCH   1   2
ATOM      2  O   UNL     1       1.169   0.242  -2.394  1.00  0.00    -0.376 OA
BRANCH   2   3
ATOM      3  C   UNL     1       0.060  -0.424  -1.804  1.00  0.00     0.202 C 
BRANCH   3   4
ATOM      4  C   UNL     1      -1.299  -0.049  -2.392  1.00  0.00     0.261 C 
BRANCH   4   5
ATOM      5  O   UNL     1      -2.083   1.044  -1.848  1.00  0.00    -0.459 OA
BRANCH   5   6
ATOM      6  C   UNL     1      -1.836   1.696  -0.681  1.00  0.00     0.364 C 
ATOM      7  O   UNL     1      -0.894   1.509   0.059  1.00  0.00    -0.245 OA
BRANCH   6   8
ATOM      8  C   UNL     1      -2.895   2.761  -0.387  1.00  0.00     0.295 C 
ATOM      9  N   UNL     1      -4.223   2.142  -0.062  1.00  0.00    -0.323 N 
ATOM     10  C   UNL     1      -5.235   3.220   0.065  1.00  0.00     0.262 C 
ATOM     11  H   UNL     1      -4.473   1.491  -0.806  1.00  0.00     0.348 HD
ATOM     12  C   UNL     1      -5.311   4.144  -1.152  1.00  0.00     0.062 C 
ATOM     13  C   UNL     1      -2.911   3.729  -1.582  1.00  0.00     0.078 C 
ATOM     14  C   UNL     1      -3.967   4.803  -1.421  1.00  0.00     0.013 C 
BRANCH   9  15
ATOM     15  C   UNL     1      -4.155   1.404   1.234  1.00  0.00     0.266 C 
BRANCH  15  16
ATOM     16  C   UNL     1      -4.585  -0.078   1.190  1.00  0.00     0.103 C 
BRANCH  16  17
ATOM     17  C   UNL     1      -3.646  -1.052   0.469  1.00  0.00     0.235 C 
BRANCH  17  18
ATOM     18  O   UNL     1      -2.941  -1.946   1.363  1.00  0.00    -0.493 OA
BRANCH  18  19
ATOM     19  C   UNL     1      -1.666  -1.523   1.637  1.00  0.00     0.119 A 
ATOM     20  C   UNL     1       2.252   0.200   2.064  1.00  0.00     0.044 C 
ATOM     21  C   UNL     1       0.928  -0.513   2.001  1.00  0.00    -0.048 A 
ATOM     22  C   UNL     1      -0.174   0.086   2.628  1.00  0.00     0.007 A 
ATOM     23  C   UNL     1       0.744  -1.735   1.319  1.00  0.00    -0.045 A 
ATOM     24  C   UNL     1      -1.456  -0.436   2.470  1.00  0.00     0.047 A 
ATOM     25  C   UNL     1      -0.569  -2.225   1.132  1.00  0.00     0.050 A 
ATOM     26  C   UNL     1       1.915  -2.502   0.767  1.00  0.00     0.045 C 
ENDBRANCH  18  19
ENDBRANCH  17  18
ENDBRANCH  16  17
ENDBRANCH  15  16
ENDBRANCH   9  15
ENDBRANCH   6   8
ENDBRANCH   5   6
ENDBRANCH   4   5
ENDBRANCH   3   4
ENDBRANCH   2   3
ENDBRANCH   1   2
BRANCH   1  27
ATOM     27  C   UNL     1       0.750   2.632  -2.678  1.00  0.00     0.188 C 
BRANCH  27  28
ATOM     28  O   UNL     1       1.007   2.692  -4.082  1.00  0.00    -0.376 OA
BRANCH  28  29
ATOM     29  C   UNL     1       2.215   2.123  -4.564  1.00  0.00     0.202 C 
BRANCH  29  30
ATOM     30  C   UNL     1       3.497   2.932  -4.328  1.00  0.00     0.261 C 
BRANCH  30  31
ATOM     31  O   UNL     1       3.700   3.359  -2.968  1.00  0.00    -0.460 OA
BRANCH  31  32
ATOM     32  C   UNL     1       3.253   4.613  -2.705  1.00  0.00     0.338 C 
ATOM     33  O   UNL     1       2.744   5.380  -3.506  1.00  0.00    -0.246 OA
BRANCH  32  34
ATOM     34  C   UNL     1       3.322   4.921  -1.257  1.00  0.00     0.060 A 
ATOM     35  C   UNL     1       2.211   5.555  -0.682  1.00  0.00     0.016 A 
ATOM     36  C   UNL     1       4.491   4.748  -0.512  1.00  0.00     0.016 A 
ATOM     37  C   UNL     1       2.294   6.107   0.596  1.00  0.00     0.010 A 
ATOM     38  C   UNL     1       4.580   5.320   0.767  1.00  0.00     0.010 A 
ATOM     39  C   UNL     1       3.506   6.063   1.296  1.00  0.00    -0.014 A 
BRANCH  39  40
ATOM     40  C   UNL     1       3.717   7.041   2.400  1.00  0.00     0.031 A 
ATOM     41  C   UNL     1       4.422   8.337   2.068  1.00  0.00     0.074 A 
ATOM     42  C   UNL     1       3.229   6.845   3.639  1.00  0.00     0.049 A 
ATOM     43  N   UNL     1       4.715   9.350   2.843  1.00  0.00    -0.248 NA
ATOM     44  C   UNL     1       4.854   8.510   0.671  1.00  0.00     0.031 C 
ATOM     45  C   UNL     1       2.482   5.668   4.079  1.00  0.00     0.029 A 
ATOM     46  N   UNL     1       3.291   7.641   4.757  1.00  0.00    -0.354 N 
ATOM     47  C   UNL     1       5.377  10.269   2.033  1.00  0.00     0.074 A 
ATOM     48  C   UNL     1       5.468   9.681   0.715  1.00  0.00     0.031 C 
ATOM     49  C   UNL     1       2.170   5.813   5.381  1.00  0.00     0.029 A 
ATOM     50  C   UNL     1       2.714   7.079   5.873  1.00  0.00     0.049 A 
ATOM     51  H   UNL     1       3.709   8.532   4.760  1.00  0.00     0.167 HD
ATOM     52  C   UNL     1       5.859  11.495   2.352  1.00  0.00     0.034 A 
ATOM     53  C   UNL     1       2.653   7.524   7.146  1.00  0.00     0.034 A 
ATOM     54  C   UNL     1       5.754  12.088   3.661  1.00  0.00     0.049 A 
ATOM     55  C   UNL     1       3.246   8.876   7.488  1.00  0.00     0.074 A 
ATOM     56  C   UNL     1       6.183  13.338   4.074  1.00  0.00     0.029 A 
ATOM     57  N   UNL     1       5.189  11.476   4.770  1.00  0.00    -0.354 N 
ATOM     58  N   UNL     1       3.845   9.743   6.703  1.00  0.00    -0.248 NA
ATOM     59  C   UNL     1       3.135   9.315   8.886  1.00  0.00     0.031 C 
ATOM     60  C   UNL     1       5.944  13.452   5.448  1.00  0.00     0.029 A 
ATOM     61  C   UNL     1       5.289  12.309   5.875  1.00  0.00     0.049 A 
ATOM     62  H   UNL     1       4.777  10.582   4.773  1.00  0.00     0.167 HD
ATOM     63  C   UNL     1       4.147  10.841   7.510  1.00  0.00     0.074 A 
ATOM     64  C   UNL     1       3.641  10.536   8.831  1.00  0.00     0.031 C 
ATOM     65  C   UNL     1       4.784  11.997   7.190  1.00  0.00     0.034 A 
BRANCH  52  66
ATOM     66  C   UNL     1       6.597  12.256   1.278  1.00  0.00     0.023 A 
ATOM     67  C   UNL     1       5.950  12.749   0.132  1.00  0.00     0.031 A 
ATOM     68  C   UNL     1       7.977  12.493   1.413  1.00  0.00     0.131 A 
ATOM     69  C   UNL     1       6.694  13.411  -0.858  1.00  0.00     0.055 A 
ATOM     70  C   UNL     1       8.697  13.212   0.458  1.00  0.00     0.041 A 
ATOM     71  F   UNL     1       8.649  12.024   2.476  1.00  0.00    -0.206 F 
ATOM     72  C   UNL     1       8.057  13.668  -0.690  1.00  0.00     0.022 A 
BRANCH  69  73
ATOM     73  S   UNL     1       5.878  13.843  -2.419  1.00  0.00     0.124 S 
ATOM     74  O   UNL     1       5.490  12.527  -2.923  1.00  0.00    -0.237 OA
ATOM     75  O   UNL     1       4.787  14.705  -1.978  1.00  0.00    -0.237 OA
ATOM     76  O   UNL     1       6.930  14.510  -3.183  1.00  0.00    -0.744 OA
ENDBRANCH  69  73
ENDBRANCH  52  66
BRANCH  53  77
ATOM     77  C   UNL     1       2.059   6.680   8.227  1.00  0.00     0.023 A 
ATOM     78  C   UNL     1       0.955   7.118   8.977  1.00  0.00     0.031 A 
ATOM     79  C   UNL     1       2.667   5.468   8.602  1.00  0.00     0.131 A 
ATOM     80  C   UNL     1       0.540   6.389  10.104  1.00  0.00     0.055 A 
ATOM     81  C   UNL     1       2.211   4.715   9.685  1.00  0.00     0.041 A 
ATOM     82  F   UNL     1       3.730   5.003   7.925  1.00  0.00    -0.206 F 
ATOM     83  C   UNL     1       1.153   5.185  10.456  1.00  0.00     0.022 A 
BRANCH  80  84
ATOM     84  S   UNL     1      -0.732   7.106  11.183  1.00  0.00     0.124 S 
ATOM     85  O   UNL     1      -0.145   8.399  11.515  1.00  0.00    -0.237 OA
ATOM     86  O   UNL     1      -1.893   7.136  10.299  1.00  0.00    -0.237 OA
ATOM     87  O   UNL     1      -0.817   6.155  12.288  1.00  0.00    -0.744 OA
ENDBRANCH  80  84
ENDBRANCH  53  77
BRANCH  65  88
ATOM     88  C   UNL     1       4.916  13.039   8.278  1.00  0.00     0.023 A 
ATOM     89  C   UNL     1       5.673  12.809   9.441  1.00  0.00     0.031 A 
ATOM     90  C   UNL     1       4.248  14.272   8.162  1.00  0.00     0.131 A 
ATOM     91  C   UNL     1       5.683  13.762  10.471  1.00  0.00     0.055 A 
ATOM     92  C   UNL     1       4.319  15.246   9.160  1.00  0.00     0.041 A 
ATOM     93  F   UNL     1       3.510  14.551   7.076  1.00  0.00    -0.206 F 
ATOM     94  C   UNL     1       5.024  14.986  10.331  1.00  0.00     0.022 A 
BRANCH  91  95
ATOM     95  S   UNL     1       6.466  13.330  12.050  1.00  0.00     0.124 S 
ATOM     96  O   UNL     1       5.778  12.092  12.402  1.00  0.00    -0.237 OA
ATOM     97  O   UNL     1       7.869  13.194  11.673  1.00  0.00    -0.237 OA
ATOM     98  O   UNL     1       6.163  14.474  12.908  1.00  0.00    -0.744 OA
ENDBRANCH  91  95
ENDBRANCH  65  88
ENDBRANCH  39  40
ENDBRANCH  32  34
ENDBRANCH  31  32
ENDBRANCH  30  31
ENDBRANCH  29  30
ENDBRANCH  28  29
ENDBRANCH  27  28
ENDBRANCH   1  27
TORSDOF 25
