REMARK SMILES Cc1cc(C)c2c(CCCC(=O)OCCOCCOCCOC(=O)c3ccc(-c4c5nc(c(-c6cc(S(=O)(=O)[O-])ccc6F)c6ccc([nH]6)c(-c6cc(S(=O)(=O)[O-])ccc6F)c6nc(c(-c7cc(S(=O)(=O)[O-])ccc7F)c7ccc4[nH]7)C=C6)C=C5)cc3)c(-c3ccccn3)[nH]c2c1
REMARK SMILES IDX 17 1 16 2 15 3 14 4 13 5 11 6 12 7 10 8 9 9 8 10 7 11 1 12
REMARK SMILES IDX 2 13 3 14 97 15 4 16 96 17 5 18 6 19 95 20 88 21 89 23 90 24
REMARK SMILES IDX 94 25 91 26 93 27 92 28 18 29 19 30 20 31 21 32 22 33 23 34
REMARK SMILES IDX 24 35 25 36 26 37 87 38 27 39 86 40 28 41 29 42 30 43 80 44
REMARK SMILES IDX 31 45 85 46 79 47 81 48 32 49 84 50 78 51 77 52 33 54 65 55
REMARK SMILES IDX 45 56 64 57 46 58 49 59 63 60 82 61 47 62 48 63 62 65 83 66
REMARK SMILES IDX 50 67 34 68 35 69 43 70 36 71 42 72 44 73 41 74 37 75 38 76
REMARK SMILES IDX 39 77 40 78 66 79 67 80 75 81 68 82 74 83 76 84 73 85 69 86
REMARK SMILES IDX 70 87 71 88 72 89 51 90 52 91 60 92 53 93 59 94 61 95 58 96
REMARK SMILES IDX 54 97 55 98 56 99 57 100
REMARK H PARENT 95 22 81 53 49 64
REMARK Flexibility Score: inf
ROOT
ATOM      1  C   UNL     1      -1.381   4.371 -10.447  1.00  0.00     0.188 C 
ENDROOT
BRANCH   1   2
ATOM      2  O   UNL     1      -0.058   4.406 -10.919  1.00  0.00    -0.376 OA
BRANCH   2   3
ATOM      3  C   UNL     1       0.942   4.996 -10.109  1.00  0.00     0.202 C 
BRANCH   3   4
ATOM      4  C   UNL     1       0.791   5.301  -8.606  1.00  0.00     0.261 C 
BRANCH   4   5
ATOM      5  O   UNL     1      -0.223   4.621  -7.859  1.00  0.00    -0.463 OA
BRANCH   5   6
ATOM      6  C   UNL     1      -1.275   5.342  -7.396  1.00  0.00     0.305 C 
ATOM      7  O   UNL     1      -1.477   6.515  -7.704  1.00  0.00    -0.252 OA
BRANCH   6   8
ATOM      8  C   UNL     1      -2.256   4.559  -6.525  1.00  0.00     0.123 C 
BRANCH   8   9
ATOM      9  C   UNL     1      -2.053   3.080  -6.177  1.00  0.00     0.017 C 
BRANCH   9  10
ATOM     10  C   UNL     1      -0.646   2.566  -5.884  1.00  0.00     0.039 C 
BRANCH  10  11
ATOM     11  C   UNL     1      -0.152   2.837  -4.498  1.00  0.00    -0.013 A 
ATOM     12  C   UNL     1       1.096  -0.201   0.200  1.00  0.00     0.044 C 
ATOM     13  C   UNL     1       0.692   0.512  -1.055  1.00  0.00    -0.049 A 
ATOM     14  C   UNL     1       0.171  -0.196  -2.139  1.00  0.00     0.007 A 
ATOM     15  C   UNL     1       0.876   1.892  -1.152  1.00  0.00     0.030 A 
ATOM     16  C   UNL     1      -0.191   0.435  -3.351  1.00  0.00    -0.041 A 
ATOM     17  C   UNL     1       0.533   2.518  -2.352  1.00  0.00     0.047 A 
ATOM     18  C   UNL     1      -0.759  -0.440  -4.442  1.00  0.00     0.045 C 
ATOM     19  C   UNL     1       0.021   1.842  -3.459  1.00  0.00     0.006 A 
ATOM     20  N   UNL     1       0.612   3.847  -2.675  1.00  0.00    -0.353 N 
ATOM     21  C   UNL     1       0.274   4.061  -3.983  1.00  0.00     0.068 A 
ATOM     22  H   UNL     1       0.878   4.556  -2.047  1.00  0.00     0.167 HD
BRANCH  21  23
ATOM     23  C   UNL     1       0.372   5.404  -4.532  1.00  0.00     0.087 A 
ATOM     24  C   UNL     1       1.491   5.843  -5.226  1.00  0.00     0.030 A 
ATOM     25  N   UNL     1      -0.698   6.189  -4.285  1.00  0.00    -0.255 NA
ATOM     26  C   UNL     1       1.479   7.134  -5.753  1.00  0.00     0.004 A 
ATOM     27  C   UNL     1      -0.705   7.418  -4.851  1.00  0.00     0.112 A 
ATOM     28  C   UNL     1       0.349   7.929  -5.589  1.00  0.00     0.020 A 
ENDBRANCH  21  23
ENDBRANCH  10  11
ENDBRANCH   9  10
ENDBRANCH   8   9
ENDBRANCH   6   8
ENDBRANCH   5   6
ENDBRANCH   4   5
ENDBRANCH   3   4
ENDBRANCH   2   3
ENDBRANCH   1   2
BRANCH   1  29
ATOM     29  C   UNL     1      -1.751   3.115  -9.644  1.00  0.00     0.188 C 
BRANCH  29  30
ATOM     30  O   UNL     1      -0.788   2.189  -9.154  1.00  0.00    -0.376 OA
BRANCH  30  31
ATOM     31  C   UNL     1       0.284   1.681  -9.938  1.00  0.00     0.202 C 
BRANCH  31  32
ATOM     32  C   UNL     1       0.093   1.151 -11.357  1.00  0.00     0.261 C 
BRANCH  32  33
ATOM     33  O   UNL     1      -0.987   1.738 -12.037  1.00  0.00    -0.460 OA
BRANCH  33  34
ATOM     34  C   UNL     1      -2.166   1.142 -11.741  1.00  0.00     0.338 C 
ATOM     35  O   UNL     1      -2.360   0.221 -10.983  1.00  0.00    -0.246 OA
BRANCH  34  36
ATOM     36  C   UNL     1      -3.209   1.877 -12.464  1.00  0.00     0.060 A 
ATOM     37  C   UNL     1      -4.527   1.539 -12.163  1.00  0.00     0.016 A 
ATOM     38  C   UNL     1      -2.852   2.656 -13.573  1.00  0.00     0.016 A 
ATOM     39  C   UNL     1      -5.443   1.662 -13.171  1.00  0.00     0.010 A 
ATOM     40  C   UNL     1      -3.759   2.759 -14.584  1.00  0.00     0.010 A 
ATOM     41  C   UNL     1      -4.985   2.130 -14.404  1.00  0.00    -0.014 A 
BRANCH  41  42
ATOM     42  C   UNL     1      -5.819   1.926 -15.555  1.00  0.00     0.031 A 
ATOM     43  C   UNL     1      -6.876   2.938 -15.641  1.00  0.00     0.074 A 
ATOM     44  C   UNL     1      -5.551   0.953 -16.445  1.00  0.00     0.049 A 
ATOM     45  N   UNL     1      -8.120   2.788 -15.339  1.00  0.00    -0.248 NA
ATOM     46  C   UNL     1      -6.462   4.339 -15.825  1.00  0.00     0.031 C 
ATOM     47  C   UNL     1      -4.383   0.070 -16.519  1.00  0.00     0.029 A 
ATOM     48  N   UNL     1      -6.258   0.607 -17.547  1.00  0.00    -0.354 N 
ATOM     49  C   UNL     1      -8.691   4.024 -15.589  1.00  0.00     0.074 A 
ATOM     50  C   UNL     1      -7.611   4.970 -15.587  1.00  0.00     0.031 C 
ATOM     51  C   UNL     1      -4.364  -0.545 -17.726  1.00  0.00     0.029 A 
ATOM     52  C   UNL     1      -5.577  -0.202 -18.450  1.00  0.00     0.049 A 
ATOM     53  H   UNL     1      -7.185   0.905 -17.698  1.00  0.00     0.167 HD
ATOM     54  C   UNL     1      -9.934   4.101 -16.132  1.00  0.00     0.034 A 
ATOM     55  C   UNL     1      -5.978  -0.503 -19.716  1.00  0.00     0.034 A 
ATOM     56  C   UNL     1     -10.662   2.865 -15.930  1.00  0.00     0.049 A 
ATOM     57  C   UNL     1      -7.452  -0.294 -19.737  1.00  0.00     0.074 A 
ATOM     58  C   UNL     1     -11.019   2.130 -14.813  1.00  0.00     0.029 A 
ATOM     59  N   UNL     1     -10.765   1.993 -16.993  1.00  0.00    -0.354 N 
ATOM     60  N   UNL     1      -8.283  -1.007 -19.024  1.00  0.00    -0.248 NA
ATOM     61  C   UNL     1      -7.949   1.017 -20.135  1.00  0.00     0.031 C 
ATOM     62  C   UNL     1     -10.846   0.766 -15.193  1.00  0.00     0.029 A 
ATOM     63  C   UNL     1     -10.471   0.730 -16.538  1.00  0.00     0.049 A 
ATOM     64  H   UNL     1     -11.007   2.234 -17.916  1.00  0.00     0.167 HD
ATOM     65  C   UNL     1      -9.208  -0.098 -18.528  1.00  0.00     0.074 A 
ATOM     66  C   UNL     1      -9.005   1.116 -19.320  1.00  0.00     0.031 C 
ATOM     67  C   UNL     1      -9.842  -0.309 -17.336  1.00  0.00     0.034 A 
BRANCH  54  68
ATOM     68  C   UNL     1     -10.308   5.114 -17.191  1.00  0.00     0.023 A 
ATOM     69  C   UNL     1     -11.634   5.085 -17.650  1.00  0.00     0.031 A 
ATOM     70  C   UNL     1      -9.410   5.899 -17.957  1.00  0.00     0.131 A 
ATOM     71  C   UNL     1     -11.993   5.721 -18.850  1.00  0.00     0.055 A 
ATOM     72  C   UNL     1      -9.787   6.578 -19.116  1.00  0.00     0.041 A 
ATOM     73  F   UNL     1      -8.102   5.993 -17.696  1.00  0.00    -0.206 F 
ATOM     74  C   UNL     1     -11.078   6.466 -19.588  1.00  0.00     0.022 A 
BRANCH  71  75
ATOM     75  S   UNL     1     -13.651   5.427 -19.504  1.00  0.00     0.124 S 
ATOM     76  O   UNL     1     -13.671   3.972 -19.606  1.00  0.00    -0.237 OA
ATOM     77  O   UNL     1     -14.489   6.014 -18.464  1.00  0.00    -0.237 OA
ATOM     78  O   UNL     1     -13.643   6.145 -20.777  1.00  0.00    -0.744 OA
ENDBRANCH  71  75
ENDBRANCH  54  68
BRANCH  55  79
ATOM     79  C   UNL     1      -5.138  -0.594 -20.948  1.00  0.00     0.023 A 
ATOM     80  C   UNL     1      -5.631  -1.115 -22.167  1.00  0.00     0.031 A 
ATOM     81  C   UNL     1      -3.894   0.074 -21.014  1.00  0.00     0.131 A 
ATOM     82  C   UNL     1      -4.897  -0.954 -23.368  1.00  0.00     0.055 A 
ATOM     83  C   UNL     1      -3.173   0.229 -22.201  1.00  0.00     0.041 A 
ATOM     84  F   UNL     1      -3.371   0.683 -19.939  1.00  0.00    -0.206 F 
ATOM     85  C   UNL     1      -3.678  -0.275 -23.388  1.00  0.00     0.022 A 
BRANCH  82  86
ATOM     86  S   UNL     1      -5.575  -1.532 -24.961  1.00  0.00     0.124 S 
ATOM     87  O   UNL     1      -5.404  -2.977 -24.861  1.00  0.00    -0.237 OA
ATOM     88  O   UNL     1      -6.945  -1.036 -24.922  1.00  0.00    -0.237 OA
ATOM     89  O   UNL     1      -4.718  -0.879 -25.953  1.00  0.00    -0.744 OA
ENDBRANCH  82  86
ENDBRANCH  55  79
BRANCH  67  90
ATOM     90  C   UNL     1      -9.729  -1.678 -16.692  1.00  0.00     0.023 A 
ATOM     91  C   UNL     1      -8.538  -2.230 -16.162  1.00  0.00     0.031 A 
ATOM     92  C   UNL     1     -10.930  -2.370 -16.460  1.00  0.00     0.131 A 
ATOM     93  C   UNL     1      -8.588  -3.435 -15.426  1.00  0.00     0.055 A 
ATOM     94  C   UNL     1     -10.976  -3.548 -15.716  1.00  0.00     0.041 A 
ATOM     95  F   UNL     1     -12.095  -1.875 -16.910  1.00  0.00    -0.206 F 
ATOM     96  C   UNL     1      -9.805  -4.085 -15.195  1.00  0.00     0.022 A 
BRANCH  93  97
ATOM     97  S   UNL     1      -7.072  -4.155 -14.710  1.00  0.00     0.124 S 
ATOM     98  O   UNL     1      -6.244  -4.417 -15.881  1.00  0.00    -0.237 OA
ATOM     99  O   UNL     1      -6.606  -3.100 -13.815  1.00  0.00    -0.237 OA
ATOM    100  O   UNL     1      -7.553  -5.358 -14.026  1.00  0.00    -0.744 OA
ENDBRANCH  93  97
ENDBRANCH  67  90
ENDBRANCH  41  42
ENDBRANCH  34  36
ENDBRANCH  33  34
ENDBRANCH  32  33
ENDBRANCH  31  32
ENDBRANCH  30  31
ENDBRANCH  29  30
ENDBRANCH   1  29
TORSDOF 24
