REMARK SMILES O=C(OCCOCCOCCOC(=O)c1ccc(-c2c3nc(c(-c4cc(S(=O)(=O)[O-])ccc4F)c4ccc([nH]4)c(-c4cc(S(=O)(=O)[O-])ccc4F)c4nc(c(-c5cc(S(=O)(=O)[O-])ccc5F)c5ccc2[nH]5)C=C4)C=C3)cc1)C1=Cc2c(ccc(Cl)c2-c2ccccc2)O[C@H]1C(F)(F)F
REMARK SMILES IDX 8 1 7 2 6 3 5 4 4 5 3 6 2 7 1 8 78 9 79 10 94 11 80 12 93 13
REMARK SMILES IDX 81 14 86 15 82 16 84 17 83 18 85 19 95 20 96 21 97 22 98 23
REMARK SMILES IDX 87 24 88 25 92 26 89 27 91 28 90 29 9 30 10 31 11 32 12 33
REMARK SMILES IDX 13 34 14 35 15 36 16 37 77 38 17 39 76 40 18 41 19 42 20 43
REMARK SMILES IDX 70 44 21 45 75 46 69 47 71 48 22 49 74 50 68 51 67 52 23 54
REMARK SMILES IDX 55 55 35 56 54 57 36 58 39 59 53 60 72 61 37 62 38 63 52 65
REMARK SMILES IDX 73 66 40 67 24 68 25 69 33 70 26 71 32 72 34 73 31 74 27 75
REMARK SMILES IDX 28 76 29 77 30 78 56 79 57 80 65 81 58 82 64 83 66 84 63 85
REMARK SMILES IDX 59 86 60 87 61 88 62 89 41 90 42 91 50 92 43 93 49 94 51 95
REMARK SMILES IDX 48 96 44 97 45 98 46 99 47 100
REMARK H PARENT 71 53 39 64
REMARK Flexibility Score: inf
ROOT
ATOM      1  C   UNL     1       1.863   0.554  -2.668  1.00  0.00     0.188 C 
ENDROOT
BRANCH   1   2
ATOM      2  C   UNL     1       0.647   1.446  -1.934  1.00  0.00     0.188 C 
BRANCH   2   3
ATOM      3  O   UNL     1       0.878   2.196  -0.751  1.00  0.00    -0.376 OA
BRANCH   3   4
ATOM      4  C   UNL     1       1.493   1.595   0.373  1.00  0.00     0.202 C 
BRANCH   4   5
ATOM      5  C   UNL     1       1.488   0.069   0.508  1.00  0.00     0.261 C 
BRANCH   5   6
ATOM      6  O   UNL     1       1.596  -0.349   1.878  1.00  0.00    -0.460 OA
BRANCH   6   7
ATOM      7  C   UNL     1       2.694  -0.264   2.651  1.00  0.00     0.338 C 
ATOM      8  O   UNL     1       2.650  -0.674   3.808  1.00  0.00    -0.246 OA
BRANCH   7   9
ATOM      9  C   UNL     1       3.966   0.302   2.151  1.00  0.00     0.087 C 
ATOM     10  C   UNL     1       4.254   0.775   0.923  1.00  0.00     0.028 C 
ATOM     11  C   UNL     1       5.124   0.132   3.100  1.00  0.00     0.316 C 
ATOM     12  C   UNL     1       5.197  -0.100   0.206  1.00  0.00     0.027 A 
ATOM     13  O   UNL     1       6.343  -0.254   2.387  1.00  0.00    -0.475 OA
ATOM     14  C   UNL     1       6.197  -0.641   1.068  1.00  0.00     0.128 A 
ATOM     15  C   UNL     1       5.122  -0.390  -1.193  1.00  0.00     0.011 A 
ATOM     16  C   UNL     1       7.109  -1.559   0.593  1.00  0.00     0.049 A 
ATOM     17  C   UNL     1       6.130  -1.293  -1.633  1.00  0.00     0.049 A 
ATOM     18  C   UNL     1       7.061  -1.894  -0.752  1.00  0.00     0.025 A 
ATOM     19  Cl  UNL     1       6.418  -1.687  -3.300  1.00  0.00    -0.084 Cl
BRANCH  11  20
ATOM     20  C   UNL     1       5.286   1.415   3.949  1.00  0.00     0.430 C 
ATOM     21  F   UNL     1       4.483   2.421   3.516  1.00  0.00    -0.167 F 
ATOM     22  F   UNL     1       4.983   1.197   5.248  1.00  0.00    -0.167 F 
ATOM     23  F   UNL     1       6.553   1.893   3.906  1.00  0.00    -0.167 F 
ENDBRANCH  11  20
BRANCH  15  24
ATOM     24  C   UNL     1       4.067   0.178  -2.158  1.00  0.00    -0.016 A 
ATOM     25  C   UNL     1       3.455  -0.872  -3.500  1.00  0.00     0.009 A 
ATOM     26  C   UNL     1       3.426   1.872  -2.071  1.00  0.00     0.009 A 
ATOM     27  C   UNL     1       2.357  -0.260  -4.784  1.00  0.00     0.001 A 
ATOM     28  C   UNL     1       2.281   2.510  -3.373  1.00  0.00     0.001 A 
ATOM     29  C   UNL     1       1.755   1.430  -4.724  1.00  0.00     0.000 A 
ENDBRANCH  15  24
ENDBRANCH   7   9
ENDBRANCH   6   7
ENDBRANCH   5   6
ENDBRANCH   4   5
ENDBRANCH   3   4
ENDBRANCH   2   3
ENDBRANCH   1   2
BRANCH   1  30
ATOM     30  O   UNL     1       3.414   1.041  -3.820  1.00  0.00    -0.376 OA
BRANCH  30  31
ATOM     31  C   UNL     1       4.542   2.016  -4.222  1.00  0.00     0.202 C 
BRANCH  31  32
ATOM     32  C   UNL     1       4.588   3.613  -4.171  1.00  0.00     0.261 C 
BRANCH  32  33
ATOM     33  O   UNL     1       4.380   4.260  -2.874  1.00  0.00    -0.460 OA
BRANCH  33  34
ATOM     34  C   UNL     1       3.583   5.373  -2.886  1.00  0.00     0.338 C 
ATOM     35  O   UNL     1       3.229   5.977  -3.882  1.00  0.00    -0.246 OA
BRANCH  34  36
ATOM     36  C   UNL     1       3.012   5.707  -1.544  1.00  0.00     0.060 A 
ATOM     37  C   UNL     1       1.706   5.299  -1.230  1.00  0.00     0.016 A 
ATOM     38  C   UNL     1       3.638   6.633  -0.709  1.00  0.00     0.016 A 
ATOM     39  C   UNL     1       1.021   5.816  -0.120  1.00  0.00     0.010 A 
ATOM     40  C   UNL     1       2.943   7.169   0.399  1.00  0.00     0.010 A 
ATOM     41  C   UNL     1       1.613   6.797   0.679  1.00  0.00    -0.014 A 
BRANCH  41  42
ATOM     42  C   UNL     1       0.768   7.574   1.640  1.00  0.00     0.031 A 
ATOM     43  C   UNL     1       0.215   8.912   1.204  1.00  0.00     0.074 A 
ATOM     44  C   UNL     1       0.431   7.094   2.855  1.00  0.00     0.049 A 
ATOM     45  N   UNL     1      -0.490   9.789   1.876  1.00  0.00    -0.248 NA
ATOM     46  C   UNL     1       0.495   9.307  -0.185  1.00  0.00     0.031 C 
ATOM     47  C   UNL     1       0.817   5.789   3.384  1.00  0.00     0.029 A 
ATOM     48  N   UNL     1      -0.311   7.659   3.869  1.00  0.00    -0.354 N 
ATOM     49  C   UNL     1      -0.739  10.838   0.994  1.00  0.00     0.074 A 
ATOM     50  C   UNL     1      -0.075  10.501  -0.248  1.00  0.00     0.031 C 
ATOM     51  C   UNL     1       0.332   5.663   4.633  1.00  0.00     0.029 A 
ATOM     52  C   UNL     1      -0.370   6.890   5.011  1.00  0.00     0.049 A 
ATOM     53  H   UNL     1      -0.759   8.532   3.785  1.00  0.00     0.167 HD
ATOM     54  C   UNL     1      -1.458  11.973   1.192  1.00  0.00     0.034 A 
ATOM     55  C   UNL     1      -0.898   7.153   6.227  1.00  0.00     0.034 A 
ATOM     56  C   UNL     1      -2.100  12.320   2.439  1.00  0.00     0.049 A 
ATOM     57  C   UNL     1      -1.603   8.473   6.461  1.00  0.00     0.074 A 
ATOM     58  C   UNL     1      -2.826  13.459   2.749  1.00  0.00     0.029 A 
ATOM     59  N   UNL     1      -2.090  11.539   3.587  1.00  0.00    -0.354 N 
ATOM     60  N   UNL     1      -1.807   9.466   5.625  1.00  0.00    -0.248 NA
ATOM     61  C   UNL     1      -2.161   8.699   7.802  1.00  0.00     0.031 C 
ATOM     62  C   UNL     1      -3.191  13.399   4.099  1.00  0.00     0.029 A 
ATOM     63  C   UNL     1      -2.771  12.183   4.612  1.00  0.00     0.049 A 
ATOM     64  H   UNL     1      -1.661  10.656   3.664  1.00  0.00     0.167 HD
ATOM     65  C   UNL     1      -2.540  10.418   6.334  1.00  0.00     0.074 A 
ATOM     66  C   UNL     1      -2.769   9.866   7.652  1.00  0.00     0.031 C 
ATOM     67  C   UNL     1      -2.982  11.639   5.933  1.00  0.00     0.034 A 
BRANCH  54  68
ATOM     68  C   UNL     1      -1.542  12.951   0.041  1.00  0.00     0.023 A 
ATOM     69  C   UNL     1      -2.185  12.622  -1.166  1.00  0.00     0.031 A 
ATOM     70  C   UNL     1      -0.956  14.226   0.145  1.00  0.00     0.131 A 
ATOM     71  C   UNL     1      -2.171  13.528  -2.238  1.00  0.00     0.055 A 
ATOM     72  C   UNL     1      -1.015  15.153  -0.897  1.00  0.00     0.041 A 
ATOM     73  F   UNL     1      -0.309  14.591   1.263  1.00  0.00    -0.206 F 
ATOM     74  C   UNL     1      -1.613  14.801  -2.103  1.00  0.00     0.022 A 
BRANCH  71  75
ATOM     75  S   UNL     1      -2.776  12.972  -3.856  1.00  0.00     0.124 S 
ATOM     76  O   UNL     1      -1.898  11.836  -4.125  1.00  0.00    -0.237 OA
ATOM     77  O   UNL     1      -4.171  12.649  -3.579  1.00  0.00    -0.237 OA
ATOM     78  O   UNL     1      -2.564  14.132  -4.719  1.00  0.00    -0.744 OA
ENDBRANCH  71  75
ENDBRANCH  54  68
BRANCH  55  79
ATOM     79  C   UNL     1      -0.731   6.186   7.359  1.00  0.00     0.023 A 
ATOM     80  C   UNL     1      -1.835   5.612   8.012  1.00  0.00     0.031 A 
ATOM     81  C   UNL     1       0.551   5.893   7.862  1.00  0.00     0.131 A 
ATOM     82  C   UNL     1      -1.641   4.821   9.158  1.00  0.00     0.055 A 
ATOM     83  C   UNL     1       0.742   5.054   8.962  1.00  0.00     0.041 A 
ATOM     84  F   UNL     1       1.643   6.425   7.292  1.00  0.00    -0.206 F 
ATOM     85  C   UNL     1      -0.359   4.524   9.626  1.00  0.00     0.022 A 
BRANCH  82  86
ATOM     86  S   UNL     1      -3.094   4.274  10.101  1.00  0.00     0.124 S 
ATOM     87  O   UNL     1      -3.739   5.544  10.417  1.00  0.00    -0.237 OA
ATOM     88  O   UNL     1      -3.783   3.429   9.132  1.00  0.00    -0.237 OA
ATOM     89  O   UNL     1      -2.514   3.568  11.242  1.00  0.00    -0.744 OA
ENDBRANCH  82  86
ENDBRANCH  55  79
BRANCH  67  90
ATOM     90  C   UNL     1      -3.794  12.440   6.930  1.00  0.00     0.023 A 
ATOM     91  C   UNL     1      -3.245  12.882   8.149  1.00  0.00     0.031 A 
ATOM     92  C   UNL     1      -5.149  12.725   6.681  1.00  0.00     0.131 A 
ATOM     93  C   UNL     1      -4.065  13.503   9.104  1.00  0.00     0.055 A 
ATOM     94  C   UNL     1      -5.941  13.412   7.605  1.00  0.00     0.041 A 
ATOM     95  F   UNL     1      -5.733  12.330   5.539  1.00  0.00    -0.206 F 
ATOM     96  C   UNL     1      -5.405  13.787   8.833  1.00  0.00     0.022 A 
BRANCH  93  97
ATOM     97  S   UNL     1      -3.392  13.809  10.762  1.00  0.00     0.124 S 
ATOM     98  O   UNL     1      -2.950  12.477  11.160  1.00  0.00    -0.237 OA
ATOM     99  O   UNL     1      -2.334  14.778  10.494  1.00  0.00    -0.237 OA
ATOM    100  O   UNL     1      -4.536  14.332  11.506  1.00  0.00    -0.744 OA
ENDBRANCH  93  97
ENDBRANCH  67  90
ENDBRANCH  41  42
ENDBRANCH  34  36
ENDBRANCH  33  34
ENDBRANCH  32  33
ENDBRANCH  31  32
ENDBRANCH  30  31
ENDBRANCH   1  30
TORSDOF 22
