REMARK SMILES Cc1nc(-c2ccccc2Cl)nc2sc(C(=O)OCCOCCOCCOC(=O)c3ccc(-c4c5nc(c(-c6cc(S(=O)(=O)[O-])ccc6F)c6ccc([nH]6)c(-c6cc(S(=O)(=O)[O-])ccc6F)c6nc(c(-c7cc(S(=O)(=O)[O-])ccc7F)c7ccc4[nH]7)C=C6)C=C5)cc3)c(N)c12
REMARK SMILES IDX 23 1 22 2 21 3 20 4 19 5 18 6 16 7 17 8 15 9 1 10 2 11 3 12
REMARK SMILES IDX 95 13 4 14 13 15 93 16 12 17 14 18 5 19 6 20 10 21 7 22 9 23
REMARK SMILES IDX 11 24 8 25 94 26 24 29 25 30 26 31 27 32 28 33 29 34 30 35
REMARK SMILES IDX 31 36 92 37 32 38 91 39 33 40 34 41 35 42 85 43 36 44 90 45
REMARK SMILES IDX 84 46 86 47 37 48 89 49 83 50 82 51 38 53 70 54 50 55 69 56
REMARK SMILES IDX 51 57 54 58 68 59 87 60 52 61 53 62 67 64 88 65 55 66 39 67
REMARK SMILES IDX 40 68 48 69 41 70 47 71 49 72 46 73 42 74 43 75 44 76 45 77
REMARK SMILES IDX 71 78 72 79 80 80 73 81 79 82 81 83 78 84 74 85 75 86 76 87
REMARK SMILES IDX 77 88 56 89 57 90 65 91 58 92 64 93 66 94 63 95 59 96 60 97
REMARK SMILES IDX 61 98 62 99
REMARK H PARENT 94 27 94 28 86 52 54 63
REMARK Flexibility Score: inf
ROOT
ATOM      1  C   UNL     1      -2.789   4.547  -3.733  1.00  0.00     0.188 C 
ENDROOT
BRANCH   1   2
ATOM      2  C   UNL     1      -2.046   5.634  -2.916  1.00  0.00     0.188 C 
BRANCH   2   3
ATOM      3  O   UNL     1      -1.750   6.917  -3.459  1.00  0.00    -0.376 OA
BRANCH   3   4
ATOM      4  C   UNL     1      -1.533   7.071  -4.851  1.00  0.00     0.202 C 
BRANCH   4   5
ATOM      5  C   UNL     1      -0.385   6.293  -5.518  1.00  0.00     0.261 C 
BRANCH   5   6
ATOM      6  O   UNL     1      -0.280   4.902  -5.183  1.00  0.00    -0.459 OA
BRANCH   6   7
ATOM      7  C   UNL     1       0.639   4.563  -4.221  1.00  0.00     0.350 C 
ATOM      8  O   UNL     1       1.392   5.343  -3.687  1.00  0.00    -0.245 OA
BRANCH   7   9
ATOM      9  C   UNL     1       0.476   3.161  -3.846  1.00  0.00     0.138 A 
ATOM     10  C   UNL     1       0.894   0.278  -0.207  1.00  0.00     0.067 C 
ATOM     11  C   UNL     1       0.487   0.114  -1.641  1.00  0.00     0.052 A 
ATOM     12  N   UNL     1       0.285  -1.175  -2.053  1.00  0.00    -0.233 NA
ATOM     13  C   UNL     1       0.404   1.153  -2.598  1.00  0.00     0.057 A 
ATOM     14  C   UNL     1      -0.054  -1.421  -3.329  1.00  0.00     0.162 A 
ATOM     15  C   UNL     1       0.077   0.744  -3.881  1.00  0.00     0.130 A 
ATOM     16  C   UNL     1       0.597   2.586  -2.588  1.00  0.00     0.069 A 
ATOM     17  N   UNL     1      -0.172  -0.503  -4.291  1.00  0.00    -0.217 NA
ATOM     18  S   UNL     1       0.059   1.996  -5.022  1.00  0.00    -0.106 S 
BRANCH  14  19
ATOM     19  C   UNL     1      -0.139  -2.810  -3.797  1.00  0.00     0.038 A 
ATOM     20  C   UNL     1       0.560  -3.154  -4.979  1.00  0.00     0.013 A 
ATOM     21  C   UNL     1      -0.921  -3.808  -3.197  1.00  0.00     0.052 A 
ATOM     22  C   UNL     1       0.466  -4.421  -5.554  1.00  0.00     0.001 A 
ATOM     23  C   UNL     1      -1.017  -5.083  -3.777  1.00  0.00     0.021 A 
ATOM     24  Cl  UNL     1      -1.857  -3.530  -1.769  1.00  0.00    -0.084 Cl
ATOM     25  C   UNL     1      -0.331  -5.386  -4.954  1.00  0.00     0.002 A 
ENDBRANCH  14  19
BRANCH  16  26
ATOM     26  N   UNL     1       0.849   3.319  -1.480  1.00  0.00    -0.397 N 
ATOM     27  H   UNL     1       0.970   4.294  -1.551  1.00  0.00     0.156 HD
ATOM     28  H   UNL     1       0.912   2.879  -0.602  1.00  0.00     0.156 HD
ENDBRANCH  16  26
ENDBRANCH   7   9
ENDBRANCH   6   7
ENDBRANCH   5   6
ENDBRANCH   4   5
ENDBRANCH   3   4
ENDBRANCH   2   3
ENDBRANCH   1   2
BRANCH   1  29
ATOM     29  O   UNL     1      -3.122   4.917  -5.062  1.00  0.00    -0.376 OA
BRANCH  29  30
ATOM     30  C   UNL     1      -4.498   4.995  -5.413  1.00  0.00     0.202 C 
BRANCH  30  31
ATOM     31  C   UNL     1      -5.329   6.099  -4.759  1.00  0.00     0.261 C 
BRANCH  31  32
ATOM     32  O   UNL     1      -5.012   6.319  -3.398  1.00  0.00    -0.460 OA
BRANCH  32  33
ATOM     33  C   UNL     1      -5.447   5.354  -2.563  1.00  0.00     0.338 C 
ATOM     34  O   UNL     1      -5.960   4.294  -2.872  1.00  0.00    -0.246 OA
BRANCH  33  35
ATOM     35  C   UNL     1      -5.213   5.806  -1.192  1.00  0.00     0.060 A 
ATOM     36  C   UNL     1      -5.382   4.853  -0.185  1.00  0.00     0.016 A 
ATOM     37  C   UNL     1      -5.282   7.184  -0.962  1.00  0.00     0.016 A 
ATOM     38  C   UNL     1      -5.982   5.268   0.975  1.00  0.00     0.010 A 
ATOM     39  C   UNL     1      -5.929   7.588   0.167  1.00  0.00     0.010 A 
ATOM     40  C   UNL     1      -6.371   6.605   1.051  1.00  0.00    -0.014 A 
BRANCH  40  41
ATOM     41  C   UNL     1      -7.322   6.986   2.062  1.00  0.00     0.031 A 
ATOM     42  C   UNL     1      -6.671   7.385   3.321  1.00  0.00     0.074 A 
ATOM     43  C   UNL     1      -8.628   7.109   1.759  1.00  0.00     0.049 A 
ATOM     44  N   UNL     1      -6.649   6.738   4.436  1.00  0.00    -0.248 NA
ATOM     45  C   UNL     1      -5.733   8.522   3.264  1.00  0.00     0.031 C 
ATOM     46  C   UNL     1      -9.279   7.010   0.449  1.00  0.00     0.029 A 
ATOM     47  N   UNL     1      -9.648   7.483   2.567  1.00  0.00    -0.354 N 
ATOM     48  C   UNL     1      -5.899   7.537   5.285  1.00  0.00     0.074 A 
ATOM     49  C   UNL     1      -5.138   8.424   4.450  1.00  0.00     0.031 C 
ATOM     50  C   UNL     1     -10.514   7.559   0.526  1.00  0.00     0.029 A 
ATOM     51  C   UNL     1     -10.774   7.952   1.901  1.00  0.00     0.049 A 
ATOM     52  H   UNL     1      -9.596   7.427   3.548  1.00  0.00     0.167 HD
ATOM     53  C   UNL     1      -6.201   7.651   6.604  1.00  0.00     0.034 A 
ATOM     54  C   UNL     1     -11.750   8.725   2.456  1.00  0.00     0.034 A 
ATOM     55  C   UNL     1      -7.059   6.582   7.051  1.00  0.00     0.049 A 
ATOM     56  C   UNL     1     -11.647   8.513   3.933  1.00  0.00     0.074 A 
ATOM     57  C   UNL     1      -6.952   5.204   7.024  1.00  0.00     0.029 A 
ATOM     58  N   UNL     1      -8.403   6.847   7.198  1.00  0.00    -0.354 N 
ATOM     59  N   UNL     1     -11.848   7.354   4.508  1.00  0.00    -0.248 NA
ATOM     60  C   UNL     1     -10.807   9.435   4.688  1.00  0.00     0.031 C 
ATOM     61  C   UNL     1      -8.246   4.743   6.640  1.00  0.00     0.029 A 
ATOM     62  C   UNL     1      -9.091   5.850   6.542  1.00  0.00     0.049 A 
ATOM     63  H   UNL     1      -8.798   7.608   7.682  1.00  0.00     0.167 HD
ATOM     64  C   UNL     1     -10.855   7.245   5.474  1.00  0.00     0.074 A 
ATOM     65  C   UNL     1     -10.280   8.586   5.577  1.00  0.00     0.031 C 
ATOM     66  C   UNL     1     -10.373   6.032   5.883  1.00  0.00     0.034 A 
BRANCH  53  67
ATOM     67  C   UNL     1      -5.975   8.922   7.373  1.00  0.00     0.023 A 
ATOM     68  C   UNL     1      -6.000   8.870   8.772  1.00  0.00     0.031 A 
ATOM     69  C   UNL     1      -5.946  10.218   6.797  1.00  0.00     0.131 A 
ATOM     70  C   UNL     1      -5.998  10.056   9.527  1.00  0.00     0.055 A 
ATOM     71  C   UNL     1      -5.860  11.387   7.549  1.00  0.00     0.041 A 
ATOM     72  F   UNL     1      -6.096  10.425   5.481  1.00  0.00    -0.206 F 
ATOM     73  C   UNL     1      -5.903  11.312   8.927  1.00  0.00     0.022 A 
BRANCH  70  74
ATOM     74  S   UNL     1      -6.248   9.938  11.313  1.00  0.00     0.124 S 
ATOM     75  O   UNL     1      -7.543   9.271  11.389  1.00  0.00    -0.237 OA
ATOM     76  O   UNL     1      -5.092   9.150  11.729  1.00  0.00    -0.237 OA
ATOM     77  O   UNL     1      -6.239  11.333  11.749  1.00  0.00    -0.744 OA
ENDBRANCH  70  74
ENDBRANCH  53  67
BRANCH  54  78
ATOM     78  C   UNL     1     -12.415   9.911   1.823  1.00  0.00     0.023 A 
ATOM     79  C   UNL     1     -13.537  10.550   2.399  1.00  0.00     0.031 A 
ATOM     80  C   UNL     1     -11.810  10.587   0.736  1.00  0.00     0.131 A 
ATOM     81  C   UNL     1     -14.004  11.787   1.885  1.00  0.00     0.055 A 
ATOM     82  C   UNL     1     -12.282  11.800   0.226  1.00  0.00     0.041 A 
ATOM     83  F   UNL     1     -10.675  10.145   0.176  1.00  0.00    -0.206 F 
ATOM     84  C   UNL     1     -13.378  12.411   0.805  1.00  0.00     0.022 A 
BRANCH  81  85
ATOM     85  S   UNL     1     -15.377  12.677   2.692  1.00  0.00     0.124 S 
ATOM     86  O   UNL     1     -16.540  11.924   2.235  1.00  0.00    -0.237 OA
ATOM     87  O   UNL     1     -15.043  12.561   4.106  1.00  0.00    -0.237 OA
ATOM     88  O   UNL     1     -15.269  14.032   2.149  1.00  0.00    -0.744 OA
ENDBRANCH  81  85
ENDBRANCH  54  78
BRANCH  66  89
ATOM     89  C   UNL     1     -11.090   4.763   5.453  1.00  0.00     0.023 A 
ATOM     90  C   UNL     1     -11.232   4.320   4.117  1.00  0.00     0.031 A 
ATOM     91  C   UNL     1     -11.475   3.877   6.475  1.00  0.00     0.131 A 
ATOM     92  C   UNL     1     -11.736   3.027   3.852  1.00  0.00     0.055 A 
ATOM     93  C   UNL     1     -11.953   2.594   6.210  1.00  0.00     0.041 A 
ATOM     94  F   UNL     1     -11.335   4.228   7.765  1.00  0.00    -0.206 F 
ATOM     95  C   UNL     1     -12.085   2.164   4.896  1.00  0.00     0.022 A 
BRANCH  92  96
ATOM     96  S   UNL     1     -11.916   2.427   2.138  1.00  0.00     0.124 S 
ATOM     97  O   UNL     1     -12.770   3.436   1.522  1.00  0.00    -0.237 OA
ATOM     98  O   UNL     1     -10.534   2.381   1.670  1.00  0.00    -0.237 OA
ATOM     99  O   UNL     1     -12.546   1.114   2.298  1.00  0.00    -0.744 OA
ENDBRANCH  92  96
ENDBRANCH  66  89
ENDBRANCH  40  41
ENDBRANCH  33  35
ENDBRANCH  32  33
ENDBRANCH  31  32
ENDBRANCH  30  31
ENDBRANCH  29  30
ENDBRANCH   1  29
TORSDOF 22
