REMARK SMILES O=C(OCCOCCOCCOC(=O)c1ccc(-c2c3nc(c(-c4cc(S(=O)(=O)[O-])ccc4F)c4ccc([nH]4)c(-c4cc(S(=O)(=O)[O-])ccc4F)c4nc(c(-c5cc(S(=O)(=O)[O-])ccc5F)c5ccc2[nH]5)C=C4)C=C3)cc1)C1=Cc2cc(Cl)cc(-c3ccc(Cl)cc3)c2O[C@@H]1C(F)(F)F
REMARK SMILES IDX 8 1 7 2 6 3 5 4 4 5 3 6 2 7 1 8 78 9 79 10 95 11 80 12 94 13
REMARK SMILES IDX 81 14 93 15 82 16 85 17 83 18 84 19 96 20 97 21 98 22 99 23
REMARK SMILES IDX 86 24 87 25 92 26 88 27 91 28 89 29 90 30 9 31 10 32 11 33
REMARK SMILES IDX 12 34 13 35 14 36 15 37 16 38 77 39 17 40 76 41 18 42 19 43
REMARK SMILES IDX 20 44 70 45 21 46 75 47 69 48 71 49 22 50 74 51 68 52 67 53
REMARK SMILES IDX 23 55 55 56 35 57 54 58 36 59 39 60 53 61 72 62 37 63 38 64
REMARK SMILES IDX 52 66 73 67 40 68 24 69 25 70 33 71 26 72 32 73 34 74 31 75
REMARK SMILES IDX 27 76 28 77 29 78 30 79 56 80 57 81 65 82 58 83 64 84 66 85
REMARK SMILES IDX 63 86 59 87 60 88 61 89 62 90 41 91 42 92 50 93 43 94 49 95
REMARK SMILES IDX 51 96 48 97 44 98 45 99 46 100 47 101
REMARK H PARENT 71 54 39 65
REMARK Flexibility Score: inf
ROOT
ATOM      1  C   UNL     1       1.730   2.936   1.638  1.00  0.00     0.188 C 
ENDROOT
BRANCH   1   2
ATOM      2  C   UNL     1       2.216   1.481   1.617  1.00  0.00     0.188 C 
BRANCH   2   3
ATOM      3  O   UNL     1       3.662   1.050   1.782  1.00  0.00    -0.376 OA
BRANCH   3   4
ATOM      4  C   UNL     1       4.540  -0.139   0.818  1.00  0.00     0.202 C 
BRANCH   4   5
ATOM      5  C   UNL     1       3.842  -0.819  -1.124  1.00  0.00     0.261 C 
BRANCH   5   6
ATOM      6  O   UNL     1       2.895  -1.982  -1.389  1.00  0.00    -0.460 OA
BRANCH   6   7
ATOM      7  C   UNL     1       3.108  -2.999  -0.543  1.00  0.00     0.338 C 
ATOM      8  O   UNL     1       2.470  -4.013  -0.413  1.00  0.00    -0.246 OA
BRANCH   7   9
ATOM      9  C   UNL     1       3.981  -2.284   0.374  1.00  0.00     0.087 C 
ATOM     10  C   UNL     1       5.356  -2.135  -0.054  1.00  0.00     0.027 C 
ATOM     11  C   UNL     1       2.753  -0.836   0.609  1.00  0.00     0.316 C 
ATOM     12  C   UNL     1       6.040  -0.639  -0.747  1.00  0.00     0.019 A 
ATOM     13  O   UNL     1       3.419   0.792  -0.282  1.00  0.00    -0.475 OA
ATOM     14  C   UNL     1       7.279  -0.745  -1.325  1.00  0.00     0.032 A 
ATOM     15  C   UNL     1       5.128   0.820  -0.949  1.00  0.00     0.135 A 
ATOM     16  C   UNL     1       7.718   0.390  -2.009  1.00  0.00     0.042 A 
ATOM     17  C   UNL     1       5.683   1.924  -1.583  1.00  0.00     0.026 A 
ATOM     18  Cl  UNL     1       9.243   0.291  -2.825  1.00  0.00    -0.084 Cl
ATOM     19  C   UNL     1       6.986   1.630  -2.106  1.00  0.00     0.033 A 
BRANCH  11  20
ATOM     20  C   UNL     1       2.560  -1.285   2.269  1.00  0.00     0.430 C 
ATOM     21  F   UNL     1       2.450  -0.388   3.251  1.00  0.00    -0.167 F 
ATOM     22  F   UNL     1       1.448  -2.067   2.344  1.00  0.00    -0.167 F 
ATOM     23  F   UNL     1       3.575  -2.099   2.700  1.00  0.00    -0.167 F 
ENDBRANCH  11  20
BRANCH  17  24
ATOM     24  C   UNL     1       5.240   3.305  -1.752  1.00  0.00    -0.015 A 
ATOM     25  C   UNL     1       4.402   3.691  -2.802  1.00  0.00     0.010 A 
ATOM     26  C   UNL     1       5.846   4.329  -0.989  1.00  0.00     0.010 A 
ATOM     27  C   UNL     1       4.083   5.041  -3.005  1.00  0.00     0.021 A 
ATOM     28  C   UNL     1       5.506   5.676  -1.167  1.00  0.00     0.021 A 
ATOM     29  C   UNL     1       4.600   6.022  -2.161  1.00  0.00     0.041 A 
ATOM     30  Cl  UNL     1       4.111   7.662  -2.340  1.00  0.00    -0.084 Cl
ENDBRANCH  17  24
ENDBRANCH   7   9
ENDBRANCH   6   7
ENDBRANCH   5   6
ENDBRANCH   4   5
ENDBRANCH   3   4
ENDBRANCH   2   3
ENDBRANCH   1   2
BRANCH   1  31
ATOM     31  O   UNL     1       2.458   3.921   0.969  1.00  0.00    -0.376 OA
BRANCH  31  32
ATOM     32  C   UNL     1       3.831   3.959   1.277  1.00  0.00     0.202 C 
BRANCH  32  33
ATOM     33  C   UNL     1       4.336   4.220   2.693  1.00  0.00     0.261 C 
BRANCH  33  34
ATOM     34  O   UNL     1       3.956   3.229   3.646  1.00  0.00    -0.460 OA
BRANCH  34  35
ATOM     35  C   UNL     1       2.940   3.592   4.462  1.00  0.00     0.338 C 
ATOM     36  O   UNL     1       2.361   4.663   4.492  1.00  0.00    -0.246 OA
BRANCH  35  37
ATOM     37  C   UNL     1       2.486   2.396   5.183  1.00  0.00     0.060 A 
ATOM     38  C   UNL     1       1.164   1.964   5.009  1.00  0.00     0.016 A 
ATOM     39  C   UNL     1       3.347   1.756   6.074  1.00  0.00     0.016 A 
ATOM     40  C   UNL     1       0.684   0.898   5.750  1.00  0.00     0.010 A 
ATOM     41  C   UNL     1       2.848   0.723   6.864  1.00  0.00     0.010 A 
ATOM     42  C   UNL     1       1.503   0.335   6.734  1.00  0.00    -0.014 A 
BRANCH  42  43
ATOM     43  C   UNL     1       0.831  -0.384   7.833  1.00  0.00     0.031 A 
ATOM     44  C   UNL     1       0.390   0.438   9.013  1.00  0.00     0.074 A 
ATOM     45  C   UNL     1       0.539  -1.689   7.732  1.00  0.00     0.049 A 
ATOM     46  N   UNL     1      -0.261   0.073  10.084  1.00  0.00    -0.248 NA
ATOM     47  C   UNL     1       0.729   1.872   8.973  1.00  0.00     0.031 C 
ATOM     48  C   UNL     1       0.858  -2.540   6.588  1.00  0.00     0.029 A 
ATOM     49  N   UNL     1      -0.107  -2.519   8.607  1.00  0.00    -0.354 N 
ATOM     50  C   UNL     1      -0.406   1.229  10.843  1.00  0.00     0.074 A 
ATOM     51  C   UNL     1       0.259   2.296  10.133  1.00  0.00     0.031 C 
ATOM     52  C   UNL     1       0.401  -3.780   6.833  1.00  0.00     0.029 A 
ATOM     53  C   UNL     1      -0.207  -3.814   8.162  1.00  0.00     0.049 A 
ATOM     54  H   UNL     1      -0.465  -2.217   9.473  1.00  0.00     0.167 HD
ATOM     55  C   UNL     1      -1.044   1.381  12.027  1.00  0.00     0.034 A 
ATOM     56  C   UNL     1      -0.721  -4.897   8.777  1.00  0.00     0.034 A 
ATOM     57  C   UNL     1      -1.674   0.290  12.724  1.00  0.00     0.049 A 
ATOM     58  C   UNL     1      -1.330  -4.722  10.150  1.00  0.00     0.074 A 
ATOM     59  C   UNL     1      -2.348   0.313  13.930  1.00  0.00     0.029 A 
ATOM     60  N   UNL     1      -1.684  -1.030  12.285  1.00  0.00    -0.354 N 
ATOM     61  N   UNL     1      -1.467  -3.627  10.865  1.00  0.00    -0.248 NA
ATOM     62  C   UNL     1      -1.866  -5.928  10.790  1.00  0.00     0.031 C 
ATOM     63  C   UNL     1      -2.673  -1.003  14.270  1.00  0.00     0.029 A 
ATOM     64  C   UNL     1      -2.313  -1.835  13.220  1.00  0.00     0.049 A 
ATOM     65  H   UNL     1      -1.301  -1.345  11.435  1.00  0.00     0.167 HD
ATOM     66  C   UNL     1      -2.151  -4.008  12.018  1.00  0.00     0.074 A 
ATOM     67  C   UNL     1      -2.404  -5.429  11.892  1.00  0.00     0.031 C 
ATOM     68  C   UNL     1      -2.547  -3.254  13.078  1.00  0.00     0.034 A 
BRANCH  55  69
ATOM     69  C   UNL     1      -1.009   2.749  12.665  1.00  0.00     0.023 A 
ATOM     70  C   UNL     1      -1.577   3.879  12.050  1.00  0.00     0.031 A 
ATOM     71  C   UNL     1      -0.346   2.933  13.892  1.00  0.00     0.131 A 
ATOM     72  C   UNL     1      -1.405   5.148  12.624  1.00  0.00     0.055 A 
ATOM     73  C   UNL     1      -0.261   4.183  14.504  1.00  0.00     0.041 A 
ATOM     74  F   UNL     1       0.250   1.900  14.508  1.00  0.00    -0.206 F 
ATOM     75  C   UNL     1      -0.779   5.303  13.863  1.00  0.00     0.022 A 
BRANCH  72  76
ATOM     76  S   UNL     1      -1.858   6.611  11.650  1.00  0.00     0.124 S 
ATOM     77  O   UNL     1      -1.036   6.435  10.456  1.00  0.00    -0.237 OA
ATOM     78  O   UNL     1      -3.294   6.438  11.470  1.00  0.00    -0.237 OA
ATOM     79  O   UNL     1      -1.466   7.728  12.508  1.00  0.00    -0.744 OA
ENDBRANCH  72  76
ENDBRANCH  55  69
BRANCH  56  80
ATOM     80  C   UNL     1      -0.668  -6.238   8.127  1.00  0.00     0.023 A 
ATOM     81  C   UNL     1      -1.842  -6.954   7.841  1.00  0.00     0.031 A 
ATOM     82  C   UNL     1       0.563  -6.856   7.845  1.00  0.00     0.131 A 
ATOM     83  C   UNL     1      -1.759  -8.265   7.349  1.00  0.00     0.055 A 
ATOM     84  C   UNL     1       0.639  -8.134   7.290  1.00  0.00     0.041 A 
ATOM     85  F   UNL     1       1.718  -6.223   8.107  1.00  0.00    -0.206 F 
ATOM     86  C   UNL     1      -0.528  -8.854   7.054  1.00  0.00     0.022 A 
BRANCH  83  87
ATOM     87  S   UNL     1      -3.284  -9.238   7.215  1.00  0.00     0.124 S 
ATOM     88  O   UNL     1      -3.777  -9.203   8.587  1.00  0.00    -0.237 OA
ATOM     89  O   UNL     1      -4.050  -8.472   6.238  1.00  0.00    -0.237 OA
ATOM     90  O   UNL     1      -2.816 -10.543   6.753  1.00  0.00    -0.744 OA
ENDBRANCH  83  87
ENDBRANCH  56  80
BRANCH  68  91
ATOM     91  C   UNL     1      -3.357  -3.945  14.152  1.00  0.00     0.023 A 
ATOM     92  C   UNL     1      -2.837  -5.004  14.916  1.00  0.00     0.031 A 
ATOM     93  C   UNL     1      -4.685  -3.547  14.396  1.00  0.00     0.131 A 
ATOM     94  C   UNL     1      -3.666  -5.683  15.820  1.00  0.00     0.055 A 
ATOM     95  C   UNL     1      -5.474  -4.166  15.364  1.00  0.00     0.041 A 
ATOM     96  F   UNL     1      -5.239  -2.545  13.694  1.00  0.00    -0.206 F 
ATOM     97  C   UNL     1      -4.973  -5.256  16.068  1.00  0.00     0.022 A 
BRANCH  94  98
ATOM     98  S   UNL     1      -3.063  -7.228  16.554  1.00  0.00     0.124 S 
ATOM     99  O   UNL     1      -2.726  -8.012  15.371  1.00  0.00    -0.237 OA
ATOM    100  O   UNL     1      -1.935  -6.772  17.359  1.00  0.00    -0.237 OA
ATOM    101  O   UNL     1      -4.212  -7.716  17.316  1.00  0.00    -0.744 OA
ENDBRANCH  94  98
ENDBRANCH  68  91
ENDBRANCH  42  43
ENDBRANCH  35  37
ENDBRANCH  34  35
ENDBRANCH  33  34
ENDBRANCH  32  33
ENDBRANCH  31  32
ENDBRANCH   1  31
TORSDOF 22
