REMARK SMILES Cc1c(Br)c(C)c2c(c1Br)O[C@H](C(F)(F)F)C(C(=O)OCCOCCOCCOC(=O)c1ccc(-c3c4nc(c(-c5cc(S(=O)(=O)[O-])ccc5F)c5ccc([nH]5)c(-c5cc(S(=O)(=O)[O-])ccc5F)c5nc(c(-c6cc(S(=O)(=O)[O-])ccc6F)c6ccc3[nH]6)C=C5)C=C4)cc1)=C2
REMARK SMILES IDX 25 1 24 2 23 3 22 4 21 5 20 6 18 7 19 8 17 9 1 10 2 11 3 12
REMARK SMILES IDX 9 13 4 14 5 15 8 16 10 17 6 18 7 19 11 20 95 21 12 22 13 23
REMARK SMILES IDX 14 24 15 25 16 26 26 27 27 28 28 29 29 30 30 31 31 32 32 33
REMARK SMILES IDX 33 34 94 35 34 36 93 37 35 38 36 39 37 40 87 41 38 42 92 43
REMARK SMILES IDX 86 44 88 45 39 46 91 47 85 48 84 49 40 51 72 52 52 53 71 54
REMARK SMILES IDX 53 55 56 56 70 57 89 58 54 59 55 60 69 62 90 63 57 64 41 65
REMARK SMILES IDX 42 66 50 67 43 68 49 69 51 70 48 71 44 72 45 73 46 74 47 75
REMARK SMILES IDX 73 76 74 77 82 78 75 79 81 80 83 81 80 82 76 83 77 84 78 85
REMARK SMILES IDX 79 86 58 87 59 88 67 89 60 90 66 91 68 92 65 93 61 94 62 95
REMARK SMILES IDX 63 96 64 97
REMARK H PARENT 88 50 56 61
REMARK Flexibility Score: inf
ROOT
ATOM      1  C   UNL     1      -3.670   1.713  -7.199  1.00  0.00     0.188 C 
ENDROOT
BRANCH   1   2
ATOM      2  C   UNL     1      -2.916   2.857  -7.910  1.00  0.00     0.188 C 
BRANCH   2   3
ATOM      3  O   UNL     1      -2.947   2.987  -9.317  1.00  0.00    -0.376 OA
BRANCH   3   4
ATOM      4  C   UNL     1      -2.476   1.966 -10.176  1.00  0.00     0.202 C 
BRANCH   4   5
ATOM      5  C   UNL     1      -1.284   1.065  -9.836  1.00  0.00     0.261 C 
BRANCH   5   6
ATOM      6  O   UNL     1      -1.204   0.639  -8.475  1.00  0.00    -0.460 OA
BRANCH   6   7
ATOM      7  C   UNL     1      -0.113   1.079  -7.804  1.00  0.00     0.338 C 
ATOM      8  O   UNL     1       0.788   1.773  -8.249  1.00  0.00    -0.246 OA
BRANCH   7   9
ATOM      9  C   UNL     1      -0.208   0.676  -6.390  1.00  0.00     0.087 C 
ATOM     10  C   UNL     1       0.720  -0.153   0.014  1.00  0.00     0.047 C 
ATOM     11  C   UNL     1       0.428   0.330  -1.388  1.00  0.00    -0.019 A 
ATOM     12  C   UNL     1       0.650   1.689  -1.730  1.00  0.00     0.025 A 
ATOM     13  C   UNL     1      -0.011  -0.545  -2.401  1.00  0.00     0.064 A 
ATOM     14  Br  UNL     1       1.274   2.889  -0.365  1.00  0.00    -0.050 Br
ATOM     15  C   UNL     1       0.460   2.165  -3.052  1.00  0.00    -0.026 A 
ATOM     16  C   UNL     1      -0.173  -0.096  -3.725  1.00  0.00     0.142 A 
ATOM     17  Br  UNL     1      -0.358  -2.397  -2.040  1.00  0.00    -0.046 Br
ATOM     18  C   UNL     1       0.645   3.623  -3.421  1.00  0.00     0.046 C 
ATOM     19  C   UNL     1       0.100   1.238  -4.061  1.00  0.00     0.022 A 
ATOM     20  O   UNL     1      -0.615  -1.020  -4.638  1.00  0.00    -0.474 OA
ATOM     21  C   UNL     1       0.071   1.612  -5.476  1.00  0.00     0.027 C 
ATOM     22  C   UNL     1      -0.582  -0.732  -6.053  1.00  0.00     0.316 C 
BRANCH  22  23
ATOM     23  C   UNL     1       0.317  -1.770  -6.742  1.00  0.00     0.430 C 
ATOM     24  F   UNL     1      -0.041  -3.033  -6.402  1.00  0.00    -0.167 F 
ATOM     25  F   UNL     1       0.226  -1.700  -8.092  1.00  0.00    -0.167 F 
ATOM     26  F   UNL     1       1.620  -1.616  -6.417  1.00  0.00    -0.167 F 
ENDBRANCH  22  23
ENDBRANCH   7   9
ENDBRANCH   6   7
ENDBRANCH   5   6
ENDBRANCH   4   5
ENDBRANCH   3   4
ENDBRANCH   2   3
ENDBRANCH   1   2
BRANCH   1  27
ATOM     27  O   UNL     1      -4.519   0.850  -7.934  1.00  0.00    -0.376 OA
BRANCH  27  28
ATOM     28  C   UNL     1      -5.563   1.427  -8.708  1.00  0.00     0.202 C 
BRANCH  28  29
ATOM     29  C   UNL     1      -6.546   2.396  -8.044  1.00  0.00     0.261 C 
BRANCH  29  30
ATOM     30  O   UNL     1      -5.905   3.564  -7.507  1.00  0.00    -0.460 OA
BRANCH  30  31
ATOM     31  C   UNL     1      -6.135   3.794  -6.189  1.00  0.00     0.338 C 
ATOM     32  O   UNL     1      -6.871   3.166  -5.450  1.00  0.00    -0.246 OA
BRANCH  31  33
ATOM     33  C   UNL     1      -5.185   4.814  -5.706  1.00  0.00     0.060 A 
ATOM     34  C   UNL     1      -4.240   4.430  -4.746  1.00  0.00     0.016 A 
ATOM     35  C   UNL     1      -5.240   6.133  -6.163  1.00  0.00     0.016 A 
ATOM     36  C   UNL     1      -3.349   5.369  -4.231  1.00  0.00     0.010 A 
ATOM     37  C   UNL     1      -4.367   7.082  -5.620  1.00  0.00     0.010 A 
ATOM     38  C   UNL     1      -3.433   6.708  -4.636  1.00  0.00    -0.014 A 
BRANCH  38  39
ATOM     39  C   UNL     1      -2.686   7.732  -3.867  1.00  0.00     0.031 A 
ATOM     40  C   UNL     1      -3.352   8.335  -2.660  1.00  0.00     0.074 A 
ATOM     41  C   UNL     1      -1.421   8.063  -4.181  1.00  0.00     0.049 A 
ATOM     42  N   UNL     1      -2.889   9.213  -1.811  1.00  0.00    -0.248 NA
ATOM     43  C   UNL     1      -4.718   7.871  -2.367  1.00  0.00     0.031 C 
ATOM     44  C   UNL     1      -0.647   7.499  -5.285  1.00  0.00     0.029 A 
ATOM     45  N   UNL     1      -0.559   8.951  -3.585  1.00  0.00    -0.354 N 
ATOM     46  C   UNL     1      -3.895   9.389  -0.868  1.00  0.00     0.074 A 
ATOM     47  C   UNL     1      -5.008   8.557  -1.272  1.00  0.00     0.031 C 
ATOM     48  C   UNL     1       0.580   8.052  -5.284  1.00  0.00     0.029 A 
ATOM     49  C   UNL     1       0.670   9.029  -4.199  1.00  0.00     0.049 A 
ATOM     50  H   UNL     1      -0.798   9.482  -2.792  1.00  0.00     0.167 HD
ATOM     51  C   UNL     1      -3.887  10.160   0.244  1.00  0.00     0.034 A 
ATOM     52  C   UNL     1       1.734   9.813  -3.924  1.00  0.00     0.034 A 
ATOM     53  C   UNL     1      -2.791  11.007   0.628  1.00  0.00     0.049 A 
ATOM     54  C   UNL     1       1.658  10.783  -2.769  1.00  0.00     0.074 A 
ATOM     55  C   UNL     1      -2.688  11.832   1.734  1.00  0.00     0.029 A 
ATOM     56  N   UNL     1      -1.614  11.151  -0.091  1.00  0.00    -0.354 N 
ATOM     57  N   UNL     1       0.695  10.946  -1.891  1.00  0.00    -0.248 NA
ATOM     58  C   UNL     1       2.804  11.685  -2.576  1.00  0.00     0.031 C 
ATOM     59  C   UNL     1      -1.477  12.524   1.648  1.00  0.00     0.029 A 
ATOM     60  C   UNL     1      -0.799  12.086   0.521  1.00  0.00     0.049 A 
ATOM     61  H   UNL     1      -1.392  10.662  -0.916  1.00  0.00     0.167 HD
ATOM     62  C   UNL     1       1.126  11.959  -1.038  1.00  0.00     0.074 A 
ATOM     63  C   UNL     1       2.436  12.366  -1.498  1.00  0.00     0.031 C 
ATOM     64  C   UNL     1       0.494  12.499   0.034  1.00  0.00     0.034 A 
BRANCH  51  65
ATOM     65  C   UNL     1      -5.122  10.146   1.100  1.00  0.00     0.023 A 
ATOM     66  C   UNL     1      -5.473   9.015   1.855  1.00  0.00     0.031 A 
ATOM     67  C   UNL     1      -5.961  11.272   1.156  1.00  0.00     0.131 A 
ATOM     68  C   UNL     1      -6.658   9.018   2.602  1.00  0.00     0.055 A 
ATOM     69  C   UNL     1      -7.108  11.290   1.949  1.00  0.00     0.041 A 
ATOM     70  F   UNL     1      -5.680  12.369   0.434  1.00  0.00    -0.206 F 
ATOM     71  C   UNL     1      -7.467  10.156   2.672  1.00  0.00     0.022 A 
BRANCH  68  72
ATOM     72  S   UNL     1      -7.175   7.483   3.416  1.00  0.00     0.124 S 
ATOM     73  O   UNL     1      -7.412   6.608   2.271  1.00  0.00    -0.237 OA
ATOM     74  O   UNL     1      -6.018   7.155   4.241  1.00  0.00    -0.237 OA
ATOM     75  O   UNL     1      -8.374   7.874   4.154  1.00  0.00    -0.744 OA
ENDBRANCH  68  72
ENDBRANCH  51  65
BRANCH  52  76
ATOM     76  C   UNL     1       2.950   9.759  -4.782  1.00  0.00     0.023 A 
ATOM     77  C   UNL     1       4.172   9.286  -4.279  1.00  0.00     0.031 A 
ATOM     78  C   UNL     1       2.915  10.223  -6.109  1.00  0.00     0.131 A 
ATOM     79  C   UNL     1       5.317   9.309  -5.093  1.00  0.00     0.055 A 
ATOM     80  C   UNL     1       4.046  10.210  -6.926  1.00  0.00     0.041 A 
ATOM     81  F   UNL     1       1.770  10.690  -6.633  1.00  0.00    -0.206 F 
ATOM     82  C   UNL     1       5.259   9.756  -6.416  1.00  0.00     0.022 A 
BRANCH  79  83
ATOM     83  S   UNL     1       6.901   8.778  -4.387  1.00  0.00     0.124 S 
ATOM     84  O   UNL     1       7.129   9.799  -3.371  1.00  0.00    -0.237 OA
ATOM     85  O   UNL     1       6.583   7.441  -3.896  1.00  0.00    -0.237 OA
ATOM     86  O   UNL     1       7.812   8.817  -5.529  1.00  0.00    -0.744 OA
ENDBRANCH  79  83
ENDBRANCH  52  76
BRANCH  64  87
ATOM     87  C   UNL     1       1.199  13.594   0.789  1.00  0.00     0.023 A 
ATOM     88  C   UNL     1       1.284  14.895   0.268  1.00  0.00     0.031 A 
ATOM     89  C   UNL     1       1.705  13.355   2.079  1.00  0.00     0.131 A 
ATOM     90  C   UNL     1       1.873  15.913   1.033  1.00  0.00     0.055 A 
ATOM     91  C   UNL     1       2.255  14.379   2.850  1.00  0.00     0.041 A 
ATOM     92  F   UNL     1       1.637  12.129   2.622  1.00  0.00    -0.206 F 
ATOM     93  C   UNL     1       2.342  15.667   2.328  1.00  0.00     0.022 A 
BRANCH  90  94
ATOM     94  S   UNL     1       2.018  17.573   0.318  1.00  0.00     0.124 S 
ATOM     95  O   UNL     1       2.991  17.358  -0.748  1.00  0.00    -0.237 OA
ATOM     96  O   UNL     1       0.652  17.854  -0.114  1.00  0.00    -0.237 OA
ATOM     97  O   UNL     1       2.491  18.388   1.435  1.00  0.00    -0.744 OA
ENDBRANCH  90  94
ENDBRANCH  64  87
ENDBRANCH  38  39
ENDBRANCH  31  33
ENDBRANCH  30  31
ENDBRANCH  29  30
ENDBRANCH  28  29
ENDBRANCH  27  28
ENDBRANCH   1  27
TORSDOF 21
