REMARK SMILES O=C(OCCOCCOCCOC(=O)c1ccc(N2C(=O)/C(=C\c3ccc4c(c3)OCO4)[NH+]=C2c2ccccc2)cc1)c1ccc(-c2c3nc(c(-c4cc(S(=O)(=O)[O-])ccc4F)c4ccc([nH]4)c(-c4cc(S(=O)(=O)[O-])ccc4F)c4nc(c(-c5cc(S(=O)(=O)[O-])ccc5F)c5ccc2[nH]5)C=C4)C=C3)cc1
REMARK SMILES IDX 7 1 6 2 5 3 4 4 3 5 2 6 1 7 43 8 44 9 105 10 45 11 104 12
REMARK SMILES IDX 46 13 47 14 48 15 98 16 49 17 103 18 97 19 99 20 50 21
REMARK SMILES IDX 102 22 96 23 95 24 51 26 83 27 63 28 82 29 64 30 67 31 81 32
REMARK SMILES IDX 100 33 65 34 66 35 80 37 101 38 68 39 52 40 53 41 61 42
REMARK SMILES IDX 54 43 60 44 62 45 59 46 55 47 56 48 57 49 58 50 84 51 85 52
REMARK SMILES IDX 93 53 86 54 92 55 94 56 91 57 87 58 88 59 89 60 90 61 69 62
REMARK SMILES IDX 70 63 78 64 71 65 77 66 79 67 76 68 72 69 73 70 74 71 75 72
REMARK SMILES IDX 8 73 9 74 10 75 11 76 12 77 13 78 14 79 15 80 16 81 42 82
REMARK SMILES IDX 17 83 41 84 18 85 19 86 20 87 34 88 21 89 22 90 33 91 23 92
REMARK SMILES IDX 35 94 36 95 40 96 37 97 39 98 38 99 24 100 25 101 29 102
REMARK SMILES IDX 26 103 28 104 27 105 30 106 32 107 31 108
REMARK H PARENT 99 25 67 36 33 93
REMARK Flexibility Score: inf
ROOT
ATOM      1  C   UNL     1       2.566  -2.194  -0.181  1.00  0.00     0.188 C 
ENDROOT
BRANCH   1   2
ATOM      2  O   UNL     1       3.850  -1.716  -0.562  1.00  0.00    -0.376 OA
BRANCH   2   3
ATOM      3  C   UNL     1       4.747  -1.305   0.467  1.00  0.00     0.202 C 
BRANCH   3   4
ATOM      4  C   UNL     1       4.289  -0.202   1.434  1.00  0.00     0.261 C 
BRANCH   4   5
ATOM      5  O   UNL     1       2.897   0.145   1.353  1.00  0.00    -0.460 OA
BRANCH   5   6
ATOM      6  C   UNL     1       2.334   1.077   0.545  1.00  0.00     0.338 C 
ATOM      7  O   UNL     1       1.141   1.345   0.654  1.00  0.00    -0.246 OA
BRANCH   6   8
ATOM      8  C   UNL     1       3.140   1.806  -0.458  1.00  0.00     0.060 A 
ATOM      9  C   UNL     1       4.001   1.189  -1.366  1.00  0.00     0.016 A 
ATOM     10  C   UNL     1       2.942   3.176  -0.561  1.00  0.00     0.016 A 
ATOM     11  C   UNL     1       4.813   1.919  -2.226  1.00  0.00     0.010 A 
ATOM     12  C   UNL     1       3.662   3.896  -1.510  1.00  0.00     0.010 A 
ATOM     13  C   UNL     1       4.647   3.289  -2.320  1.00  0.00    -0.014 A 
BRANCH  13  14
ATOM     14  C   UNL     1       5.508   4.142  -3.182  1.00  0.00     0.031 A 
ATOM     15  C   UNL     1       6.084   5.371  -2.541  1.00  0.00     0.074 A 
ATOM     16  C   UNL     1       5.635   3.931  -4.507  1.00  0.00     0.049 A 
ATOM     17  N   UNL     1       6.363   6.532  -3.063  1.00  0.00    -0.248 NA
ATOM     18  C   UNL     1       6.253   5.299  -1.081  1.00  0.00     0.031 C 
ATOM     19  C   UNL     1       5.157   2.760  -5.247  1.00  0.00     0.029 A 
ATOM     20  N   UNL     1       6.105   4.772  -5.493  1.00  0.00    -0.354 N 
ATOM     21  C   UNL     1       6.656   7.358  -1.983  1.00  0.00     0.074 A 
ATOM     22  C   UNL     1       6.445   6.573  -0.785  1.00  0.00     0.031 C 
ATOM     23  C   UNL     1       5.283   2.985  -6.563  1.00  0.00     0.029 A 
ATOM     24  C   UNL     1       5.751   4.350  -6.758  1.00  0.00     0.049 A 
ATOM     25  H   UNL     1       6.634   5.583  -5.315  1.00  0.00     0.167 HD
ATOM     26  C   UNL     1       7.069   8.650  -2.003  1.00  0.00     0.034 A 
ATOM     27  C   UNL     1       5.669   5.027  -7.922  1.00  0.00     0.034 A 
ATOM     28  C   UNL     1       7.278   9.371  -3.233  1.00  0.00     0.049 A 
ATOM     29  C   UNL     1       6.029   6.486  -7.936  1.00  0.00     0.074 A 
ATOM     30  C   UNL     1       7.797  10.637  -3.422  1.00  0.00     0.029 A 
ATOM     31  N   UNL     1       6.970   8.873  -4.495  1.00  0.00    -0.354 N 
ATOM     32  N   UNL     1       6.321   7.274  -6.926  1.00  0.00    -0.248 NA
ATOM     33  C   UNL     1       6.055   7.144  -9.247  1.00  0.00     0.031 C 
ATOM     34  C   UNL     1       7.744  10.928  -4.790  1.00  0.00     0.029 A 
ATOM     35  C   UNL     1       7.271   9.812  -5.464  1.00  0.00     0.049 A 
ATOM     36  H   UNL     1       6.592   7.981  -4.673  1.00  0.00     0.167 HD
ATOM     37  C   UNL     1       6.652   8.502  -7.491  1.00  0.00     0.074 A 
ATOM     38  C   UNL     1       6.464   8.363  -8.922  1.00  0.00     0.031 C 
ATOM     39  C   UNL     1       7.114   9.626  -6.888  1.00  0.00     0.034 A 
BRANCH  26  40
ATOM     40  C   UNL     1       7.287   9.331  -0.670  1.00  0.00     0.023 A 
ATOM     41  C   UNL     1       8.136   8.776   0.305  1.00  0.00     0.031 A 
ATOM     42  C   UNL     1       6.570  10.488  -0.320  1.00  0.00     0.131 A 
ATOM     43  C   UNL     1       8.126   9.274   1.615  1.00  0.00     0.055 A 
ATOM     44  C   UNL     1       6.664  11.059   0.953  1.00  0.00     0.041 A 
ATOM     45  F   UNL     1       5.729  11.065  -1.193  1.00  0.00    -0.206 F 
ATOM     46  C   UNL     1       7.421  10.433   1.940  1.00  0.00     0.022 A 
BRANCH  43  47
ATOM     47  S   UNL     1       8.854   8.246   2.921  1.00  0.00     0.124 S 
ATOM     48  O   UNL     1       8.058   7.025   2.808  1.00  0.00    -0.237 OA
ATOM     49  O   UNL     1      10.246   8.139   2.501  1.00  0.00    -0.237 OA
ATOM     50  O   UNL     1       8.623   9.021   4.137  1.00  0.00    -0.744 OA
ENDBRANCH  43  47
ENDBRANCH  26  40
BRANCH  27  51
ATOM     51  C   UNL     1       5.093   4.371  -9.130  1.00  0.00     0.023 A 
ATOM     52  C   UNL     1       5.881   4.022 -10.232  1.00  0.00     0.031 A 
ATOM     53  C   UNL     1       3.717   4.088  -9.188  1.00  0.00     0.131 A 
ATOM     54  C   UNL     1       5.280   3.434 -11.359  1.00  0.00     0.055 A 
ATOM     55  C   UNL     1       3.131   3.463 -10.288  1.00  0.00     0.041 A 
ATOM     56  F   UNL     1       2.931   4.398  -8.149  1.00  0.00    -0.206 F 
ATOM     57  C   UNL     1       3.913   3.144 -11.390  1.00  0.00     0.022 A 
BRANCH  54  58
ATOM     58  S   UNL     1       6.311   3.082 -12.807  1.00  0.00     0.124 S 
ATOM     59  O   UNL     1       6.798   4.412 -13.154  1.00  0.00    -0.237 OA
ATOM     60  O   UNL     1       7.299   2.161 -12.254  1.00  0.00    -0.237 OA
ATOM     61  O   UNL     1       5.373   2.490 -13.758  1.00  0.00    -0.744 OA
ENDBRANCH  54  58
ENDBRANCH  27  51
BRANCH  39  62
ATOM     62  C   UNL     1       7.627  10.723  -7.782  1.00  0.00     0.023 A 
ATOM     63  C   UNL     1       6.786  11.546  -8.544  1.00  0.00     0.031 A 
ATOM     64  C   UNL     1       9.015  10.954  -7.831  1.00  0.00     0.131 A 
ATOM     65  C   UNL     1       7.348  12.551  -9.347  1.00  0.00     0.055 A 
ATOM     66  C   UNL     1       9.562  11.989  -8.585  1.00  0.00     0.041 A 
ATOM     67  F   UNL     1       9.860  10.184  -7.125  1.00  0.00    -0.206 F 
ATOM     68  C   UNL     1       8.726  12.791  -9.354  1.00  0.00     0.022 A 
BRANCH  65  69
ATOM     69  S   UNL     1       6.262  13.513 -10.435  1.00  0.00     0.124 S 
ATOM     70  O   UNL     1       5.715  12.477 -11.305  1.00  0.00    -0.237 OA
ATOM     71  O   UNL     1       5.326  14.114  -9.491  1.00  0.00    -0.237 OA
ATOM     72  O   UNL     1       7.174  14.453 -11.085  1.00  0.00    -0.744 OA
ENDBRANCH  65  69
ENDBRANCH  39  62
ENDBRANCH  13  14
ENDBRANCH   6   8
ENDBRANCH   5   6
ENDBRANCH   4   5
ENDBRANCH   3   4
ENDBRANCH   2   3
ENDBRANCH   1   2
BRANCH   1  73
ATOM     73  C   UNL     1       1.918  -3.012  -1.304  1.00  0.00     0.188 C 
BRANCH  73  74
ATOM     74  O   UNL     1       2.582  -4.220  -1.666  1.00  0.00    -0.376 OA
BRANCH  74  75
ATOM     75  C   UNL     1       3.951  -4.098  -2.036  1.00  0.00     0.202 C 
BRANCH  75  76
ATOM     76  C   UNL     1       4.291  -3.328  -3.326  1.00  0.00     0.261 C 
BRANCH  76  77
ATOM     77  O   UNL     1       3.648  -2.046  -3.524  1.00  0.00    -0.460 OA
BRANCH  77  78
ATOM     78  C   UNL     1       2.857  -1.980  -4.629  1.00  0.00     0.338 C 
ATOM     79  O   UNL     1       2.559  -2.920  -5.353  1.00  0.00    -0.246 OA
BRANCH  78  80
ATOM     80  C   UNL     1       2.454  -0.593  -4.984  1.00  0.00     0.060 A 
ATOM     81  C   UNL     1       1.776   0.279  -4.123  1.00  0.00     0.020 A 
ATOM     82  C   UNL     1       2.643  -0.213  -6.313  1.00  0.00     0.020 A 
ATOM     83  C   UNL     1       1.280   1.520  -4.602  1.00  0.00     0.053 A 
ATOM     84  C   UNL     1       2.121   0.996  -6.787  1.00  0.00     0.053 A 
ATOM     85  C   UNL     1       1.417   1.881  -5.952  1.00  0.00     0.136 A 
BRANCH  85  86
ATOM     86  N   UNL     1       0.828   3.047  -6.519  1.00  0.00    -0.154 N 
ATOM     87  C   UNL     1       0.283   3.071  -7.790  1.00  0.00     0.385 C 
ATOM     88  C   UNL     1       0.717   4.324  -6.038  1.00  0.00     0.295 C 
ATOM     89  O   UNL     1       0.107   2.160  -8.585  1.00  0.00    -0.236 OA
ATOM     90  C   UNL     1      -0.081   4.517  -7.988  1.00  0.00     0.216 C 
ATOM     91  N   UNL     1       0.185   5.201  -6.840  1.00  0.00    -0.233 N 
ATOM     92  C   UNL     1      -0.598   5.124  -9.065  1.00  0.00     0.068 C 
ATOM     93  H   UNL     1       0.012   6.153  -6.656  1.00  0.00     0.312 HD
BRANCH  88  94
ATOM     94  C   UNL     1       1.296   4.846  -4.806  1.00  0.00     0.065 A 
ATOM     95  C   UNL     1       0.458   5.311  -3.789  1.00  0.00     0.017 A 
ATOM     96  C   UNL     1       2.582   5.360  -4.950  1.00  0.00     0.017 A 
ATOM     97  C   UNL     1       0.936   6.274  -2.896  1.00  0.00     0.001 A 
ATOM     98  C   UNL     1       3.039   6.345  -4.083  1.00  0.00     0.001 A 
ATOM     99  C   UNL     1       2.221   6.799  -3.053  1.00  0.00     0.000 A 
ENDBRANCH  88  94
BRANCH  92 100
ATOM    100  C   UNL     1      -1.245   4.366 -10.123  1.00  0.00    -0.017 A 
ATOM    101  C   UNL     1      -0.624   4.041 -11.343  1.00  0.00     0.012 A 
ATOM    102  C   UNL     1      -2.496   3.834  -9.785  1.00  0.00     0.059 A 
ATOM    103  C   UNL     1      -1.213   3.098 -12.194  1.00  0.00     0.051 A 
ATOM    104  C   UNL     1      -3.018   2.879 -10.611  1.00  0.00     0.166 A 
ATOM    105  C   UNL     1      -2.386   2.503 -11.774  1.00  0.00     0.165 A 
ATOM    106  O   UNL     1      -4.127   2.139 -10.348  1.00  0.00    -0.454 OA
ATOM    107  O   UNL     1      -3.030   1.463 -12.375  1.00  0.00    -0.454 OA
ATOM    108  C   UNL     1      -3.937   1.091 -11.314  1.00  0.00     0.468 C 
ENDBRANCH  92 100
ENDBRANCH  85  86
ENDBRANCH  78  80
ENDBRANCH  77  78
ENDBRANCH  76  77
ENDBRANCH  75  76
ENDBRANCH  74  75
ENDBRANCH  73  74
ENDBRANCH   1  73
TORSDOF 23
