REMARK SMILES CC[C@](C)(NC(=O)NC[C@H]1COCCO1)C(=O)OCCOCCOCCOC(=O)c1ccc(-c2c3nc(c(-c4cc(S(=O)(=O)[O-])ccc4F)c4ccc([nH]4)c(-c4cc(S(=O)(=O)[O-])ccc4F)c4nc(c(-c5cc(S(=O)(=O)[O-])ccc5F)c5ccc2[nH]5)C=C4)C=C3)cc1
REMARK SMILES IDX 22 1 21 2 20 3 19 4 18 5 16 6 17 7 3 8 4 9 2 10 1 11 5 12
REMARK SMILES IDX 6 13 7 15 8 16 9 18 10 19 11 20 15 21 12 22 14 23 13 24
REMARK SMILES IDX 23 25 24 26 25 27 26 28 27 29 28 30 29 31 30 32 31 33 92 34
REMARK SMILES IDX 32 35 91 36 33 37 34 38 35 39 85 40 36 41 90 42 84 43 86 44
REMARK SMILES IDX 37 45 89 46 83 47 82 48 38 50 70 51 50 52 69 53 51 54 54 55
REMARK SMILES IDX 68 56 87 57 52 58 53 59 67 61 88 62 55 63 39 64 40 65 48 66
REMARK SMILES IDX 41 67 47 68 49 69 46 70 42 71 43 72 44 73 45 74 71 75 72 76
REMARK SMILES IDX 80 77 73 78 79 79 81 80 78 81 74 82 75 83 76 84 77 85 56 86
REMARK SMILES IDX 57 87 65 88 58 89 64 90 66 91 63 92 59 93 60 94 61 95 62 96
REMARK H PARENT 5 14 8 17 86 49 54 60
REMARK Flexibility Score: inf
ROOT
ATOM      1  C   UNL     1       0.951  -3.347   4.478  1.00  0.00     0.188 C 
ENDROOT
BRANCH   1   2
ATOM      2  O   UNL     1       1.168  -3.082   3.090  1.00  0.00    -0.376 OA
BRANCH   2   3
ATOM      3  C   UNL     1       0.997  -1.710   2.742  1.00  0.00     0.202 C 
BRANCH   3   4
ATOM      4  C   UNL     1       2.318  -0.972   2.900  1.00  0.00     0.261 C 
BRANCH   4   5
ATOM      5  O   UNL     1       2.840  -1.191   4.226  1.00  0.00    -0.462 OA
BRANCH   5   6
ATOM      6  C   UNL     1       3.179  -0.119   4.968  1.00  0.00     0.331 C 
ATOM      7  O   UNL     1       2.910   1.033   4.644  1.00  0.00    -0.249 OA
BRANCH   6   8
ATOM      8  C   UNL     1       3.887  -0.501   6.306  1.00  0.00     0.136 C 
ATOM      9  C   UNL     1       2.738  -0.258   7.334  1.00  0.00     0.047 C 
BRANCH   8  10
ATOM     10  C   UNL     1       5.000   0.536   6.608  1.00  0.00     0.037 C 
ATOM     11  C   UNL     1       6.016   0.745   5.495  1.00  0.00     0.007 C 
ENDBRANCH   8  10
BRANCH   8  12
ATOM     12  N   UNL     1       4.370  -1.882   6.666  1.00  0.00    -0.322 N 
ATOM     13  C   UNL     1       5.248  -2.818   6.304  1.00  0.00     0.315 C 
ATOM     14  H   UNL     1       3.856  -2.209   7.439  1.00  0.00     0.166 HD
ATOM     15  O   UNL     1       5.633  -3.585   7.191  1.00  0.00    -0.249 OA
ATOM     16  N   UNL     1       5.693  -3.033   5.070  1.00  0.00    -0.335 N 
ATOM     17  H   UNL     1       6.420  -3.695   5.012  1.00  0.00     0.165 HD
BRANCH  16  18
ATOM     18  C   UNL     1       5.302  -2.475   3.806  1.00  0.00     0.152 C 
BRANCH  18  19
ATOM     19  C   UNL     1       6.257  -2.720   2.623  1.00  0.00     0.163 C 
ATOM     20  C   UNL     1       6.409  -1.429   1.802  1.00  0.00     0.194 C 
ATOM     21  O   UNL     1       7.548  -3.229   3.004  1.00  0.00    -0.372 OA
ATOM     22  O   UNL     1       7.139  -0.442   2.543  1.00  0.00    -0.376 OA
ATOM     23  C   UNL     1       8.342  -2.249   3.681  1.00  0.00     0.189 C 
ATOM     24  C   UNL     1       8.434  -0.945   2.894  1.00  0.00     0.188 C 
ENDBRANCH  18  19
ENDBRANCH  16  18
ENDBRANCH   8  12
ENDBRANCH   6   8
ENDBRANCH   5   6
ENDBRANCH   4   5
ENDBRANCH   3   4
ENDBRANCH   2   3
ENDBRANCH   1   2
BRANCH   1  25
ATOM     25  C   UNL     1       2.135  -4.082   5.125  1.00  0.00     0.188 C 
BRANCH  25  26
ATOM     26  O   UNL     1       2.842  -5.075   4.393  1.00  0.00    -0.376 OA
BRANCH  26  27
ATOM     27  C   UNL     1       2.097  -5.953   3.566  1.00  0.00     0.202 C 
BRANCH  27  28
ATOM     28  C   UNL     1       1.160  -6.934   4.277  1.00  0.00     0.261 C 
BRANCH  28  29
ATOM     29  O   UNL     1       0.115  -6.264   5.002  1.00  0.00    -0.460 OA
BRANCH  29  30
ATOM     30  C   UNL     1       0.161  -6.362   6.356  1.00  0.00     0.338 C 
ATOM     31  O   UNL     1       0.906  -7.064   7.018  1.00  0.00    -0.246 OA
BRANCH  30  32
ATOM     32  C   UNL     1      -0.690  -5.290   6.925  1.00  0.00     0.060 A 
ATOM     33  C   UNL     1      -0.133  -4.430   7.885  1.00  0.00     0.016 A 
ATOM     34  C   UNL     1      -1.997  -5.094   6.477  1.00  0.00     0.016 A 
ATOM     35  C   UNL     1      -0.880  -3.367   8.396  1.00  0.00     0.010 A 
ATOM     36  C   UNL     1      -2.756  -4.053   7.017  1.00  0.00     0.010 A 
ATOM     37  C   UNL     1      -2.209  -3.197   7.990  1.00  0.00    -0.014 A 
BRANCH  37  38
ATOM     38  C   UNL     1      -3.123  -2.296   8.733  1.00  0.00     0.031 A 
ATOM     39  C   UNL     1      -3.892  -2.890   9.879  1.00  0.00     0.074 A 
ATOM     40  C   UNL     1      -3.330  -1.023   8.351  1.00  0.00     0.049 A 
ATOM     41  N   UNL     1      -4.906  -2.404  10.542  1.00  0.00    -0.248 NA
ATOM     42  C   UNL     1      -3.464  -4.228  10.323  1.00  0.00     0.031 C 
ATOM     43  C   UNL     1      -2.599  -0.324   7.296  1.00  0.00     0.029 A 
ATOM     44  N   UNL     1      -4.250  -0.101   8.790  1.00  0.00    -0.354 N 
ATOM     45  C   UNL     1      -5.257  -3.386  11.461  1.00  0.00     0.074 A 
ATOM     46  C   UNL     1      -4.350  -4.495  11.269  1.00  0.00     0.031 C 
ATOM     47  C   UNL     1      -3.128   0.903   7.139  1.00  0.00     0.029 A 
ATOM     48  C   UNL     1      -4.269   1.056   8.042  1.00  0.00     0.049 A 
ATOM     49  H   UNL     1      -4.838  -0.252   9.565  1.00  0.00     0.167 HD
ATOM     50  C   UNL     1      -6.259  -3.367  12.372  1.00  0.00     0.034 A 
ATOM     51  C   UNL     1      -5.145   2.084   8.050  1.00  0.00     0.034 A 
ATOM     52  C   UNL     1      -7.163  -2.260  12.535  1.00  0.00     0.049 A 
ATOM     53  C   UNL     1      -6.316   2.039   9.011  1.00  0.00     0.074 A 
ATOM     54  C   UNL     1      -8.190  -2.116  13.450  1.00  0.00     0.029 A 
ATOM     55  N   UNL     1      -7.165  -1.117  11.747  1.00  0.00    -0.354 N 
ATOM     56  N   UNL     1      -6.626   1.117   9.895  1.00  0.00    -0.248 NA
ATOM     57  C   UNL     1      -7.260   3.166   8.968  1.00  0.00     0.031 C 
ATOM     58  C   UNL     1      -8.864  -0.925  13.163  1.00  0.00     0.029 A 
ATOM     59  C   UNL     1      -8.207  -0.286  12.123  1.00  0.00     0.049 A 
ATOM     60  H   UNL     1      -6.522  -0.926  11.027  1.00  0.00     0.167 HD
ATOM     61  C   UNL     1      -7.782   1.571  10.529  1.00  0.00     0.074 A 
ATOM     62  C   UNL     1      -8.106   2.851   9.937  1.00  0.00     0.031 C 
ATOM     63  C   UNL     1      -8.512   0.987  11.514  1.00  0.00     0.034 A 
BRANCH  50  64
ATOM     64  C   UNL     1      -6.470  -4.609  13.198  1.00  0.00     0.023 A 
ATOM     65  C   UNL     1      -5.520  -5.051  14.135  1.00  0.00     0.031 A 
ATOM     66  C   UNL     1      -7.635  -5.376  13.024  1.00  0.00     0.131 A 
ATOM     67  C   UNL     1      -5.727  -6.257  14.820  1.00  0.00     0.055 A 
ATOM     68  C   UNL     1      -7.869  -6.536  13.763  1.00  0.00     0.041 A 
ATOM     69  F   UNL     1      -8.562  -5.016  12.122  1.00  0.00    -0.206 F 
ATOM     70  C   UNL     1      -6.907  -6.990  14.659  1.00  0.00     0.022 A 
BRANCH  67  71
ATOM     71  S   UNL     1      -4.380  -6.920  15.836  1.00  0.00     0.124 S 
ATOM     72  O   UNL     1      -3.317  -7.084  14.847  1.00  0.00    -0.237 OA
ATOM     73  O   UNL     1      -4.178  -5.864  16.821  1.00  0.00    -0.237 OA
ATOM     74  O   UNL     1      -4.929  -8.168  16.363  1.00  0.00    -0.744 OA
ENDBRANCH  67  71
ENDBRANCH  50  64
BRANCH  51  75
ATOM     75  C   UNL     1      -5.023   3.207   7.070  1.00  0.00     0.023 A 
ATOM     76  C   UNL     1      -4.857   4.534   7.500  1.00  0.00     0.031 A 
ATOM     77  C   UNL     1      -5.167   2.980   5.688  1.00  0.00     0.131 A 
ATOM     78  C   UNL     1      -4.898   5.584   6.568  1.00  0.00     0.055 A 
ATOM     79  C   UNL     1      -5.145   4.023   4.760  1.00  0.00     0.041 A 
ATOM     80  F   UNL     1      -5.338   1.735   5.217  1.00  0.00    -0.206 F 
ATOM     81  C   UNL     1      -5.027   5.337   5.200  1.00  0.00     0.022 A 
BRANCH  78  82
ATOM     82  S   UNL     1      -4.901   7.292   7.184  1.00  0.00     0.124 S 
ATOM     83  O   UNL     1      -6.061   7.285   8.068  1.00  0.00    -0.237 OA
ATOM     84  O   UNL     1      -3.598   7.380   7.834  1.00  0.00    -0.237 OA
ATOM     85  O   UNL     1      -5.045   8.091   5.969  1.00  0.00    -0.744 OA
ENDBRANCH  78  82
ENDBRANCH  51  75
BRANCH  63  86
ATOM     86  C   UNL     1      -9.702   1.749  12.044  1.00  0.00     0.023 A 
ATOM     87  C   UNL     1     -10.856   1.954  11.269  1.00  0.00     0.031 A 
ATOM     88  C   UNL     1      -9.688   2.249  13.359  1.00  0.00     0.131 A 
ATOM     89  C   UNL     1     -11.936   2.673  11.804  1.00  0.00     0.055 A 
ATOM     90  C   UNL     1     -10.786   2.913  13.905  1.00  0.00     0.041 A 
ATOM     91  F   UNL     1      -8.610   2.080  14.142  1.00  0.00    -0.206 F 
ATOM     92  C   UNL     1     -11.916   3.136  13.123  1.00  0.00     0.022 A 
BRANCH  89  93
ATOM     93  S   UNL     1     -13.350   3.049  10.733  1.00  0.00     0.124 S 
ATOM     94  O   UNL     1     -12.730   3.850   9.682  1.00  0.00    -0.237 OA
ATOM     95  O   UNL     1     -13.806   1.721  10.337  1.00  0.00    -0.237 OA
ATOM     96  O   UNL     1     -14.262   3.779  11.613  1.00  0.00    -0.744 OA
ENDBRANCH  89  93
ENDBRANCH  63  86
ENDBRANCH  37  38
ENDBRANCH  30  32
ENDBRANCH  29  30
ENDBRANCH  28  29
ENDBRANCH  27  28
ENDBRANCH  26  27
ENDBRANCH  25  26
ENDBRANCH   1  25
TORSDOF 24
