REMARK SMILES COc1cc(NC[C@@H](CC(C)C)C(=O)OCCOCCOCCOC(=O)c2ccc(-c3c4nc(c(-c5cc(S(=O)(=O)[O-])ccc5F)c5ccc([nH]5)c(-c5cc(S(=O)(=O)[O-])ccc5F)c5nc(c(-c6cc(S(=O)(=O)[O-])ccc6F)c6ccc3[nH]6)C=C5)C=C4)cc2)nc(C)n1
REMARK SMILES IDX 19 1 18 2 17 3 16 4 15 5 13 6 14 7 8 8 7 9 6 10 5 12 3 13
REMARK SMILES IDX 4 14 93 15 91 16 90 17 92 18 2 19 1 20 9 21 10 22 11 23
REMARK SMILES IDX 12 24 20 25 21 26 22 27 23 28 24 29 25 30 26 31 27 32 28 33
REMARK SMILES IDX 89 34 29 35 88 36 30 37 31 38 32 39 82 40 33 41 87 42 81 43
REMARK SMILES IDX 83 44 34 45 86 46 80 47 79 48 35 50 67 51 47 52 66 53 48 54
REMARK SMILES IDX 51 55 65 56 84 57 49 58 50 59 64 61 85 62 52 63 36 64 37 65
REMARK SMILES IDX 45 66 38 67 44 68 46 69 43 70 39 71 40 72 41 73 42 74 68 75
REMARK SMILES IDX 69 76 77 77 70 78 76 79 78 80 75 81 71 82 72 83 73 84 74 85
REMARK SMILES IDX 53 86 54 87 62 88 55 89 61 90 63 91 60 92 56 93 57 94 58 95
REMARK SMILES IDX 59 96
REMARK H PARENT 6 11 83 49 51 60
REMARK Flexibility Score: inf
ROOT
ATOM      1  C   UNL     1       7.155   1.998   0.543  1.00  0.00     0.188 C 
ENDROOT
BRANCH   1   2
ATOM      2  O   UNL     1       8.491   1.814   0.097  1.00  0.00    -0.376 OA
BRANCH   2   3
ATOM      3  C   UNL     1       9.210   0.669   0.547  1.00  0.00     0.202 C 
BRANCH   3   4
ATOM      4  C   UNL     1       9.224   0.367   2.051  1.00  0.00     0.261 C 
BRANCH   4   5
ATOM      5  O   UNL     1       7.978  -0.142   2.597  1.00  0.00    -0.463 OA
BRANCH   5   6
ATOM      6  C   UNL     1       7.509   0.501   3.699  1.00  0.00     0.310 C 
ATOM      7  O   UNL     1       8.010   1.532   4.141  1.00  0.00    -0.252 OA
BRANCH   6   8
ATOM      8  C   UNL     1       6.373  -0.201   4.446  1.00  0.00     0.118 C 
BRANCH   8   9
ATOM      9  C   UNL     1       5.385  -1.088   3.673  1.00  0.00     0.129 C 
BRANCH   9  10
ATOM     10  N   UNL     1       4.130  -1.228   4.407  1.00  0.00    -0.369 N 
ATOM     11  H   UNL     1       4.204  -1.643   5.297  1.00  0.00     0.162 HD
BRANCH  10  12
ATOM     12  C   UNL     1       2.862  -0.861   4.031  1.00  0.00     0.133 A 
ATOM     13  C   UNL     1       1.205  -0.037   2.591  1.00  0.00     0.218 A 
ATOM     14  C   UNL     1       2.529  -0.360   2.795  1.00  0.00     0.115 A 
ATOM     15  N   UNL     1       0.250  -0.173   3.512  1.00  0.00    -0.199 NA
ATOM     16  C   UNL     1       0.654  -0.663   4.689  1.00  0.00     0.131 A 
ATOM     17  N   UNL     1       1.923  -1.025   4.981  1.00  0.00    -0.216 NA
ATOM     18  C   UNL     1      -0.392  -0.801   5.752  1.00  0.00     0.090 C 
BRANCH  13  19
ATOM     19  O   UNL     1       0.817   0.601   1.441  1.00  0.00    -0.481 OA
ATOM     20  C   UNL     1       0.741  -0.306   0.345  1.00  0.00     0.280 C 
ENDBRANCH  13  19
ENDBRANCH  10  12
ENDBRANCH   9  10
ENDBRANCH   8   9
BRANCH   8  21
ATOM     21  C   UNL     1       6.958  -0.874   5.706  1.00  0.00     0.020 C 
BRANCH  21  22
ATOM     22  C   UNL     1       7.551  -2.294   5.563  1.00  0.00    -0.017 C 
ATOM     23  C   UNL     1       8.632  -2.425   4.492  1.00  0.00     0.007 C 
ATOM     24  C   UNL     1       8.130  -2.727   6.913  1.00  0.00     0.007 C 
ENDBRANCH  21  22
ENDBRANCH   8  21
ENDBRANCH   6   8
ENDBRANCH   5   6
ENDBRANCH   4   5
ENDBRANCH   3   4
ENDBRANCH   2   3
ENDBRANCH   1   2
BRANCH   1  25
ATOM     25  C   UNL     1       6.215   0.792   0.503  1.00  0.00     0.188 C 
BRANCH  25  26
ATOM     26  O   UNL     1       6.731  -0.362  -0.132  1.00  0.00    -0.376 OA
BRANCH  26  27
ATOM     27  C   UNL     1       5.999  -0.850  -1.250  1.00  0.00     0.202 C 
BRANCH  27  28
ATOM     28  C   UNL     1       5.969   0.100  -2.459  1.00  0.00     0.261 C 
BRANCH  28  29
ATOM     29  O   UNL     1       5.285   1.346  -2.225  1.00  0.00    -0.460 OA
BRANCH  29  30
ATOM     30  C   UNL     1       3.965   1.263  -1.928  1.00  0.00     0.338 C 
ATOM     31  O   UNL     1       3.279   0.255  -1.949  1.00  0.00    -0.246 OA
BRANCH  30  32
ATOM     32  C   UNL     1       3.575   2.532  -1.272  1.00  0.00     0.060 A 
ATOM     33  C   UNL     1       3.076   2.467   0.034  1.00  0.00     0.016 A 
ATOM     34  C   UNL     1       3.748   3.767  -1.891  1.00  0.00     0.016 A 
ATOM     35  C   UNL     1       2.721   3.622   0.725  1.00  0.00     0.010 A 
ATOM     36  C   UNL     1       3.373   4.930  -1.208  1.00  0.00     0.010 A 
ATOM     37  C   UNL     1       2.838   4.862   0.093  1.00  0.00    -0.014 A 
BRANCH  37  38
ATOM     38  C   UNL     1       2.218   6.057   0.713  1.00  0.00     0.031 A 
ATOM     39  C   UNL     1       0.840   6.451   0.258  1.00  0.00     0.074 A 
ATOM     40  C   UNL     1       2.842   6.758   1.676  1.00  0.00     0.049 A 
ATOM     41  N   UNL     1       0.133   7.506   0.561  1.00  0.00    -0.248 NA
ATOM     42  C   UNL     1       0.177   5.523  -0.672  1.00  0.00     0.031 C 
ATOM     43  C   UNL     1       4.140   6.427   2.261  1.00  0.00     0.029 A 
ATOM     44  N   UNL     1       2.463   7.906   2.328  1.00  0.00    -0.354 N 
ATOM     45  C   UNL     1      -1.056   7.379  -0.150  1.00  0.00     0.074 A 
ATOM     46  C   UNL     1      -0.957   6.158  -0.922  1.00  0.00     0.031 C 
ATOM     47  C   UNL     1       4.458   7.364   3.173  1.00  0.00     0.029 A 
ATOM     48  C   UNL     1       3.410   8.383   3.203  1.00  0.00     0.049 A 
ATOM     49  H   UNL     1       1.594   8.346   2.182  1.00  0.00     0.167 HD
ATOM     50  C   UNL     1      -2.131   8.204  -0.157  1.00  0.00     0.034 A 
ATOM     51  C   UNL     1       3.441   9.529   3.915  1.00  0.00     0.034 A 
ATOM     52  C   UNL     1      -2.210   9.421   0.611  1.00  0.00     0.049 A 
ATOM     53  C   UNL     1       2.278  10.489   3.808  1.00  0.00     0.074 A 
ATOM     54  C   UNL     1      -3.248  10.334   0.676  1.00  0.00     0.029 A 
ATOM     55  N   UNL     1      -1.206   9.905   1.442  1.00  0.00    -0.354 N 
ATOM     56  N   UNL     1       1.169  10.376   3.112  1.00  0.00    -0.248 NA
ATOM     57  C   UNL     1       2.372  11.733   4.585  1.00  0.00     0.031 C 
ATOM     58  C   UNL     1      -2.845  11.401   1.486  1.00  0.00     0.029 A 
ATOM     59  C   UNL     1      -1.587  11.119   1.994  1.00  0.00     0.049 A 
ATOM     60  H   UNL     1      -0.350   9.451   1.614  1.00  0.00     0.167 HD
ATOM     61  C   UNL     1       0.424  11.520   3.393  1.00  0.00     0.074 A 
ATOM     62  C   UNL     1       1.202  12.299   4.333  1.00  0.00     0.031 C 
ATOM     63  C   UNL     1      -0.794  11.894   2.920  1.00  0.00     0.034 A 
BRANCH  50  64
ATOM     64  C   UNL     1      -3.268   7.843  -1.080  1.00  0.00     0.023 A 
ATOM     65  C   UNL     1      -4.032   6.676  -0.902  1.00  0.00     0.031 A 
ATOM     66  C   UNL     1      -3.563   8.662  -2.184  1.00  0.00     0.131 A 
ATOM     67  C   UNL     1      -5.004   6.326  -1.852  1.00  0.00     0.055 A 
ATOM     68  C   UNL     1      -4.585   8.350  -3.081  1.00  0.00     0.041 A 
ATOM     69  F   UNL     1      -2.848   9.774  -2.421  1.00  0.00    -0.206 F 
ATOM     70  C   UNL     1      -5.303   7.168  -2.926  1.00  0.00     0.022 A 
BRANCH  67  71
ATOM     71  S   UNL     1      -5.772   4.686  -1.748  1.00  0.00     0.124 S 
ATOM     72  O   UNL     1      -4.610   3.807  -1.855  1.00  0.00    -0.237 OA
ATOM     73  O   UNL     1      -6.427   4.726  -0.445  1.00  0.00    -0.237 OA
ATOM     74  O   UNL     1      -6.674   4.656  -2.898  1.00  0.00    -0.744 OA
ENDBRANCH  67  71
ENDBRANCH  50  64
BRANCH  51  75
ATOM     75  C   UNL     1       4.633   9.882   4.742  1.00  0.00     0.023 A 
ATOM     76  C   UNL     1       4.531  10.055   6.132  1.00  0.00     0.031 A 
ATOM     77  C   UNL     1       5.878  10.134   4.138  1.00  0.00     0.131 A 
ATOM     78  C   UNL     1       5.637  10.517   6.864  1.00  0.00     0.055 A 
ATOM     79  C   UNL     1       6.991  10.537   4.878  1.00  0.00     0.041 A 
ATOM     80  F   UNL     1       6.031   9.994   2.812  1.00  0.00    -0.206 F 
ATOM     81  C   UNL     1       6.870  10.746   6.248  1.00  0.00     0.022 A 
BRANCH  78  82
ATOM     82  S   UNL     1       5.416  10.911   8.621  1.00  0.00     0.124 S 
ATOM     83  O   UNL     1       4.368  11.924   8.569  1.00  0.00    -0.237 OA
ATOM     84  O   UNL     1       5.032   9.618   9.177  1.00  0.00    -0.237 OA
ATOM     85  O   UNL     1       6.733  11.396   9.030  1.00  0.00    -0.744 OA
ENDBRANCH  78  82
ENDBRANCH  51  75
BRANCH  63  86
ATOM     86  C   UNL     1      -1.371  13.185   3.452  1.00  0.00     0.023 A 
ATOM     87  C   UNL     1      -0.780  14.432   3.178  1.00  0.00     0.031 A 
ATOM     88  C   UNL     1      -2.521  13.165   4.262  1.00  0.00     0.131 A 
ATOM     89  C   UNL     1      -1.302  15.597   3.759  1.00  0.00     0.055 A 
ATOM     90  C   UNL     1      -3.074  14.335   4.785  1.00  0.00     0.041 A 
ATOM     91  F   UNL     1      -3.128  12.005   4.559  1.00  0.00    -0.206 F 
ATOM     92  C   UNL     1      -2.455  15.559   4.548  1.00  0.00     0.022 A 
BRANCH  89  93
ATOM     93  S   UNL     1      -0.395  17.155   3.558  1.00  0.00     0.124 S 
ATOM     94  O   UNL     1       0.916  16.816   4.103  1.00  0.00    -0.237 OA
ATOM     95  O   UNL     1      -0.450  17.364   2.115  1.00  0.00    -0.237 OA
ATOM     96  O   UNL     1      -1.168  18.109   4.351  1.00  0.00    -0.744 OA
ENDBRANCH  89  93
ENDBRANCH  63  86
ENDBRANCH  37  38
ENDBRANCH  30  32
ENDBRANCH  29  30
ENDBRANCH  28  29
ENDBRANCH  27  28
ENDBRANCH  26  27
ENDBRANCH  25  26
ENDBRANCH   1  25
TORSDOF 26
