REMARK SMILES C[C@H](NC(=O)OCc1ccccc1)C(=O)NCC(=O)N1CCC[C@H]1C(=O)OCCOCCOCCOC(=O)c1ccc(-c2c3nc(c(-c4cc(S(=O)(=O)[O-])ccc4F)c4ccc([nH]4)c(-c4cc(S(=O)(=O)[O-])ccc4F)c4nc(c(-c5cc(S(=O)(=O)[O-])ccc5F)c5ccc2[nH]5)C=C4)C=C3)cc1
REMARK SMILES IDX 29 1 28 2 27 3 25 4 26 5 24 6 20 7 21 8 22 9 23 10 18 11
REMARK SMILES IDX 19 12 17 13 16 14 14 15 15 16 2 18 1 19 3 20 4 21 5 23 6 24
REMARK SMILES IDX 7 25 8 26 9 27 13 28 10 29 12 30 11 31 30 32 31 33 32 34
REMARK SMILES IDX 33 35 34 36 35 37 36 38 37 39 38 40 39 41 40 42 101 43 41 44
REMARK SMILES IDX 100 45 42 46 43 47 44 48 94 49 45 50 99 51 93 52 95 53 46 54
REMARK SMILES IDX 98 55 92 56 91 57 47 59 79 60 59 61 78 62 60 63 63 64 77 65
REMARK SMILES IDX 96 66 61 67 62 68 76 70 97 71 64 72 48 73 49 74 57 75 50 76
REMARK SMILES IDX 56 77 58 78 55 79 51 80 52 81 53 82 54 83 80 84 81 85 89 86
REMARK SMILES IDX 82 87 88 88 90 89 87 90 83 91 84 92 85 93 86 94 65 95 66 96
REMARK SMILES IDX 74 97 67 98 73 99 75 100 72 101 68 102 69 103 70 104 71 105
REMARK H PARENT 16 17 3 22 95 58 63 69
REMARK Flexibility Score: inf
ROOT
ATOM      1  C   UNL     1      -3.588   6.957  -1.319  1.00  0.00     0.202 C 
ENDROOT
BRANCH   1   2
ATOM      2  C   UNL     1      -2.750   6.512  -0.102  1.00  0.00     0.261 C 
BRANCH   2   3
ATOM      3  O   UNL     1      -1.686   5.575  -0.277  1.00  0.00    -0.462 OA
BRANCH   3   4
ATOM      4  C   UNL     1      -2.012   4.256  -0.170  1.00  0.00     0.328 C 
ATOM      5  O   UNL     1      -3.160   3.844  -0.052  1.00  0.00    -0.250 OA
BRANCH   4   6
ATOM      6  C   UNL     1      -0.748   3.371  -0.306  1.00  0.00     0.195 C 
ATOM      7  N   UNL     1      -1.050   2.072   0.284  1.00  0.00    -0.327 N 
ATOM      8  C   UNL     1      -1.419   1.147  -0.778  1.00  0.00     0.120 C 
ATOM      9  C   UNL     1      -0.482   1.529  -1.902  1.00  0.00     0.024 C 
ATOM     10  C   UNL     1      -0.335   3.035  -1.747  1.00  0.00     0.039 C 
BRANCH   7  11
ATOM     11  C   UNL     1      -1.125   1.988   1.649  1.00  0.00     0.242 C 
ATOM     12  O   UNL     1      -0.970   3.005   2.341  1.00  0.00    -0.273 OA
BRANCH  11  13
ATOM     13  C   UNL     1      -1.161   0.643   2.368  1.00  0.00     0.216 C 
BRANCH  13  14
ATOM     14  N   UNL     1      -1.616  -0.546   1.692  1.00  0.00    -0.345 N 
ATOM     15  C   UNL     1      -0.923  -1.578   1.135  1.00  0.00     0.242 C 
ATOM     16  O   UNL     1      -1.594  -2.497   0.660  1.00  0.00    -0.273 OA
ATOM     17  H   UNL     1      -2.594  -0.626   1.621  1.00  0.00     0.164 HD
BRANCH  15  18
ATOM     18  C   UNL     1       0.616  -1.646   1.117  1.00  0.00     0.171 C 
ATOM     19  C   UNL     1       1.208  -1.870   2.504  1.00  0.00     0.042 C 
BRANCH  18  20
ATOM     20  N   UNL     1       1.260  -0.507   0.464  1.00  0.00    -0.310 N 
ATOM     21  C   UNL     1       2.270  -0.593  -0.454  1.00  0.00     0.408 C 
ATOM     22  H   UNL     1       0.941   0.393   0.703  1.00  0.00     0.167 HD
ATOM     23  O   UNL     1       2.881   0.408  -0.817  1.00  0.00    -0.225 OA
BRANCH  21  24
ATOM     24  O   UNL     1       2.502  -1.855  -0.874  1.00  0.00    -0.445 OA
BRANCH  24  25
ATOM     25  C   UNL     1       3.610  -2.045  -1.766  1.00  0.00     0.270 C 
BRANCH  25  26
ATOM     26  C   UNL     1       3.329  -1.721  -3.214  1.00  0.00    -0.011 A 
ATOM     27  C   UNL     1       2.041  -1.786  -3.763  1.00  0.00     0.007 A 
ATOM     28  C   UNL     1       4.407  -1.422  -4.064  1.00  0.00     0.007 A 
ATOM     29  C   UNL     1       1.834  -1.526  -5.121  1.00  0.00     0.000 A 
ATOM     30  C   UNL     1       4.200  -1.168  -5.421  1.00  0.00     0.000 A 
ATOM     31  C   UNL     1       2.913  -1.216  -5.948  1.00  0.00     0.000 A 
ENDBRANCH  25  26
ENDBRANCH  24  25
ENDBRANCH  21  24
ENDBRANCH  18  20
ENDBRANCH  15  18
ENDBRANCH  13  14
ENDBRANCH  11  13
ENDBRANCH   7  11
ENDBRANCH   4   6
ENDBRANCH   3   4
ENDBRANCH   2   3
ENDBRANCH   1   2
BRANCH   1  32
ATOM     32  O   UNL     1      -3.357   6.610  -2.669  1.00  0.00    -0.376 OA
BRANCH  32  33
ATOM     33  C   UNL     1      -2.419   5.618  -2.995  1.00  0.00     0.188 C 
BRANCH  33  34
ATOM     34  C   UNL     1      -0.942   6.077  -3.005  1.00  0.00     0.188 C 
BRANCH  34  35
ATOM     35  O   UNL     1      -0.633   7.450  -2.867  1.00  0.00    -0.376 OA
BRANCH  35  36
ATOM     36  C   UNL     1      -1.305   8.393  -3.680  1.00  0.00     0.202 C 
BRANCH  36  37
ATOM     37  C   UNL     1      -1.547   8.145  -5.181  1.00  0.00     0.261 C 
BRANCH  37  38
ATOM     38  O   UNL     1      -2.011   6.843  -5.577  1.00  0.00    -0.460 OA
BRANCH  38  39
ATOM     39  C   UNL     1      -1.109   6.062  -6.230  1.00  0.00     0.338 C 
ATOM     40  O   UNL     1       0.046   6.352  -6.490  1.00  0.00    -0.246 OA
BRANCH  39  41
ATOM     41  C   UNL     1      -1.666   4.704  -6.447  1.00  0.00     0.060 A 
ATOM     42  C   UNL     1      -1.023   3.603  -5.861  1.00  0.00     0.016 A 
ATOM     43  C   UNL     1      -2.771   4.505  -7.275  1.00  0.00     0.016 A 
ATOM     44  C   UNL     1      -1.466   2.301  -6.124  1.00  0.00     0.010 A 
ATOM     45  C   UNL     1      -3.200   3.199  -7.553  1.00  0.00     0.010 A 
ATOM     46  C   UNL     1      -2.535   2.086  -7.003  1.00  0.00    -0.014 A 
BRANCH  46  47
ATOM     47  C   UNL     1      -2.853   0.711  -7.485  1.00  0.00     0.031 A 
ATOM     48  C   UNL     1      -2.354   0.289  -8.844  1.00  0.00     0.074 A 
ATOM     49  C   UNL     1      -3.564  -0.156  -6.739  1.00  0.00     0.049 A 
ATOM     50  N   UNL     1      -2.586  -0.812  -9.513  1.00  0.00    -0.248 NA
ATOM     51  C   UNL     1      -1.476   1.242  -9.539  1.00  0.00     0.031 C 
ATOM     52  C   UNL     1      -4.056   0.100  -5.386  1.00  0.00     0.029 A 
ATOM     53  N   UNL     1      -4.010  -1.427  -7.021  1.00  0.00    -0.354 N 
ATOM     54  C   UNL     1      -1.894  -0.680 -10.713  1.00  0.00     0.074 A 
ATOM     55  C   UNL     1      -1.258   0.621 -10.688  1.00  0.00     0.031 C 
ATOM     56  C   UNL     1      -4.746  -0.974  -4.963  1.00  0.00     0.029 A 
ATOM     57  C   UNL     1      -4.792  -1.975  -6.029  1.00  0.00     0.049 A 
ATOM     58  H   UNL     1      -3.789  -1.901  -7.856  1.00  0.00     0.167 HD
ATOM     59  C   UNL     1      -1.794  -1.562 -11.740  1.00  0.00     0.034 A 
ATOM     60  C   UNL     1      -5.494  -3.129  -5.999  1.00  0.00     0.034 A 
ATOM     61  C   UNL     1      -2.443  -2.851 -11.762  1.00  0.00     0.049 A 
ATOM     62  C   UNL     1      -5.457  -4.048  -7.203  1.00  0.00     0.074 A 
ATOM     63  C   UNL     1      -2.396  -3.820 -12.749  1.00  0.00     0.029 A 
ATOM     64  N   UNL     1      -3.268  -3.347 -10.761  1.00  0.00    -0.354 N 
ATOM     65  N   UNL     1      -4.799  -3.911  -8.331  1.00  0.00    -0.248 NA
ATOM     66  C   UNL     1      -6.256  -5.281  -7.126  1.00  0.00     0.031 C 
ATOM     67  C   UNL     1      -3.259  -4.859 -12.387  1.00  0.00     0.029 A 
ATOM     68  C   UNL     1      -3.767  -4.588 -11.127  1.00  0.00     0.049 A 
ATOM     69  H   UNL     1      -3.470  -2.885  -9.915  1.00  0.00     0.167 HD
ATOM     70  C   UNL     1      -5.073  -5.059  -9.075  1.00  0.00     0.074 A 
ATOM     71  C   UNL     1      -5.945  -5.881  -8.264  1.00  0.00     0.031 C 
ATOM     72  C   UNL     1      -4.638  -5.405 -10.315  1.00  0.00     0.034 A 
BRANCH  59  73
ATOM     73  C   UNL     1      -0.999  -1.136 -12.951  1.00  0.00     0.023 A 
ATOM     74  C   UNL     1       0.383  -0.890 -12.885  1.00  0.00     0.031 A 
ATOM     75  C   UNL     1      -1.639  -0.967 -14.193  1.00  0.00     0.131 A 
ATOM     76  C   UNL     1       1.066  -0.428 -14.021  1.00  0.00     0.055 A 
ATOM     77  C   UNL     1      -0.937  -0.587 -15.338  1.00  0.00     0.041 A 
ATOM     78  F   UNL     1      -2.962  -1.163 -14.313  1.00  0.00    -0.206 F 
ATOM     79  C   UNL     1       0.422  -0.302 -15.254  1.00  0.00     0.022 A 
BRANCH  76  80
ATOM     80  S   UNL     1       2.779   0.139 -13.831  1.00  0.00     0.124 S 
ATOM     81  O   UNL     1       2.631   1.193 -12.830  1.00  0.00    -0.237 OA
ATOM     82  O   UNL     1       3.464  -1.069 -13.388  1.00  0.00    -0.237 OA
ATOM     83  O   UNL     1       3.136   0.606 -15.168  1.00  0.00    -0.744 OA
ENDBRANCH  76  80
ENDBRANCH  59  73
BRANCH  60  84
ATOM     84  C   UNL     1      -6.351  -3.475  -4.822  1.00  0.00     0.023 A 
ATOM     85  C   UNL     1      -6.138  -4.652  -4.084  1.00  0.00     0.031 A 
ATOM     86  C   UNL     1      -7.458  -2.678  -4.477  1.00  0.00     0.131 A 
ATOM     87  C   UNL     1      -7.051  -5.028  -3.084  1.00  0.00     0.055 A 
ATOM     88  C   UNL     1      -8.322  -3.020  -3.435  1.00  0.00     0.041 A 
ATOM     89  F   UNL     1      -7.723  -1.551  -5.157  1.00  0.00    -0.206 F 
ATOM     90  C   UNL     1      -8.131  -4.211  -2.743  1.00  0.00     0.022 A 
BRANCH  87  91
ATOM     91  S   UNL     1      -6.885  -6.668  -2.325  1.00  0.00     0.124 S 
ATOM     92  O   UNL     1      -6.968  -7.542  -3.490  1.00  0.00    -0.237 OA
ATOM     93  O   UNL     1      -5.579  -6.576  -1.683  1.00  0.00    -0.237 OA
ATOM     94  O   UNL     1      -8.023  -6.737  -1.411  1.00  0.00    -0.744 OA
ENDBRANCH  87  91
ENDBRANCH  60  84
BRANCH  72  95
ATOM     95  C   UNL     1      -5.043  -6.763 -10.845  1.00  0.00     0.023 A 
ATOM     96  C   UNL     1      -6.382  -7.088 -11.126  1.00  0.00     0.031 A 
ATOM     97  C   UNL     1      -4.066  -7.750 -11.072  1.00  0.00     0.131 A 
ATOM     98  C   UNL     1      -6.712  -8.382 -11.561  1.00  0.00     0.055 A 
ATOM     99  C   UNL     1      -4.392  -9.011 -11.572  1.00  0.00     0.041 A 
ATOM    100  F   UNL     1      -2.771  -7.500 -10.819  1.00  0.00    -0.206 F 
ATOM    101  C   UNL     1      -5.723  -9.339 -11.806  1.00  0.00     0.022 A 
BRANCH  98 102
ATOM    102  S   UNL     1      -8.463  -8.835 -11.708  1.00  0.00     0.124 S 
ATOM    103  O   UNL     1      -8.955  -8.584 -10.357  1.00  0.00    -0.237 OA
ATOM    104  O   UNL     1      -8.937  -7.919 -12.740  1.00  0.00    -0.237 OA
ATOM    105  O   UNL     1      -8.422 -10.243 -12.101  1.00  0.00    -0.744 OA
ENDBRANCH  98 102
ENDBRANCH  72  95
ENDBRANCH  46  47
ENDBRANCH  39  41
ENDBRANCH  38  39
ENDBRANCH  37  38
ENDBRANCH  36  37
ENDBRANCH  35  36
ENDBRANCH  34  35
ENDBRANCH  33  34
ENDBRANCH  32  33
ENDBRANCH   1  32
TORSDOF 28
