REMARK SMILES Nc1cc([N+](=O)[O-])ccc1[C@H]([NH3+])C(=O)OCCOCCOCCOC(=O)c1ccc(-c2c3nc(c(-c4cc(S(=O)(=O)[O-])ccc4F)c4ccc([nH]4)c(-c4cc(S(=O)(=O)[O-])ccc4F)c4nc(c(-c5cc(S(=O)(=O)[O-])ccc5F)c5ccc2[nH]5)C=C4)C=C3)cc1
REMARK SMILES IDX 20 1 19 2 18 3 17 4 16 5 15 6 13 7 14 8 11 9 10 10 2 11 3 12
REMARK SMILES IDX 4 13 9 14 8 15 1 16 5 19 6 20 7 21 12 22 21 26 22 27 23 28
REMARK SMILES IDX 24 29 25 30 26 31 27 32 28 33 89 34 29 35 88 36 30 37 31 38
REMARK SMILES IDX 32 39 82 40 33 41 87 42 81 43 83 44 34 45 86 46 80 47 79 48
REMARK SMILES IDX 35 50 67 51 47 52 66 53 48 54 51 55 65 56 84 57 49 58 50 59
REMARK SMILES IDX 64 61 85 62 52 63 36 64 37 65 45 66 38 67 44 68 46 69 43 70
REMARK SMILES IDX 39 71 40 72 41 73 42 74 68 75 69 76 77 77 70 78 76 79 78 80
REMARK SMILES IDX 75 81 71 82 72 83 73 84 74 85 53 86 54 87 62 88 55 89 61 90
REMARK SMILES IDX 63 91 60 92 56 93 57 94 58 95 59 96
REMARK H PARENT 1 17 1 18 12 23 12 24 12 25 83 49 51 60
REMARK Flexibility Score: inf
ROOT
ATOM      1  C   UNL     1       0.169   1.651   2.922  1.00  0.00     0.188 C 
ENDROOT
BRANCH   1   2
ATOM      2  C   UNL     1       1.188   2.698   3.401  1.00  0.00     0.188 C 
BRANCH   2   3
ATOM      3  O   UNL     1       0.759   3.815   4.166  1.00  0.00    -0.376 OA
BRANCH   3   4
ATOM      4  C   UNL     1      -0.410   4.530   3.799  1.00  0.00     0.202 C 
BRANCH   4   5
ATOM      5  C   UNL     1      -0.637   5.019   2.359  1.00  0.00     0.261 C 
BRANCH   5   6
ATOM      6  O   UNL     1      -0.466   4.056   1.310  1.00  0.00    -0.459 OA
BRANCH   6   7
ATOM      7  C   UNL     1       0.687   4.158   0.586  1.00  0.00     0.369 C 
ATOM      8  O   UNL     1       1.556   4.995   0.821  1.00  0.00    -0.245 OA
BRANCH   7   9
ATOM      9  C   UNL     1       0.813   3.111  -0.570  1.00  0.00     0.325 C 
BRANCH   9  10
ATOM     10  C   UNL     1       0.662   3.714  -1.973  1.00  0.00     0.044 A 
ATOM     11  C   UNL     1       0.307   2.957  -3.118  1.00  0.00     0.048 A 
ATOM     12  C   UNL     1       0.039   3.618  -4.324  1.00  0.00     0.111 A 
ATOM     13  C   UNL     1       0.241   4.995  -4.443  1.00  0.00     0.271 A 
ATOM     14  C   UNL     1       0.931   5.091  -2.152  1.00  0.00     0.020 A 
ATOM     15  C   UNL     1       0.720   5.733  -3.368  1.00  0.00     0.086 A 
BRANCH  11  16
ATOM     16  N   UNL     1       0.062   1.585  -3.078  1.00  0.00    -0.398 N 
ATOM     17  H   UNL     1      -0.181   1.105  -3.903  1.00  0.00     0.156 HD
ATOM     18  H   UNL     1       0.132   1.096  -2.227  1.00  0.00     0.156 HD
ENDBRANCH  11  16
BRANCH  13  19
ATOM     19  N   UNL     1      -0.064   5.668  -5.706  1.00  0.00     0.062 N 
ATOM     20  O   UNL     1      -0.407   4.965  -6.668  1.00  0.00    -0.258 OA
ATOM     21  O   UNL     1       0.017   6.904  -5.735  1.00  0.00    -0.258 OA
ENDBRANCH  13  19
ENDBRANCH   9  10
BRANCH   9  22
ATOM     22  N   UNL     1      -0.097   1.969  -0.336  1.00  0.00    -0.342 N 
ATOM     23  H   UNL     1      -1.064   2.295  -0.353  1.00  0.00     0.345 HD
ATOM     24  H   UNL     1       0.105   1.553   0.573  1.00  0.00     0.345 HD
ATOM     25  H   UNL     1       0.038   1.271  -1.067  1.00  0.00     0.345 HD
ENDBRANCH   9  22
ENDBRANCH   7   9
ENDBRANCH   6   7
ENDBRANCH   5   6
ENDBRANCH   4   5
ENDBRANCH   3   4
ENDBRANCH   2   3
ENDBRANCH   1   2
BRANCH   1  26
ATOM     26  O   UNL     1      -1.173   1.916   3.234  1.00  0.00    -0.376 OA
BRANCH  26  27
ATOM     27  C   UNL     1      -1.750   1.308   4.372  1.00  0.00     0.202 C 
BRANCH  27  28
ATOM     28  C   UNL     1      -0.959   0.731   5.567  1.00  0.00     0.261 C 
BRANCH  28  29
ATOM     29  O   UNL     1       0.465   0.599   5.464  1.00  0.00    -0.460 OA
BRANCH  29  30
ATOM     30  C   UNL     1       0.937  -0.605   5.056  1.00  0.00     0.338 C 
ATOM     31  O   UNL     1       0.268  -1.584   4.752  1.00  0.00    -0.246 OA
BRANCH  30  32
ATOM     32  C   UNL     1       2.392  -0.485   4.808  1.00  0.00     0.060 A 
ATOM     33  C   UNL     1       2.875  -0.606   3.495  1.00  0.00     0.016 A 
ATOM     34  C   UNL     1       3.276  -0.260   5.862  1.00  0.00     0.016 A 
ATOM     35  C   UNL     1       4.246  -0.523   3.236  1.00  0.00     0.010 A 
ATOM     36  C   UNL     1       4.652  -0.205   5.605  1.00  0.00     0.010 A 
ATOM     37  C   UNL     1       5.147  -0.364   4.296  1.00  0.00    -0.014 A 
BRANCH  37  38
ATOM     38  C   UNL     1       6.604  -0.573   4.079  1.00  0.00     0.031 A 
ATOM     39  C   UNL     1       7.191  -1.910   4.445  1.00  0.00     0.074 A 
ATOM     40  C   UNL     1       7.396   0.391   3.577  1.00  0.00     0.049 A 
ATOM     41  N   UNL     1       8.439  -2.298   4.466  1.00  0.00    -0.248 NA
ATOM     42  C   UNL     1       6.229  -2.943   4.856  1.00  0.00     0.031 C 
ATOM     43  C   UNL     1       6.945   1.709   3.136  1.00  0.00     0.029 A 
ATOM     44  N   UNL     1       8.755   0.414   3.377  1.00  0.00    -0.354 N 
ATOM     45  C   UNL     1       8.416  -3.618   4.905  1.00  0.00     0.074 A 
ATOM     46  C   UNL     1       7.032  -3.944   5.178  1.00  0.00     0.031 C 
ATOM     47  C   UNL     1       8.015   2.424   2.743  1.00  0.00     0.029 A 
ATOM     48  C   UNL     1       9.229   1.633   2.949  1.00  0.00     0.049 A 
ATOM     49  H   UNL     1       9.335  -0.367   3.525  1.00  0.00     0.167 HD
ATOM     50  C   UNL     1       9.452  -4.481   5.060  1.00  0.00     0.034 A 
ATOM     51  C   UNL     1      10.495   2.074   2.786  1.00  0.00     0.034 A 
ATOM     52  C   UNL     1      10.829  -4.132   4.808  1.00  0.00     0.049 A 
ATOM     53  C   UNL     1      11.646   1.133   3.062  1.00  0.00     0.074 A 
ATOM     54  C   UNL     1      11.955  -4.928   4.924  1.00  0.00     0.029 A 
ATOM     55  N   UNL     1      11.273  -2.877   4.408  1.00  0.00    -0.354 N 
ATOM     56  N   UNL     1      11.616  -0.116   3.471  1.00  0.00    -0.248 NA
ATOM     57  C   UNL     1      13.001   1.659   2.846  1.00  0.00     0.031 C 
ATOM     58  C   UNL     1      13.081  -4.135   4.680  1.00  0.00     0.029 A 
ATOM     59  C   UNL     1      12.657  -2.868   4.312  1.00  0.00     0.049 A 
ATOM     60  H   UNL     1      10.690  -2.107   4.219  1.00  0.00     0.167 HD
ATOM     61  C   UNL     1      12.946  -0.530   3.531  1.00  0.00     0.074 A 
ATOM     62  C   UNL     1      13.749   0.596   3.104  1.00  0.00     0.031 C 
ATOM     63  C   UNL     1      13.455  -1.736   3.898  1.00  0.00     0.034 A 
BRANCH  50  64
ATOM     64  C   UNL     1       9.126  -5.860   5.587  1.00  0.00     0.023 A 
ATOM     65  C   UNL     1       8.277  -6.737   4.888  1.00  0.00     0.031 A 
ATOM     66  C   UNL     1       9.623  -6.282   6.832  1.00  0.00     0.131 A 
ATOM     67  C   UNL     1       7.876  -7.944   5.481  1.00  0.00     0.055 A 
ATOM     68  C   UNL     1       9.297  -7.528   7.373  1.00  0.00     0.041 A 
ATOM     69  F   UNL     1      10.418  -5.481   7.560  1.00  0.00    -0.206 F 
ATOM     70  C   UNL     1       8.402  -8.359   6.706  1.00  0.00     0.022 A 
BRANCH  67  71
ATOM     71  S   UNL     1       6.518  -8.872   4.714  1.00  0.00     0.124 S 
ATOM     72  O   UNL     1       5.457  -7.868   4.680  1.00  0.00    -0.237 OA
ATOM     73  O   UNL     1       7.082  -9.248   3.424  1.00  0.00    -0.237 OA
ATOM     74  O   UNL     1       6.290  -9.976   5.644  1.00  0.00    -0.744 OA
ENDBRANCH  67  71
ENDBRANCH  50  64
BRANCH  51  75
ATOM     75  C   UNL     1      10.751   3.494   2.401  1.00  0.00     0.023 A 
ATOM     76  C   UNL     1      11.386   3.825   1.194  1.00  0.00     0.031 A 
ATOM     77  C   UNL     1      10.399   4.545   3.269  1.00  0.00     0.131 A 
ATOM     78  C   UNL     1      11.682   5.168   0.904  1.00  0.00     0.055 A 
ATOM     79  C   UNL     1      10.644   5.882   2.950  1.00  0.00     0.041 A 
ATOM     80  F   UNL     1       9.799   4.285   4.442  1.00  0.00    -0.206 F 
ATOM     81  C   UNL     1      11.299   6.199   1.765  1.00  0.00     0.022 A 
BRANCH  78  82
ATOM     82  S   UNL     1      12.649   5.545  -0.584  1.00  0.00     0.124 S 
ATOM     83  O   UNL     1      13.878   4.801  -0.335  1.00  0.00    -0.237 OA
ATOM     84  O   UNL     1      11.789   5.030  -1.644  1.00  0.00    -0.237 OA
ATOM     85  O   UNL     1      12.781   7.000  -0.544  1.00  0.00    -0.744 OA
ENDBRANCH  78  82
ENDBRANCH  51  75
BRANCH  63  86
ATOM     86  C   UNL     1      14.954  -1.918   3.802  1.00  0.00     0.023 A 
ATOM     87  C   UNL     1      15.850  -1.193   4.608  1.00  0.00     0.031 A 
ATOM     88  C   UNL     1      15.494  -2.837   2.883  1.00  0.00     0.131 A 
ATOM     89  C   UNL     1      17.234  -1.358   4.441  1.00  0.00     0.055 A 
ATOM     90  C   UNL     1      16.869  -3.048   2.770  1.00  0.00     0.041 A 
ATOM     91  F   UNL     1      14.691  -3.555   2.082  1.00  0.00    -0.206 F 
ATOM     92  C   UNL     1      17.749  -2.296   3.542  1.00  0.00     0.022 A 
BRANCH  89  93
ATOM     93  S   UNL     1      18.361  -0.256   5.340  1.00  0.00     0.124 S 
ATOM     94  O   UNL     1      17.919   1.060   4.890  1.00  0.00    -0.237 OA
ATOM     95  O   UNL     1      18.073  -0.584   6.733  1.00  0.00    -0.237 OA
ATOM     96  O   UNL     1      19.685  -0.660   4.869  1.00  0.00    -0.744 OA
ENDBRANCH  89  93
ENDBRANCH  63  86
ENDBRANCH  37  38
ENDBRANCH  30  32
ENDBRANCH  29  30
ENDBRANCH  28  29
ENDBRANCH  27  28
ENDBRANCH  26  27
ENDBRANCH   1  26
TORSDOF 24
