REMARK SMILES C[C@@H](CCC(=O)OCCOCCOCCOC(=O)c1ccc(-c2c3nc(c(-c4cc(S(=O)(=O)[O-])ccc4F)c4ccc([nH]4)c(-c4cc(S(=O)(=O)[O-])ccc4F)c4nc(c(-c5cc(S(=O)(=O)[O-])ccc5F)c5ccc2[nH]5)C=C4)C=C3)cc1)[C@@H]1CC[C@H]2[C@@H]3CC[C@H]4CC(=O)CC[C@@]4(C)[C@H]3CC(=O)[C@@]21C
REMARK SMILES IDX 11 1 10 2 9 3 8 4 7 5 5 6 6 7 4 8 3 9 2 10 1 11 82 12 83 13
REMARK SMILES IDX 101 14 84 15 85 16 99 17 102 18 86 19 98 20 100 21 87 22
REMARK SMILES IDX 97 23 88 24 95 25 89 26 94 27 96 28 90 29 93 30 91 31 92 32
REMARK SMILES IDX 12 33 13 34 14 35 15 36 16 37 17 38 18 39 19 40 20 41 81 42
REMARK SMILES IDX 21 43 80 44 22 45 23 46 24 47 74 48 25 49 79 50 73 51 75 52
REMARK SMILES IDX 26 53 78 54 72 55 71 56 27 58 59 59 39 60 58 61 40 62 43 63
REMARK SMILES IDX 57 64 76 65 41 66 42 67 56 69 77 70 44 71 28 72 29 73 37 74
REMARK SMILES IDX 30 75 36 76 38 77 35 78 31 79 32 80 33 81 34 82 60 83 61 84
REMARK SMILES IDX 69 85 62 86 68 87 70 88 67 89 63 90 64 91 65 92 66 93 45 94
REMARK SMILES IDX 46 95 54 96 47 97 53 98 55 99 52 100 48 101 49 102 50 103
REMARK SMILES IDX 51 104
REMARK H PARENT 75 57 43 68
REMARK Flexibility Score: inf
ROOT
ATOM      1  C   UNL     1       0.335  -4.807   0.458  1.00  0.00     0.188 C 
ENDROOT
BRANCH   1   2
ATOM      2  O   UNL     1       0.986  -4.624   1.708  1.00  0.00    -0.376 OA
BRANCH   2   3
ATOM      3  C   UNL     1       1.122  -3.286   2.174  1.00  0.00     0.202 C 
BRANCH   3   4
ATOM      4  C   UNL     1       1.977  -2.328   1.315  1.00  0.00     0.261 C 
BRANCH   4   5
ATOM      5  O   UNL     1       1.447  -2.069  -0.007  1.00  0.00    -0.463 OA
BRANCH   5   6
ATOM      6  C   UNL     1       2.289  -2.351  -1.035  1.00  0.00     0.305 C 
ATOM      7  O   UNL     1       3.453  -2.718  -0.887  1.00  0.00    -0.252 OA
BRANCH   6   8
ATOM      8  C   UNL     1       1.710  -2.211  -2.428  1.00  0.00     0.123 C 
BRANCH   8   9
ATOM      9  C   UNL     1       0.213  -2.088  -2.709  1.00  0.00     0.015 C 
BRANCH   9  10
ATOM     10  C   UNL     1      -0.535  -0.764  -2.372  1.00  0.00    -0.010 C 
ATOM     11  C   UNL     1       0.283   0.482  -2.659  1.00  0.00     0.008 C 
BRANCH  10  12
ATOM     12  C   UNL     1      -1.335  -0.889  -1.036  1.00  0.00     0.005 C 
ATOM     13  C   UNL     1      -2.867  -0.931  -1.366  1.00  0.00     0.005 C 
ATOM     14  C   UNL     1      -1.242   0.006   0.262  1.00  0.00     0.032 C 
ATOM     15  C   UNL     1      -3.585  -0.198  -0.249  1.00  0.00     0.005 C 
ATOM     16  C   UNL     1      -2.546   0.830   0.197  1.00  0.00     0.006 C 
ATOM     17  C   UNL     1      -0.131   0.995   0.598  1.00  0.00     0.139 C 
ATOM     18  C   UNL     1      -1.238  -0.939   1.489  1.00  0.00     0.020 C 
ATOM     19  C   UNL     1      -2.902   1.564   1.501  1.00  0.00    -0.003 C 
ATOM     20  C   UNL     1      -0.328   1.789   1.895  1.00  0.00     0.080 C 
ATOM     21  O   UNL     1       0.932   1.083  -0.006  1.00  0.00    -0.299 OA
ATOM     22  C   UNL     1      -4.124   2.471   1.283  1.00  0.00     0.004 C 
ATOM     23  C   UNL     1      -1.720   2.422   2.017  1.00  0.00     0.006 C 
ATOM     24  C   UNL     1      -4.440   3.363   2.478  1.00  0.00     0.005 C 
ATOM     25  C   UNL     1      -2.061   3.088   3.417  1.00  0.00    -0.025 C 
ATOM     26  C   UNL     1      -3.208   4.082   3.089  1.00  0.00     0.002 C 
ATOM     27  C   UNL     1      -2.508   2.125   4.570  1.00  0.00     0.015 C 
ATOM     28  C   UNL     1      -0.793   3.816   3.937  1.00  0.00     0.012 C 
ATOM     29  C   UNL     1      -3.611   4.896   4.311  1.00  0.00     0.079 C 
ATOM     30  C   UNL     1      -3.634   2.597   5.520  1.00  0.00     0.076 C 
ATOM     31  C   UNL     1      -4.203   3.993   5.351  1.00  0.00     0.133 C 
ATOM     32  O   UNL     1      -5.124   4.391   6.069  1.00  0.00    -0.300 OA
ENDBRANCH  10  12
ENDBRANCH   9  10
ENDBRANCH   8   9
ENDBRANCH   6   8
ENDBRANCH   5   6
ENDBRANCH   4   5
ENDBRANCH   3   4
ENDBRANCH   2   3
ENDBRANCH   1   2
BRANCH   1  33
ATOM     33  C   UNL     1      -1.180  -4.985   0.500  1.00  0.00     0.188 C 
BRANCH  33  34
ATOM     34  O   UNL     1      -1.930  -3.820   0.834  1.00  0.00    -0.376 OA
BRANCH  34  35
ATOM     35  C   UNL     1      -2.828  -3.972   1.933  1.00  0.00     0.202 C 
BRANCH  35  36
ATOM     36  C   UNL     1      -4.215  -4.505   1.559  1.00  0.00     0.261 C 
BRANCH  36  37
ATOM     37  O   UNL     1      -4.102  -5.795   0.958  1.00  0.00    -0.460 OA
BRANCH  37  38
ATOM     38  C   UNL     1      -4.110  -5.802  -0.399  1.00  0.00     0.338 C 
ATOM     39  O   UNL     1      -4.494  -4.905  -1.133  1.00  0.00    -0.246 OA
BRANCH  38  40
ATOM     40  C   UNL     1      -3.317  -6.973  -0.848  1.00  0.00     0.060 A 
ATOM     41  C   UNL     1      -2.625  -6.870  -2.064  1.00  0.00     0.016 A 
ATOM     42  C   UNL     1      -3.118  -8.081  -0.013  1.00  0.00     0.016 A 
ATOM     43  C   UNL     1      -1.752  -7.880  -2.456  1.00  0.00     0.010 A 
ATOM     44  C   UNL     1      -2.247  -9.092  -0.405  1.00  0.00     0.010 A 
ATOM     45  C   UNL     1      -1.596  -9.011  -1.646  1.00  0.00    -0.014 A 
BRANCH  45  46
ATOM     46  C   UNL     1      -0.999 -10.235  -2.216  1.00  0.00     0.031 A 
ATOM     47  C   UNL     1      -1.956 -11.254  -2.771  1.00  0.00     0.074 A 
ATOM     48  C   UNL     1       0.330 -10.423  -2.247  1.00  0.00     0.049 A 
ATOM     49  N   UNL     1      -1.718 -12.436  -3.268  1.00  0.00    -0.248 NA
ATOM     50  C   UNL     1      -3.385 -10.887  -2.745  1.00  0.00     0.031 C 
ATOM     51  C   UNL     1       1.333  -9.474  -1.762  1.00  0.00     0.029 A 
ATOM     52  N   UNL     1       1.065 -11.486  -2.702  1.00  0.00    -0.354 N 
ATOM     53  C   UNL     1      -2.963 -12.950  -3.617  1.00  0.00     0.074 A 
ATOM     54  C   UNL     1      -3.956 -11.979  -3.223  1.00  0.00     0.031 C 
ATOM     55  C   UNL     1       2.556 -10.005  -1.941  1.00  0.00     0.029 A 
ATOM     56  C   UNL     1       2.420 -11.341  -2.515  1.00  0.00     0.049 A 
ATOM     57  H   UNL     1       0.661 -12.278  -3.123  1.00  0.00     0.167 HD
ATOM     58  C   UNL     1      -3.246 -14.123  -4.229  1.00  0.00     0.034 A 
ATOM     59  C   UNL     1       3.422 -12.210  -2.764  1.00  0.00     0.034 A 
ATOM     60  C   UNL     1      -2.236 -15.081  -4.592  1.00  0.00     0.049 A 
ATOM     61  C   UNL     1       3.069 -13.552  -3.369  1.00  0.00     0.074 A 
ATOM     62  C   UNL     1      -2.393 -16.308  -5.207  1.00  0.00     0.029 A 
ATOM     63  N   UNL     1      -0.875 -14.918  -4.362  1.00  0.00    -0.354 N 
ATOM     64  N   UNL     1       1.889 -14.025  -3.709  1.00  0.00    -0.248 NA
ATOM     65  C   UNL     1       4.183 -14.469  -3.637  1.00  0.00     0.031 C 
ATOM     66  C   UNL     1      -1.136 -16.918  -5.283  1.00  0.00     0.029 A 
ATOM     67  C   UNL     1      -0.183 -16.035  -4.798  1.00  0.00     0.049 A 
ATOM     68  H   UNL     1      -0.463 -14.124  -3.951  1.00  0.00     0.167 HD
ATOM     69  C   UNL     1       2.128 -15.281  -4.262  1.00  0.00     0.074 A 
ATOM     70  C   UNL     1       3.564 -15.475  -4.235  1.00  0.00     0.031 C 
ATOM     71  C   UNL     1       1.250 -16.198  -4.747  1.00  0.00     0.034 A 
BRANCH  58  72
ATOM     72  C   UNL     1      -4.697 -14.436  -4.492  1.00  0.00     0.023 A 
ATOM     73  C   UNL     1      -5.476 -13.653  -5.363  1.00  0.00     0.031 A 
ATOM     74  C   UNL     1      -5.320 -15.513  -3.840  1.00  0.00     0.131 A 
ATOM     75  C   UNL     1      -6.844 -13.925  -5.515  1.00  0.00     0.055 A 
ATOM     76  C   UNL     1      -6.663 -15.827  -4.055  1.00  0.00     0.041 A 
ATOM     77  F   UNL     1      -4.636 -16.273  -2.969  1.00  0.00    -0.206 F 
ATOM     78  C   UNL     1      -7.436 -15.024  -4.889  1.00  0.00     0.022 A 
BRANCH  75  79
ATOM     79  S   UNL     1      -7.867 -12.748  -6.442  1.00  0.00     0.124 S 
ATOM     80  O   UNL     1      -7.702 -11.530  -5.653  1.00  0.00    -0.237 OA
ATOM     81  O   UNL     1      -7.237 -12.748  -7.757  1.00  0.00    -0.237 OA
ATOM     82  O   UNL     1      -9.202 -13.340  -6.390  1.00  0.00    -0.744 OA
ENDBRANCH  75  79
ENDBRANCH  58  72
BRANCH  59  83
ATOM     83  C   UNL     1       4.836 -11.878  -2.416  1.00  0.00     0.023 A 
ATOM     84  C   UNL     1       5.840 -11.853  -3.398  1.00  0.00     0.031 A 
ATOM     85  C   UNL     1       5.224 -11.667  -1.080  1.00  0.00     0.131 A 
ATOM     86  C   UNL     1       7.184 -11.693  -3.025  1.00  0.00     0.055 A 
ATOM     87  C   UNL     1       6.554 -11.440  -0.722  1.00  0.00     0.041 A 
ATOM     88  F   UNL     1       4.311 -11.687  -0.096  1.00  0.00    -0.206 F 
ATOM     89  C   UNL     1       7.547 -11.471  -1.696  1.00  0.00     0.022 A 
BRANCH  86  90
ATOM     90  S   UNL     1       8.467 -11.913  -4.290  1.00  0.00     0.124 S 
ATOM     91  O   UNL     1       8.158 -13.245  -4.797  1.00  0.00    -0.237 OA
ATOM     92  O   UNL     1       8.193 -10.803  -5.196  1.00  0.00    -0.237 OA
ATOM     93  O   UNL     1       9.713 -11.807  -3.534  1.00  0.00    -0.744 OA
ENDBRANCH  86  90
ENDBRANCH  59  83
BRANCH  71  94
ATOM     94  C   UNL     1       1.836 -17.465  -5.323  1.00  0.00     0.023 A 
ATOM     95  C   UNL     1       2.542 -18.380  -4.525  1.00  0.00     0.031 A 
ATOM     96  C   UNL     1       1.706 -17.746  -6.695  1.00  0.00     0.131 A 
ATOM     97  C   UNL     1       3.162 -19.489  -5.117  1.00  0.00     0.055 A 
ATOM     98  C   UNL     1       2.257 -18.894  -7.265  1.00  0.00     0.041 A 
ATOM     99  F   UNL     1       1.041 -16.907  -7.506  1.00  0.00    -0.206 F 
ATOM    100  C   UNL     1       3.007 -19.763  -6.478  1.00  0.00     0.022 A 
BRANCH  97 101
ATOM    101  S   UNL     1       4.281 -20.496  -4.107  1.00  0.00     0.124 S 
ATOM    102  O   UNL     1       5.244 -19.503  -3.642  1.00  0.00    -0.237 OA
ATOM    103  O   UNL     1       3.383 -21.037  -3.091  1.00  0.00    -0.237 OA
ATOM    104  O   UNL     1       4.809 -21.476  -5.054  1.00  0.00    -0.744 OA
ENDBRANCH  97 101
ENDBRANCH  71  94
ENDBRANCH  45  46
ENDBRANCH  38  40
ENDBRANCH  37  38
ENDBRANCH  36  37
ENDBRANCH  35  36
ENDBRANCH  34  35
ENDBRANCH  33  34
ENDBRANCH   1  33
TORSDOF 23
