REMARK SMILES CCCC[C@H](CC)C(=O)N1[C@H](C(=O)OCCOCCOCCOC(=O)c2ccc(-c3c4nc(c(-c5cc(S(=O)(=O)[O-])ccc5F)c5ccc([nH]5)c(-c5cc(S(=O)(=O)[O-])ccc5F)c5nc(c(-c6cc(S(=O)(=O)[O-])ccc6F)c6ccc3[nH]6)C=C5)C=C4)cc2)COC12CCCCC2
REMARK SMILES IDX 18 1 17 2 16 3 15 4 14 5 12 6 13 7 11 8 10 9 91 10 89 11
REMARK SMILES IDX 90 12 92 13 96 14 93 15 95 16 94 17 8 18 9 19 5 20 4 21 3 22
REMARK SMILES IDX 2 23 1 24 6 25 7 26 19 27 20 28 21 29 22 30 23 31 24 32
REMARK SMILES IDX 25 33 26 34 27 35 88 36 28 37 87 38 29 39 30 40 31 41 81 42
REMARK SMILES IDX 32 43 86 44 80 45 82 46 33 47 85 48 79 49 78 50 34 52 66 53
REMARK SMILES IDX 46 54 65 55 47 56 50 57 64 58 83 59 48 60 49 61 63 63 84 64
REMARK SMILES IDX 51 65 35 66 36 67 44 68 37 69 43 70 45 71 42 72 38 73 39 74
REMARK SMILES IDX 40 75 41 76 67 77 68 78 76 79 69 80 75 81 77 82 74 83 70 84
REMARK SMILES IDX 71 85 72 86 73 87 52 88 53 89 61 90 54 91 60 92 62 93 59 94
REMARK SMILES IDX 55 95 56 96 57 97 58 98
REMARK H PARENT 82 51 50 62
REMARK Flexibility Score: inf
ROOT
ATOM      1  C   UNL     1      -4.035  -3.284  -7.522  1.00  0.00     0.188 C 
ENDROOT
BRANCH   1   2
ATOM      2  O   UNL     1      -4.842  -4.131  -6.733  1.00  0.00    -0.376 OA
BRANCH   2   3
ATOM      3  C   UNL     1      -5.442  -3.686  -5.535  1.00  0.00     0.202 C 
BRANCH   3   4
ATOM      4  C   UNL     1      -4.698  -2.819  -4.520  1.00  0.00     0.261 C 
BRANCH   4   5
ATOM      5  O   UNL     1      -3.914  -1.770  -5.078  1.00  0.00    -0.462 OA
BRANCH   5   6
ATOM      6  C   UNL     1      -2.565  -1.999  -5.129  1.00  0.00     0.331 C 
ATOM      7  O   UNL     1      -2.009  -3.056  -4.862  1.00  0.00    -0.250 OA
BRANCH   6   8
ATOM      8  C   UNL     1      -1.875  -0.726  -5.613  1.00  0.00     0.223 C 
ATOM      9  N   UNL     1      -0.798  -0.246  -4.765  1.00  0.00    -0.298 N 
ATOM     10  C   UNL     1       0.396  -0.002  -5.592  1.00  0.00     0.144 C 
ATOM     11  C   UNL     1      -1.217  -0.961  -6.954  1.00  0.00     0.200 C 
ATOM     12  O   UNL     1      -0.095  -0.078  -6.961  1.00  0.00    -0.353 OA
ATOM     13  C   UNL     1       0.977   1.411  -5.499  1.00  0.00     0.059 C 
ATOM     14  C   UNL     1       1.427  -1.150  -5.468  1.00  0.00     0.059 C 
ATOM     15  C   UNL     1       2.288   1.588  -6.259  1.00  0.00     0.005 C 
ATOM     16  C   UNL     1       2.776  -0.861  -6.131  1.00  0.00     0.005 C 
ATOM     17  C   UNL     1       3.302   0.537  -5.839  1.00  0.00     0.000 C 
BRANCH   9  18
ATOM     18  C   UNL     1      -1.106  -0.127  -3.431  1.00  0.00     0.228 C 
ATOM     19  O   UNL     1      -1.955  -0.881  -2.926  1.00  0.00    -0.274 OA
BRANCH  18  20
ATOM     20  C   UNL     1      -0.698   1.039  -2.541  1.00  0.00     0.078 C 
BRANCH  20  21
ATOM     21  C   UNL     1      -1.314   2.358  -3.054  1.00  0.00     0.013 C 
BRANCH  21  22
ATOM     22  C   UNL     1      -2.851   2.347  -3.202  1.00  0.00     0.001 C 
BRANCH  22  23
ATOM     23  C   UNL     1      -3.652   2.038  -1.933  1.00  0.00    -0.003 C 
ATOM     24  C   UNL     1      -3.323   2.963  -0.773  1.00  0.00     0.004 C 
ENDBRANCH  22  23
ENDBRANCH  21  22
ENDBRANCH  20  21
BRANCH  20  25
ATOM     25  C   UNL     1       0.733   1.165  -2.008  1.00  0.00     0.010 C 
ATOM     26  C   UNL     1       1.625  -0.050  -2.162  1.00  0.00     0.005 C 
ENDBRANCH  20  25
ENDBRANCH  18  20
ENDBRANCH   9  18
ENDBRANCH   6   8
ENDBRANCH   5   6
ENDBRANCH   4   5
ENDBRANCH   3   4
ENDBRANCH   2   3
ENDBRANCH   1   2
BRANCH   1  27
ATOM     27  C   UNL     1      -4.504  -1.875  -7.947  1.00  0.00     0.188 C 
BRANCH  27  28
ATOM     28  O   UNL     1      -5.847  -1.478  -7.806  1.00  0.00    -0.376 OA
BRANCH  28  29
ATOM     29  C   UNL     1      -6.877  -2.250  -8.385  1.00  0.00     0.202 C 
BRANCH  29  30
ATOM     30  C   UNL     1      -6.737  -2.959  -9.742  1.00  0.00     0.261 C 
BRANCH  30  31
ATOM     31  O   UNL     1      -5.494  -3.623 -10.014  1.00  0.00    -0.460 OA
BRANCH  31  32
ATOM     32  C   UNL     1      -4.697  -3.031 -10.941  1.00  0.00     0.338 C 
ATOM     33  O   UNL     1      -4.934  -1.988 -11.539  1.00  0.00    -0.246 OA
BRANCH  32  34
ATOM     34  C   UNL     1      -3.383  -3.712 -11.002  1.00  0.00     0.060 A 
ATOM     35  C   UNL     1      -2.223  -2.970 -10.728  1.00  0.00     0.016 A 
ATOM     36  C   UNL     1      -3.281  -5.056 -11.362  1.00  0.00     0.016 A 
ATOM     37  C   UNL     1      -0.959  -3.558 -10.855  1.00  0.00     0.010 A 
ATOM     38  C   UNL     1      -2.014  -5.636 -11.511  1.00  0.00     0.010 A 
ATOM     39  C   UNL     1      -0.843  -4.883 -11.294  1.00  0.00    -0.014 A 
BRANCH  39  40
ATOM     40  C   UNL     1       0.477  -5.416 -11.737  1.00  0.00     0.031 A 
ATOM     41  C   UNL     1       0.776  -5.436 -13.216  1.00  0.00     0.074 A 
ATOM     42  C   UNL     1       1.403  -5.859 -10.865  1.00  0.00     0.049 A 
ATOM     43  N   UNL     1       1.795  -5.949 -13.856  1.00  0.00    -0.248 NA
ATOM     44  C   UNL     1      -0.219  -4.792 -14.088  1.00  0.00     0.031 C 
ATOM     45  C   UNL     1       1.275  -5.837  -9.410  1.00  0.00     0.029 A 
ATOM     46  N   UNL     1       2.636  -6.429 -11.083  1.00  0.00    -0.354 N 
ATOM     47  C   UNL     1       1.564  -5.693 -15.204  1.00  0.00     0.074 A 
ATOM     48  C   UNL     1       0.288  -5.015 -15.290  1.00  0.00     0.031 C 
ATOM     49  C   UNL     1       2.375  -6.389  -8.867  1.00  0.00     0.029 A 
ATOM     50  C   UNL     1       3.267  -6.847  -9.932  1.00  0.00     0.049 A 
ATOM     51  H   UNL     1       3.031  -6.530 -11.979  1.00  0.00     0.167 HD
ATOM     52  C   UNL     1       2.346  -5.987 -16.273  1.00  0.00     0.034 A 
ATOM     53  C   UNL     1       4.409  -7.550  -9.761  1.00  0.00     0.034 A 
ATOM     54  C   UNL     1       3.610  -6.675 -16.182  1.00  0.00     0.049 A 
ATOM     55  C   UNL     1       5.210  -7.967 -10.978  1.00  0.00     0.074 A 
ATOM     56  C   UNL     1       4.471  -7.031 -17.206  1.00  0.00     0.029 A 
ATOM     57  N   UNL     1       4.193  -7.117 -15.002  1.00  0.00    -0.354 N 
ATOM     58  N   UNL     1       4.972  -7.733 -12.249  1.00  0.00    -0.248 NA
ATOM     59  C   UNL     1       6.440  -8.737 -10.737  1.00  0.00     0.031 C 
ATOM     60  C   UNL     1       5.534  -7.753 -16.655  1.00  0.00     0.029 A 
ATOM     61  C   UNL     1       5.387  -7.766 -15.278  1.00  0.00     0.049 A 
ATOM     62  H   UNL     1       3.815  -6.989 -14.103  1.00  0.00     0.167 HD
ATOM     63  C   UNL     1       6.045  -8.288 -12.947  1.00  0.00     0.074 A 
ATOM     64  C   UNL     1       6.935  -8.855 -11.959  1.00  0.00     0.031 C 
ATOM     65  C   UNL     1       6.276  -8.321 -14.285  1.00  0.00     0.034 A 
BRANCH  52  66
ATOM     66  C   UNL     1       1.831  -5.603 -17.639  1.00  0.00     0.023 A 
ATOM     67  C   UNL     1       1.650  -4.260 -18.010  1.00  0.00     0.031 A 
ATOM     68  C   UNL     1       1.514  -6.596 -18.583  1.00  0.00     0.131 A 
ATOM     69  C   UNL     1       1.114  -3.948 -19.268  1.00  0.00     0.055 A 
ATOM     70  C   UNL     1       1.056  -6.277 -19.862  1.00  0.00     0.041 A 
ATOM     71  F   UNL     1       1.642  -7.897 -18.276  1.00  0.00    -0.206 F 
ATOM     72  C   UNL     1       0.842  -4.946 -20.207  1.00  0.00     0.022 A 
BRANCH  69  73
ATOM     73  S   UNL     1       0.657  -2.228 -19.614  1.00  0.00     0.124 S 
ATOM     74  O   UNL     1      -0.326  -1.967 -18.564  1.00  0.00    -0.237 OA
ATOM     75  O   UNL     1       1.930  -1.530 -19.485  1.00  0.00    -0.237 OA
ATOM     76  O   UNL     1       0.110  -2.284 -20.968  1.00  0.00    -0.744 OA
ENDBRANCH  69  73
ENDBRANCH  52  66
BRANCH  53  77
ATOM     77  C   UNL     1       4.854  -7.975  -8.397  1.00  0.00     0.023 A 
ATOM     78  C   UNL     1       6.104  -7.591  -7.883  1.00  0.00     0.031 A 
ATOM     79  C   UNL     1       4.077  -8.863  -7.630  1.00  0.00     0.131 A 
ATOM     80  C   UNL     1       6.569  -8.146  -6.679  1.00  0.00     0.055 A 
ATOM     81  C   UNL     1       4.513  -9.355  -6.398  1.00  0.00     0.041 A 
ATOM     82  F   UNL     1       2.880  -9.277  -8.074  1.00  0.00    -0.206 F 
ATOM     83  C   UNL     1       5.776  -9.012  -5.925  1.00  0.00     0.022 A 
BRANCH  80  84
ATOM     84  S   UNL     1       8.286  -7.828  -6.181  1.00  0.00     0.124 S 
ATOM     85  O   UNL     1       9.024  -8.304  -7.346  1.00  0.00    -0.237 OA
ATOM     86  O   UNL     1       8.278  -6.385  -5.972  1.00  0.00    -0.237 OA
ATOM     87  O   UNL     1       8.444  -8.632  -4.971  1.00  0.00    -0.744 OA
ENDBRANCH  80  84
ENDBRANCH  53  77
BRANCH  65  88
ATOM     88  C   UNL     1       7.581  -8.925 -14.756  1.00  0.00     0.023 A 
ATOM     89  C   UNL     1       7.883 -10.287 -14.584  1.00  0.00     0.031 A 
ATOM     90  C   UNL     1       8.540  -8.114 -15.392  1.00  0.00     0.131 A 
ATOM     91  C   UNL     1       9.132 -10.784 -14.989  1.00  0.00     0.055 A 
ATOM     92  C   UNL     1       9.752  -8.628 -15.854  1.00  0.00     0.041 A 
ATOM     93  F   UNL     1       8.311  -6.804 -15.581  1.00  0.00    -0.206 F 
ATOM     94  C   UNL     1      10.060  -9.968 -15.640  1.00  0.00     0.022 A 
BRANCH  91  95
ATOM     95  S   UNL     1       9.573 -12.492 -14.563  1.00  0.00     0.124 S 
ATOM     96  O   UNL     1       9.442 -12.486 -13.110  1.00  0.00    -0.237 OA
ATOM     97  O   UNL     1       8.570 -13.264 -15.290  1.00  0.00    -0.237 OA
ATOM     98  O   UNL     1      10.940 -12.628 -15.062  1.00  0.00    -0.744 OA
ENDBRANCH  91  95
ENDBRANCH  65  88
ENDBRANCH  39  40
ENDBRANCH  32  34
ENDBRANCH  31  32
ENDBRANCH  30  31
ENDBRANCH  29  30
ENDBRANCH  28  29
ENDBRANCH  27  28
ENDBRANCH   1  27
TORSDOF 26
