REMARK SMILES CC(C)[C@H](C[NH+](C)C)NC(=O)c1csc(/C=C/C(=O)OCCOCCOCCOC(=O)c2ccc(-c3c4nc(c(-c5cc(S(=O)(=O)[O-])ccc5F)c5ccc([nH]5)c(-c5cc(S(=O)(=O)[O-])ccc5F)c5nc(c(-c6cc(S(=O)(=O)[O-])ccc6F)c6ccc3[nH]6)C=C5)C=C4)cc2)c1
REMARK SMILES IDX 24 1 23 2 22 3 21 4 20 5 18 6 19 7 17 8 16 9 15 10 12 11
REMARK SMILES IDX 13 12 95 13 14 14 10 15 9 16 11 18 4 19 2 20 1 21 3 22 5 23
REMARK SMILES IDX 6 24 7 25 8 26 25 28 26 29 27 30 28 31 29 32 30 33 31 34
REMARK SMILES IDX 32 35 33 36 94 37 34 38 93 39 35 40 36 41 37 42 87 43 38 44
REMARK SMILES IDX 92 45 86 46 88 47 39 48 91 49 85 50 84 51 40 53 72 54 52 55
REMARK SMILES IDX 71 56 53 57 56 58 70 59 89 60 54 61 55 62 69 64 90 65 57 66
REMARK SMILES IDX 41 67 42 68 50 69 43 70 49 71 51 72 48 73 44 74 45 75 46 76
REMARK SMILES IDX 47 77 73 78 74 79 82 80 75 81 81 82 83 83 80 84 76 85 77 86
REMARK SMILES IDX 78 87 79 88 58 89 59 90 67 91 60 92 66 93 68 94 65 95 61 96
REMARK SMILES IDX 62 97 63 98 64 99
REMARK H PARENT 9 17 6 27 88 52 56 63
REMARK Flexibility Score: inf
ROOT
ATOM      1  C   UNL     1      -1.911  -7.649   5.161  1.00  0.00     0.188 C 
ENDROOT
BRANCH   1   2
ATOM      2  O   UNL     1      -2.176  -8.949   5.678  1.00  0.00    -0.376 OA
BRANCH   2   3
ATOM      3  C   UNL     1      -2.329 -10.050   4.794  1.00  0.00     0.202 C 
BRANCH   3   4
ATOM      4  C   UNL     1      -3.293  -9.964   3.599  1.00  0.00     0.261 C 
BRANCH   4   5
ATOM      5  O   UNL     1      -3.242  -8.744   2.842  1.00  0.00    -0.460 OA
BRANCH   5   6
ATOM      6  C   UNL     1      -4.351  -7.970   2.924  1.00  0.00     0.330 C 
ATOM      7  O   UNL     1      -5.385  -8.247   3.514  1.00  0.00    -0.247 OA
BRANCH   6   8
ATOM      8  C   UNL     1      -4.159  -6.641   2.311  1.00  0.00     0.095 C 
ATOM      9  C   UNL     1      -3.285  -6.335   1.339  1.00  0.00     0.026 C 
BRANCH   9  10
ATOM     10  C   UNL     1      -3.193  -5.016   0.791  1.00  0.00     0.028 A 
ATOM     11  C   UNL     1      -2.870  -3.236  -0.744  1.00  0.00     0.051 A 
ATOM     12  C   UNL     1      -3.394  -2.582   0.350  1.00  0.00     0.079 A 
ATOM     13  C   UNL     1      -2.756  -4.646  -0.471  1.00  0.00     0.033 A 
ATOM     14  S   UNL     1      -3.618  -3.606   1.690  1.00  0.00    -0.144 S 
BRANCH  11  15
ATOM     15  C   UNL     1      -2.587  -2.623  -2.034  1.00  0.00     0.252 C 
ATOM     16  N   UNL     1      -1.865  -1.464  -2.104  1.00  0.00    -0.343 N 
ATOM     17  H   UNL     1      -1.864  -1.046  -2.996  1.00  0.00     0.164 HD
ATOM     18  O   UNL     1      -2.933  -3.166  -3.083  1.00  0.00    -0.269 OA
BRANCH  16  19
ATOM     19  C   UNL     1      -1.087  -0.722  -1.095  1.00  0.00     0.139 C 
BRANCH  19  20
ATOM     20  C   UNL     1      -1.477   0.790  -1.216  1.00  0.00     0.011 C 
ATOM     21  C   UNL     1      -2.529   1.140  -0.148  1.00  0.00     0.010 C 
ATOM     22  C   UNL     1      -0.341   1.807  -1.131  1.00  0.00     0.010 C 
ENDBRANCH  19  20
BRANCH  19  23
ATOM     23  C   UNL     1       0.440  -1.091  -1.142  1.00  0.00     0.287 C 
BRANCH  23  24
ATOM     24  N   UNL     1       0.995  -1.624  -2.415  1.00  0.00    -0.338 N 
ATOM     25  C   UNL     1       2.440  -1.346  -2.469  1.00  0.00     0.332 C 
ATOM     26  C   UNL     1       0.833  -3.087  -2.480  1.00  0.00     0.332 C 
ATOM     27  H   UNL     1       0.499  -1.179  -3.187  1.00  0.00     0.347 HD
ENDBRANCH  23  24
ENDBRANCH  19  23
ENDBRANCH  16  19
ENDBRANCH  11  15
ENDBRANCH   9  10
ENDBRANCH   6   8
ENDBRANCH   5   6
ENDBRANCH   4   5
ENDBRANCH   3   4
ENDBRANCH   2   3
ENDBRANCH   1   2
BRANCH   1  28
ATOM     28  C   UNL     1      -0.868  -7.462   4.038  1.00  0.00     0.188 C 
BRANCH  28  29
ATOM     29  O   UNL     1      -0.349  -8.676   3.532  1.00  0.00    -0.376 OA
BRANCH  29  30
ATOM     30  C   UNL     1       0.991  -8.999   3.873  1.00  0.00     0.202 C 
BRANCH  30  31
ATOM     31  C   UNL     1       1.451  -8.988   5.345  1.00  0.00     0.261 C 
BRANCH  31  32
ATOM     32  O   UNL     1       0.953  -7.937   6.187  1.00  0.00    -0.460 OA
BRANCH  32  33
ATOM     33  C   UNL     1       1.596  -6.746   6.120  1.00  0.00     0.338 C 
ATOM     34  O   UNL     1       2.522  -6.465   5.388  1.00  0.00    -0.246 OA
BRANCH  33  35
ATOM     35  C   UNL     1       0.860  -5.771   6.960  1.00  0.00     0.060 A 
ATOM     36  C   UNL     1       0.242  -4.684   6.333  1.00  0.00     0.016 A 
ATOM     37  C   UNL     1       0.807  -5.905   8.351  1.00  0.00     0.016 A 
ATOM     38  C   UNL     1      -0.395  -3.705   7.098  1.00  0.00     0.010 A 
ATOM     39  C   UNL     1       0.177  -4.915   9.117  1.00  0.00     0.010 A 
ATOM     40  C   UNL     1      -0.396  -3.790   8.497  1.00  0.00    -0.014 A 
BRANCH  40  41
ATOM     41  C   UNL     1      -0.856  -2.617   9.290  1.00  0.00     0.031 A 
ATOM     42  C   UNL     1       0.173  -1.686   9.878  1.00  0.00     0.074 A 
ATOM     43  C   UNL     1      -2.166  -2.338   9.421  1.00  0.00     0.049 A 
ATOM     44  N   UNL     1       0.006  -0.576  10.550  1.00  0.00    -0.248 NA
ATOM     45  C   UNL     1       1.581  -2.060   9.677  1.00  0.00     0.031 C 
ATOM     46  C   UNL     1      -3.257  -3.142   8.870  1.00  0.00     0.029 A 
ATOM     47  N   UNL     1      -2.802  -1.295  10.048  1.00  0.00    -0.354 N 
ATOM     48  C   UNL     1       1.285  -0.115  10.849  1.00  0.00     0.074 A 
ATOM     49  C   UNL     1       2.214  -1.094  10.326  1.00  0.00     0.031 C 
ATOM     50  C   UNL     1      -4.428  -2.557   9.177  1.00  0.00     0.029 A 
ATOM     51  C   UNL     1      -4.175  -1.357   9.972  1.00  0.00     0.049 A 
ATOM     52  H   UNL     1      -2.321  -0.571  10.510  1.00  0.00     0.167 HD
ATOM     53  C   UNL     1       1.652   1.025  11.487  1.00  0.00     0.034 A 
ATOM     54  C   UNL     1      -5.118  -0.545  10.494  1.00  0.00     0.034 A 
ATOM     55  C   UNL     1       0.714   1.985  12.021  1.00  0.00     0.049 A 
ATOM     56  C   UNL     1      -4.685   0.678  11.268  1.00  0.00     0.074 A 
ATOM     57  C   UNL     1       0.979   3.175  12.677  1.00  0.00     0.029 A 
ATOM     58  N   UNL     1      -0.669   1.861  11.975  1.00  0.00    -0.354 N 
ATOM     59  N   UNL     1      -3.472   1.113  11.525  1.00  0.00    -0.248 NA
ATOM     60  C   UNL     1      -5.754   1.530  11.806  1.00  0.00     0.031 C 
ATOM     61  C   UNL     1      -0.237   3.726  13.099  1.00  0.00     0.029 A 
ATOM     62  C   UNL     1      -1.268   2.933  12.622  1.00  0.00     0.049 A 
ATOM     63  H   UNL     1      -1.154   1.119  11.546  1.00  0.00     0.167 HD
ATOM     64  C   UNL     1      -3.636   2.308  12.224  1.00  0.00     0.074 A 
ATOM     65  C   UNL     1      -5.063   2.534  12.323  1.00  0.00     0.031 C 
ATOM     66  C   UNL     1      -2.694   3.144  12.734  1.00  0.00     0.034 A 
BRANCH  53  67
ATOM     67  C   UNL     1       3.132   1.263  11.686  1.00  0.00     0.023 A 
ATOM     68  C   UNL     1       4.011   1.427  10.600  1.00  0.00     0.031 A 
ATOM     69  C   UNL     1       3.677   1.300  12.982  1.00  0.00     0.131 A 
ATOM     70  C   UNL     1       5.391   1.547  10.826  1.00  0.00     0.055 A 
ATOM     71  C   UNL     1       5.040   1.505  13.203  1.00  0.00     0.041 A 
ATOM     72  F   UNL     1       2.894   1.125  14.058  1.00  0.00    -0.206 F 
ATOM     73  C   UNL     1       5.909   1.614  12.122  1.00  0.00     0.022 A 
BRANCH  70  74
ATOM     74  S   UNL     1       6.515   1.462   9.405  1.00  0.00     0.124 S 
ATOM     75  O   UNL     1       6.169   0.164   8.831  1.00  0.00    -0.237 OA
ATOM     76  O   UNL     1       6.124   2.630   8.623  1.00  0.00    -0.237 OA
ATOM     77  O   UNL     1       7.842   1.533  10.012  1.00  0.00    -0.744 OA
ENDBRANCH  70  74
ENDBRANCH  53  67
BRANCH  54  78
ATOM     78  C   UNL     1      -6.568  -0.865  10.333  1.00  0.00     0.023 A 
ATOM     79  C   UNL     1      -7.439   0.005   9.657  1.00  0.00     0.031 A 
ATOM     80  C   UNL     1      -7.117  -2.020  10.918  1.00  0.00     0.131 A 
ATOM     81  C   UNL     1      -8.816  -0.266   9.627  1.00  0.00     0.055 A 
ATOM     82  C   UNL     1      -8.479  -2.317  10.832  1.00  0.00     0.041 A 
ATOM     83  F   UNL     1      -6.333  -2.883  11.583  1.00  0.00    -0.206 F 
ATOM     84  C   UNL     1      -9.340  -1.429  10.196  1.00  0.00     0.022 A 
BRANCH  81  85
ATOM     85  S   UNL     1      -9.932   0.977   8.916  1.00  0.00     0.124 S 
ATOM     86  O   UNL     1      -9.642   2.143   9.742  1.00  0.00    -0.237 OA
ATOM     87  O   UNL     1      -9.473   1.040   7.532  1.00  0.00    -0.237 OA
ATOM     88  O   UNL     1     -11.258   0.391   9.105  1.00  0.00    -0.744 OA
ENDBRANCH  81  85
ENDBRANCH  54  78
BRANCH  66  89
ATOM     89  C   UNL     1      -3.188   4.408  13.404  1.00  0.00     0.023 A 
ATOM     90  C   UNL     1      -3.996   4.372  14.555  1.00  0.00     0.031 A 
ATOM     91  C   UNL     1      -2.886   5.668  12.854  1.00  0.00     0.131 A 
ATOM     92  C   UNL     1      -4.547   5.560  15.062  1.00  0.00     0.055 A 
ATOM     93  C   UNL     1      -3.370   6.852  13.413  1.00  0.00     0.041 A 
ATOM     94  F   UNL     1      -2.122   5.769  11.755  1.00  0.00    -0.206 F 
ATOM     95  C   UNL     1      -4.224   6.801  14.510  1.00  0.00     0.022 A 
BRANCH  92  96
ATOM     96  S   UNL     1      -5.811   5.446  16.360  1.00  0.00     0.124 S 
ATOM     97  O   UNL     1      -6.791   4.554  15.750  1.00  0.00    -0.237 OA
ATOM     98  O   UNL     1      -5.056   4.894  17.481  1.00  0.00    -0.237 OA
ATOM     99  O   UNL     1      -6.252   6.829  16.530  1.00  0.00    -0.744 OA
ENDBRANCH  92  96
ENDBRANCH  66  89
ENDBRANCH  40  41
ENDBRANCH  33  35
ENDBRANCH  32  33
ENDBRANCH  31  32
ENDBRANCH  30  31
ENDBRANCH  29  30
ENDBRANCH  28  29
ENDBRANCH   1  28
TORSDOF 26
