REMARK SMILES O=C(OCCOCCOCCOC(=O)c1cc(S(=O)(=O)NNC(=O)[C@H]2C=C(c3ccccc3)N=N2)ccc1F)c1ccc(-c2c3nc(c(-c4cc(S(=O)(=O)[O-])ccc4F)c4ccc([nH]4)c(-c4cc(S(=O)(=O)[O-])ccc4F)c4nc(c(-c5cc(S(=O)(=O)[O-])ccc5F)c5ccc2[nH]5)C=C4)C=C3)cc1
REMARK SMILES IDX 8 1 7 2 6 3 5 4 4 5 3 6 2 7 1 8 40 9 41 10 102 11 42 12
REMARK SMILES IDX 101 13 43 14 44 15 45 16 95 17 46 18 100 19 94 20 96 21
REMARK SMILES IDX 47 22 99 23 93 24 92 25 48 27 80 28 60 29 79 30 61 31 64 32
REMARK SMILES IDX 78 33 97 34 62 35 63 36 77 38 98 39 65 40 49 41 50 42 58 43
REMARK SMILES IDX 51 44 57 45 59 46 56 47 52 48 53 49 54 50 55 51 81 52 82 53
REMARK SMILES IDX 90 54 83 55 89 56 91 57 88 58 84 59 85 60 86 61 87 62 66 63
REMARK SMILES IDX 67 64 75 65 68 66 74 67 76 68 73 69 69 70 70 71 71 72 72 73
REMARK SMILES IDX 9 74 10 75 11 76 12 77 13 78 14 79 15 80 16 81 38 82 17 83
REMARK SMILES IDX 37 84 39 85 36 86 18 87 19 88 20 89 21 90 22 92 23 93 24 95
REMARK SMILES IDX 25 96 26 97 35 98 27 99 34 100 28 101 29 102 33 103 30 104
REMARK SMILES IDX 32 105 31 106
REMARK H PARENT 96 26 64 37 21 91 22 94
REMARK Flexibility Score: inf
ROOT
ATOM      1  C   UNL     1     -11.459   5.234  11.987  1.00  0.00     0.188 C 
ENDROOT
BRANCH   1   2
ATOM      2  C   UNL     1     -10.623   6.532  12.044  1.00  0.00     0.188 C 
BRANCH   2   3
ATOM      3  O   UNL     1     -11.137   7.511  12.929  1.00  0.00    -0.376 OA
BRANCH   3   4
ATOM      4  C   UNL     1     -11.497   8.766  12.385  1.00  0.00     0.202 C 
BRANCH   4   5
ATOM      5  C   UNL     1     -12.712   8.788  11.449  1.00  0.00     0.261 C 
BRANCH   5   6
ATOM      6  O   UNL     1     -12.885   7.627  10.621  1.00  0.00    -0.460 OA
BRANCH   6   7
ATOM      7  C   UNL     1     -12.446   7.372   9.372  1.00  0.00     0.338 C 
ATOM      8  O   UNL     1     -13.028   6.523   8.699  1.00  0.00    -0.246 OA
BRANCH   7   9
ATOM      9  C   UNL     1     -11.153   7.904   8.866  1.00  0.00     0.060 A 
ATOM     10  C   UNL     1     -10.606   9.146   9.198  1.00  0.00     0.016 A 
ATOM     11  C   UNL     1     -10.473   7.079   7.949  1.00  0.00     0.016 A 
ATOM     12  C   UNL     1      -9.477   9.613   8.546  1.00  0.00     0.010 A 
ATOM     13  C   UNL     1      -9.349   7.542   7.286  1.00  0.00     0.010 A 
ATOM     14  C   UNL     1      -8.924   8.848   7.526  1.00  0.00    -0.014 A 
BRANCH  14  15
ATOM     15  C   UNL     1      -8.079   9.553   6.572  1.00  0.00     0.031 A 
ATOM     16  C   UNL     1      -6.692   9.895   6.986  1.00  0.00     0.074 A 
ATOM     17  C   UNL     1      -8.582   9.802   5.343  1.00  0.00     0.049 A 
ATOM     18  N   UNL     1      -6.073  11.029   6.891  1.00  0.00    -0.248 NA
ATOM     19  C   UNL     1      -5.903   8.841   7.646  1.00  0.00     0.031 C 
ATOM     20  C   UNL     1      -9.847   9.303   4.782  1.00  0.00     0.029 A 
ATOM     21  N   UNL     1      -8.001  10.414   4.279  1.00  0.00    -0.354 N 
ATOM     22  C   UNL     1      -4.764  10.793   7.303  1.00  0.00     0.074 A 
ATOM     23  C   UNL     1      -4.744   9.463   7.859  1.00  0.00     0.031 C 
ATOM     24  C   UNL     1      -9.790   9.375   3.438  1.00  0.00     0.029 A 
ATOM     25  C   UNL     1      -8.553  10.033   3.061  1.00  0.00     0.049 A 
ATOM     26  H   UNL     1      -7.264  11.062   4.361  1.00  0.00     0.167 HD
ATOM     27  C   UNL     1      -3.728  11.628   7.008  1.00  0.00     0.034 A 
ATOM     28  C   UNL     1      -7.961  10.116   1.844  1.00  0.00     0.034 A 
ATOM     29  C   UNL     1      -4.165  12.956   6.682  1.00  0.00     0.049 A 
ATOM     30  C   UNL     1      -6.890  11.138   1.956  1.00  0.00     0.074 A 
ATOM     31  C   UNL     1      -4.849  13.939   7.371  1.00  0.00     0.029 A 
ATOM     32  N   UNL     1      -4.225  13.329   5.361  1.00  0.00    -0.354 N 
ATOM     33  N   UNL     1      -7.113  12.399   2.211  1.00  0.00    -0.248 NA
ATOM     34  C   UNL     1      -5.540  10.678   2.250  1.00  0.00     0.031 C 
ATOM     35  C   UNL     1      -5.704  14.541   6.403  1.00  0.00     0.029 A 
ATOM     36  C   UNL     1      -5.451  13.924   5.177  1.00  0.00     0.049 A 
ATOM     37  H   UNL     1      -3.527  13.197   4.679  1.00  0.00     0.167 HD
ATOM     38  C   UNL     1      -6.092  12.780   3.068  1.00  0.00     0.074 A 
ATOM     39  C   UNL     1      -5.104  11.708   2.980  1.00  0.00     0.031 C 
ATOM     40  C   UNL     1      -6.258  13.783   3.982  1.00  0.00     0.034 A 
BRANCH  27  41
ATOM     41  C   UNL     1      -2.321  11.144   6.780  1.00  0.00     0.023 A 
ATOM     42  C   UNL     1      -1.248  12.054   6.807  1.00  0.00     0.031 A 
ATOM     43  C   UNL     1      -2.032   9.848   6.292  1.00  0.00     0.131 A 
ATOM     44  C   UNL     1       0.031  11.662   6.364  1.00  0.00     0.055 A 
ATOM     45  C   UNL     1      -0.751   9.448   5.909  1.00  0.00     0.041 A 
ATOM     46  F   UNL     1      -2.995   8.939   6.084  1.00  0.00    -0.206 F 
ATOM     47  C   UNL     1       0.288  10.361   5.931  1.00  0.00     0.022 A 
BRANCH  44  48
ATOM     48  S   UNL     1       1.341  12.911   6.234  1.00  0.00     0.124 S 
ATOM     49  O   UNL     1       0.715  13.920   5.387  1.00  0.00    -0.237 OA
ATOM     50  O   UNL     1       1.545  13.279   7.631  1.00  0.00    -0.237 OA
ATOM     51  O   UNL     1       2.446  12.180   5.618  1.00  0.00    -0.744 OA
ENDBRANCH  44  48
ENDBRANCH  27  41
BRANCH  28  52
ATOM     52  C   UNL     1      -8.016   9.070   0.783  1.00  0.00     0.023 A 
ATOM     53  C   UNL     1      -7.633   9.338  -0.544  1.00  0.00     0.031 A 
ATOM     54  C   UNL     1      -8.245   7.711   1.111  1.00  0.00     0.131 A 
ATOM     55  C   UNL     1      -7.511   8.283  -1.477  1.00  0.00     0.055 A 
ATOM     56  C   UNL     1      -8.149   6.676   0.180  1.00  0.00     0.041 A 
ATOM     57  F   UNL     1      -8.484   7.324   2.373  1.00  0.00    -0.206 F 
ATOM     58  C   UNL     1      -7.772   6.957  -1.121  1.00  0.00     0.022 A 
BRANCH  55  59
ATOM     59  S   UNL     1      -6.874   8.609  -3.149  1.00  0.00     0.124 S 
ATOM     60  O   UNL     1      -8.055   9.130  -3.829  1.00  0.00    -0.237 OA
ATOM     61  O   UNL     1      -5.798   9.562  -2.900  1.00  0.00    -0.237 OA
ATOM     62  O   UNL     1      -6.429   7.291  -3.602  1.00  0.00    -0.744 OA
ENDBRANCH  55  59
ENDBRANCH  28  52
BRANCH  40  63
ATOM     63  C   UNL     1      -7.499  14.648   3.897  1.00  0.00     0.023 A 
ATOM     64  C   UNL     1      -8.817  14.167   4.073  1.00  0.00     0.031 A 
ATOM     65  C   UNL     1      -7.317  16.038   3.805  1.00  0.00     0.131 A 
ATOM     66  C   UNL     1      -9.894  15.074   4.148  1.00  0.00     0.055 A 
ATOM     67  C   UNL     1      -8.384  16.933   3.892  1.00  0.00     0.041 A 
ATOM     68  F   UNL     1      -6.083  16.555   3.680  1.00  0.00    -0.206 F 
ATOM     69  C   UNL     1      -9.678  16.453   4.062  1.00  0.00     0.022 A 
BRANCH  66  70
ATOM     70  S   UNL     1     -11.597  14.472   4.394  1.00  0.00     0.124 S 
ATOM     71  O   UNL     1     -11.779  13.523   3.303  1.00  0.00    -0.237 OA
ATOM     72  O   UNL     1     -11.544  13.904   5.739  1.00  0.00    -0.237 OA
ATOM     73  O   UNL     1     -12.408  15.686   4.285  1.00  0.00    -0.744 OA
ENDBRANCH  66  70
ENDBRANCH  40  63
ENDBRANCH  14  15
ENDBRANCH   7   9
ENDBRANCH   6   7
ENDBRANCH   5   6
ENDBRANCH   4   5
ENDBRANCH   3   4
ENDBRANCH   2   3
ENDBRANCH   1   2
BRANCH   1  74
ATOM     74  O   UNL     1     -12.469   4.964  12.955  1.00  0.00    -0.376 OA
BRANCH  74  75
ATOM     75  C   UNL     1     -12.342   5.476  14.269  1.00  0.00     0.202 C 
BRANCH  75  76
ATOM     76  C   UNL     1     -11.148   5.002  15.109  1.00  0.00     0.261 C 
BRANCH  76  77
ATOM     77  O   UNL     1      -9.856   5.114  14.484  1.00  0.00    -0.460 OA
BRANCH  77  78
ATOM     78  C   UNL     1      -9.228   3.950  14.188  1.00  0.00     0.341 C 
ATOM     79  O   UNL     1      -9.638   2.815  14.353  1.00  0.00    -0.246 OA
BRANCH  78  80
ATOM     80  C   UNL     1      -7.949   4.236  13.523  1.00  0.00     0.097 A 
ATOM     81  C   UNL     1      -7.821   4.052  12.141  1.00  0.00     0.040 A 
ATOM     82  C   UNL     1      -6.844   4.618  14.274  1.00  0.00     0.137 A 
ATOM     83  C   UNL     1      -6.591   4.306  11.514  1.00  0.00     0.085 A 
ATOM     84  C   UNL     1      -5.610   4.835  13.655  1.00  0.00     0.041 A 
ATOM     85  F   UNL     1      -6.936   4.754  15.604  1.00  0.00    -0.206 F 
ATOM     86  C   UNL     1      -5.479   4.691  12.267  1.00  0.00     0.025 A 
BRANCH  83  87
ATOM     87  S   UNL     1      -6.495   4.071   9.751  1.00  0.00     0.257 S 
ATOM     88  O   UNL     1      -7.390   2.970   9.435  1.00  0.00    -0.205 OA
ATOM     89  O   UNL     1      -6.626   5.369   9.149  1.00  0.00    -0.205 OA
BRANCH  87  90
ATOM     90  N   UNL     1      -4.918   3.520   9.443  1.00  0.00    -0.123 NA
ATOM     91  H   UNL     1      -4.286   4.274   9.710  1.00  0.00     0.167 HD
BRANCH  90  92
ATOM     92  N   UNL     1      -4.433   2.326  10.083  1.00  0.00    -0.275 N 
ATOM     93  C   UNL     1      -3.481   1.474   9.587  1.00  0.00     0.265 C 
ATOM     94  H   UNL     1      -4.821   2.100  10.959  1.00  0.00     0.186 HD
ATOM     95  O   UNL     1      -3.011   0.633  10.364  1.00  0.00    -0.271 OA
BRANCH  93  96
ATOM     96  C   UNL     1      -3.012   1.587   8.125  1.00  0.00     0.244 C 
ATOM     97  C   UNL     1      -2.551   0.247   7.667  1.00  0.00     0.042 C 
ATOM     98  N   UNL     1      -4.192   1.823   7.244  1.00  0.00    -0.171 NA
ATOM     99  C   UNL     1      -3.478  -0.165   6.802  1.00  0.00     0.091 C 
ATOM    100  N   UNL     1      -4.418   0.796   6.540  1.00  0.00    -0.155 NA
BRANCH  99 101
ATOM    101  C   UNL     1      -3.605  -1.544   6.339  1.00  0.00     0.002 A 
ATOM    102  C   UNL     1      -3.287  -1.911   5.029  1.00  0.00     0.010 A 
ATOM    103  C   UNL     1      -4.066  -2.524   7.232  1.00  0.00     0.010 A 
ATOM    104  C   UNL     1      -3.418  -3.243   4.623  1.00  0.00     0.001 A 
ATOM    105  C   UNL     1      -4.202  -3.851   6.824  1.00  0.00     0.001 A 
ATOM    106  C   UNL     1      -3.875  -4.210   5.519  1.00  0.00     0.000 A 
ENDBRANCH  99 101
ENDBRANCH  93  96
ENDBRANCH  90  92
ENDBRANCH  87  90
ENDBRANCH  83  87
ENDBRANCH  78  80
ENDBRANCH  77  78
ENDBRANCH  76  77
ENDBRANCH  75  76
ENDBRANCH  74  75
ENDBRANCH   1  74
TORSDOF 25
