REMARK SMILES Cc1n[nH]c2c1[C@@]1(C(=O)N([C@@H](C)C(=O)OCCOCCOCCOC(=O)c3ccc(-c4c5nc(c(-c6cc(S(=O)(=O)[O-])ccc6F)c6ccc([nH]6)c(-c6cc(S(=O)(=O)[O-])ccc6F)c6nc(c(-c7cc(S(=O)(=O)[O-])ccc7F)c7ccc4[nH]7)C=C6)C=C5)cc3)c3ccccc31)C(C#N)=C(N)O2
REMARK SMILES IDX 20 1 19 2 18 3 17 4 16 5 15 6 13 7 14 8 11 9 12 10 10 11
REMARK SMILES IDX 1 12 2 13 3 14 6 15 4 16 5 17 7 18 101 20 8 21 95 22 96 23
REMARK SMILES IDX 99 24 9 25 90 26 94 27 91 28 93 29 92 30 97 31 98 32 100 33
REMARK SMILES IDX 21 36 22 37 23 38 24 39 25 40 26 41 27 42 28 43 89 44 29 45
REMARK SMILES IDX 88 46 30 47 31 48 32 49 82 50 33 51 87 52 81 53 83 54 34 55
REMARK SMILES IDX 86 56 80 57 79 58 35 60 67 61 47 62 66 63 48 64 51 65 65 66
REMARK SMILES IDX 84 67 49 68 50 69 64 71 85 72 52 73 36 74 37 75 45 76 38 77
REMARK SMILES IDX 44 78 46 79 43 80 39 81 40 82 41 83 42 84 68 85 69 86 77 87
REMARK SMILES IDX 70 88 76 89 78 90 75 91 71 92 72 93 73 94 74 95 53 96 54 97
REMARK SMILES IDX 62 98 55 99 61 100 63 101 60 102 56 103 57 104 58 105 59 106
REMARK H PARENT 4 19 100 34 100 35 83 59 51 70
REMARK Flexibility Score: inf
ROOT
ATOM      1  C   UNL     1       3.581   4.970   3.873  1.00  0.00     0.188 C 
ENDROOT
BRANCH   1   2
ATOM      2  C   UNL     1       4.374   4.459   5.077  1.00  0.00     0.188 C 
BRANCH   2   3
ATOM      3  O   UNL     1       5.754   4.136   4.976  1.00  0.00    -0.376 OA
BRANCH   3   4
ATOM      4  C   UNL     1       6.438   4.462   3.784  1.00  0.00     0.202 C 
BRANCH   4   5
ATOM      5  C   UNL     1       6.375   3.361   2.721  1.00  0.00     0.261 C 
BRANCH   5   6
ATOM      6  O   UNL     1       5.041   2.935   2.355  1.00  0.00    -0.462 OA
BRANCH   6   7
ATOM      7  C   UNL     1       4.698   1.682   2.738  1.00  0.00     0.329 C 
ATOM      8  O   UNL     1       5.467   0.948   3.361  1.00  0.00    -0.250 OA
BRANCH   7   9
ATOM      9  C   UNL     1       3.302   1.159   2.284  1.00  0.00     0.197 C 
ATOM     10  C   UNL     1       3.550  -0.076   1.424  1.00  0.00     0.044 C 
BRANCH   9  11
ATOM     11  N   UNL     1       2.176   1.911   1.775  1.00  0.00    -0.297 N 
ATOM     12  C   UNL     1       0.737  -0.216  -0.833  1.00  0.00     0.069 C 
ATOM     13  C   UNL     1       0.409   1.067  -1.508  1.00  0.00     0.068 A 
ATOM     14  N   UNL     1       0.015   1.045  -2.794  1.00  0.00    -0.177 NA
ATOM     15  C   UNL     1       0.456   2.401  -1.011  1.00  0.00     0.063 A 
ATOM     16  N   UNL     1      -0.256   2.324  -3.084  1.00  0.00    -0.246 N 
ATOM     17  C   UNL     1       0.009   3.163  -2.055  1.00  0.00     0.222 A 
ATOM     18  C   UNL     1       0.845   3.082   0.268  1.00  0.00     0.149 C 
ATOM     19  H   UNL     1      -0.609   2.623  -3.953  1.00  0.00     0.193 HD
ATOM     20  O   UNL     1      -0.142   4.476  -2.087  1.00  0.00    -0.422 OA
ATOM     21  C   UNL     1       2.276   2.713   0.647  1.00  0.00     0.248 C 
ATOM     22  C   UNL     1      -0.012   2.470   1.316  1.00  0.00     0.002 A 
ATOM     23  C   UNL     1       0.695   4.555   0.208  1.00  0.00     0.114 C 
ATOM     24  C   UNL     1       0.256   5.176  -0.937  1.00  0.00     0.208 C 
ATOM     25  O   UNL     1       3.297   3.034   0.057  1.00  0.00    -0.273 OA
ATOM     26  C   UNL     1       0.803   1.665   2.101  1.00  0.00     0.050 A 
ATOM     27  C   UNL     1      -1.398   2.555   1.466  1.00  0.00     0.008 A 
ATOM     28  C   UNL     1       0.186   0.756   2.935  1.00  0.00     0.027 A 
ATOM     29  C   UNL     1      -2.004   1.711   2.381  1.00  0.00     0.001 A 
ATOM     30  C   UNL     1      -1.220   0.780   3.073  1.00  0.00     0.002 A 
BRANCH  23  31
ATOM     31  C   UNL     1       1.207   5.518   1.266  1.00  0.00     0.102 C 
ATOM     32  N   UNL     1       1.633   6.317   2.144  1.00  0.00    -0.193 NA
ENDBRANCH  23  31
BRANCH  24  33
ATOM     33  N   UNL     1       0.189   6.529  -1.137  1.00  0.00    -0.369 N 
ATOM     34  H   UNL     1       0.439   7.146  -0.413  1.00  0.00     0.159 HD
ATOM     35  H   UNL     1      -0.110   6.883  -2.006  1.00  0.00     0.159 HD
ENDBRANCH  24  33
ENDBRANCH   9  11
ENDBRANCH   7   9
ENDBRANCH   6   7
ENDBRANCH   5   6
ENDBRANCH   4   5
ENDBRANCH   3   4
ENDBRANCH   2   3
ENDBRANCH   1   2
BRANCH   1  36
ATOM     36  O   UNL     1       4.071   6.130   3.216  1.00  0.00    -0.376 OA
BRANCH  36  37
ATOM     37  C   UNL     1       4.065   7.366   3.922  1.00  0.00     0.202 C 
BRANCH  37  38
ATOM     38  C   UNL     1       2.782   7.825   4.643  1.00  0.00     0.261 C 
BRANCH  38  39
ATOM     39  O   UNL     1       2.426   6.914   5.697  1.00  0.00    -0.460 OA
BRANCH  39  40
ATOM     40  C   UNL     1       1.104   6.612   5.790  1.00  0.00     0.338 C 
ATOM     41  O   UNL     1       0.167   7.291   5.398  1.00  0.00    -0.246 OA
BRANCH  40  42
ATOM     42  C   UNL     1       1.011   5.175   6.154  1.00  0.00     0.060 A 
ATOM     43  C   UNL     1       1.801   4.592   7.154  1.00  0.00     0.016 A 
ATOM     44  C   UNL     1       0.257   4.361   5.313  1.00  0.00     0.016 A 
ATOM     45  C   UNL     1       1.901   3.190   7.255  1.00  0.00     0.010 A 
ATOM     46  C   UNL     1       0.366   2.976   5.428  1.00  0.00     0.010 A 
ATOM     47  C   UNL     1       1.226   2.363   6.353  1.00  0.00    -0.014 A 
BRANCH  47  48
ATOM     48  C   UNL     1       1.119   0.900   6.540  1.00  0.00     0.031 A 
ATOM     49  C   UNL     1       0.166   0.520   7.581  1.00  0.00     0.074 A 
ATOM     50  C   UNL     1       1.746  -0.155   5.968  1.00  0.00     0.049 A 
ATOM     51  N   UNL     1       0.559   0.062   8.720  1.00  0.00    -0.248 NA
ATOM     52  C   UNL     1      -1.266   0.756   7.459  1.00  0.00     0.031 C 
ATOM     53  C   UNL     1       2.932  -0.145   5.145  1.00  0.00     0.029 A 
ATOM     54  N   UNL     1       1.395  -1.495   5.945  1.00  0.00    -0.354 N 
ATOM     55  C   UNL     1      -0.585  -0.274   9.398  1.00  0.00     0.074 A 
ATOM     56  C   UNL     1      -1.673   0.332   8.659  1.00  0.00     0.031 C 
ATOM     57  C   UNL     1       3.046  -1.317   4.473  1.00  0.00     0.029 A 
ATOM     58  C   UNL     1       2.003  -2.227   4.925  1.00  0.00     0.049 A 
ATOM     59  H   UNL     1       0.771  -1.896   6.593  1.00  0.00     0.167 HD
ATOM     60  C   UNL     1      -0.538  -1.207  10.385  1.00  0.00     0.034 A 
ATOM     61  C   UNL     1       2.107  -3.564   4.711  1.00  0.00     0.034 A 
ATOM     62  C   UNL     1       0.819  -1.528  10.771  1.00  0.00     0.049 A 
ATOM     63  C   UNL     1       2.154  -4.224   6.025  1.00  0.00     0.074 A 
ATOM     64  C   UNL     1       1.892  -0.800  11.249  1.00  0.00     0.029 A 
ATOM     65  N   UNL     1       1.335  -2.732  10.354  1.00  0.00    -0.354 N 
ATOM     66  N   UNL     1       3.211  -4.235   6.785  1.00  0.00    -0.248 NA
ATOM     67  C   UNL     1       0.908  -4.593   6.677  1.00  0.00     0.031 C 
ATOM     68  C   UNL     1       3.058  -1.450  10.757  1.00  0.00     0.029 A 
ATOM     69  C   UNL     1       2.658  -2.565  10.021  1.00  0.00     0.049 A 
ATOM     70  H   UNL     1       0.837  -3.579  10.302  1.00  0.00     0.167 HD
ATOM     71  C   UNL     1       2.694  -4.073   8.055  1.00  0.00     0.074 A 
ATOM     72  C   UNL     1       1.301  -4.495   7.947  1.00  0.00     0.031 C 
ATOM     73  C   UNL     1       3.349  -3.320   8.987  1.00  0.00     0.034 A 
BRANCH  60  74
ATOM     74  C   UNL     1      -1.724  -2.034  10.774  1.00  0.00     0.023 A 
ATOM     75  C   UNL     1      -2.845  -2.178   9.937  1.00  0.00     0.031 A 
ATOM     76  C   UNL     1      -1.698  -2.839  11.924  1.00  0.00     0.131 A 
ATOM     77  C   UNL     1      -3.914  -3.007  10.279  1.00  0.00     0.055 A 
ATOM     78  C   UNL     1      -2.730  -3.735  12.227  1.00  0.00     0.041 A 
ATOM     79  F   UNL     1      -0.651  -2.811  12.762  1.00  0.00    -0.206 F 
ATOM     80  C   UNL     1      -3.855  -3.809  11.412  1.00  0.00     0.022 A 
BRANCH  77  81
ATOM     81  S   UNL     1      -5.412  -3.013   9.260  1.00  0.00     0.124 S 
ATOM     82  O   UNL     1      -5.415  -4.377   8.744  1.00  0.00    -0.237 OA
ATOM     83  O   UNL     1      -6.444  -2.701  10.244  1.00  0.00    -0.237 OA
ATOM     84  O   UNL     1      -5.160  -1.962   8.278  1.00  0.00    -0.744 OA
ENDBRANCH  77  81
ENDBRANCH  60  74
BRANCH  61  85
ATOM     85  C   UNL     1       1.692  -4.294   3.482  1.00  0.00     0.023 A 
ATOM     86  C   UNL     1       0.818  -3.716   2.544  1.00  0.00     0.031 A 
ATOM     87  C   UNL     1       1.999  -5.660   3.315  1.00  0.00     0.131 A 
ATOM     88  C   UNL     1       0.237  -4.506   1.534  1.00  0.00     0.055 A 
ATOM     89  C   UNL     1       1.438  -6.437   2.292  1.00  0.00     0.041 A 
ATOM     90  F   UNL     1       2.821  -6.283   4.173  1.00  0.00    -0.206 F 
ATOM     91  C   UNL     1       0.539  -5.863   1.404  1.00  0.00     0.022 A 
BRANCH  88  92
ATOM     92  S   UNL     1      -1.000  -3.809   0.405  1.00  0.00     0.124 S 
ATOM     93  O   UNL     1      -0.428  -4.119  -0.902  1.00  0.00    -0.237 OA
ATOM     94  O   UNL     1      -2.196  -4.563   0.765  1.00  0.00    -0.237 OA
ATOM     95  O   UNL     1      -1.017  -2.394   0.760  1.00  0.00    -0.744 OA
ENDBRANCH  88  92
ENDBRANCH  61  85
BRANCH  73  96
ATOM     96  C   UNL     1       4.824  -3.004   8.782  1.00  0.00     0.023 A 
ATOM     97  C   UNL     1       5.689  -3.193   9.875  1.00  0.00     0.031 A 
ATOM     98  C   UNL     1       5.363  -2.362   7.651  1.00  0.00     0.131 A 
ATOM     99  C   UNL     1       7.007  -2.712   9.834  1.00  0.00     0.055 A 
ATOM    100  C   UNL     1       6.694  -1.935   7.589  1.00  0.00     0.041 A 
ATOM    101  F   UNL     1       4.608  -2.061   6.593  1.00  0.00    -0.206 F 
ATOM    102  C   UNL     1       7.520  -2.092   8.692  1.00  0.00     0.022 A 
BRANCH  99 103
ATOM    103  S   UNL     1       8.048  -2.753  11.315  1.00  0.00     0.124 S 
ATOM    104  O   UNL     1       9.135  -3.637  10.905  1.00  0.00    -0.237 OA
ATOM    105  O   UNL     1       8.413  -1.347  11.479  1.00  0.00    -0.237 OA
ATOM    106  O   UNL     1       7.167  -3.285  12.351  1.00  0.00    -0.744 OA
ENDBRANCH  99 103
ENDBRANCH  73  96
ENDBRANCH  47  48
ENDBRANCH  40  42
ENDBRANCH  39  40
ENDBRANCH  38  39
ENDBRANCH  37  38
ENDBRANCH  36  37
ENDBRANCH   1  36
TORSDOF 23
