REMARK SMILES O=C(CNC(=O)N1CC(OCCOCCOCCOC(=O)c2ccc(-c3c4nc(c(-c5cc(S(=O)(=O)[O-])ccc5F)c5ccc([nH]5)c(-c5cc(S(=O)(=O)[O-])ccc5F)c5nc(c(-c6cc(S(=O)(=O)[O-])ccc6F)c6ccc3[nH]6)C=C5)C=C4)cc2)=Nc2ccccc21)N[C@H](C(=O)[O-])c1ccccc1
REMARK SMILES IDX 14 1 13 2 12 3 11 4 10 5 9 6 7 7 8 8 91 9 86 10 90 11 85 12
REMARK SMILES IDX 87 13 89 14 88 15 5 16 4 17 6 19 3 20 2 21 1 22 92 23 93 25
REMARK SMILES IDX 97 26 98 27 102 28 99 29 101 30 100 31 94 32 95 33 96 34
REMARK SMILES IDX 15 35 16 36 17 37 18 38 19 39 20 40 21 41 22 42 23 43 84 44
REMARK SMILES IDX 24 45 83 46 25 47 26 48 27 49 77 50 28 51 82 52 76 53 78 54
REMARK SMILES IDX 29 55 81 56 75 57 74 58 30 60 62 61 42 62 61 63 43 64 46 65
REMARK SMILES IDX 60 66 79 67 44 68 45 69 59 71 80 72 47 73 31 74 32 75 40 76
REMARK SMILES IDX 33 77 39 78 41 79 38 80 34 81 35 82 36 83 37 84 63 85 64 86
REMARK SMILES IDX 72 87 65 88 71 89 73 90 70 91 66 92 67 93 68 94 69 95 48 96
REMARK SMILES IDX 49 97 57 98 50 99 56 100 58 101 55 102 51 103 52 104 53 105
REMARK SMILES IDX 54 106
REMARK H PARENT 4 18 92 24 78 59 46 70
REMARK Flexibility Score: inf
ROOT
ATOM      1  C   UNL     1      -0.341   4.440   2.185  1.00  0.00     0.188 C 
ENDROOT
BRANCH   1   2
ATOM      2  O   UNL     1      -1.656   4.740   2.651  1.00  0.00    -0.376 OA
BRANCH   2   3
ATOM      3  C   UNL     1      -2.516   5.492   1.817  1.00  0.00     0.201 C 
BRANCH   3   4
ATOM      4  C   UNL     1      -2.430   7.012   1.992  1.00  0.00     0.259 C 
BRANCH   4   5
ATOM      5  O   UNL     1      -1.152   7.597   1.662  1.00  0.00    -0.477 OA
BRANCH   5   6
ATOM      6  C   UNL     1      -0.189   7.560   2.619  1.00  0.00     0.209 C 
ATOM      7  N   UNL     1       2.254   7.254   2.721  1.00  0.00    -0.283 N 
ATOM      8  C   UNL     1       1.160   8.029   2.133  1.00  0.00     0.224 C 
ATOM      9  C   UNL     1       2.045   6.879   4.096  1.00  0.00     0.072 A 
ATOM     10  C   UNL     1       0.714   6.879   4.610  1.00  0.00     0.091 A 
ATOM     11  C   UNL     1       3.085   6.545   4.966  1.00  0.00     0.029 A 
ATOM     12  N   UNL     1      -0.418   7.144   3.818  1.00  0.00    -0.214 NA
ATOM     13  C   UNL     1       0.457   6.455   5.918  1.00  0.00     0.030 A 
ATOM     14  C   UNL     1       2.811   6.154   6.286  1.00  0.00     0.002 A 
ATOM     15  C   UNL     1       1.501   6.087   6.755  1.00  0.00     0.002 A 
BRANCH   7  16
ATOM     16  C   UNL     1       3.447   7.314   2.033  1.00  0.00     0.322 C 
ATOM     17  N   UNL     1       4.242   6.224   1.885  1.00  0.00    -0.329 N 
ATOM     18  H   UNL     1       5.108   6.403   1.451  1.00  0.00     0.165 HD
ATOM     19  O   UNL     1       3.764   8.325   1.396  1.00  0.00    -0.248 OA
BRANCH  17  20
ATOM     20  C   UNL     1       4.031   4.835   2.260  1.00  0.00     0.218 C 
BRANCH  20  21
ATOM     21  C   UNL     1       4.482   3.694   1.305  1.00  0.00     0.240 C 
ATOM     22  O   UNL     1       4.762   2.596   1.779  1.00  0.00    -0.273 OA
ATOM     23  N   UNL     1       4.291   3.950  -0.040  1.00  0.00    -0.342 N 
ATOM     24  H   UNL     1       4.561   4.825  -0.400  1.00  0.00     0.164 HD
BRANCH  23  25
ATOM     25  C   UNL     1       3.688   2.943  -0.967  1.00  0.00     0.158 C 
BRANCH  25  26
ATOM     26  C   UNL     1       3.625   3.456  -2.409  1.00  0.00    -0.020 A 
ATOM     27  C   UNL     1       4.125   2.719  -3.492  1.00  0.00     0.006 A 
ATOM     28  C   UNL     1       2.948   4.659  -2.681  1.00  0.00     0.006 A 
ATOM     29  C   UNL     1       3.964   3.171  -4.803  1.00  0.00     0.000 A 
ATOM     30  C   UNL     1       2.804   5.122  -3.989  1.00  0.00     0.000 A 
ATOM     31  C   UNL     1       3.313   4.376  -5.050  1.00  0.00     0.000 A 
ENDBRANCH  25  26
BRANCH  25  32
ATOM     32  C   UNL     1       4.022   1.407  -0.886  1.00  0.00     0.068 C 
ATOM     33  O   UNL     1       3.006   0.634  -0.965  1.00  0.00    -0.548 OA
ATOM     34  O   UNL     1       5.245   1.084  -0.926  1.00  0.00    -0.548 OA
ENDBRANCH  25  32
ENDBRANCH  23  25
ENDBRANCH  20  21
ENDBRANCH  17  20
ENDBRANCH   7  16
ENDBRANCH   5   6
ENDBRANCH   4   5
ENDBRANCH   3   4
ENDBRANCH   2   3
ENDBRANCH   1   2
BRANCH   1  35
ATOM     35  C   UNL     1      -0.044   4.510   0.693  1.00  0.00     0.188 C 
BRANCH  35  36
ATOM     36  O   UNL     1      -0.923   3.624   0.001  1.00  0.00    -0.376 OA
BRANCH  36  37
ATOM     37  C   UNL     1      -0.295   2.446  -0.493  1.00  0.00     0.202 C 
BRANCH  37  38
ATOM     38  C   UNL     1      -0.320   1.178   0.401  1.00  0.00     0.261 C 
BRANCH  38  39
ATOM     39  O   UNL     1       0.149   1.133   1.774  1.00  0.00    -0.460 OA
BRANCH  39  40
ATOM     40  C   UNL     1       1.371   1.638   2.001  1.00  0.00     0.338 C 
ATOM     41  O   UNL     1       1.935   2.430   1.252  1.00  0.00    -0.246 OA
BRANCH  40  42
ATOM     42  C   UNL     1       1.929   1.452   3.348  1.00  0.00     0.060 A 
ATOM     43  C   UNL     1       2.227   2.629   4.034  1.00  0.00     0.016 A 
ATOM     44  C   UNL     1       2.479   0.247   3.785  1.00  0.00     0.016 A 
ATOM     45  C   UNL     1       3.170   2.634   5.048  1.00  0.00     0.010 A 
ATOM     46  C   UNL     1       3.340   0.242   4.903  1.00  0.00     0.010 A 
ATOM     47  C   UNL     1       3.715   1.444   5.533  1.00  0.00    -0.014 A 
BRANCH  47  48
ATOM     48  C   UNL     1       4.670   1.522   6.679  1.00  0.00     0.031 A 
ATOM     49  C   UNL     1       6.079   1.010   6.549  1.00  0.00     0.074 A 
ATOM     50  C   UNL     1       4.295   2.150   7.816  1.00  0.00     0.049 A 
ATOM     51  N   UNL     1       6.968   0.812   7.491  1.00  0.00    -0.248 NA
ATOM     52  C   UNL     1       6.551   0.677   5.197  1.00  0.00     0.031 C 
ATOM     53  C   UNL     1       2.995   2.793   8.029  1.00  0.00     0.029 A 
ATOM     54  N   UNL     1       4.966   2.393   8.992  1.00  0.00    -0.354 N 
ATOM     55  C   UNL     1       8.074   0.250   6.860  1.00  0.00     0.074 A 
ATOM     56  C   UNL     1       7.757   0.182   5.447  1.00  0.00     0.031 C 
ATOM     57  C   UNL     1       2.998   3.427   9.209  1.00  0.00     0.029 A 
ATOM     58  C   UNL     1       4.227   3.101   9.916  1.00  0.00     0.049 A 
ATOM     59  H   UNL     1       5.887   2.089   9.158  1.00  0.00     0.167 HD
ATOM     60  C   UNL     1       9.222  -0.199   7.429  1.00  0.00     0.034 A 
ATOM     61  C   UNL     1       4.465   3.391  11.211  1.00  0.00     0.034 A 
ATOM     62  C   UNL     1       9.510  -0.081   8.844  1.00  0.00     0.049 A 
ATOM     63  C   UNL     1       5.716   2.830  11.833  1.00  0.00     0.074 A 
ATOM     64  C   UNL     1      10.604  -0.553   9.550  1.00  0.00     0.029 A 
ATOM     65  N   UNL     1       8.700   0.571   9.770  1.00  0.00    -0.354 N 
ATOM     66  N   UNL     1       6.683   2.145  11.267  1.00  0.00    -0.248 NA
ATOM     67  C   UNL     1       5.888   3.037  13.275  1.00  0.00     0.031 C 
ATOM     68  C   UNL     1      10.425  -0.245  10.904  1.00  0.00     0.029 A 
ATOM     69  C   UNL     1       9.260   0.493  11.039  1.00  0.00     0.049 A 
ATOM     70  H   UNL     1       7.852   1.023   9.556  1.00  0.00     0.167 HD
ATOM     71  C   UNL     1       7.574   1.832  12.286  1.00  0.00     0.074 A 
ATOM     72  C   UNL     1       7.052   2.443  13.493  1.00  0.00     0.031 C 
ATOM     73  C   UNL     1       8.711   1.091  12.236  1.00  0.00     0.034 A 
BRANCH  60  74
ATOM     74  C   UNL     1      10.183  -0.973   6.553  1.00  0.00     0.023 A 
ATOM     75  C   UNL     1      10.918  -0.387   5.508  1.00  0.00     0.031 A 
ATOM     76  C   UNL     1      10.350  -2.355   6.776  1.00  0.00     0.131 A 
ATOM     77  C   UNL     1      11.749  -1.187   4.701  1.00  0.00     0.055 A 
ATOM     78  C   UNL     1      11.216  -3.133   6.006  1.00  0.00     0.041 A 
ATOM     79  F   UNL     1       9.671  -2.976   7.754  1.00  0.00    -0.206 F 
ATOM     80  C   UNL     1      11.912  -2.552   4.953  1.00  0.00     0.022 A 
BRANCH  77  81
ATOM     81  S   UNL     1      12.568  -0.445   3.259  1.00  0.00     0.124 S 
ATOM     82  O   UNL     1      11.432   0.023   2.475  1.00  0.00    -0.237 OA
ATOM     83  O   UNL     1      13.399   0.589   3.868  1.00  0.00    -0.237 OA
ATOM     84  O   UNL     1      13.309  -1.562   2.673  1.00  0.00    -0.744 OA
ENDBRANCH  77  81
ENDBRANCH  60  74
BRANCH  61  85
ATOM     85  C   UNL     1       3.457   4.131  12.035  1.00  0.00     0.023 A 
ATOM     86  C   UNL     1       3.786   5.325  12.700  1.00  0.00     0.031 A 
ATOM     87  C   UNL     1       2.151   3.630  12.211  1.00  0.00     0.131 A 
ATOM     88  C   UNL     1       2.838   5.956  13.524  1.00  0.00     0.055 A 
ATOM     89  C   UNL     1       1.189   4.304  12.963  1.00  0.00     0.041 A 
ATOM     90  F   UNL     1       1.779   2.476  11.634  1.00  0.00    -0.206 F 
ATOM     91  C   UNL     1       1.534   5.469  13.636  1.00  0.00     0.022 A 
BRANCH  88  92
ATOM     92  S   UNL     1       3.360   7.363  14.545  1.00  0.00     0.124 S 
ATOM     93  O   UNL     1       4.460   6.785  15.309  1.00  0.00    -0.237 OA
ATOM     94  O   UNL     1       3.728   8.353  13.539  1.00  0.00    -0.237 OA
ATOM     95  O   UNL     1       2.164   7.683  15.322  1.00  0.00    -0.744 OA
ENDBRANCH  88  92
ENDBRANCH  61  85
BRANCH  73  96
ATOM     96  C   UNL     1       9.472   0.943  13.530  1.00  0.00     0.023 A 
ATOM     97  C   UNL     1       8.948   0.222  14.620  1.00  0.00     0.031 A 
ATOM     98  C   UNL     1      10.721   1.567  13.688  1.00  0.00     0.131 A 
ATOM     99  C   UNL     1       9.644   0.195  15.838  1.00  0.00     0.055 A 
ATOM    100  C   UNL     1      11.438   1.484  14.882  1.00  0.00     0.041 A 
ATOM    101  F   UNL     1      11.263   2.276  12.684  1.00  0.00    -0.206 F 
ATOM    102  C   UNL     1      10.894   0.807  15.970  1.00  0.00     0.022 A 
BRANCH  99 103
ATOM    103  S   UNL     1       8.852  -0.561  17.285  1.00  0.00     0.124 S 
ATOM    104  O   UNL     1       7.632   0.229  17.414  1.00  0.00    -0.237 OA
ATOM    105  O   UNL     1       8.674  -1.946  16.860  1.00  0.00    -0.237 OA
ATOM    106  O   UNL     1       9.830  -0.366  18.355  1.00  0.00    -0.744 OA
ENDBRANCH  99 103
ENDBRANCH  73  96
ENDBRANCH  47  48
ENDBRANCH  40  42
ENDBRANCH  39  40
ENDBRANCH  38  39
ENDBRANCH  37  38
ENDBRANCH  36  37
ENDBRANCH  35  36
ENDBRANCH   1  35
TORSDOF 25
