REMARK SMILES CCCC[C@H]1C[NH2+]CCN1c1ccc(C(=O)OCCOCCOCCOC(=O)c2ccc(-c3c4nc(c(-c5cc(S(=O)(=O)[O-])ccc5F)c5ccc([nH]5)c(-c5cc(S(=O)(=O)[O-])ccc5F)c5nc(c(-c6cc(S(=O)(=O)[O-])ccc6F)c6ccc3[nH]6)C=C5)C=C4)cc2)cc1
REMARK SMILES IDX 21 1 20 2 19 3 18 4 17 5 15 6 16 7 14 8 11 9 12 10 93 11
REMARK SMILES IDX 13 12 92 13 10 14 5 15 6 16 7 17 9 18 8 19 4 22 3 23 2 24
REMARK SMILES IDX 1 25 22 26 23 27 24 28 25 29 26 30 27 31 28 32 29 33 30 34
REMARK SMILES IDX 91 35 31 36 90 37 32 38 33 39 34 40 84 41 35 42 89 43 83 44
REMARK SMILES IDX 85 45 36 46 88 47 82 48 81 49 37 51 69 52 49 53 68 54 50 55
REMARK SMILES IDX 53 56 67 57 86 58 51 59 52 60 66 62 87 63 54 64 38 65 39 66
REMARK SMILES IDX 47 67 40 68 46 69 48 70 45 71 41 72 42 73 43 74 44 75 70 76
REMARK SMILES IDX 71 77 79 78 72 79 78 80 80 81 77 82 73 83 74 84 75 85 76 86
REMARK SMILES IDX 55 87 56 88 64 89 57 90 63 91 65 92 62 93 58 94 59 95 60 96
REMARK SMILES IDX 61 97
REMARK H PARENT 7 20 7 21 85 50 53 61
REMARK Flexibility Score: inf
ROOT
ATOM      1  C   UNL     1       1.147   5.490  -1.371  1.00  0.00     0.188 C 
ENDROOT
BRANCH   1   2
ATOM      2  O   UNL     1       2.303   6.268  -1.667  1.00  0.00    -0.376 OA
BRANCH   2   3
ATOM      3  C   UNL     1       3.520   5.629  -2.026  1.00  0.00     0.202 C 
BRANCH   3   4
ATOM      4  C   UNL     1       4.080   4.463  -1.193  1.00  0.00     0.261 C 
BRANCH   4   5
ATOM      5  O   UNL     1       3.129   3.459  -0.809  1.00  0.00    -0.460 OA
BRANCH   5   6
ATOM      6  C   UNL     1       2.862   3.398   0.524  1.00  0.00     0.338 C 
ATOM      7  O   UNL     1       3.391   4.042   1.400  1.00  0.00    -0.246 OA
BRANCH   6   8
ATOM      8  C   UNL     1       1.692   2.516   0.764  1.00  0.00     0.060 A 
ATOM      9  C   UNL     1      -0.502   0.876   1.397  1.00  0.00     0.037 A 
ATOM     10  C   UNL     1      -0.389   2.155   1.950  1.00  0.00     0.027 A 
ATOM     11  C   UNL     1       0.465   0.458   0.471  1.00  0.00     0.027 A 
ATOM     12  C   UNL     1       0.709   2.966   1.651  1.00  0.00     0.018 A 
ATOM     13  C   UNL     1       1.557   1.272   0.146  1.00  0.00     0.018 A 
BRANCH   9  14
ATOM     14  N   UNL     1      -1.536   0.046   1.804  1.00  0.00    -0.357 N 
ATOM     15  C   UNL     1      -1.193  -1.190   2.524  1.00  0.00     0.137 C 
ATOM     16  C   UNL     1      -1.565  -2.441   1.687  1.00  0.00     0.285 C 
ATOM     17  N   UNL     1      -2.927  -2.463   1.140  1.00  0.00    -0.343 N 
ATOM     18  C   UNL     1      -2.799   0.116   1.060  1.00  0.00     0.178 C 
ATOM     19  C   UNL     1      -3.156  -1.224   0.366  1.00  0.00     0.282 C 
ATOM     20  H   UNL     1      -3.601  -2.519   1.903  1.00  0.00     0.346 HD
ATOM     21  H   UNL     1      -3.041  -3.274   0.532  1.00  0.00     0.346 HD
BRANCH  15  22
ATOM     22  C   UNL     1      -1.692  -1.210   3.991  1.00  0.00     0.031 C 
BRANCH  22  23
ATOM     23  C   UNL     1      -2.989  -0.512   4.426  1.00  0.00     0.002 C 
BRANCH  23  24
ATOM     24  C   UNL     1      -4.331  -1.134   4.042  1.00  0.00    -0.003 C 
ATOM     25  C   UNL     1      -4.530  -2.568   4.505  1.00  0.00     0.004 C 
ENDBRANCH  23  24
ENDBRANCH  22  23
ENDBRANCH  15  22
ENDBRANCH   9  14
ENDBRANCH   6   8
ENDBRANCH   5   6
ENDBRANCH   4   5
ENDBRANCH   3   4
ENDBRANCH   2   3
ENDBRANCH   1   2
BRANCH   1  26
ATOM     26  C   UNL     1       0.743   4.329  -2.304  1.00  0.00     0.188 C 
BRANCH  26  27
ATOM     27  O   UNL     1       1.648   4.116  -3.365  1.00  0.00    -0.376 OA
BRANCH  27  28
ATOM     28  C   UNL     1       1.320   4.614  -4.651  1.00  0.00     0.202 C 
BRANCH  28  29
ATOM     29  C   UNL     1       0.628   5.972  -4.888  1.00  0.00     0.261 C 
BRANCH  29  30
ATOM     30  O   UNL     1      -0.198   6.507  -3.848  1.00  0.00    -0.460 OA
BRANCH  30  31
ATOM     31  C   UNL     1      -1.507   6.166  -3.868  1.00  0.00     0.338 C 
ATOM     32  O   UNL     1      -2.049   5.400  -4.649  1.00  0.00    -0.246 OA
BRANCH  31  33
ATOM     33  C   UNL     1      -2.155   6.740  -2.669  1.00  0.00     0.060 A 
ATOM     34  C   UNL     1      -2.636   5.870  -1.683  1.00  0.00     0.016 A 
ATOM     35  C   UNL     1      -2.301   8.122  -2.524  1.00  0.00     0.016 A 
ATOM     36  C   UNL     1      -3.292   6.381  -0.561  1.00  0.00     0.010 A 
ATOM     37  C   UNL     1      -2.974   8.631  -1.405  1.00  0.00     0.010 A 
ATOM     38  C   UNL     1      -3.498   7.762  -0.432  1.00  0.00    -0.014 A 
BRANCH  38  39
ATOM     39  C   UNL     1      -4.398   8.271   0.637  1.00  0.00     0.031 A 
ATOM     40  C   UNL     1      -5.822   8.613   0.285  1.00  0.00     0.074 A 
ATOM     41  C   UNL     1      -3.973   8.387   1.909  1.00  0.00     0.049 A 
ATOM     42  N   UNL     1      -6.781   9.072   1.046  1.00  0.00    -0.248 NA
ATOM     43  C   UNL     1      -6.211   8.408  -1.118  1.00  0.00     0.031 C 
ATOM     44  C   UNL     1      -2.631   8.050   2.384  1.00  0.00     0.029 A 
ATOM     45  N   UNL     1      -4.628   8.820   3.035  1.00  0.00    -0.354 N 
ATOM     46  C   UNL     1      -7.890   9.210   0.217  1.00  0.00     0.074 A 
ATOM     47  C   UNL     1      -7.467   8.827  -1.114  1.00  0.00     0.031 C 
ATOM     48  C   UNL     1      -2.563   8.292   3.704  1.00  0.00     0.029 A 
ATOM     49  C   UNL     1      -3.841   8.835   4.163  1.00  0.00     0.049 A 
ATOM     50  H   UNL     1      -5.574   9.095   3.036  1.00  0.00     0.167 HD
ATOM     51  C   UNL     1      -9.147   9.609   0.537  1.00  0.00     0.034 A 
ATOM     52  C   UNL     1      -4.113   9.259   5.415  1.00  0.00     0.034 A 
ATOM     53  C   UNL     1      -9.550  10.007   1.864  1.00  0.00     0.049 A 
ATOM     54  C   UNL     1      -5.495   9.788   5.728  1.00  0.00     0.074 A 
ATOM     55  C   UNL     1     -10.799  10.416   2.299  1.00  0.00     0.029 A 
ATOM     56  N   UNL     1      -8.710  10.064   2.970  1.00  0.00    -0.354 N 
ATOM     57  N   UNL     1      -6.540   9.896   4.939  1.00  0.00    -0.248 NA
ATOM     58  C   UNL     1      -5.734  10.240   7.105  1.00  0.00     0.031 C 
ATOM     59  C   UNL     1     -10.696  10.795   3.642  1.00  0.00     0.029 A 
ATOM     60  C   UNL     1      -9.405  10.537   4.074  1.00  0.00     0.049 A 
ATOM     61  H   UNL     1      -7.761   9.805   2.970  1.00  0.00     0.167 HD
ATOM     62  C   UNL     1      -7.568  10.398   5.735  1.00  0.00     0.074 A 
ATOM     63  C   UNL     1      -7.021  10.550   7.067  1.00  0.00     0.031 C 
ATOM     64  C   UNL     1      -8.848  10.701   5.398  1.00  0.00     0.034 A 
BRANCH  51  65
ATOM     65  C   UNL     1     -10.156   9.684  -0.584  1.00  0.00     0.023 A 
ATOM     66  C   UNL     1     -10.563   8.540  -1.295  1.00  0.00     0.031 A 
ATOM     67  C   UNL     1     -10.701  10.923  -0.967  1.00  0.00     0.131 A 
ATOM     68  C   UNL     1     -11.428   8.668  -2.393  1.00  0.00     0.055 A 
ATOM     69  C   UNL     1     -11.626  11.032  -2.007  1.00  0.00     0.041 A 
ATOM     70  F   UNL     1     -10.334  12.053  -0.342  1.00  0.00    -0.206 F 
ATOM     71  C   UNL     1     -11.983   9.903  -2.737  1.00  0.00     0.022 A 
BRANCH  68  72
ATOM     72  S   UNL     1     -11.703   7.223  -3.454  1.00  0.00     0.124 S 
ATOM     73  O   UNL     1     -10.341   6.901  -3.874  1.00  0.00    -0.237 OA
ATOM     74  O   UNL     1     -12.330   6.275  -2.541  1.00  0.00    -0.237 OA
ATOM     75  O   UNL     1     -12.568   7.735  -4.514  1.00  0.00    -0.744 OA
ENDBRANCH  68  72
ENDBRANCH  51  65
BRANCH  52  76
ATOM     76  C   UNL     1      -3.055   9.245   6.469  1.00  0.00     0.023 A 
ATOM     77  C   UNL     1      -3.196   8.475   7.635  1.00  0.00     0.031 A 
ATOM     78  C   UNL     1      -1.915  10.061   6.354  1.00  0.00     0.131 A 
ATOM     79  C   UNL     1      -2.241   8.574   8.659  1.00  0.00     0.055 A 
ATOM     80  C   UNL     1      -0.938  10.111   7.350  1.00  0.00     0.041 A 
ATOM     81  F   UNL     1      -1.733  10.825   5.265  1.00  0.00    -0.206 F 
ATOM     82  C   UNL     1      -1.105   9.375   8.518  1.00  0.00     0.022 A 
BRANCH  79  83
ATOM     83  S   UNL     1      -2.554   7.714  10.226  1.00  0.00     0.124 S 
ATOM     84  O   UNL     1      -3.826   8.297  10.636  1.00  0.00    -0.237 OA
ATOM     85  O   UNL     1      -2.595   6.318   9.803  1.00  0.00    -0.237 OA
ATOM     86  O   UNL     1      -1.404   8.079  11.051  1.00  0.00    -0.744 OA
ENDBRANCH  79  83
ENDBRANCH  52  76
BRANCH  64  87
ATOM     87  C   UNL     1      -9.758  11.185   6.506  1.00  0.00     0.023 A 
ATOM     88  C   UNL     1      -9.527  12.396   7.182  1.00  0.00     0.031 A 
ATOM     89  C   UNL     1     -10.859  10.407   6.908  1.00  0.00     0.131 A 
ATOM     90  C   UNL     1     -10.341  12.760   8.267  1.00  0.00     0.055 A 
ATOM     91  C   UNL     1     -11.707  10.809   7.941  1.00  0.00     0.041 A 
ATOM     92  F   UNL     1     -11.129   9.239   6.304  1.00  0.00    -0.206 F 
ATOM     93  C   UNL     1     -11.440  11.983   8.639  1.00  0.00     0.022 A 
BRANCH  90  94
ATOM     94  S   UNL     1      -9.872  14.202   9.263  1.00  0.00     0.124 S 
ATOM     95  O   UNL     1      -8.516  13.855   9.678  1.00  0.00    -0.237 OA
ATOM     96  O   UNL     1      -9.985  15.294   8.303  1.00  0.00    -0.237 OA
ATOM     97  O   UNL     1     -10.865  14.215  10.336  1.00  0.00    -0.744 OA
ENDBRANCH  90  94
ENDBRANCH  64  87
ENDBRANCH  38  39
ENDBRANCH  31  33
ENDBRANCH  30  31
ENDBRANCH  29  30
ENDBRANCH  28  29
ENDBRANCH  27  28
ENDBRANCH  26  27
ENDBRANCH   1  26
TORSDOF 24
