REMARK SMILES O=C(OCCOCCOCCOC(=O)c1ccc(-c2c3nc(c(-c4cc(S(=O)(=O)[O-])ccc4F)c4ccc([nH]4)c(-c4cc(S(=O)(=O)[O-])ccc4F)c4nc(c(-c5cc(S(=O)(=O)[O-])ccc5F)c5ccc2[nH]5)C=C4)C=C3)cc1)C1=Cc2cc(S(F)(F)(F)(F)F)ccc2O[C@@H]1C(F)(F)F
REMARK SMILES IDX 8 1 7 2 6 3 5 4 4 5 3 6 2 7 1 8 78 9 79 10 93 11 80 12 92 13
REMARK SMILES IDX 81 14 91 15 82 16 90 17 89 18 94 19 95 20 96 21 97 22 83 23
REMARK SMILES IDX 84 24 85 25 86 26 87 27 88 28 9 29 10 30 11 31 12 32 13 33
REMARK SMILES IDX 14 34 15 35 16 36 77 37 17 38 76 39 18 40 19 41 20 42 70 43
REMARK SMILES IDX 21 44 75 45 69 46 71 47 22 48 74 49 68 50 67 51 23 53 55 54
REMARK SMILES IDX 35 55 54 56 36 57 39 58 53 59 72 60 37 61 38 62 52 64 73 65
REMARK SMILES IDX 40 66 24 67 25 68 33 69 26 70 32 71 34 72 31 73 27 74 28 75
REMARK SMILES IDX 29 76 30 77 56 78 57 79 65 80 58 81 64 82 66 83 63 84 59 85
REMARK SMILES IDX 60 86 61 87 62 88 41 89 42 90 50 91 43 92 49 93 51 94 48 95
REMARK SMILES IDX 44 96 45 97 46 98 47 99
REMARK H PARENT 71 52 39 63
REMARK Flexibility Score: inf
ROOT
ATOM      1  C   UNL     1       2.530  -1.011   2.162  1.00  0.00     0.188 C 
ENDROOT
BRANCH   1   2
ATOM      2  C   UNL     1       3.036  -1.196   0.741  1.00  0.00     0.188 C 
BRANCH   2   3
ATOM      3  O   UNL     1       4.456  -1.196   0.741  1.00  0.00    -0.376 OA
BRANCH   3   4
ATOM      4  C   UNL     1       4.930   0.040   1.256  1.00  0.00     0.202 C 
BRANCH   4   5
ATOM      5  C   UNL     1       4.423   1.179   0.385  1.00  0.00     0.261 C 
BRANCH   5   6
ATOM      6  O   UNL     1       3.003   1.179   0.385  1.00  0.00    -0.460 OA
BRANCH   6   7
ATOM      7  C   UNL     1       2.293   0.044  -0.087  1.00  0.00     0.338 C 
ATOM      8  O   UNL     1       1.022   0.044  -0.087  1.00  0.00    -0.246 OA
BRANCH   7   9
ATOM      9  C   UNL     1       3.053  -1.172  -0.593  1.00  0.00     0.087 C 
ATOM     10  C   UNL     1       4.413  -1.172  -0.593  1.00  0.00     0.027 C 
ATOM     11  C   UNL     1       2.293  -2.387  -1.099  1.00  0.00     0.316 C 
ATOM     12  C   UNL     1       5.173   0.044  -0.087  1.00  0.00     0.019 A 
ATOM     13  O   UNL     1       3.513   0.178   1.608  1.00  0.00    -0.475 OA
ATOM     14  C   UNL     1       6.293   0.526  -0.744  1.00  0.00     0.036 A 
ATOM     15  C   UNL     1       4.751   0.591   1.046  1.00  0.00     0.128 A 
ATOM     16  C   UNL     1       7.074   1.415   0.032  1.00  0.00     0.107 A 
ATOM     17  C   UNL     1       5.500   1.552   1.681  1.00  0.00     0.048 A 
ATOM     18  C   UNL     1       6.649   2.034   1.118  1.00  0.00     0.028 A 
BRANCH  11  19
ATOM     19  C   UNL     1       2.660  -3.600  -0.260  1.00  0.00     0.430 C 
ATOM     20  F   UNL     1       2.339  -3.373   1.011  1.00  0.00    -0.167 F 
ATOM     21  F   UNL     1       1.995  -4.663  -0.703  1.00  0.00    -0.167 F 
ATOM     22  F   UNL     1       3.968  -3.824  -0.353  1.00  0.00    -0.167 F 
ENDBRANCH  11  19
BRANCH  16  23
ATOM     23  S   UNL     1       8.776   1.725  -0.501  1.00  0.00     0.310 S 
ATOM     24  F   UNL     1       9.310   1.757   0.992  1.00  0.00    -0.094 F 
ATOM     25  F   UNL     1       8.504   3.271  -0.365  1.00  0.00    -0.094 F 
ATOM     26  F   UNL     1      10.236   1.994  -0.964  1.00  0.00    -0.094 F 
ATOM     27  F   UNL     1       9.072   0.173  -0.496  1.00  0.00    -0.094 F 
ATOM     28  F   UNL     1       7.333   1.436   0.076  1.00  0.00    -0.094 F 
ENDBRANCH  16  23
ENDBRANCH   7   9
ENDBRANCH   6   7
ENDBRANCH   5   6
ENDBRANCH   4   5
ENDBRANCH   3   4
ENDBRANCH   2   3
ENDBRANCH   1   2
BRANCH   1  29
ATOM     29  O   UNL     1       3.003   0.225   2.677  1.00  0.00    -0.376 OA
BRANCH  29  30
ATOM     30  C   UNL     1       4.423   0.225   2.677  1.00  0.00     0.202 C 
BRANCH  30  31
ATOM     31  C   UNL     1       4.930  -0.914   3.547  1.00  0.00     0.261 C 
BRANCH  31  32
ATOM     32  O   UNL     1       4.456  -2.150   3.033  1.00  0.00    -0.460 OA
BRANCH  32  33
ATOM     33  C   UNL     1       3.060  -2.389   2.933  1.00  0.00     0.338 C 
ATOM     34  O   UNL     1       2.234  -1.498   3.304  1.00  0.00    -0.246 OA
BRANCH  33  35
ATOM     35  C   UNL     1       2.554  -3.712   2.382  1.00  0.00     0.060 A 
ATOM     36  C   UNL     1       1.573  -3.806   1.409  1.00  0.00     0.016 A 
ATOM     37  C   UNL     1       3.164  -4.794   2.851  1.00  0.00     0.016 A 
ATOM     38  C   UNL     1       1.098  -5.122   1.198  1.00  0.00     0.010 A 
ATOM     39  C   UNL     1       2.733  -6.050   2.496  1.00  0.00     0.010 A 
ATOM     40  C   UNL     1       1.728  -6.216   1.584  1.00  0.00    -0.014 A 
BRANCH  40  41
ATOM     41  C   UNL     1       1.357  -7.587   1.043  1.00  0.00     0.031 A 
ATOM     42  C   UNL     1       0.945  -8.503   2.013  1.00  0.00     0.074 A 
ATOM     43  C   UNL     1       1.527  -7.901  -0.295  1.00  0.00     0.049 A 
ATOM     44  N   UNL     1       0.620  -9.784   1.836  1.00  0.00    -0.248 NA
ATOM     45  C   UNL     1       0.797  -8.181   3.440  1.00  0.00     0.031 C 
ATOM     46  C   UNL     1       1.934  -6.981  -1.281  1.00  0.00     0.029 A 
ATOM     47  N   UNL     1       1.343  -9.121  -0.907  1.00  0.00    -0.354 N 
ATOM     48  C   UNL     1       0.258 -10.333   2.998  1.00  0.00     0.074 A 
ATOM     49  C   UNL     1       0.372  -9.311   4.047  1.00  0.00     0.031 C 
ATOM     50  C   UNL     1       2.005  -7.639  -2.468  1.00  0.00     0.029 A 
ATOM     51  C   UNL     1       1.643  -8.981  -2.244  1.00  0.00     0.049 A 
ATOM     52  H   UNL     1       1.048  -9.950  -0.465  1.00  0.00     0.167 HD
ATOM     53  C   UNL     1      -0.166 -11.644   3.222  1.00  0.00     0.034 A 
ATOM     54  C   UNL     1       1.612  -9.957  -3.228  1.00  0.00     0.034 A 
ATOM     55  C   UNL     1      -0.239 -12.608   2.230  1.00  0.00     0.049 A 
ATOM     56  C   UNL     1       1.244 -11.284  -2.992  1.00  0.00     0.074 A 
ATOM     57  C   UNL     1      -0.670 -13.932   2.439  1.00  0.00     0.029 A 
ATOM     58  N   UNL     1       0.085 -12.475   0.898  1.00  0.00    -0.354 N 
ATOM     59  N   UNL     1       0.844 -11.821  -1.838  1.00  0.00    -0.248 NA
ATOM     60  C   UNL     1       1.238 -12.333  -4.019  1.00  0.00     0.031 C 
ATOM     61  C   UNL     1      -0.599 -14.591   1.251  1.00  0.00     0.029 A 
ATOM     62  C   UNL     1      -0.121 -13.689   0.281  1.00  0.00     0.049 A 
ATOM     63  H   UNL     1       0.408 -11.653   0.462  1.00  0.00     0.167 HD
ATOM     64  C   UNL     1       0.559 -13.114  -2.008  1.00  0.00     0.074 A 
ATOM     65  C   UNL     1       0.816 -13.464  -3.412  1.00  0.00     0.031 C 
ATOM     66  C   UNL     1       0.091 -14.014  -1.049  1.00  0.00     0.034 A 
BRANCH  53  67
ATOM     67  C   UNL     1      -0.569 -12.035   4.635  1.00  0.00     0.023 A 
ATOM     68  C   UNL     1      -1.549 -11.313   5.295  1.00  0.00     0.031 A 
ATOM     69  C   UNL     1       0.093 -13.012   5.242  1.00  0.00     0.131 A 
ATOM     70  C   UNL     1      -1.559 -11.507   6.696  1.00  0.00     0.055 A 
ATOM     71  C   UNL     1      -0.067 -13.234   6.589  1.00  0.00     0.041 A 
ATOM     72  F   UNL     1       0.919 -13.784   4.541  1.00  0.00    -0.206 F 
ATOM     73  C   UNL     1      -0.975 -12.517   7.316  1.00  0.00     0.022 A 
BRANCH  70  74
ATOM     74  S   UNL     1      -2.431 -10.287   7.710  1.00  0.00     0.124 S 
ATOM     75  O   UNL     1      -1.803  -8.907   7.500  1.00  0.00    -0.237 OA
ATOM     76  O   UNL     1      -3.905 -10.244   7.301  1.00  0.00    -0.237 OA
ATOM     77  O   UNL     1      -2.309 -10.724   9.358  1.00  0.00    -0.744 OA
ENDBRANCH  70  74
ENDBRANCH  53  67
BRANCH  54  78
ATOM     78  C   UNL     1       1.999  -9.561  -4.643  1.00  0.00     0.023 A 
ATOM     79  C   UNL     1       1.067  -9.616  -5.666  1.00  0.00     0.031 A 
ATOM     80  C   UNL     1       3.220  -9.081  -4.848  1.00  0.00     0.131 A 
ATOM     81  C   UNL     1       1.616  -9.405  -6.953  1.00  0.00     0.055 A 
ATOM     82  C   UNL     1       3.644  -8.767  -6.117  1.00  0.00     0.041 A 
ATOM     83  F   UNL     1       4.040  -8.902  -3.816  1.00  0.00    -0.206 F 
ATOM     84  C   UNL     1       2.794  -8.855  -7.184  1.00  0.00     0.022 A 
BRANCH  81  85
ATOM     85  S   UNL     1       0.635  -9.926  -8.382  1.00  0.00     0.124 S 
ATOM     86  O   UNL     1       0.372 -11.431  -8.300  1.00  0.00    -0.237 OA
ATOM     87  O   UNL     1      -0.699  -9.175  -8.387  1.00  0.00    -0.237 OA
ATOM     88  O   UNL     1       1.492  -9.574  -9.820  1.00  0.00    -0.744 OA
ENDBRANCH  81  85
ENDBRANCH  54  78
BRANCH  66  89
ATOM     89  C   UNL     1      -0.203 -15.438  -1.492  1.00  0.00     0.023 A 
ATOM     90  C   UNL     1       0.773 -16.282  -1.995  1.00  0.00     0.031 A 
ATOM     91  C   UNL     1      -1.453 -15.853  -1.326  1.00  0.00     0.131 A 
ATOM     92  C   UNL     1       0.263 -17.471  -2.569  1.00  0.00     0.055 A 
ATOM     93  C   UNL     1      -1.850 -17.083  -1.792  1.00  0.00     0.041 A 
ATOM     94  F   UNL     1      -2.330 -15.071  -0.703  1.00  0.00    -0.206 F 
ATOM     95  C   UNL     1      -0.950 -17.946  -2.354  1.00  0.00     0.022 A 
BRANCH  92  96
ATOM     96  S   UNL     1       1.349 -18.404  -3.676  1.00  0.00     0.124 S 
ATOM     97  O   UNL     1       1.748 -17.524  -4.862  1.00  0.00    -0.237 OA
ATOM     98  O   UNL     1       2.606 -18.834  -2.915  1.00  0.00    -0.237 OA
ATOM     99  O   UNL     1       0.527 -19.791  -4.246  1.00  0.00    -0.744 OA
ENDBRANCH  92  96
ENDBRANCH  66  89
ENDBRANCH  40  41
ENDBRANCH  33  35
ENDBRANCH  32  33
ENDBRANCH  31  32
ENDBRANCH  30  31
ENDBRANCH  29  30
ENDBRANCH   1  29
TORSDOF 22
