REMARK SMILES C=Cc1cccc(-c2ccc([C@@H](C)C(=O)OCCOCCOCCOC(=O)c3ccc(-c4c5nc(c(-c6cc(S(=O)(=O)[O-])ccc6F)c6ccc([nH]6)c(-c6cc(S(=O)(=O)[O-])ccc6F)c6nc(c(-c7cc(S(=O)(=O)[O-])ccc7F)c7ccc4[nH]7)C=C6)C=C5)cc3)cc2)c1
REMARK SMILES IDX 20 1 19 2 18 3 17 4 16 5 14 6 15 7 12 8 13 9 11 10 8 11 9 12
REMARK SMILES IDX 92 13 10 14 91 15 7 16 3 17 4 18 93 19 5 20 6 21 2 22 1 23
REMARK SMILES IDX 21 24 22 25 23 26 24 27 25 28 26 29 27 30 28 31 29 32 90 33
REMARK SMILES IDX 30 34 89 35 31 36 32 37 33 38 83 39 34 40 88 41 82 42 84 43
REMARK SMILES IDX 35 44 87 45 81 46 80 47 36 49 68 50 48 51 67 52 49 53 52 54
REMARK SMILES IDX 66 55 85 56 50 57 51 58 65 60 86 61 53 62 37 63 38 64 46 65
REMARK SMILES IDX 39 66 45 67 47 68 44 69 40 70 41 71 42 72 43 73 69 74 70 75
REMARK SMILES IDX 78 76 71 77 77 78 79 79 76 80 72 81 73 82 74 83 75 84 54 85
REMARK SMILES IDX 55 86 63 87 56 88 62 89 64 90 61 91 57 92 58 93 59 94 60 95
REMARK H PARENT 84 48 52 59
REMARK Flexibility Score: inf
ROOT
ATOM      1  C   UNL     1      -3.988   7.179   0.539  1.00  0.00     0.188 C 
ENDROOT
BRANCH   1   2
ATOM      2  O   UNL     1      -4.460   7.938   1.648  1.00  0.00    -0.376 OA
BRANCH   2   3
ATOM      3  C   UNL     1      -5.489   7.400   2.469  1.00  0.00     0.202 C 
BRANCH   3   4
ATOM      4  C   UNL     1      -6.793   6.931   1.800  1.00  0.00     0.261 C 
BRANCH   4   5
ATOM      5  O   UNL     1      -6.642   5.930   0.766  1.00  0.00    -0.463 OA
BRANCH   5   6
ATOM      6  C   UNL     1      -7.153   6.236  -0.454  1.00  0.00     0.313 C 
ATOM      7  O   UNL     1      -7.789   7.267  -0.671  1.00  0.00    -0.252 OA
BRANCH   6   8
ATOM      8  C   UNL     1      -6.880   5.237  -1.585  1.00  0.00     0.126 C 
ATOM      9  C   UNL     1      -8.219   4.837  -2.205  1.00  0.00     0.025 C 
BRANCH   8  10
ATOM     10  C   UNL     1      -6.011   3.996  -1.375  1.00  0.00    -0.034 A 
ATOM     11  C   UNL     1      -4.314   1.702  -1.090  1.00  0.00    -0.018 A 
ATOM     12  C   UNL     1      -5.378   1.951  -0.204  1.00  0.00     0.009 A 
ATOM     13  C   UNL     1      -4.114   2.623  -2.125  1.00  0.00     0.009 A 
ATOM     14  C   UNL     1      -6.219   3.072  -0.346  1.00  0.00     0.005 A 
ATOM     15  C   UNL     1      -4.951   3.741  -2.272  1.00  0.00     0.005 A 
BRANCH  11  16
ATOM     16  C   UNL     1      -3.487   0.481  -0.978  1.00  0.00    -0.018 A 
ATOM     17  C   UNL     1      -1.315  -0.652  -0.782  1.00  0.00    -0.026 A 
ATOM     18  C   UNL     1      -1.962  -1.891  -0.854  1.00  0.00     0.008 A 
ATOM     19  C   UNL     1      -2.083   0.527  -0.854  1.00  0.00     0.016 A 
ATOM     20  C   UNL     1      -3.347  -1.958  -0.972  1.00  0.00     0.001 A 
ATOM     21  C   UNL     1      -4.099  -0.784  -1.032  1.00  0.00     0.009 A 
BRANCH  17  22
ATOM     22  C   UNL     1       0.152  -0.649  -0.699  1.00  0.00     0.000 C 
ATOM     23  C   UNL     1       0.868   0.180   0.071  1.00  0.00     0.009 C 
ENDBRANCH  17  22
ENDBRANCH  11  16
ENDBRANCH   8  10
ENDBRANCH   6   8
ENDBRANCH   5   6
ENDBRANCH   4   5
ENDBRANCH   3   4
ENDBRANCH   2   3
ENDBRANCH   1   2
BRANCH   1  24
ATOM     24  C   UNL     1      -3.829   5.660   0.692  1.00  0.00     0.188 C 
BRANCH  24  25
ATOM     25  O   UNL     1      -4.029   5.186   2.005  1.00  0.00    -0.376 OA
BRANCH  25  26
ATOM     26  C   UNL     1      -2.989   4.425   2.583  1.00  0.00     0.202 C 
BRANCH  26  27
ATOM     27  C   UNL     1      -1.655   5.153   2.799  1.00  0.00     0.261 C 
BRANCH  27  28
ATOM     28  O   UNL     1      -1.160   5.925   1.692  1.00  0.00    -0.460 OA
BRANCH  28  29
ATOM     29  C   UNL     1      -0.645   5.251   0.637  1.00  0.00     0.338 C 
ATOM     30  O   UNL     1      -0.553   4.040   0.518  1.00  0.00    -0.246 OA
BRANCH  29  31
ATOM     31  C   UNL     1      -0.409   6.244  -0.438  1.00  0.00     0.060 A 
ATOM     32  C   UNL     1      -1.100   6.143  -1.656  1.00  0.00     0.016 A 
ATOM     33  C   UNL     1       0.476   7.300  -0.219  1.00  0.00     0.016 A 
ATOM     34  C   UNL     1      -0.892   7.091  -2.665  1.00  0.00     0.010 A 
ATOM     35  C   UNL     1       0.701   8.230  -1.235  1.00  0.00     0.010 A 
ATOM     36  C   UNL     1       0.039   8.119  -2.472  1.00  0.00    -0.014 A 
BRANCH  36  37
ATOM     37  C   UNL     1       0.519   8.960  -3.600  1.00  0.00     0.031 A 
ATOM     38  C   UNL     1       1.826   8.581  -4.239  1.00  0.00     0.074 A 
ATOM     39  C   UNL     1      -0.131  10.068  -3.998  1.00  0.00     0.049 A 
ATOM     40  N   UNL     1       2.588   9.264  -5.052  1.00  0.00    -0.248 NA
ATOM     41  C   UNL     1       2.351   7.251  -3.889  1.00  0.00     0.031 C 
ATOM     42  C   UNL     1      -1.436  10.507  -3.511  1.00  0.00     0.029 A 
ATOM     43  N   UNL     1       0.244  11.048  -4.887  1.00  0.00    -0.354 N 
ATOM     44  C   UNL     1       3.698   8.459  -5.289  1.00  0.00     0.074 A 
ATOM     45  C   UNL     1       3.516   7.250  -4.515  1.00  0.00     0.031 C 
ATOM     46  C   UNL     1      -1.740  11.685  -4.085  1.00  0.00     0.029 A 
ATOM     47  C   UNL     1      -0.625  12.115  -4.930  1.00  0.00     0.049 A 
ATOM     48  H   UNL     1       1.056  10.992  -5.441  1.00  0.00     0.167 HD
ATOM     49  C   UNL     1       4.771   8.712  -6.077  1.00  0.00     0.034 A 
ATOM     50  C   UNL     1      -0.507  13.316  -5.536  1.00  0.00     0.034 A 
ATOM     51  C   UNL     1       4.941   9.931  -6.827  1.00  0.00     0.049 A 
ATOM     52  C   UNL     1       0.749  13.627  -6.323  1.00  0.00     0.074 A 
ATOM     53  C   UNL     1       5.986  10.290  -7.660  1.00  0.00     0.029 A 
ATOM     54  N   UNL     1       4.050  10.996  -6.824  1.00  0.00    -0.354 N 
ATOM     55  N   UNL     1       1.807  12.873  -6.525  1.00  0.00    -0.248 NA
ATOM     56  C   UNL     1       0.831  14.950  -6.960  1.00  0.00     0.031 C 
ATOM     57  C   UNL     1       5.769  11.601  -8.092  1.00  0.00     0.029 A 
ATOM     58  C   UNL     1       4.539  12.024  -7.614  1.00  0.00     0.049 A 
ATOM     59  H   UNL     1       3.197  11.018  -6.333  1.00  0.00     0.167 HD
ATOM     60  C   UNL     1       2.651  13.613  -7.353  1.00  0.00     0.074 A 
ATOM     61  C   UNL     1       1.987  14.873  -7.606  1.00  0.00     0.031 C 
ATOM     62  C   UNL     1       3.859  13.273  -7.871  1.00  0.00     0.034 A 
BRANCH  49  63
ATOM     63  C   UNL     1       5.870   7.677  -6.106  1.00  0.00     0.023 A 
ATOM     64  C   UNL     1       5.651   6.376  -6.591  1.00  0.00     0.031 A 
ATOM     65  C   UNL     1       7.149   7.989  -5.611  1.00  0.00     0.131 A 
ATOM     66  C   UNL     1       6.669   5.416  -6.500  1.00  0.00     0.055 A 
ATOM     67  C   UNL     1       8.185   7.054  -5.607  1.00  0.00     0.041 A 
ATOM     68  F   UNL     1       7.410   9.206  -5.109  1.00  0.00    -0.206 F 
ATOM     69  C   UNL     1       7.944   5.754  -6.038  1.00  0.00     0.022 A 
BRANCH  66  70
ATOM     70  S   UNL     1       6.258   3.684  -6.845  1.00  0.00     0.124 S 
ATOM     71  O   UNL     1       5.191   3.436  -5.878  1.00  0.00    -0.237 OA
ATOM     72  O   UNL     1       5.853   3.729  -8.245  1.00  0.00    -0.237 OA
ATOM     73  O   UNL     1       7.508   2.975  -6.579  1.00  0.00    -0.744 OA
ENDBRANCH  66  70
ENDBRANCH  49  63
BRANCH  50  74
ATOM     74  C   UNL     1      -1.573  14.353  -5.384  1.00  0.00     0.023 A 
ATOM     75  C   UNL     1      -2.274  14.840  -6.499  1.00  0.00     0.031 A 
ATOM     76  C   UNL     1      -1.860  14.922  -4.130  1.00  0.00     0.131 A 
ATOM     77  C   UNL     1      -3.187  15.896  -6.348  1.00  0.00     0.055 A 
ATOM     78  C   UNL     1      -2.816  15.928  -3.975  1.00  0.00     0.041 A 
ATOM     79  F   UNL     1      -1.212  14.505  -3.030  1.00  0.00    -0.206 F 
ATOM     80  C   UNL     1      -3.476  16.431  -5.091  1.00  0.00     0.022 A 
BRANCH  77  81
ATOM     81  S   UNL     1      -3.915  16.634  -7.837  1.00  0.00     0.124 S 
ATOM     82  O   UNL     1      -2.727  17.068  -8.562  1.00  0.00    -0.237 OA
ATOM     83  O   UNL     1      -4.642  15.506  -8.411  1.00  0.00    -0.237 OA
ATOM     84  O   UNL     1      -4.753  17.709  -7.309  1.00  0.00    -0.744 OA
ENDBRANCH  77  81
ENDBRANCH  50  74
BRANCH  62  85
ATOM     85  C   UNL     1       4.509  14.232  -8.842  1.00  0.00     0.023 A 
ATOM     86  C   UNL     1       5.015  15.482  -8.447  1.00  0.00     0.031 A 
ATOM     87  C   UNL     1       4.665  13.850 -10.188  1.00  0.00     0.131 A 
ATOM     88  C   UNL     1       5.627  16.317  -9.396  1.00  0.00     0.055 A 
ATOM     89  C   UNL     1       5.326  14.659 -11.113  1.00  0.00     0.041 A 
ATOM     90  F   UNL     1       4.198  12.668 -10.621  1.00  0.00    -0.206 F 
ATOM     91  C   UNL     1       5.805  15.904 -10.720  1.00  0.00     0.022 A 
BRANCH  88  92
ATOM     92  S   UNL     1       6.141  17.985  -8.897  1.00  0.00     0.124 S 
ATOM     93  O   UNL     1       4.878  18.576  -8.468  1.00  0.00    -0.237 OA
ATOM     94  O   UNL     1       7.109  17.711  -7.840  1.00  0.00    -0.237 OA
ATOM     95  O   UNL     1       6.705  18.551 -10.121  1.00  0.00    -0.744 OA
ENDBRANCH  88  92
ENDBRANCH  62  85
ENDBRANCH  36  37
ENDBRANCH  29  31
ENDBRANCH  28  29
ENDBRANCH  27  28
ENDBRANCH  26  27
ENDBRANCH  25  26
ENDBRANCH  24  25
ENDBRANCH   1  24
TORSDOF 23
