REMARK SMILES CCn1ccc([C@@H](C)NC(=O)c2cnn(CCC(=O)OCCOCCOCCOC(=O)c3ccc(-c4c5nc(c(-c6cc(S(=O)(=O)[O-])ccc6F)c6ccc([nH]6)c(-c6cc(S(=O)(=O)[O-])ccc6F)c6nc(c(-c7cc(S(=O)(=O)[O-])ccc7F)c7ccc4[nH]7)C=C6)C=C5)cc3)c2)n1
REMARK SMILES IDX 23 1 22 2 21 3 20 4 18 5 19 6 17 7 16 8 15 9 12 10 13 11
REMARK SMILES IDX 95 12 14 13 10 14 9 15 11 17 7 18 8 19 6 20 3 21 4 22 96 23
REMARK SMILES IDX 5 24 2 25 1 26 24 27 25 28 26 29 27 30 28 31 29 32 30 33
REMARK SMILES IDX 31 34 32 35 33 36 94 37 34 38 93 39 35 40 36 41 37 42 87 43
REMARK SMILES IDX 38 44 92 45 86 46 88 47 39 48 91 49 85 50 84 51 40 53 72 54
REMARK SMILES IDX 52 55 71 56 53 57 56 58 70 59 89 60 54 61 55 62 69 64 90 65
REMARK SMILES IDX 57 66 41 67 42 68 50 69 43 70 49 71 51 72 48 73 44 74 45 75
REMARK SMILES IDX 46 76 47 77 73 78 74 79 82 80 75 81 81 82 83 83 80 84 76 85
REMARK SMILES IDX 77 86 78 87 79 88 58 89 59 90 67 91 60 92 66 93 68 94 65 95
REMARK SMILES IDX 61 96 62 97 63 98 64 99
REMARK H PARENT 9 16 88 52 56 63
REMARK Flexibility Score: inf
ROOT
ATOM      1  O   UNL     1       5.444  -6.347   7.653  1.00  0.00    -0.376 OA
ENDROOT
BRANCH   1   2
ATOM      2  C   UNL     1       5.802  -5.062   7.159  1.00  0.00     0.202 C 
BRANCH   2   3
ATOM      3  C   UNL     1       4.859  -4.444   6.117  1.00  0.00     0.261 C 
BRANCH   3   4
ATOM      4  O   UNL     1       3.510  -4.314   6.596  1.00  0.00    -0.463 OA
BRANCH   4   5
ATOM      5  C   UNL     1       2.512  -4.812   5.840  1.00  0.00     0.307 C 
ATOM      6  O   UNL     1       2.678  -5.339   4.742  1.00  0.00    -0.252 OA
BRANCH   5   7
ATOM      7  C   UNL     1       1.139  -4.801   6.485  1.00  0.00     0.146 C 
BRANCH   7   8
ATOM      8  C   UNL     1       0.865  -4.076   7.798  1.00  0.00     0.156 C 
BRANCH   8   9
ATOM      9  N   UNL     1       1.127  -2.655   7.809  1.00  0.00    -0.271 N 
ATOM     10  C   UNL     1       0.976  -0.470   7.776  1.00  0.00     0.077 A 
ATOM     11  C   UNL     1       2.295  -0.910   7.970  1.00  0.00     0.149 A 
ATOM     12  C   UNL     1       0.224  -1.630   7.803  1.00  0.00     0.122 A 
ATOM     13  N   UNL     1       2.391  -2.227   7.897  1.00  0.00    -0.181 NA
BRANCH  10  14
ATOM     14  C   UNL     1       0.519   0.880   7.573  1.00  0.00     0.254 C 
ATOM     15  N   UNL     1       1.194   1.634   6.644  1.00  0.00    -0.344 N 
ATOM     16  H   UNL     1       0.990   2.597   6.641  1.00  0.00     0.164 HD
ATOM     17  O   UNL     1      -0.441   1.360   8.169  1.00  0.00    -0.269 OA
BRANCH  15  18
ATOM     18  C   UNL     1       2.179   1.183   5.655  1.00  0.00     0.130 C 
ATOM     19  C   UNL     1       3.474   1.972   5.797  1.00  0.00     0.038 C 
BRANCH  18  20
ATOM     20  C   UNL     1       1.577   1.276   4.282  1.00  0.00     0.084 A 
ATOM     21  N   UNL     1       0.877   0.603   2.394  1.00  0.00    -0.273 N 
ATOM     22  C   UNL     1       0.616   1.943   2.403  1.00  0.00     0.109 A 
ATOM     23  N   UNL     1       1.463   0.175   3.523  1.00  0.00    -0.176 NA
ATOM     24  C   UNL     1       1.070   2.414   3.611  1.00  0.00     0.047 A 
BRANCH  21  25
ATOM     25  C   UNL     1       0.536  -0.354   1.359  1.00  0.00     0.141 C 
ATOM     26  C   UNL     1       1.083   0.019  -0.009  1.00  0.00     0.029 C 
ENDBRANCH  21  25
ENDBRANCH  18  20
ENDBRANCH  15  18
ENDBRANCH  10  14
ENDBRANCH   8   9
ENDBRANCH   7   8
ENDBRANCH   5   7
ENDBRANCH   4   5
ENDBRANCH   3   4
ENDBRANCH   2   3
ENDBRANCH   1   2
BRANCH   1  27
ATOM     27  C   UNL     1       4.180  -6.456   8.303  1.00  0.00     0.188 C 
BRANCH  27  28
ATOM     28  C   UNL     1       3.970  -5.586   9.542  1.00  0.00     0.188 C 
BRANCH  28  29
ATOM     29  O   UNL     1       3.808  -4.197   9.354  1.00  0.00    -0.376 OA
BRANCH  29  30
ATOM     30  C   UNL     1       4.689  -3.172   9.810  1.00  0.00     0.202 C 
BRANCH  30  31
ATOM     31  C   UNL     1       5.635  -3.288  11.006  1.00  0.00     0.261 C 
BRANCH  31  32
ATOM     32  O   UNL     1       5.564  -4.495  11.713  1.00  0.00    -0.460 OA
BRANCH  32  33
ATOM     33  C   UNL     1       4.391  -4.761  12.317  1.00  0.00     0.338 C 
ATOM     34  O   UNL     1       3.411  -4.031  12.408  1.00  0.00    -0.246 OA
BRANCH  33  35
ATOM     35  C   UNL     1       4.527  -6.108  12.878  1.00  0.00     0.060 A 
ATOM     36  C   UNL     1       3.514  -6.544  13.725  1.00  0.00     0.016 A 
ATOM     37  C   UNL     1       5.778  -6.743  12.810  1.00  0.00     0.016 A 
ATOM     38  C   UNL     1       3.882  -7.362  14.763  1.00  0.00     0.010 A 
ATOM     39  C   UNL     1       6.158  -7.505  13.872  1.00  0.00     0.010 A 
ATOM     40  C   UNL     1       5.234  -7.697  14.892  1.00  0.00    -0.014 A 
BRANCH  40  41
ATOM     41  C   UNL     1       5.676  -8.413  16.061  1.00  0.00     0.031 A 
ATOM     42  C   UNL     1       5.376  -9.845  15.902  1.00  0.00     0.074 A 
ATOM     43  C   UNL     1       6.375  -7.823  17.050  1.00  0.00     0.049 A 
ATOM     44  N   UNL     1       4.315 -10.453  16.323  1.00  0.00    -0.248 NA
ATOM     45  C   UNL     1       6.117 -10.597  14.869  1.00  0.00     0.031 C 
ATOM     46  C   UNL     1       6.875  -6.448  17.118  1.00  0.00     0.029 A 
ATOM     47  N   UNL     1       6.861  -8.370  18.194  1.00  0.00    -0.354 N 
ATOM     48  C   UNL     1       4.500 -11.762  15.909  1.00  0.00     0.074 A 
ATOM     49  C   UNL     1       5.338 -11.674  14.751  1.00  0.00     0.031 C 
ATOM     50  C   UNL     1       7.773  -6.346  18.128  1.00  0.00     0.029 A 
ATOM     51  C   UNL     1       7.834  -7.610  18.846  1.00  0.00     0.049 A 
ATOM     52  H   UNL     1       6.551  -9.239  18.539  1.00  0.00     0.167 HD
ATOM     53  C   UNL     1       4.386 -12.769  16.818  1.00  0.00     0.034 A 
ATOM     54  C   UNL     1       8.662  -8.037  19.846  1.00  0.00     0.034 A 
ATOM     55  C   UNL     1       3.634 -12.313  17.982  1.00  0.00     0.049 A 
ATOM     56  C   UNL     1       8.002  -9.225  20.455  1.00  0.00     0.074 A 
ATOM     57  C   UNL     1       2.414 -11.683  18.160  1.00  0.00     0.029 A 
ATOM     58  N   UNL     1       4.324 -12.110  19.160  1.00  0.00    -0.354 N 
ATOM     59  N   UNL     1       6.878  -9.148  21.115  1.00  0.00    -0.248 NA
ATOM     60  C   UNL     1       8.282 -10.529  19.869  1.00  0.00     0.031 C 
ATOM     61  C   UNL     1       2.624 -10.747  19.218  1.00  0.00     0.029 A 
ATOM     62  C   UNL     1       3.916 -10.923  19.715  1.00  0.00     0.049 A 
ATOM     63  H   UNL     1       4.998 -12.718  19.541  1.00  0.00     0.167 HD
ATOM     64  C   UNL     1       6.113 -10.209  20.649  1.00  0.00     0.074 A 
ATOM     65  C   UNL     1       7.063 -11.074  19.944  1.00  0.00     0.031 C 
ATOM     66  C   UNL     1       4.748 -10.122  20.597  1.00  0.00     0.034 A 
BRANCH  53  67
ATOM     67  C   UNL     1       5.364 -13.936  16.893  1.00  0.00     0.023 A 
ATOM     68  C   UNL     1       5.166 -14.819  17.964  1.00  0.00     0.031 A 
ATOM     69  C   UNL     1       6.606 -14.069  16.223  1.00  0.00     0.131 A 
ATOM     70  C   UNL     1       6.218 -15.613  18.447  1.00  0.00     0.055 A 
ATOM     71  C   UNL     1       7.631 -14.903  16.673  1.00  0.00     0.041 A 
ATOM     72  F   UNL     1       6.945 -13.379  15.130  1.00  0.00    -0.206 F 
ATOM     73  C   UNL     1       7.458 -15.649  17.820  1.00  0.00     0.022 A 
BRANCH  70  74
ATOM     74  S   UNL     1       5.977 -16.439  20.032  1.00  0.00     0.124 S 
ATOM     75  O   UNL     1       5.691 -15.299  20.897  1.00  0.00    -0.237 OA
ATOM     76  O   UNL     1       4.855 -17.324  19.737  1.00  0.00    -0.237 OA
ATOM     77  O   UNL     1       7.256 -17.104  20.261  1.00  0.00    -0.744 OA
ENDBRANCH  70  74
ENDBRANCH  53  67
BRANCH  54  78
ATOM     78  C   UNL     1      10.112  -7.712  20.050  1.00  0.00     0.023 A 
ATOM     79  C   UNL     1      10.824  -8.021  21.238  1.00  0.00     0.031 A 
ATOM     80  C   UNL     1      10.896  -7.306  18.947  1.00  0.00     0.131 A 
ATOM     81  C   UNL     1      12.241  -7.920  21.277  1.00  0.00     0.055 A 
ATOM     82  C   UNL     1      12.290  -7.212  18.991  1.00  0.00     0.041 A 
ATOM     83  F   UNL     1      10.344  -7.068  17.747  1.00  0.00    -0.206 F 
ATOM     84  C   UNL     1      12.970  -7.530  20.153  1.00  0.00     0.022 A 
BRANCH  81  85
ATOM     85  S   UNL     1      13.190  -8.375  22.773  1.00  0.00     0.124 S 
ATOM     86  O   UNL     1      12.819  -7.323  23.712  1.00  0.00    -0.237 OA
ATOM     87  O   UNL     1      12.697  -9.715  23.068  1.00  0.00    -0.237 OA
ATOM     88  O   UNL     1      14.583  -8.327  22.323  1.00  0.00    -0.744 OA
ENDBRANCH  81  85
ENDBRANCH  54  78
BRANCH  66  89
ATOM     89  C   UNL     1       4.065  -9.018  21.383  1.00  0.00     0.023 A 
ATOM     90  C   UNL     1       4.322  -7.632  21.260  1.00  0.00     0.031 A 
ATOM     91  C   UNL     1       3.032  -9.410  22.254  1.00  0.00     0.131 A 
ATOM     92  C   UNL     1       3.571  -6.705  22.014  1.00  0.00     0.055 A 
ATOM     93  C   UNL     1       2.276  -8.491  22.978  1.00  0.00     0.041 A 
ATOM     94  F   UNL     1       2.720 -10.709  22.399  1.00  0.00    -0.206 F 
ATOM     95  C   UNL     1       2.550  -7.134  22.869  1.00  0.00     0.022 A 
BRANCH  92  96
ATOM     96  S   UNL     1       3.930  -4.919  21.937  1.00  0.00     0.124 S 
ATOM     97  O   UNL     1       5.385  -4.858  22.011  1.00  0.00    -0.237 OA
ATOM     98  O   UNL     1       3.339  -4.536  20.657  1.00  0.00    -0.237 OA
ATOM     99  O   UNL     1       3.237  -4.383  23.110  1.00  0.00    -0.744 OA
ENDBRANCH  92  96
ENDBRANCH  66  89
ENDBRANCH  40  41
ENDBRANCH  33  35
ENDBRANCH  32  33
ENDBRANCH  31  32
ENDBRANCH  30  31
ENDBRANCH  29  30
ENDBRANCH  28  29
ENDBRANCH  27  28
ENDBRANCH   1  27
TORSDOF 26
