REMARK SMILES O=C(Cn1c(=O)[nH]c2ccccc2c1=O)NC[C@H]1CC[C@@H](C(=O)N2CCC(C(=O)OCCOCCOCCOC(=O)c3ccc(-c4c5nc(c(-c6cc(S(=O)(=O)[O-])ccc6F)c6ccc([nH]6)c(-c6cc(S(=O)(=O)[O-])ccc6F)c6nc(c(-c7cc(S(=O)(=O)[O-])ccc7F)c7ccc4[nH]7)C=C6)C=C5)cc3)CC2)CC1
REMARK SMILES IDX 34 1 33 2 32 3 31 4 30 5 28 6 29 7 27 8 22 9 23 10 24 11
REMARK SMILES IDX 25 12 106 13 26 14 105 15 21 16 18 17 19 18 108 19 20 20
REMARK SMILES IDX 107 21 17 22 16 23 1 24 2 25 3 27 4 28 5 29 14 30 6 31 7 32
REMARK SMILES IDX 13 33 15 34 8 35 12 37 9 38 11 39 10 40 35 41 36 42 37 43
REMARK SMILES IDX 38 44 39 45 40 46 41 47 42 48 43 49 104 50 44 51 103 52
REMARK SMILES IDX 45 53 46 54 47 55 97 56 48 57 102 58 96 59 98 60 49 61
REMARK SMILES IDX 101 62 95 63 94 64 50 66 82 67 62 68 81 69 63 70 66 71 80 72
REMARK SMILES IDX 99 73 64 74 65 75 79 77 100 78 67 79 51 80 52 81 60 82 53 83
REMARK SMILES IDX 59 84 61 85 58 86 54 87 55 88 56 89 57 90 83 91 84 92 92 93
REMARK SMILES IDX 85 94 91 95 93 96 90 97 86 98 87 99 88 100 89 101 68 102
REMARK SMILES IDX 69 103 77 104 70 105 76 106 78 107 75 108 71 109 72 110
REMARK SMILES IDX 73 111 74 112
REMARK H PARENT 16 26 7 36 98 65 66 76
REMARK Flexibility Score: inf
ROOT
ATOM      1  C   UNL     1       8.553  -4.456   3.060  1.00  0.00     0.188 C 
ENDROOT
BRANCH   1   2
ATOM      2  O   UNL     1       9.010  -5.703   3.581  1.00  0.00    -0.376 OA
BRANCH   2   3
ATOM      3  C   UNL     1       9.625  -6.622   2.680  1.00  0.00     0.202 C 
BRANCH   3   4
ATOM      4  C   UNL     1       8.764  -7.162   1.530  1.00  0.00     0.261 C 
BRANCH   4   5
ATOM      5  O   UNL     1       8.206  -6.149   0.675  1.00  0.00    -0.463 OA
BRANCH   5   6
ATOM      6  C   UNL     1       6.879  -5.925   0.836  1.00  0.00     0.309 C 
ATOM      7  O   UNL     1       6.154  -6.541   1.610  1.00  0.00    -0.252 OA
BRANCH   6   8
ATOM      8  C   UNL     1       6.331  -4.829  -0.051  1.00  0.00     0.103 C 
ATOM      9  C   UNL     1       5.797  -3.498  -3.997  1.00  0.00     0.225 C 
ATOM     10  O   UNL     1       6.899  -3.257  -4.509  1.00  0.00    -0.275 OA
ATOM     11  N   UNL     1       5.698  -3.674  -2.631  1.00  0.00    -0.342 N 
ATOM     12  C   UNL     1       6.630  -2.973  -1.745  1.00  0.00     0.120 C 
ATOM     13  C   UNL     1       4.758  -4.556  -1.976  1.00  0.00     0.120 C 
ATOM     14  C   UNL     1       7.333  -3.907  -0.756  1.00  0.00     0.037 C 
ATOM     15  C   UNL     1       5.457  -5.543  -1.070  1.00  0.00     0.037 C 
BRANCH   9  16
ATOM     16  C   UNL     1       4.538  -3.325  -4.886  1.00  0.00     0.078 C 
ATOM     17  C   UNL     1       2.121  -2.258  -3.426  1.00  0.00     0.008 C 
ATOM     18  C   UNL     1       3.424  -1.470  -3.623  1.00  0.00     0.006 C 
ATOM     19  C   UNL     1       2.222  -3.760  -3.744  1.00  0.00     0.006 C 
ATOM     20  C   UNL     1       4.153  -1.845  -4.896  1.00  0.00     0.014 C 
ATOM     21  C   UNL     1       3.277  -4.184  -4.773  1.00  0.00     0.014 C 
BRANCH  17  22
ATOM     22  C   UNL     1       1.550  -2.078  -2.007  1.00  0.00     0.119 C 
BRANCH  22  23
ATOM     23  N   UNL     1       2.033  -0.886  -1.362  1.00  0.00    -0.354 N 
ATOM     24  O   UNL     1       0.087   0.311  -1.420  1.00  0.00    -0.273 OA
ATOM     25  C   UNL     1       1.214   0.138  -0.963  1.00  0.00     0.240 C 
ATOM     26  H   UNL     1       3.000  -0.801  -1.200  1.00  0.00     0.163 HD
BRANCH  25  27
ATOM     27  C   UNL     1       1.900   1.163  -0.066  1.00  0.00     0.230 C 
BRANCH  27  28
ATOM     28  N   UNL     1       2.888   0.715   0.920  1.00  0.00    -0.250 N 
ATOM     29  C   UNL     1       2.732  -0.500   1.570  1.00  0.00     0.329 A 
ATOM     30  C   UNL     1       3.766   1.712   1.356  1.00  0.00     0.264 A 
ATOM     31  O   UNL     1       1.985  -1.408   1.217  1.00  0.00    -0.248 OA
ATOM     32  N   UNL     1       3.502  -0.722   2.666  1.00  0.00    -0.307 N 
ATOM     33  C   UNL     1       4.390   1.512   2.672  1.00  0.00     0.064 A 
ATOM     34  O   UNL     1       3.982   2.751   0.738  1.00  0.00    -0.268 OA
ATOM     35  C   UNL     1       4.212   0.285   3.296  1.00  0.00     0.055 A 
ATOM     36  H   UNL     1       3.557  -1.636   3.027  1.00  0.00     0.171 HD
ATOM     37  C   UNL     1       5.018   2.567   3.339  1.00  0.00     0.016 A 
ATOM     38  C   UNL     1       4.612   0.100   4.605  1.00  0.00     0.027 A 
ATOM     39  C   UNL     1       5.380   2.403   4.668  1.00  0.00     0.001 A 
ATOM     40  C   UNL     1       5.127   1.190   5.298  1.00  0.00     0.002 A 
ENDBRANCH  27  28
ENDBRANCH  25  27
ENDBRANCH  22  23
ENDBRANCH  17  22
ENDBRANCH   9  16
ENDBRANCH   6   8
ENDBRANCH   5   6
ENDBRANCH   4   5
ENDBRANCH   3   4
ENDBRANCH   2   3
ENDBRANCH   1   2
BRANCH   1  41
ATOM     41  C   UNL     1       9.579  -3.630   2.288  1.00  0.00     0.188 C 
BRANCH  41  42
ATOM     42  O   UNL     1      10.340  -4.345   1.341  1.00  0.00    -0.376 OA
BRANCH  42  43
ATOM     43  C   UNL     1      11.651  -3.883   1.027  1.00  0.00     0.202 C 
BRANCH  43  44
ATOM     44  C   UNL     1      12.642  -3.292   2.076  1.00  0.00     0.261 C 
BRANCH  44  45
ATOM     45  O   UNL     1      12.141  -2.584   3.228  1.00  0.00    -0.460 OA
BRANCH  45  46
ATOM     46  C   UNL     1      11.586  -1.360   3.016  1.00  0.00     0.338 C 
ATOM     47  O   UNL     1      11.622  -0.746   1.970  1.00  0.00    -0.246 OA
BRANCH  46  48
ATOM     48  C   UNL     1      10.651  -1.051   4.154  1.00  0.00     0.060 A 
ATOM     49  C   UNL     1      10.967  -1.248   5.504  1.00  0.00     0.016 A 
ATOM     50  C   UNL     1       9.359  -0.631   3.823  1.00  0.00     0.016 A 
ATOM     51  C   UNL     1      10.005  -0.987   6.511  1.00  0.00     0.010 A 
ATOM     52  C   UNL     1       8.397  -0.413   4.822  1.00  0.00     0.010 A 
ATOM     53  C   UNL     1       8.702  -0.563   6.186  1.00  0.00    -0.014 A 
BRANCH  53  54
ATOM     54  C   UNL     1       7.746  -0.007   7.210  1.00  0.00     0.031 A 
ATOM     55  C   UNL     1       6.468  -0.709   7.647  1.00  0.00     0.074 A 
ATOM     56  C   UNL     1       7.878   1.307   7.506  1.00  0.00     0.049 A 
ATOM     57  N   UNL     1       5.471  -0.241   8.370  1.00  0.00    -0.248 NA
ATOM     58  C   UNL     1       6.219  -2.049   7.104  1.00  0.00     0.031 C 
ATOM     59  C   UNL     1       8.941   2.169   6.985  1.00  0.00     0.029 A 
ATOM     60  N   UNL     1       7.079   2.167   8.227  1.00  0.00    -0.354 N 
ATOM     61  C   UNL     1       4.438  -1.179   8.297  1.00  0.00     0.074 A 
ATOM     62  C   UNL     1       4.956  -2.259   7.474  1.00  0.00     0.031 C 
ATOM     63  C   UNL     1       8.721   3.429   7.384  1.00  0.00     0.029 A 
ATOM     64  C   UNL     1       7.506   3.477   8.194  1.00  0.00     0.049 A 
ATOM     65  H   UNL     1       6.279   1.874   8.720  1.00  0.00     0.167 HD
ATOM     66  C   UNL     1       3.180  -1.125   8.829  1.00  0.00     0.034 A 
ATOM     67  C   UNL     1       7.006   4.599   8.755  1.00  0.00     0.034 A 
ATOM     68  C   UNL     1       2.700  -0.044   9.677  1.00  0.00     0.049 A 
ATOM     69  C   UNL     1       5.764   4.536   9.600  1.00  0.00     0.074 A 
ATOM     70  C   UNL     1       1.562  -0.027  10.475  1.00  0.00     0.029 A 
ATOM     71  N   UNL     1       3.289   1.202   9.832  1.00  0.00    -0.354 N 
ATOM     72  N   UNL     1       4.921   3.544   9.745  1.00  0.00    -0.248 NA
ATOM     73  C   UNL     1       5.426   5.728  10.393  1.00  0.00     0.031 C 
ATOM     74  C   UNL     1       1.426   1.239  11.047  1.00  0.00     0.029 A 
ATOM     75  C   UNL     1       2.538   1.984  10.703  1.00  0.00     0.049 A 
ATOM     76  H   UNL     1       4.120   1.490   9.389  1.00  0.00     0.167 HD
ATOM     77  C   UNL     1       3.977   3.978  10.675  1.00  0.00     0.074 A 
ATOM     78  C   UNL     1       4.366   5.312  11.075  1.00  0.00     0.031 C 
ATOM     79  C   UNL     1       2.892   3.313  11.146  1.00  0.00     0.034 A 
BRANCH  66  80
ATOM     80  C   UNL     1       2.199  -2.286   8.624  1.00  0.00     0.023 A 
ATOM     81  C   UNL     1       0.855  -2.043   8.238  1.00  0.00     0.031 A 
ATOM     82  C   UNL     1       2.517  -3.591   9.041  1.00  0.00     0.131 A 
ATOM     83  C   UNL     1      -0.108  -3.064   8.340  1.00  0.00     0.055 A 
ATOM     84  C   UNL     1       1.573  -4.622   9.059  1.00  0.00     0.041 A 
ATOM     85  F   UNL     1       3.753  -3.888   9.474  1.00  0.00    -0.206 F 
ATOM     86  C   UNL     1       0.250  -4.356   8.729  1.00  0.00     0.022 A 
BRANCH  83  87
ATOM     87  S   UNL     1      -1.885  -2.740   8.116  1.00  0.00     0.124 S 
ATOM     88  O   UNL     1      -2.227  -3.672   7.044  1.00  0.00    -0.237 OA
ATOM     89  O   UNL     1      -2.423  -3.081   9.430  1.00  0.00    -0.237 OA
ATOM     90  O   UNL     1      -1.941  -1.328   7.755  1.00  0.00    -0.744 OA
ENDBRANCH  83  87
ENDBRANCH  66  80
BRANCH  67  91
ATOM     91  C   UNL     1       7.816   5.848   8.673  1.00  0.00     0.023 A 
ATOM     92  C   UNL     1       7.990   6.549   7.468  1.00  0.00     0.031 A 
ATOM     93  C   UNL     1       8.549   6.260   9.800  1.00  0.00     0.131 A 
ATOM     94  C   UNL     1       8.928   7.590   7.413  1.00  0.00     0.055 A 
ATOM     95  C   UNL     1       9.425   7.341   9.756  1.00  0.00     0.041 A 
ATOM     96  F   UNL     1       8.425   5.598  10.962  1.00  0.00    -0.206 F 
ATOM     97  C   UNL     1       9.631   8.002   8.551  1.00  0.00     0.022 A 
BRANCH  94  98
ATOM     98  S   UNL     1       9.375   8.360   5.832  1.00  0.00     0.124 S 
ATOM     99  O   UNL     1       9.118   9.772   6.096  1.00  0.00    -0.237 OA
ATOM    100  O   UNL     1      10.782   7.985   5.712  1.00  0.00    -0.237 OA
ATOM    101  O   UNL     1       8.477   7.721   4.875  1.00  0.00    -0.744 OA
ENDBRANCH  94  98
ENDBRANCH  67  91
BRANCH  79 102
ATOM    102  C   UNL     1       2.018   3.969  12.200  1.00  0.00     0.023 A 
ATOM    103  C   UNL     1       1.833   3.339  13.449  1.00  0.00     0.031 A 
ATOM    104  C   UNL     1       1.285   5.142  11.948  1.00  0.00     0.131 A 
ATOM    105  C   UNL     1       0.927   3.867  14.381  1.00  0.00     0.055 A 
ATOM    106  C   UNL     1       0.420   5.693  12.899  1.00  0.00     0.041 A 
ATOM    107  F   UNL     1       1.403   5.782  10.774  1.00  0.00    -0.206 F 
ATOM    108  C   UNL     1       0.229   5.049  14.118  1.00  0.00     0.022 A 
BRANCH 105 109
ATOM    109  S   UNL     1       0.565   3.005  15.938  1.00  0.00     0.124 S 
ATOM    110  O   UNL     1       0.982   3.991  16.933  1.00  0.00    -0.237 OA
ATOM    111  O   UNL     1      -0.877   2.790  15.842  1.00  0.00    -0.237 OA
ATOM    112  O   UNL     1       1.386   1.801  15.874  1.00  0.00    -0.744 OA
ENDBRANCH 105 109
ENDBRANCH  79 102
ENDBRANCH  53  54
ENDBRANCH  46  48
ENDBRANCH  45  46
ENDBRANCH  44  45
ENDBRANCH  43  44
ENDBRANCH  42  43
ENDBRANCH  41  42
ENDBRANCH   1  41
TORSDOF 25
