REMARK SMILES C[C@@H](O)[C@@H](NC(=O)Nc1ccc(F)cc1F)C(=O)OCCOCCOCCOC(=O)c1ccc(-c2c3nc(c(-c4cc(S(=O)(=O)[O-])ccc4F)c4ccc([nH]4)c(-c4cc(S(=O)(=O)[O-])ccc4F)c4nc(c(-c5cc(S(=O)(=O)[O-])ccc5F)c5ccc2[nH]5)C=C4)C=C3)cc1
REMARK SMILES IDX 24 1 23 2 22 3 21 4 20 5 19 6 17 7 18 8 4 9 2 10 1 11 3 12
REMARK SMILES IDX 5 14 6 15 7 17 8 18 9 20 10 21 15 22 11 23 14 24 16 25 12 26
REMARK SMILES IDX 13 27 25 28 26 29 27 30 28 31 29 32 30 33 31 34 32 35 93 36
REMARK SMILES IDX 33 37 92 38 34 39 35 40 36 41 86 42 37 43 91 44 85 45 87 46
REMARK SMILES IDX 38 47 90 48 84 49 83 50 39 52 71 53 51 54 70 55 52 56 55 57
REMARK SMILES IDX 69 58 88 59 53 60 54 61 68 63 89 64 56 65 40 66 41 67 49 68
REMARK SMILES IDX 42 69 48 70 50 71 47 72 43 73 44 74 45 75 46 76 72 77 73 78
REMARK SMILES IDX 81 79 74 80 80 81 82 82 79 83 75 84 76 85 77 86 78 87 57 88
REMARK SMILES IDX 58 89 66 90 59 91 65 92 67 93 64 94 60 95 61 96 62 97 63 98
REMARK H PARENT 3 13 5 16 8 19 87 51 55 62
REMARK Flexibility Score: inf
ROOT
ATOM      1  C   UNL     1      -0.104  -0.223   4.356  1.00  0.00     0.188 C 
ENDROOT
BRANCH   1   2
ATOM      2  C   UNL     1      -1.754  -0.428   3.808  1.00  0.00     0.188 C 
BRANCH   2   3
ATOM      3  O   UNL     1      -3.113  -1.863   4.304  1.00  0.00    -0.376 OA
BRANCH   3   4
ATOM      4  C   UNL     1      -2.956  -3.646   4.438  1.00  0.00     0.202 C 
BRANCH   4   5
ATOM      5  C   UNL     1      -1.567  -4.646   3.741  1.00  0.00     0.261 C 
BRANCH   5   6
ATOM      6  O   UNL     1      -0.314  -3.972   2.964  1.00  0.00    -0.462 OA
BRANCH   6   7
ATOM      7  C   UNL     1      -0.164  -3.820   1.563  1.00  0.00     0.331 C 
ATOM      8  O   UNL     1      -0.134  -4.794   0.813  1.00  0.00    -0.250 OA
BRANCH   7   9
ATOM      9  C   UNL     1      -0.271  -2.260   0.984  1.00  0.00     0.222 C 
BRANCH   9  10
ATOM     10  C   UNL     1       1.073  -1.631   0.482  1.00  0.00     0.145 C 
ATOM     11  C   UNL     1       1.001  -0.781  -0.786  1.00  0.00     0.041 C 
BRANCH  10  12
ATOM     12  O   UNL     1       1.513  -0.700   1.499  1.00  0.00    -0.391 OA
ATOM     13  H   UNL     1       0.860   0.011   1.591  1.00  0.00     0.211 HD
ENDBRANCH  10  12
ENDBRANCH   9  10
BRANCH   9  14
ATOM     14  N   UNL     1      -1.465  -2.090   0.030  1.00  0.00    -0.322 N 
ATOM     15  C   UNL     1      -2.796  -1.793   0.012  1.00  0.00     0.320 C 
ATOM     16  H   UNL     1      -1.162  -2.254  -0.893  1.00  0.00     0.166 HD
ATOM     17  O   UNL     1      -3.348  -1.936  -1.089  1.00  0.00    -0.248 OA
ATOM     18  N   UNL     1      -3.575  -1.309   1.028  1.00  0.00    -0.305 N 
ATOM     19  H   UNL     1      -4.442  -0.938   0.745  1.00  0.00     0.171 HD
BRANCH  18  20
ATOM     20  C   UNL     1      -3.332  -1.258   2.406  1.00  0.00     0.079 A 
ATOM     21  C   UNL     1      -4.073  -0.232   3.597  1.00  0.00     0.032 A 
ATOM     22  C   UNL     1      -2.038  -2.282   2.869  1.00  0.00     0.149 A 
ATOM     23  C   UNL     1      -3.496  -0.186   5.285  1.00  0.00     0.041 A 
ATOM     24  C   UNL     1      -1.312  -2.252   4.595  1.00  0.00     0.080 A 
ATOM     25  F   UNL     1      -2.246  -3.394   2.125  1.00  0.00    -0.205 F 
ATOM     26  C   UNL     1      -2.125  -1.181   5.803  1.00  0.00     0.126 A 
ATOM     27  F   UNL     1      -1.611  -1.041   7.031  1.00  0.00    -0.207 F 
ENDBRANCH  18  20
ENDBRANCH   9  14
ENDBRANCH   7   9
ENDBRANCH   6   7
ENDBRANCH   5   6
ENDBRANCH   4   5
ENDBRANCH   3   4
ENDBRANCH   2   3
ENDBRANCH   1   2
BRANCH   1  28
ATOM     28  O   UNL     1       0.928  -1.236   4.347  1.00  0.00    -0.376 OA
BRANCH  28  29
ATOM     29  C   UNL     1       1.403  -1.725   5.620  1.00  0.00     0.202 C 
BRANCH  29  30
ATOM     30  C   UNL     1       2.331  -0.857   6.472  1.00  0.00     0.261 C 
BRANCH  30  31
ATOM     31  O   UNL     1       1.828   0.467   6.627  1.00  0.00    -0.460 OA
BRANCH  31  32
ATOM     32  C   UNL     1       2.222   1.304   5.634  1.00  0.00     0.338 C 
ATOM     33  O   UNL     1       3.085   1.088   4.800  1.00  0.00    -0.246 OA
BRANCH  32  34
ATOM     34  C   UNL     1       1.264   2.429   5.559  1.00  0.00     0.060 A 
ATOM     35  C   UNL     1       0.927   2.900   4.281  1.00  0.00     0.016 A 
ATOM     36  C   UNL     1       0.646   2.959   6.695  1.00  0.00     0.016 A 
ATOM     37  C   UNL     1       0.026   3.946   4.136  1.00  0.00     0.010 A 
ATOM     38  C   UNL     1      -0.232   4.032   6.554  1.00  0.00     0.010 A 
ATOM     39  C   UNL     1      -0.495   4.561   5.277  1.00  0.00    -0.014 A 
BRANCH  39  40
ATOM     40  C   UNL     1      -1.073   5.915   5.151  1.00  0.00     0.031 A 
ATOM     41  C   UNL     1      -0.180   7.082   5.476  1.00  0.00     0.074 A 
ATOM     42  C   UNL     1      -2.328   6.106   4.713  1.00  0.00     0.049 A 
ATOM     43  N   UNL     1      -0.456   8.358   5.500  1.00  0.00    -0.248 NA
ATOM     44  C   UNL     1       1.212   6.759   5.829  1.00  0.00     0.031 C 
ATOM     45  C   UNL     1      -3.250   5.049   4.302  1.00  0.00     0.029 A 
ATOM     46  N   UNL     1      -3.041   7.264   4.545  1.00  0.00    -0.354 N 
ATOM     47  C   UNL     1       0.723   8.988   5.882  1.00  0.00     0.074 A 
ATOM     48  C   UNL     1       1.702   7.952   6.121  1.00  0.00     0.031 C 
ATOM     49  C   UNL     1      -4.416   5.611   3.939  1.00  0.00     0.029 A 
ATOM     50  C   UNL     1      -4.336   7.058   4.138  1.00  0.00     0.049 A 
ATOM     51  H   UNL     1      -2.660   8.159   4.702  1.00  0.00     0.167 HD
ATOM     52  C   UNL     1       0.965  10.314   6.013  1.00  0.00     0.034 A 
ATOM     53  C   UNL     1      -5.346   7.937   3.980  1.00  0.00     0.034 A 
ATOM     54  C   UNL     1      -0.032  11.328   5.782  1.00  0.00     0.049 A 
ATOM     55  C   UNL     1      -5.084   9.403   4.239  1.00  0.00     0.074 A 
ATOM     56  C   UNL     1       0.102  12.701   5.874  1.00  0.00     0.029 A 
ATOM     57  N   UNL     1      -1.353  11.079   5.429  1.00  0.00    -0.354 N 
ATOM     58  N   UNL     1      -3.968   9.994   4.604  1.00  0.00    -0.248 NA
ATOM     59  C   UNL     1      -6.216  10.322   4.059  1.00  0.00     0.031 C 
ATOM     60  C   UNL     1      -1.156  13.275   5.677  1.00  0.00     0.029 A 
ATOM     61  C   UNL     1      -2.054  12.272   5.347  1.00  0.00     0.049 A 
ATOM     62  H   UNL     1      -1.734  10.187   5.263  1.00  0.00     0.167 HD
ATOM     63  C   UNL     1      -4.256  11.357   4.654  1.00  0.00     0.074 A 
ATOM     64  C   UNL     1      -5.646  11.498   4.275  1.00  0.00     0.031 C 
ATOM     65  C   UNL     1      -3.444  12.398   4.973  1.00  0.00     0.034 A 
BRANCH  52  66
ATOM     66  C   UNL     1       2.336  10.729   6.489  1.00  0.00     0.023 A 
ATOM     67  C   UNL     1       3.499  10.448   5.752  1.00  0.00     0.031 A 
ATOM     68  C   UNL     1       2.483  11.393   7.721  1.00  0.00     0.131 A 
ATOM     69  C   UNL     1       4.758  10.764   6.284  1.00  0.00     0.055 A 
ATOM     70  C   UNL     1       3.732  11.789   8.201  1.00  0.00     0.041 A 
ATOM     71  F   UNL     1       1.413  11.658   8.486  1.00  0.00    -0.206 F 
ATOM     72  C   UNL     1       4.881  11.461   7.488  1.00  0.00     0.022 A 
BRANCH  69  73
ATOM     73  S   UNL     1       6.236  10.108   5.462  1.00  0.00     0.124 S 
ATOM     74  O   UNL     1       5.971   8.671   5.482  1.00  0.00    -0.237 OA
ATOM     75  O   UNL     1       6.180  10.749   4.154  1.00  0.00    -0.237 OA
ATOM     76  O   UNL     1       7.331  10.544   6.326  1.00  0.00    -0.744 OA
ENDBRANCH  69  73
ENDBRANCH  52  66
BRANCH  53  77
ATOM     77  C   UNL     1      -6.708   7.460   3.603  1.00  0.00     0.023 A 
ATOM     78  C   UNL     1      -7.327   7.889   2.419  1.00  0.00     0.031 A 
ATOM     79  C   UNL     1      -7.437   6.612   4.456  1.00  0.00     0.131 A 
ATOM     80  C   UNL     1      -8.651   7.513   2.147  1.00  0.00     0.055 A 
ATOM     81  C   UNL     1      -8.729   6.184   4.147  1.00  0.00     0.041 A 
ATOM     82  F   UNL     1      -6.898   6.177   5.607  1.00  0.00    -0.206 F 
ATOM     83  C   UNL     1      -9.350   6.648   2.993  1.00  0.00     0.022 A 
BRANCH  80  84
ATOM     84  S   UNL     1      -9.491   8.264   0.726  1.00  0.00     0.124 S 
ATOM     85  O   UNL     1      -9.388   9.684   1.040  1.00  0.00    -0.237 OA
ATOM     86  O   UNL     1      -8.678   7.792  -0.390  1.00  0.00    -0.237 OA
ATOM     87  O   UNL     1     -10.839   7.705   0.793  1.00  0.00    -0.744 OA
ENDBRANCH  80  84
ENDBRANCH  53  77
BRANCH  65  88
ATOM     88  C   UNL     1      -4.020  13.791   4.863  1.00  0.00     0.023 A 
ATOM     89  C   UNL     1      -5.074  14.233   5.681  1.00  0.00     0.031 A 
ATOM     90  C   UNL     1      -3.494  14.695   3.921  1.00  0.00     0.131 A 
ATOM     91  C   UNL     1      -5.607  15.518   5.500  1.00  0.00     0.055 A 
ATOM     92  C   UNL     1      -3.976  15.999   3.800  1.00  0.00     0.041 A 
ATOM     93  F   UNL     1      -2.491  14.329   3.106  1.00  0.00    -0.206 F 
ATOM     94  C   UNL     1      -5.049  16.412   4.582  1.00  0.00     0.022 A 
BRANCH  91  95
ATOM     95  S   UNL     1      -7.115  15.970   6.400  1.00  0.00     0.124 S 
ATOM     96  O   UNL     1      -8.045  14.930   5.972  1.00  0.00    -0.237 OA
ATOM     97  O   UNL     1      -6.681  15.904   7.792  1.00  0.00    -0.237 OA
ATOM     98  O   UNL     1      -7.418  17.313   5.909  1.00  0.00    -0.744 OA
ENDBRANCH  91  95
ENDBRANCH  65  88
ENDBRANCH  39  40
ENDBRANCH  32  34
ENDBRANCH  31  32
ENDBRANCH  30  31
ENDBRANCH  29  30
ENDBRANCH  28  29
ENDBRANCH   1  28
TORSDOF 24
