REMARK SMILES CC(C)N(c1cc2c(cc1Cl)C=C(C(=O)OCCOCCOCCOC(=O)c1ccc(-c3c4nc(c(-c5cc(S(=O)(=O)[O-])ccc5F)c5ccc([nH]5)c(-c5cc(S(=O)(=O)[O-])ccc5F)c5nc(c(-c6cc(S(=O)(=O)[O-])ccc6F)c6ccc3[nH]6)C=C5)C=C4)cc1)[C@@H](C(F)(F)F)O2)C(C)C
REMARK SMILES IDX 21 1 20 2 19 3 18 4 17 5 16 6 14 7 15 8 13 9 5 10 6 11 10 12
REMARK SMILES IDX 7 13 9 14 11 15 8 16 96 17 12 18 91 19 4 20 2 21 1 22 3 23
REMARK SMILES IDX 97 24 98 25 99 26 92 27 93 28 94 29 95 30 22 31 23 32 24 33
REMARK SMILES IDX 25 34 26 35 27 36 28 37 29 38 90 39 30 40 89 41 31 42 32 43
REMARK SMILES IDX 33 44 83 45 34 46 88 47 82 48 84 49 35 50 87 51 81 52 80 53
REMARK SMILES IDX 36 55 68 56 48 57 67 58 49 59 52 60 66 61 85 62 50 63 51 64
REMARK SMILES IDX 65 66 86 67 53 68 37 69 38 70 46 71 39 72 45 73 47 74 44 75
REMARK SMILES IDX 40 76 41 77 42 78 43 79 69 80 70 81 78 82 71 83 77 84 79 85
REMARK SMILES IDX 76 86 72 87 73 88 74 89 75 90 54 91 55 92 63 93 56 94 62 95
REMARK SMILES IDX 64 96 61 97 57 98 58 99 59 100 60 101
REMARK H PARENT 84 54 52 65
REMARK Flexibility Score: inf
ROOT
ATOM      1  C   UNL     1      -4.086   7.626   3.349  1.00  0.00     0.188 C 
ENDROOT
BRANCH   1   2
ATOM      2  C   UNL     1      -4.369   8.812   2.401  1.00  0.00     0.188 C 
BRANCH   2   3
ATOM      3  O   UNL     1      -5.391   9.669   2.850  1.00  0.00    -0.376 OA
BRANCH   3   4
ATOM      4  C   UNL     1      -6.721   9.529   2.391  1.00  0.00     0.202 C 
BRANCH   4   5
ATOM      5  C   UNL     1      -7.359   8.208   1.923  1.00  0.00     0.261 C 
BRANCH   5   6
ATOM      6  O   UNL     1      -6.497   7.085   1.740  1.00  0.00    -0.460 OA
BRANCH   6   7
ATOM      7  C   UNL     1      -6.179   6.782   0.461  1.00  0.00     0.338 C 
ATOM      8  O   UNL     1      -6.533   7.385  -0.539  1.00  0.00    -0.246 OA
BRANCH   7   9
ATOM      9  C   UNL     1      -5.232   5.651   0.454  1.00  0.00     0.087 C 
ATOM     10  C   UNL     1      -1.589   2.372  -0.789  1.00  0.00     0.060 A 
ATOM     11  C   UNL     1      -2.672   2.377   0.122  1.00  0.00     0.074 A 
ATOM     12  C   UNL     1      -1.315   3.597  -1.440  1.00  0.00     0.065 A 
ATOM     13  C   UNL     1      -3.493   3.498   0.306  1.00  0.00     0.130 A 
ATOM     14  C   UNL     1      -2.114   4.731  -1.225  1.00  0.00     0.034 A 
ATOM     15  Cl  UNL     1      -0.086   3.802  -2.641  1.00  0.00    -0.082 Cl
ATOM     16  C   UNL     1      -3.225   4.672  -0.386  1.00  0.00     0.019 A 
ATOM     17  O   UNL     1      -4.551   3.346   1.159  1.00  0.00    -0.475 OA
ATOM     18  C   UNL     1      -4.137   5.798  -0.300  1.00  0.00     0.027 C 
ATOM     19  C   UNL     1      -5.530   4.419   1.269  1.00  0.00     0.316 C 
BRANCH  10  20
ATOM     20  N   UNL     1      -0.910   1.155  -1.026  1.00  0.00    -0.365 N 
BRANCH  20  21
ATOM     21  C   UNL     1       0.571   1.146  -0.955  1.00  0.00     0.076 C 
ATOM     22  C   UNL     1       1.099   0.281   0.190  1.00  0.00     0.030 C 
ATOM     23  C   UNL     1       1.250   0.751  -2.266  1.00  0.00     0.030 C 
ENDBRANCH  20  21
BRANCH  20  24
ATOM     24  C   UNL     1      -1.765   0.005  -1.403  1.00  0.00     0.076 C 
ATOM     25  C   UNL     1      -1.597  -0.420  -2.859  1.00  0.00     0.030 C 
ATOM     26  C   UNL     1      -1.631  -1.182  -0.454  1.00  0.00     0.030 C 
ENDBRANCH  20  24
ENDBRANCH  10  20
BRANCH  19  27
ATOM     27  C   UNL     1      -6.923   3.843   0.967  1.00  0.00     0.430 C 
ATOM     28  F   UNL     1      -7.163   2.724   1.694  1.00  0.00    -0.167 F 
ATOM     29  F   UNL     1      -7.909   4.719   1.280  1.00  0.00    -0.167 F 
ATOM     30  F   UNL     1      -7.073   3.517  -0.336  1.00  0.00    -0.167 F 
ENDBRANCH  19  27
ENDBRANCH   7   9
ENDBRANCH   6   7
ENDBRANCH   5   6
ENDBRANCH   4   5
ENDBRANCH   3   4
ENDBRANCH   2   3
ENDBRANCH   1   2
BRANCH   1  31
ATOM     31  O   UNL     1      -4.815   7.511   4.567  1.00  0.00    -0.376 OA
BRANCH  31  32
ATOM     32  C   UNL     1      -4.895   8.640   5.432  1.00  0.00     0.202 C 
BRANCH  32  33
ATOM     33  C   UNL     1      -3.600   9.302   5.922  1.00  0.00     0.261 C 
BRANCH  33  34
ATOM     34  O   UNL     1      -2.744   9.764   4.866  1.00  0.00    -0.460 OA
BRANCH  34  35
ATOM     35  C   UNL     1      -1.534   9.153   4.785  1.00  0.00     0.338 C 
ATOM     36  O   UNL     1      -1.096   8.290   5.526  1.00  0.00    -0.246 OA
BRANCH  35  37
ATOM     37  C   UNL     1      -0.886   9.540   3.515  1.00  0.00     0.060 A 
ATOM     38  C   UNL     1      -0.653  10.879   3.200  1.00  0.00     0.016 A 
ATOM     39  C   UNL     1      -0.505   8.524   2.627  1.00  0.00     0.016 A 
ATOM     40  C   UNL     1      -0.015  11.200   1.997  1.00  0.00     0.010 A 
ATOM     41  C   UNL     1       0.113   8.847   1.419  1.00  0.00     0.010 A 
ATOM     42  C   UNL     1       0.379  10.187   1.104  1.00  0.00    -0.014 A 
BRANCH  42  43
ATOM     43  C   UNL     1       1.224  10.516  -0.070  1.00  0.00     0.031 A 
ATOM     44  C   UNL     1       0.650  10.648  -1.447  1.00  0.00     0.074 A 
ATOM     45  C   UNL     1       2.546  10.669   0.131  1.00  0.00     0.049 A 
ATOM     46  N   UNL     1       1.252  11.012  -2.549  1.00  0.00    -0.248 NA
ATOM     47  C   UNL     1      -0.775  10.329  -1.613  1.00  0.00     0.031 C 
ATOM     48  C   UNL     1       3.210  10.520   1.426  1.00  0.00     0.029 A 
ATOM     49  N   UNL     1       3.564  10.977  -0.736  1.00  0.00    -0.354 N 
ATOM     50  C   UNL     1       0.278  10.994  -3.540  1.00  0.00     0.074 A 
ATOM     51  C   UNL     1      -0.944  10.532  -2.915  1.00  0.00     0.031 C 
ATOM     52  C   UNL     1       4.522  10.747   1.272  1.00  0.00     0.029 A 
ATOM     53  C   UNL     1       4.799  11.036  -0.133  1.00  0.00     0.049 A 
ATOM     54  H   UNL     1       3.424  11.139  -1.696  1.00  0.00     0.167 HD
ATOM     55  C   UNL     1       0.398  11.354  -4.841  1.00  0.00     0.034 A 
ATOM     56  C   UNL     1       6.018  11.299  -0.648  1.00  0.00     0.034 A 
ATOM     57  C   UNL     1       1.634  11.794  -5.444  1.00  0.00     0.049 A 
ATOM     58  C   UNL     1       6.130  11.662  -2.106  1.00  0.00     0.074 A 
ATOM     59  C   UNL     1       1.840  12.239  -6.739  1.00  0.00     0.029 A 
ATOM     60  N   UNL     1       2.869  11.834  -4.811  1.00  0.00    -0.354 N 
ATOM     61  N   UNL     1       5.177  11.770  -3.002  1.00  0.00    -0.248 NA
ATOM     62  C   UNL     1       7.473  11.959  -2.623  1.00  0.00     0.031 C 
ATOM     63  C   UNL     1       3.204  12.473  -6.911  1.00  0.00     0.029 A 
ATOM     64  C   UNL     1       3.845  12.256  -5.701  1.00  0.00     0.049 A 
ATOM     65  H   UNL     1       3.029  11.596  -3.869  1.00  0.00     0.167 HD
ATOM     66  C   UNL     1       5.800  12.174  -4.179  1.00  0.00     0.074 A 
ATOM     67  C   UNL     1       7.210  12.310  -3.876  1.00  0.00     0.031 C 
ATOM     68  C   UNL     1       5.250  12.407  -5.397  1.00  0.00     0.034 A 
BRANCH  55  69
ATOM     69  C   UNL     1      -0.829  11.334  -5.720  1.00  0.00     0.023 A 
ATOM     70  C   UNL     1      -0.873  10.510  -6.861  1.00  0.00     0.031 A 
ATOM     71  C   UNL     1      -1.874  12.254  -5.525  1.00  0.00     0.131 A 
ATOM     72  C   UNL     1      -1.918  10.651  -7.783  1.00  0.00     0.055 A 
ATOM     73  C   UNL     1      -2.934  12.363  -6.426  1.00  0.00     0.041 A 
ATOM     74  F   UNL     1      -1.874  13.070  -4.458  1.00  0.00    -0.206 F 
ATOM     75  C   UNL     1      -2.951  11.570  -7.569  1.00  0.00     0.022 A 
BRANCH  72  76
ATOM     76  S   UNL     1      -1.940   9.710  -9.334  1.00  0.00     0.124 S 
ATOM     77  O   UNL     1      -3.198   8.975  -9.219  1.00  0.00    -0.237 OA
ATOM     78  O   UNL     1      -1.928  10.772 -10.336  1.00  0.00    -0.237 OA
ATOM     79  O   UNL     1      -0.734   8.892  -9.265  1.00  0.00    -0.744 OA
ENDBRANCH  72  76
ENDBRANCH  55  69
BRANCH  56  80
ATOM     80  C   UNL     1       7.197  11.301   0.264  1.00  0.00     0.023 A 
ATOM     81  C   UNL     1       7.582  10.133   0.949  1.00  0.00     0.031 A 
ATOM     82  C   UNL     1       7.873  12.495   0.561  1.00  0.00     0.131 A 
ATOM     83  C   UNL     1       8.563  10.202   1.946  1.00  0.00     0.055 A 
ATOM     84  C   UNL     1       8.900  12.545   1.505  1.00  0.00     0.041 A 
ATOM     85  F   UNL     1       7.529  13.638  -0.054  1.00  0.00    -0.206 F 
ATOM     86  C   UNL     1       9.236  11.397   2.217  1.00  0.00     0.022 A 
BRANCH  83  87
ATOM     87  S   UNL     1       8.897   8.779   3.021  1.00  0.00     0.124 S 
ATOM     88  O   UNL     1      10.311   8.526   2.761  1.00  0.00    -0.237 OA
ATOM     89  O   UNL     1       8.585   9.323   4.341  1.00  0.00    -0.237 OA
ATOM     90  O   UNL     1       7.974   7.757   2.538  1.00  0.00    -0.744 OA
ENDBRANCH  83  87
ENDBRANCH  56  80
BRANCH  68  91
ATOM     91  C   UNL     1       6.148  12.844  -6.532  1.00  0.00     0.023 A 
ATOM     92  C   UNL     1       5.946  14.094  -7.149  1.00  0.00     0.031 A 
ATOM     93  C   UNL     1       7.081  11.963  -7.107  1.00  0.00     0.131 A 
ATOM     94  C   UNL     1       6.626  14.407  -8.333  1.00  0.00     0.055 A 
ATOM     95  C   UNL     1       7.795  12.301  -8.258  1.00  0.00     0.041 A 
ATOM     96  F   UNL     1       7.305  10.757  -6.562  1.00  0.00    -0.206 F 
ATOM     97  C   UNL     1       7.556  13.521  -8.886  1.00  0.00     0.022 A 
BRANCH  94  98
ATOM     98  S   UNL     1       6.262  15.930  -9.249  1.00  0.00     0.124 S 
ATOM     99  O   UNL     1       7.569  16.584  -9.281  1.00  0.00    -0.237 OA
ATOM    100  O   UNL     1       5.793  15.413 -10.532  1.00  0.00    -0.237 OA
ATOM    101  O   UNL     1       5.253  16.599  -8.435  1.00  0.00    -0.744 OA
ENDBRANCH  94  98
ENDBRANCH  68  91
ENDBRANCH  42  43
ENDBRANCH  35  37
ENDBRANCH  34  35
ENDBRANCH  33  34
ENDBRANCH  32  33
ENDBRANCH  31  32
ENDBRANCH   1  31
TORSDOF 24
