REMARK SMILES O=C(Cc1cccn1-c1ccc2c(c1)OCCO2)OCCOCCOCCOC(=O)c1ccc(-c2c3nc(c(-c4cc(S(=O)(=O)[O-])ccc4F)c4ccc([nH]4)c(-c4cc(S(=O)(=O)[O-])ccc4F)c4nc(c(-c5cc(S(=O)(=O)[O-])ccc5F)c5ccc2[nH]5)C=C4)C=C3)cc1
REMARK SMILES IDX 24 1 23 2 22 3 21 4 20 5 19 6 2 7 1 8 3 9 4 10 5 11 8 12
REMARK SMILES IDX 6 13 7 14 9 15 10 16 14 17 11 18 13 19 12 20 15 21 18 22
REMARK SMILES IDX 16 23 17 24 25 25 26 26 27 27 28 28 29 29 30 30 31 31 32 32
REMARK SMILES IDX 93 33 33 34 92 35 34 36 35 37 36 38 86 39 37 40 91 41 85 42
REMARK SMILES IDX 87 43 38 44 90 45 84 46 83 47 39 49 71 50 51 51 70 52 52 53
REMARK SMILES IDX 55 54 69 55 88 56 53 57 54 58 68 60 89 61 56 62 40 63 41 64
REMARK SMILES IDX 49 65 42 66 48 67 50 68 47 69 43 70 44 71 45 72 46 73 72 74
REMARK SMILES IDX 73 75 81 76 74 77 80 78 82 79 79 80 75 81 76 82 77 83 78 84
REMARK SMILES IDX 57 85 58 86 66 87 59 88 65 89 67 90 64 91 60 92 61 93 62 94
REMARK SMILES IDX 63 95
REMARK H PARENT 87 48 55 59
REMARK Flexibility Score: inf
ROOT
ATOM      1  C   UNL     1       2.357   2.679   0.869  1.00  0.00     0.188 C 
ENDROOT
BRANCH   1   2
ATOM      2  C   UNL     1       3.133   1.522   1.529  1.00  0.00     0.188 C 
BRANCH   2   3
ATOM      3  O   UNL     1       4.532   1.504   1.327  1.00  0.00    -0.376 OA
BRANCH   3   4
ATOM      4  C   UNL     1       5.079   0.775   0.241  1.00  0.00     0.202 C 
BRANCH   4   5
ATOM      5  C   UNL     1       4.322   0.763  -1.090  1.00  0.00     0.261 C 
BRANCH   5   6
ATOM      6  O   UNL     1       2.946   0.334  -1.065  1.00  0.00    -0.463 OA
BRANCH   6   7
ATOM      7  C   UNL     1       2.578  -0.968  -1.028  1.00  0.00     0.311 C 
ATOM      8  O   UNL     1       1.700  -1.394  -1.774  1.00  0.00    -0.252 OA
BRANCH   7   9
ATOM      9  C   UNL     1       3.139  -1.795   0.101  1.00  0.00     0.177 C 
BRANCH   9  10
ATOM     10  C   UNL     1       3.952  -2.942  -0.402  1.00  0.00     0.034 A 
ATOM     11  C   UNL     1       5.140  -2.901  -1.115  1.00  0.00     0.024 A 
ATOM     12  N   UNL     1       3.707  -4.265  -0.059  1.00  0.00    -0.320 N 
ATOM     13  C   UNL     1       5.651  -4.211  -1.186  1.00  0.00     0.020 A 
ATOM     14  C   UNL     1       4.774  -5.021  -0.504  1.00  0.00     0.091 A 
BRANCH  12  15
ATOM     15  C   UNL     1       2.630  -4.764   0.718  1.00  0.00     0.049 A 
ATOM     16  C   UNL     1       2.902  -5.652   1.766  1.00  0.00     0.031 A 
ATOM     17  C   UNL     1       1.322  -4.319   0.489  1.00  0.00     0.077 A 
ATOM     18  C   UNL     1       1.870  -6.049   2.619  1.00  0.00     0.052 A 
ATOM     19  C   UNL     1       0.302  -4.710   1.352  1.00  0.00     0.163 A 
ATOM     20  C   UNL     1       0.573  -5.584   2.409  1.00  0.00     0.161 A 
ATOM     21  O   UNL     1      -0.943  -4.189   1.107  1.00  0.00    -0.486 OA
ATOM     22  O   UNL     1      -0.386  -6.018   3.288  1.00  0.00    -0.486 OA
ATOM     23  C   UNL     1      -1.805  -4.346   2.239  1.00  0.00     0.271 C 
ATOM     24  C   UNL     1      -1.704  -5.758   2.791  1.00  0.00     0.271 C 
ENDBRANCH  12  15
ENDBRANCH   9  10
ENDBRANCH   7   9
ENDBRANCH   6   7
ENDBRANCH   5   6
ENDBRANCH   4   5
ENDBRANCH   3   4
ENDBRANCH   2   3
ENDBRANCH   1   2
BRANCH   1  25
ATOM     25  O   UNL     1       2.987   3.742   0.165  1.00  0.00    -0.376 OA
BRANCH  25  26
ATOM     26  C   UNL     1       4.317   4.165   0.413  1.00  0.00     0.202 C 
BRANCH  26  27
ATOM     27  C   UNL     1       4.692   4.777   1.757  1.00  0.00     0.261 C 
BRANCH  27  28
ATOM     28  O   UNL     1       4.518   3.895   2.855  1.00  0.00    -0.460 OA
BRANCH  28  29
ATOM     29  C   UNL     1       3.338   4.065   3.471  1.00  0.00     0.338 C 
ATOM     30  O   UNL     1       2.382   4.730   3.076  1.00  0.00    -0.246 OA
BRANCH  29  31
ATOM     31  C   UNL     1       3.350   3.453   4.794  1.00  0.00     0.060 A 
ATOM     32  C   UNL     1       2.096   3.305   5.395  1.00  0.00     0.016 A 
ATOM     33  C   UNL     1       4.540   3.516   5.528  1.00  0.00     0.016 A 
ATOM     34  C   UNL     1       2.004   3.506   6.749  1.00  0.00     0.010 A 
ATOM     35  C   UNL     1       4.441   3.759   6.878  1.00  0.00     0.010 A 
ATOM     36  C   UNL     1       3.167   3.837   7.453  1.00  0.00    -0.014 A 
BRANCH  36  37
ATOM     37  C   UNL     1       3.014   4.244   8.850  1.00  0.00     0.031 A 
ATOM     38  C   UNL     1       3.016   3.025   9.762  1.00  0.00     0.074 A 
ATOM     39  C   UNL     1       2.833   5.585   9.061  1.00  0.00     0.049 A 
ATOM     40  N   UNL     1       2.396   2.828  10.882  1.00  0.00    -0.248 NA
ATOM     41  C   UNL     1       3.702   1.783   9.300  1.00  0.00     0.031 C 
ATOM     42  C   UNL     1       2.825   6.625   7.999  1.00  0.00     0.029 A 
ATOM     43  N   UNL     1       2.614   6.352  10.184  1.00  0.00    -0.354 N 
ATOM     44  C   UNL     1       2.840   1.585  11.376  1.00  0.00     0.074 A 
ATOM     45  C   UNL     1       3.470   0.916  10.283  1.00  0.00     0.031 C 
ATOM     46  C   UNL     1       2.552   7.846   8.513  1.00  0.00     0.029 A 
ATOM     47  C   UNL     1       2.388   7.737   9.950  1.00  0.00     0.049 A 
ATOM     48  H   UNL     1       2.613   5.966  11.090  1.00  0.00     0.167 HD
ATOM     49  C   UNL     1       2.840   1.273  12.703  1.00  0.00     0.034 A 
ATOM     50  C   UNL     1       2.066   8.721  10.847  1.00  0.00     0.034 A 
ATOM     51  C   UNL     1       2.271   2.346  13.453  1.00  0.00     0.049 A 
ATOM     52  C   UNL     1       2.144   8.065  12.163  1.00  0.00     0.074 A 
ATOM     53  C   UNL     1       1.003   2.851  13.563  1.00  0.00     0.029 A 
ATOM     54  N   UNL     1       3.153   3.242  14.015  1.00  0.00    -0.354 N 
ATOM     55  N   UNL     1       3.246   7.731  12.761  1.00  0.00    -0.248 NA
ATOM     56  C   UNL     1       0.897   7.692  12.841  1.00  0.00     0.031 C 
ATOM     57  C   UNL     1       1.205   4.228  13.797  1.00  0.00     0.029 A 
ATOM     58  C   UNL     1       2.575   4.484  13.940  1.00  0.00     0.049 A 
ATOM     59  H   UNL     1       4.034   3.031  14.400  1.00  0.00     0.167 HD
ATOM     60  C   UNL     1       2.817   6.841  13.713  1.00  0.00     0.074 A 
ATOM     61  C   UNL     1       1.411   7.110  13.921  1.00  0.00     0.031 C 
ATOM     62  C   UNL     1       3.445   5.643  13.836  1.00  0.00     0.034 A 
BRANCH  49  63
ATOM     63  C   UNL     1       3.554   0.196  13.478  1.00  0.00     0.023 A 
ATOM     64  C   UNL     1       3.198   0.092  14.844  1.00  0.00     0.031 A 
ATOM     65  C   UNL     1       4.715  -0.488  13.088  1.00  0.00     0.131 A 
ATOM     66  C   UNL     1       4.041  -0.517  15.778  1.00  0.00     0.055 A 
ATOM     67  C   UNL     1       5.515  -1.175  14.013  1.00  0.00     0.041 A 
ATOM     68  F   UNL     1       5.176  -0.454  11.832  1.00  0.00    -0.206 F 
ATOM     69  C   UNL     1       5.205  -1.156  15.370  1.00  0.00     0.022 A 
BRANCH  66  70
ATOM     70  S   UNL     1       3.678  -0.263  17.537  1.00  0.00     0.124 S 
ATOM     71  O   UNL     1       3.563   1.188  17.620  1.00  0.00    -0.237 OA
ATOM     72  O   UNL     1       2.436  -1.013  17.699  1.00  0.00    -0.237 OA
ATOM     73  O   UNL     1       4.843  -0.836  18.207  1.00  0.00    -0.744 OA
ENDBRANCH  66  70
ENDBRANCH  49  63
BRANCH  50  74
ATOM     74  C   UNL     1       1.639  10.181  10.863  1.00  0.00     0.023 A 
ATOM     75  C   UNL     1       1.562  11.045   9.757  1.00  0.00     0.031 A 
ATOM     76  C   UNL     1       1.214  10.766  12.101  1.00  0.00     0.131 A 
ATOM     77  C   UNL     1       1.035  12.361   9.907  1.00  0.00     0.055 A 
ATOM     78  C   UNL     1       0.630  12.025  12.227  1.00  0.00     0.041 A 
ATOM     79  F   UNL     1       1.340  10.132  13.274  1.00  0.00    -0.206 F 
ATOM     80  C   UNL     1       0.526  12.831  11.121  1.00  0.00     0.022 A 
BRANCH  77  81
ATOM     81  S   UNL     1       0.970  13.534   8.520  1.00  0.00     0.124 S 
ATOM     82  O   UNL     1       2.170  14.334   8.746  1.00  0.00    -0.237 OA
ATOM     83  O   UNL     1       0.989  12.668   7.347  1.00  0.00    -0.237 OA
ATOM     84  O   UNL     1      -0.294  14.236   8.748  1.00  0.00    -0.744 OA
ENDBRANCH  77  81
ENDBRANCH  50  74
BRANCH  62  85
ATOM     85  C   UNL     1       4.900   5.648  13.366  1.00  0.00     0.023 A 
ATOM     86  C   UNL     1       5.836   6.540  13.927  1.00  0.00     0.031 A 
ATOM     87  C   UNL     1       5.363   4.879  12.283  1.00  0.00     0.131 A 
ATOM     88  C   UNL     1       7.138   6.655  13.394  1.00  0.00     0.055 A 
ATOM     89  C   UNL     1       6.655   4.983  11.755  1.00  0.00     0.041 A 
ATOM     90  F   UNL     1       4.567   3.998  11.683  1.00  0.00    -0.206 F 
ATOM     91  C   UNL     1       7.551   5.882  12.308  1.00  0.00     0.022 A 
BRANCH  88  92
ATOM     92  S   UNL     1       8.316   7.813  14.146  1.00  0.00     0.124 S 
ATOM     93  O   UNL     1       7.783   9.113  13.753  1.00  0.00    -0.237 OA
ATOM     94  O   UNL     1       8.222   7.485  15.565  1.00  0.00    -0.237 OA
ATOM     95  O   UNL     1       9.591   7.457  13.522  1.00  0.00    -0.744 OA
ENDBRANCH  88  92
ENDBRANCH  62  85
ENDBRANCH  36  37
ENDBRANCH  29  31
ENDBRANCH  28  29
ENDBRANCH  27  28
ENDBRANCH  26  27
ENDBRANCH  25  26
ENDBRANCH   1  25
TORSDOF 22
