REMARK SMILES COc1ccccc1C[N@@H+](C)[C@@H](C)c1ccc(C(=O)OCCOCCOCCOC(=O)c2ccc(-c3c4nc(c(-c5cc(S(=O)(=O)[O-])ccc5F)c5ccc([nH]5)c(-c5cc(S(=O)(=O)[O-])ccc5F)c5nc(c(-c6cc(S(=O)(=O)[O-])ccc6F)c6ccc3[nH]6)C=C5)C=C4)cc2)o1
REMARK SMILES IDX 24 1 23 2 22 3 21 4 20 5 18 6 19 7 17 8 14 9 15 10 95 11
REMARK SMILES IDX 16 12 12 13 13 14 10 15 11 16 9 18 8 19 3 20 4 21 5 22 7 23
REMARK SMILES IDX 6 24 2 25 1 26 25 27 26 28 27 29 28 30 29 31 30 32 31 33
REMARK SMILES IDX 32 34 33 35 94 36 34 37 93 38 35 39 36 40 37 41 87 42 38 43
REMARK SMILES IDX 92 44 86 45 88 46 39 47 91 48 85 49 84 50 40 52 72 53 52 54
REMARK SMILES IDX 71 55 53 56 56 57 70 58 89 59 54 60 55 61 69 63 90 64 57 65
REMARK SMILES IDX 41 66 42 67 50 68 43 69 49 70 51 71 48 72 44 73 45 74 46 75
REMARK SMILES IDX 47 76 73 77 74 78 82 79 75 80 81 81 83 82 80 83 76 84 77 85
REMARK SMILES IDX 78 86 79 87 58 88 59 89 67 90 60 91 66 92 68 93 65 94 61 95
REMARK SMILES IDX 62 96 63 97 64 98
REMARK H PARENT 10 17 88 51 56 62
REMARK Flexibility Score: inf
ROOT
ATOM      1  C   UNL     1      -0.364  -0.836   7.458  1.00  0.00     0.188 C 
ENDROOT
BRANCH   1   2
ATOM      2  O   UNL     1      -1.675  -1.220   7.854  1.00  0.00    -0.376 OA
BRANCH   2   3
ATOM      3  C   UNL     1      -2.203  -2.465   7.408  1.00  0.00     0.202 C 
BRANCH   3   4
ATOM      4  C   UNL     1      -2.211  -2.749   5.904  1.00  0.00     0.261 C 
BRANCH   4   5
ATOM      5  O   UNL     1      -0.884  -2.981   5.405  1.00  0.00    -0.457 OA
BRANCH   5   6
ATOM      6  C   UNL     1      -0.495  -2.174   4.373  1.00  0.00     0.374 C 
ATOM      7  O   UNL     1      -1.255  -1.424   3.770  1.00  0.00    -0.242 OA
BRANCH   6   8
ATOM      8  C   UNL     1       0.936  -2.261   4.199  1.00  0.00     0.212 A 
ATOM      9  C   UNL     1       2.887  -1.494   3.511  1.00  0.00     0.162 A 
ATOM     10  C   UNL     1       3.145  -2.688   4.154  1.00  0.00     0.053 A 
ATOM     11  O   UNL     1       1.558  -1.209   3.589  1.00  0.00    -0.448 OA
ATOM     12  C   UNL     1       1.890  -3.193   4.573  1.00  0.00     0.059 A 
BRANCH   9  13
ATOM     13  C   UNL     1       3.752  -0.549   2.724  1.00  0.00     0.248 C 
ATOM     14  C   UNL     1       3.092   0.824   2.517  1.00  0.00     0.084 C 
BRANCH  13  15
ATOM     15  N   UNL     1       4.280  -1.217   1.500  1.00  0.00    -0.325 N 
ATOM     16  C   UNL     1       5.447  -0.490   0.989  1.00  0.00     0.333 C 
ATOM     17  H   UNL     1       4.529  -2.160   1.800  1.00  0.00     0.348 HD
BRANCH  15  18
ATOM     18  C   UNL     1       3.296  -1.371   0.404  1.00  0.00     0.303 C 
BRANCH  18  19
ATOM     19  C   UNL     1       2.174  -2.361   0.642  1.00  0.00     0.048 A 
ATOM     20  C   UNL     1       0.825  -1.976   0.686  1.00  0.00     0.127 A 
ATOM     21  C   UNL     1      -0.178  -2.902   0.991  1.00  0.00     0.047 A 
ATOM     22  C   UNL     1       0.147  -4.235   1.239  1.00  0.00     0.004 A 
ATOM     23  C   UNL     1       2.480  -3.717   0.867  1.00  0.00     0.013 A 
ATOM     24  C   UNL     1       1.477  -4.643   1.173  1.00  0.00     0.001 A 
BRANCH  20  25
ATOM     25  O   UNL     1       0.445  -0.663   0.627  1.00  0.00    -0.496 OA
ATOM     26  C   UNL     1       0.316  -0.185  -0.707  1.00  0.00     0.278 C 
ENDBRANCH  20  25
ENDBRANCH  18  19
ENDBRANCH  15  18
ENDBRANCH  13  15
ENDBRANCH   9  13
ENDBRANCH   6   8
ENDBRANCH   5   6
ENDBRANCH   4   5
ENDBRANCH   3   4
ENDBRANCH   2   3
ENDBRANCH   1   2
BRANCH   1  27
ATOM     27  C   UNL     1       0.804  -1.805   7.710  1.00  0.00     0.188 C 
BRANCH  27  28
ATOM     28  O   UNL     1       0.526  -3.012   8.373  1.00  0.00    -0.376 OA
BRANCH  28  29
ATOM     29  C   UNL     1       0.452  -3.079   9.783  1.00  0.00     0.202 C 
BRANCH  29  30
ATOM     30  C   UNL     1       0.648  -1.914  10.771  1.00  0.00     0.261 C 
BRANCH  30  31
ATOM     31  O   UNL     1       0.840  -0.602  10.252  1.00  0.00    -0.460 OA
BRANCH  31  32
ATOM     32  C   UNL     1       2.130  -0.189  10.167  1.00  0.00     0.338 C 
ATOM     33  O   UNL     1       3.126  -0.837  10.432  1.00  0.00    -0.246 OA
BRANCH  32  34
ATOM     34  C   UNL     1       2.140   1.134   9.511  1.00  0.00     0.060 A 
ATOM     35  C   UNL     1       2.830   1.286   8.302  1.00  0.00     0.016 A 
ATOM     36  C   UNL     1       1.483   2.216  10.099  1.00  0.00     0.016 A 
ATOM     37  C   UNL     1       2.893   2.538   7.689  1.00  0.00     0.010 A 
ATOM     38  C   UNL     1       1.567   3.473   9.497  1.00  0.00     0.010 A 
ATOM     39  C   UNL     1       2.299   3.646   8.308  1.00  0.00    -0.014 A 
BRANCH  39  40
ATOM     40  C   UNL     1       2.618   5.020   7.852  1.00  0.00     0.031 A 
ATOM     41  C   UNL     1       3.740   5.745   8.542  1.00  0.00     0.074 A 
ATOM     42  C   UNL     1       1.916   5.620   6.876  1.00  0.00     0.049 A 
ATOM     43  N   UNL     1       4.123   6.990   8.430  1.00  0.00    -0.248 NA
ATOM     44  C   UNL     1       4.531   4.953   9.498  1.00  0.00     0.031 C 
ATOM     45  C   UNL     1       0.845   5.001   6.099  1.00  0.00     0.029 A 
ATOM     46  N   UNL     1       1.991   6.901   6.388  1.00  0.00    -0.354 N 
ATOM     47  C   UNL     1       5.193   7.135   9.307  1.00  0.00     0.074 A 
ATOM     48  C   UNL     1       5.378   5.857   9.962  1.00  0.00     0.031 C 
ATOM     49  C   UNL     1       0.343   5.914   5.248  1.00  0.00     0.029 A 
ATOM     50  C   UNL     1       1.027   7.190   5.451  1.00  0.00     0.049 A 
ATOM     51  H   UNL     1       2.670   7.551   6.681  1.00  0.00     0.167 HD
ATOM     52  C   UNL     1       5.952   8.232   9.543  1.00  0.00     0.034 A 
ATOM     53  C   UNL     1       0.713   8.361   4.858  1.00  0.00     0.034 A 
ATOM     54  C   UNL     1       5.738   9.505   8.902  1.00  0.00     0.049 A 
ATOM     55  C   UNL     1       1.508   9.598   5.208  1.00  0.00     0.074 A 
ATOM     56  C   UNL     1       6.440  10.686   9.069  1.00  0.00     0.029 A 
ATOM     57  N   UNL     1       4.733   9.768   7.979  1.00  0.00    -0.354 N 
ATOM     58  N   UNL     1       2.513   9.729   6.044  1.00  0.00    -0.248 NA
ATOM     59  C   UNL     1       1.124  10.846   4.533  1.00  0.00     0.031 C 
ATOM     60  C   UNL     1       5.822  11.676   8.298  1.00  0.00     0.029 A 
ATOM     61  C   UNL     1       4.780  11.098   7.590  1.00  0.00     0.049 A 
ATOM     62  H   UNL     1       4.083   9.107   7.649  1.00  0.00     0.167 HD
ATOM     63  C   UNL     1       2.902  11.065   5.966  1.00  0.00     0.074 A 
ATOM     64  C   UNL     1       2.027  11.696   5.000  1.00  0.00     0.031 C 
ATOM     65  C   UNL     1       3.897  11.712   6.626  1.00  0.00     0.034 A 
BRANCH  52  66
ATOM     66  C   UNL     1       7.035   8.105  10.585  1.00  0.00     0.023 A 
ATOM     67  C   UNL     1       8.133   7.244  10.408  1.00  0.00     0.031 A 
ATOM     68  C   UNL     1       6.942   8.816  11.794  1.00  0.00     0.131 A 
ATOM     69  C   UNL     1       9.051   7.059  11.452  1.00  0.00     0.055 A 
ATOM     70  C   UNL     1       7.902   8.686  12.799  1.00  0.00     0.041 A 
ATOM     71  F   UNL     1       5.903   9.632  12.029  1.00  0.00    -0.206 F 
ATOM     72  C   UNL     1       8.957   7.792  12.637  1.00  0.00     0.022 A 
BRANCH  69  73
ATOM     73  S   UNL     1      10.287   5.740  11.296  1.00  0.00     0.124 S 
ATOM     74  O   UNL     1       9.442   4.560  11.132  1.00  0.00    -0.237 OA
ATOM     75  O   UNL     1      11.043   6.153  10.120  1.00  0.00    -0.237 OA
ATOM     76  O   UNL     1      11.017   5.803  12.561  1.00  0.00    -0.744 OA
ENDBRANCH  69  73
ENDBRANCH  52  66
BRANCH  53  77
ATOM     77  C   UNL     1      -0.438   8.448   3.913  1.00  0.00     0.023 A 
ATOM     78  C   UNL     1      -0.246   8.781   2.563  1.00  0.00     0.031 A 
ATOM     79  C   UNL     1      -1.756   8.264   4.366  1.00  0.00     0.131 A 
ATOM     80  C   UNL     1      -1.356   8.967   1.724  1.00  0.00     0.055 A 
ATOM     81  C   UNL     1      -2.855   8.399   3.515  1.00  0.00     0.041 A 
ATOM     82  F   UNL     1      -1.996   7.950   5.649  1.00  0.00    -0.206 F 
ATOM     83  C   UNL     1      -2.658   8.767   2.188  1.00  0.00     0.022 A 
BRANCH  80  84
ATOM     84  S   UNL     1      -1.077   9.562   0.033  1.00  0.00     0.124 S 
ATOM     85  O   UNL     1      -0.398  10.831   0.273  1.00  0.00    -0.237 OA
ATOM     86  O   UNL     1      -0.259   8.495  -0.534  1.00  0.00    -0.237 OA
ATOM     87  O   UNL     1      -2.426   9.670  -0.518  1.00  0.00    -0.744 OA
ENDBRANCH  80  84
ENDBRANCH  53  77
BRANCH  65  88
ATOM     88  C   UNL     1       4.132  13.161   6.274  1.00  0.00     0.023 A 
ATOM     89  C   UNL     1       3.208  14.167   6.605  1.00  0.00     0.031 A 
ATOM     90  C   UNL     1       5.307  13.536   5.598  1.00  0.00     0.131 A 
ATOM     91  C   UNL     1       3.453  15.494   6.217  1.00  0.00     0.055 A 
ATOM     92  C   UNL     1       5.570  14.864   5.263  1.00  0.00     0.041 A 
ATOM     93  F   UNL     1       6.223  12.615   5.258  1.00  0.00    -0.206 F 
ATOM     94  C   UNL     1       4.635  15.851   5.562  1.00  0.00     0.022 A 
BRANCH  91  95
ATOM     95  S   UNL     1       2.170  16.742   6.511  1.00  0.00     0.124 S 
ATOM     96  O   UNL     1       1.038  16.195   5.770  1.00  0.00    -0.237 OA
ATOM     97  O   UNL     1       2.047  16.728   7.965  1.00  0.00    -0.237 OA
ATOM     98  O   UNL     1       2.744  17.964   5.951  1.00  0.00    -0.744 OA
ENDBRANCH  91  95
ENDBRANCH  65  88
ENDBRANCH  39  40
ENDBRANCH  32  34
ENDBRANCH  31  32
ENDBRANCH  30  31
ENDBRANCH  29  30
ENDBRANCH  28  29
ENDBRANCH  27  28
ENDBRANCH   1  27
TORSDOF 25
