REMARK SMILES O=C(OCCOCCOCCOC(=O)[C@@H]1CCCCC[C@H]1NC(=O)N1CCS(=O)(=O)CC1)c1ccc(-c2c3nc(c(-c4cc(S(=O)(=O)[O-])ccc4F)c4ccc([nH]4)c(-c4cc(S(=O)(=O)[O-])ccc4F)c4nc(c(-c5cc(S(=O)(=O)[O-])ccc5F)c5ccc2[nH]5)C=C4)C=C3)cc1
REMARK SMILES IDX 7 1 6 2 5 3 4 4 3 5 2 6 1 7 33 8 34 9 95 10 35 11 94 12
REMARK SMILES IDX 36 13 37 14 38 15 88 16 39 17 93 18 87 19 89 20 40 21 92 22
REMARK SMILES IDX 86 23 85 24 41 26 73 27 53 28 72 29 54 30 57 31 71 32 90 33
REMARK SMILES IDX 55 34 56 35 70 37 91 38 58 39 42 40 43 41 51 42 44 43 50 44
REMARK SMILES IDX 52 45 49 46 45 47 46 48 47 49 48 50 74 51 75 52 83 53 76 54
REMARK SMILES IDX 82 55 84 56 81 57 77 58 78 59 79 60 80 61 59 62 60 63 68 64
REMARK SMILES IDX 61 65 67 66 69 67 66 68 62 69 63 70 64 71 65 72 8 73 9 74
REMARK SMILES IDX 10 75 11 76 12 77 13 78 14 79 15 80 16 81 17 82 18 83 21 85
REMARK SMILES IDX 20 86 19 87 22 89 23 90 24 92 25 93 26 94 32 95 27 96 31 97
REMARK SMILES IDX 28 98 29 99 30 100
REMARK H PARENT 89 25 57 36 22 91
REMARK Flexibility Score: 90.00
ROOT
ATOM      1  C   UNL     1       2.324   0.045   1.654  1.00  0.00     0.188 C 
ENDROOT
BRANCH   1   2
ATOM      2  O   UNL     1       3.555  -0.471   1.141  1.00  0.00    -0.376 OA
BRANCH   2   3
ATOM      3  C   UNL     1       4.415   0.527   0.592  1.00  0.00     0.202 C 
BRANCH   3   4
ATOM      4  C   UNL     1       3.932   1.238  -0.694  1.00  0.00     0.261 C 
BRANCH   4   5
ATOM      5  O   UNL     1       2.532   1.042  -0.999  1.00  0.00    -0.460 OA
BRANCH   5   6
ATOM      6  C   UNL     1       1.984   0.425  -2.082  1.00  0.00     0.338 C 
ATOM      7  O   UNL     1       0.913   0.840  -2.521  1.00  0.00    -0.246 OA
BRANCH   6   8
ATOM      8  C   UNL     1       2.563  -0.820  -2.683  1.00  0.00     0.060 A 
ATOM      9  C   UNL     1       3.694  -1.427  -2.190  1.00  0.00     0.016 A 
ATOM     10  C   UNL     1       1.923  -1.467  -3.766  1.00  0.00     0.016 A 
ATOM     11  C   UNL     1       4.193  -2.585  -2.776  1.00  0.00     0.010 A 
ATOM     12  C   UNL     1       2.406  -2.691  -4.311  1.00  0.00     0.010 A 
ATOM     13  C   UNL     1       3.563  -3.278  -3.801  1.00  0.00    -0.014 A 
BRANCH  13  14
ATOM     14  C   UNL     1       4.291  -4.492  -4.303  1.00  0.00     0.031 A 
ATOM     15  C   UNL     1       5.389  -4.292  -5.306  1.00  0.00     0.074 A 
ATOM     16  C   UNL     1       4.268  -5.681  -3.653  1.00  0.00     0.049 A 
ATOM     17  N   UNL     1       6.260  -5.155  -5.760  1.00  0.00    -0.248 NA
ATOM     18  C   UNL     1       5.575  -2.920  -5.801  1.00  0.00     0.031 C 
ATOM     19  C   UNL     1       3.474  -5.938  -2.461  1.00  0.00     0.029 A 
ATOM     20  N   UNL     1       4.991  -6.852  -3.821  1.00  0.00    -0.354 N 
ATOM     21  C   UNL     1       7.067  -4.446  -6.635  1.00  0.00     0.074 A 
ATOM     22  C   UNL     1       6.634  -3.064  -6.583  1.00  0.00     0.031 C 
ATOM     23  C   UNL     1       3.806  -7.146  -1.974  1.00  0.00     0.029 A 
ATOM     24  C   UNL     1       4.766  -7.809  -2.845  1.00  0.00     0.049 A 
ATOM     25  H   UNL     1       5.613  -6.992  -4.571  1.00  0.00     0.167 HD
ATOM     26  C   UNL     1       8.034  -4.914  -7.458  1.00  0.00     0.034 A 
ATOM     27  C   UNL     1       5.237  -9.071  -2.658  1.00  0.00     0.034 A 
ATOM     28  C   UNL     1       8.439  -6.293  -7.548  1.00  0.00     0.049 A 
ATOM     29  C   UNL     1       6.199  -9.615  -3.691  1.00  0.00     0.074 A 
ATOM     30  C   UNL     1       9.280  -6.880  -8.478  1.00  0.00     0.029 A 
ATOM     31  N   UNL     1       8.027  -7.306  -6.694  1.00  0.00    -0.354 N 
ATOM     32  N   UNL     1       6.845  -8.964  -4.630  1.00  0.00    -0.248 NA
ATOM     33  C   UNL     1       6.465 -11.062  -3.673  1.00  0.00     0.031 C 
ATOM     34  C   UNL     1       9.304  -8.260  -8.242  1.00  0.00     0.029 A 
ATOM     35  C   UNL     1       8.540  -8.524  -7.119  1.00  0.00     0.049 A 
ATOM     36  H   UNL     1       7.455  -7.180  -5.903  1.00  0.00     0.167 HD
ATOM     37  C   UNL     1       7.560  -9.928  -5.334  1.00  0.00     0.074 A 
ATOM     38  C   UNL     1       7.345 -11.188  -4.656  1.00  0.00     0.031 C 
ATOM     39  C   UNL     1       8.290  -9.788  -6.470  1.00  0.00     0.034 A 
BRANCH  26  40
ATOM     40  C   UNL     1       8.538  -3.944  -8.487  1.00  0.00     0.023 A 
ATOM     41  C   UNL     1       9.425  -2.900  -8.187  1.00  0.00     0.031 A 
ATOM     42  C   UNL     1       8.034  -4.045  -9.797  1.00  0.00     0.131 A 
ATOM     43  C   UNL     1       9.749  -1.969  -9.186  1.00  0.00     0.055 A 
ATOM     44  C   UNL     1       8.409  -3.155 -10.798  1.00  0.00     0.041 A 
ATOM     45  F   UNL     1       7.146  -5.001 -10.112  1.00  0.00    -0.206 F 
ATOM     46  C   UNL     1       9.267  -2.104 -10.492  1.00  0.00     0.022 A 
BRANCH  43  47
ATOM     47  S   UNL     1      10.719  -0.504  -8.735  1.00  0.00     0.124 S 
ATOM     48  O   UNL     1       9.828   0.155  -7.783  1.00  0.00    -0.237 OA
ATOM     49  O   UNL     1      11.932  -1.089  -8.176  1.00  0.00    -0.237 OA
ATOM     50  O   UNL     1      10.892   0.196 -10.006  1.00  0.00    -0.744 OA
ENDBRANCH  43  47
ENDBRANCH  26  40
BRANCH  27  51
ATOM     51  C   UNL     1       4.753  -9.967  -1.533  1.00  0.00     0.023 A 
ATOM     52  C   UNL     1       5.633 -10.710  -0.715  1.00  0.00     0.031 A 
ATOM     53  C   UNL     1       3.375 -10.173  -1.316  1.00  0.00     0.131 A 
ATOM     54  C   UNL     1       5.128 -11.609   0.252  1.00  0.00     0.055 A 
ATOM     55  C   UNL     1       2.881 -10.999  -0.303  1.00  0.00     0.041 A 
ATOM     56  F   UNL     1       2.462  -9.566  -2.091  1.00  0.00    -0.206 F 
ATOM     57  C   UNL     1       3.758 -11.732   0.481  1.00  0.00     0.022 A 
BRANCH  54  58
ATOM     58  S   UNL     1       6.266 -12.726   1.132  1.00  0.00     0.124 S 
ATOM     59  O   UNL     1       7.037 -13.300   0.036  1.00  0.00    -0.237 OA
ATOM     60  O   UNL     1       6.978 -11.800   2.006  1.00  0.00    -0.237 OA
ATOM     61  O   UNL     1       5.368 -13.657   1.814  1.00  0.00    -0.744 OA
ENDBRANCH  54  58
ENDBRANCH  27  51
BRANCH  39  62
ATOM     62  C   UNL     1       8.845 -11.051  -7.079  1.00  0.00     0.023 A 
ATOM     63  C   UNL     1       7.978 -12.044  -7.573  1.00  0.00     0.031 A 
ATOM     64  C   UNL     1      10.226 -11.293  -7.140  1.00  0.00     0.131 A 
ATOM     65  C   UNL     1       8.494 -13.264  -8.030  1.00  0.00     0.055 A 
ATOM     66  C   UNL     1      10.739 -12.485  -7.660  1.00  0.00     0.041 A 
ATOM     67  F   UNL     1      11.102 -10.382  -6.687  1.00  0.00    -0.206 F 
ATOM     68  C   UNL     1       9.871 -13.485  -8.092  1.00  0.00     0.022 A 
BRANCH  65  69
ATOM     69  S   UNL     1       7.332 -14.595  -8.437  1.00  0.00     0.124 S 
ATOM     70  O   UNL     1       6.678 -14.825  -7.153  1.00  0.00    -0.237 OA
ATOM     71  O   UNL     1       6.505 -13.985  -9.473  1.00  0.00    -0.237 OA
ATOM     72  O   UNL     1       8.199 -15.678  -8.896  1.00  0.00    -0.744 OA
ENDBRANCH  65  69
ENDBRANCH  39  62
ENDBRANCH  13  14
ENDBRANCH   6   8
ENDBRANCH   5   6
ENDBRANCH   4   5
ENDBRANCH   3   4
ENDBRANCH   2   3
ENDBRANCH   1   2
BRANCH   1  73
ATOM     73  C   UNL     1       1.852  -0.722   2.893  1.00  0.00     0.188 C 
BRANCH  73  74
ATOM     74  O   UNL     1       2.495  -0.383   4.126  1.00  0.00    -0.376 OA
BRANCH  74  75
ATOM     75  C   UNL     1       3.912  -0.536   4.188  1.00  0.00     0.202 C 
BRANCH  75  76
ATOM     76  C   UNL     1       4.429  -1.963   4.369  1.00  0.00     0.261 C 
BRANCH  76  77
ATOM     77  O   UNL     1       3.977  -2.842   3.337  1.00  0.00    -0.463 OA
BRANCH  77  78
ATOM     78  C   UNL     1       3.044  -3.768   3.698  1.00  0.00     0.311 C 
ATOM     79  O   UNL     1       2.600  -3.922   4.829  1.00  0.00    -0.252 OA
BRANCH  78  80
ATOM     80  C   UNL     1       2.657  -4.601   2.486  1.00  0.00     0.121 C 
BRANCH  80  81
ATOM     81  C   UNL     1       1.263  -5.206   2.718  1.00  0.00     0.017 C 
BRANCH  81  82
ATOM     82  C   UNL     1       0.832  -6.287   1.737  1.00  0.00     0.001 C 
BRANCH  82  83
ATOM     83  C   UNL     1       1.304  -7.669   2.168  1.00  0.00     0.000 CG0
ATOM     84  G   UNL     1       2.789  -7.910   1.964  1.00  0.00     0.000 G0
ENDBRANCH  82  83
ENDBRANCH  81  82
ENDBRANCH  80  81
BRANCH  80  85
ATOM     85  C   UNL     1       3.853  -5.535   2.211  1.00  0.00     0.098 C 
BRANCH  85  86
ATOM     86  C   UNL     1       3.728  -6.975   2.723  1.00  0.00     0.026 C 
BRANCH  86  87
ATOM     87  C   UNL     1       2.789  -7.910   1.964  1.00  0.00     0.002 CG0
ATOM     88  G   UNL     1       1.304  -7.669   2.168  1.00  0.00     0.000 G0
ENDBRANCH  86  87
ENDBRANCH  85  86
BRANCH  85  89
ATOM     89  N   UNL     1       4.260  -5.523   0.810  1.00  0.00    -0.334 N 
ATOM     90  C   UNL     1       4.960  -4.503   0.237  1.00  0.00     0.317 C 
ATOM     91  H   UNL     1       4.015  -6.293   0.247  1.00  0.00     0.165 HD
ATOM     92  O   UNL     1       4.389  -3.481  -0.115  1.00  0.00    -0.249 OA
ATOM     93  N   UNL     1       6.296  -4.761  -0.003  1.00  0.00    -0.323 N 
ATOM     94  C   UNL     1       7.170  -4.960   1.133  1.00  0.00     0.137 C 
ATOM     95  C   UNL     1       6.985  -4.204  -1.167  1.00  0.00     0.137 C 
ATOM     96  C   UNL     1       7.514  -3.601   1.719  1.00  0.00     0.158 C 
ATOM     97  C   UNL     1       7.345  -2.744  -0.964  1.00  0.00     0.158 C 
ATOM     98  S   UNL     1       8.329  -2.572   0.508  1.00  0.00     0.153 S 
ATOM     99  O   UNL     1       8.210  -1.195   0.958  1.00  0.00    -0.229 OA
ATOM    100  O   UNL     1       9.639  -3.140   0.251  1.00  0.00    -0.229 OA
ENDBRANCH  85  89
ENDBRANCH  80  85
ENDBRANCH  78  80
ENDBRANCH  77  78
ENDBRANCH  76  77
ENDBRANCH  75  76
ENDBRANCH  74  75
ENDBRANCH  73  74
ENDBRANCH   1  73
TORSDOF 21
