REMARK SMILES O=C(OCCOCCOCCOC(=O)c1ccc2c(c1)=N[C@H](C(F)(F)F)N=2)c1ccc(-c2c3nc(c(-c4cc(S(=O)(=O)[O-])ccc4F)c4ccc([nH]4)c(-c4cc(S(=O)(=O)[O-])ccc4F)c4nc(c(-c5cc(S(=O)(=O)[O-])ccc5F)c5ccc2[nH]5)C=C4)C=C3)cc1
REMARK SMILES IDX 7 1 6 2 5 3 4 4 3 5 2 6 1 7 28 8 29 9 90 10 30 11 89 12
REMARK SMILES IDX 31 13 32 14 33 15 83 16 34 17 88 18 82 19 84 20 35 21 87 22
REMARK SMILES IDX 81 23 80 24 36 26 68 27 48 28 67 29 49 30 52 31 66 32 85 33
REMARK SMILES IDX 50 34 51 35 65 37 86 38 53 39 37 40 38 41 46 42 39 43 45 44
REMARK SMILES IDX 47 45 44 46 40 47 41 48 42 49 43 50 69 51 70 52 78 53 71 54
REMARK SMILES IDX 77 55 79 56 76 57 72 58 73 59 74 60 75 61 54 62 55 63 63 64
REMARK SMILES IDX 56 65 62 66 64 67 61 68 57 69 58 70 59 71 60 72 8 73 9 74
REMARK SMILES IDX 10 75 11 76 12 77 13 78 14 79 15 80 16 81 20 82 17 83 19 84
REMARK SMILES IDX 18 85 21 86 27 87 22 88 23 89 24 90 25 91 26 92
REMARK H PARENT 84 25 52 36
REMARK Flexibility Score: inf
ROOT
ATOM      1  C   UNL     1       2.537   0.721  -1.681  1.00  0.00     0.188 C 
ENDROOT
BRANCH   1   2
ATOM      2  O   UNL     1       3.818   0.836  -1.045  1.00  0.00    -0.376 OA
BRANCH   2   3
ATOM      3  C   UNL     1       4.750  -0.158  -1.480  1.00  0.00     0.202 C 
BRANCH   3   4
ATOM      4  C   UNL     1       4.648  -1.503  -0.755  1.00  0.00     0.261 C 
BRANCH   4   5
ATOM      5  O   UNL     1       3.332  -1.801  -0.276  1.00  0.00    -0.460 OA
BRANCH   5   6
ATOM      6  C   UNL     1       2.718  -1.403   0.864  1.00  0.00     0.338 C 
ATOM      7  O   UNL     1       1.585  -1.844   1.066  1.00  0.00    -0.246 OA
BRANCH   6   8
ATOM      8  C   UNL     1       3.280  -0.436   1.876  1.00  0.00     0.060 A 
ATOM      9  C   UNL     1       2.416  -0.072   2.930  1.00  0.00     0.016 A 
ATOM     10  C   UNL     1       4.564   0.117   1.890  1.00  0.00     0.016 A 
ATOM     11  C   UNL     1       2.830   0.777   3.964  1.00  0.00     0.010 A 
ATOM     12  C   UNL     1       4.992   0.951   2.927  1.00  0.00     0.010 A 
ATOM     13  C   UNL     1       4.136   1.274   3.979  1.00  0.00    -0.014 A 
BRANCH  13  14
ATOM     14  C   UNL     1       4.679   1.972   5.163  1.00  0.00     0.031 A 
ATOM     15  C   UNL     1       4.910   3.450   5.170  1.00  0.00     0.074 A 
ATOM     16  C   UNL     1       5.064   1.216   6.209  1.00  0.00     0.049 A 
ATOM     17  N   UNL     1       5.271   4.213   6.167  1.00  0.00    -0.248 NA
ATOM     18  C   UNL     1       4.734   4.167   3.897  1.00  0.00     0.031 C 
ATOM     19  C   UNL     1       4.984  -0.246   6.251  1.00  0.00     0.029 A 
ATOM     20  N   UNL     1       5.613   1.557   7.417  1.00  0.00    -0.354 N 
ATOM     21  C   UNL     1       5.310   5.506   5.663  1.00  0.00     0.074 A 
ATOM     22  C   UNL     1       5.022   5.415   4.249  1.00  0.00     0.031 C 
ATOM     23  C   UNL     1       5.464  -0.676   7.427  1.00  0.00     0.029 A 
ATOM     24  C   UNL     1       5.882   0.475   8.222  1.00  0.00     0.049 A 
ATOM     25  H   UNL     1       5.798   2.486   7.683  1.00  0.00     0.167 HD
ATOM     26  C   UNL     1       5.540   6.657   6.335  1.00  0.00     0.034 A 
ATOM     27  C   UNL     1       6.385   0.418   9.471  1.00  0.00     0.034 A 
ATOM     28  C   UNL     1       5.891   6.708   7.729  1.00  0.00     0.049 A 
ATOM     29  C   UNL     1       6.639   1.713  10.198  1.00  0.00     0.074 A 
ATOM     30  C   UNL     1       6.102   7.824   8.517  1.00  0.00     0.029 A 
ATOM     31  N   UNL     1       6.100   5.599   8.536  1.00  0.00    -0.354 N 
ATOM     32  N   UNL     1       6.487   2.943   9.764  1.00  0.00    -0.248 NA
ATOM     33  C   UNL     1       7.093   1.622  11.591  1.00  0.00     0.031 C 
ATOM     34  C   UNL     1       6.500   7.391   9.781  1.00  0.00     0.029 A 
ATOM     35  C   UNL     1       6.471   6.005   9.805  1.00  0.00     0.049 A 
ATOM     36  H   UNL     1       6.000   4.663   8.248  1.00  0.00     0.167 HD
ATOM     37  C   UNL     1       6.778   3.770  10.844  1.00  0.00     0.074 A 
ATOM     38  C   UNL     1       7.108   2.899  11.953  1.00  0.00     0.031 C 
ATOM     39  C   UNL     1       6.769   5.125  10.910  1.00  0.00     0.034 A 
BRANCH  26  40
ATOM     40  C   UNL     1       5.361   7.970   5.621  1.00  0.00     0.023 A 
ATOM     41  C   UNL     1       6.447   8.833   5.398  1.00  0.00     0.031 A 
ATOM     42  C   UNL     1       4.067   8.439   5.333  1.00  0.00     0.131 A 
ATOM     43  C   UNL     1       6.213  10.130   4.921  1.00  0.00     0.055 A 
ATOM     44  C   UNL     1       3.842   9.719   4.827  1.00  0.00     0.041 A 
ATOM     45  F   UNL     1       3.000   7.655   5.552  1.00  0.00    -0.206 F 
ATOM     46  C   UNL     1       4.918  10.575   4.628  1.00  0.00     0.022 A 
BRANCH  43  47
ATOM     47  S   UNL     1       7.569  11.320   4.727  1.00  0.00     0.124 S 
ATOM     48  O   UNL     1       7.471  11.650   3.307  1.00  0.00    -0.237 OA
ATOM     49  O   UNL     1       7.176  12.384   5.645  1.00  0.00    -0.237 OA
ATOM     50  O   UNL     1       8.755  10.561   5.107  1.00  0.00    -0.744 OA
ENDBRANCH  43  47
ENDBRANCH  26  40
BRANCH  27  51
ATOM     51  C   UNL     1       6.529  -0.914  10.126  1.00  0.00     0.023 A 
ATOM     52  C   UNL     1       7.403  -1.889   9.609  1.00  0.00     0.031 A 
ATOM     53  C   UNL     1       5.685  -1.279  11.188  1.00  0.00     0.131 A 
ATOM     54  C   UNL     1       7.365  -3.196  10.114  1.00  0.00     0.055 A 
ATOM     55  C   UNL     1       5.698  -2.564  11.731  1.00  0.00     0.041 A 
ATOM     56  F   UNL     1       4.818  -0.391  11.698  1.00  0.00    -0.206 F 
ATOM     57  C   UNL     1       6.528  -3.535  11.181  1.00  0.00     0.022 A 
BRANCH  54  58
ATOM     58  S   UNL     1       8.287  -4.533   9.303  1.00  0.00     0.124 S 
ATOM     59  O   UNL     1       9.238  -4.918  10.340  1.00  0.00    -0.237 OA
ATOM     60  O   UNL     1       7.231  -5.503   9.023  1.00  0.00    -0.237 OA
ATOM     61  O   UNL     1       8.861  -3.890   8.125  1.00  0.00    -0.744 OA
ENDBRANCH  54  58
ENDBRANCH  27  51
BRANCH  39  62
ATOM     62  C   UNL     1       7.102   5.788  12.223  1.00  0.00     0.023 A 
ATOM     63  C   UNL     1       6.140   6.598  12.859  1.00  0.00     0.031 A 
ATOM     64  C   UNL     1       8.403   5.757  12.751  1.00  0.00     0.131 A 
ATOM     65  C   UNL     1       6.506   7.376  13.962  1.00  0.00     0.055 A 
ATOM     66  C   UNL     1       8.750   6.497  13.882  1.00  0.00     0.041 A 
ATOM     67  F   UNL     1       9.358   5.015  12.168  1.00  0.00    -0.206 F 
ATOM     68  C   UNL     1       7.804   7.324  14.482  1.00  0.00     0.022 A 
BRANCH  65  69
ATOM     69  S   UNL     1       5.347   8.567  14.690  1.00  0.00     0.124 S 
ATOM     70  O   UNL     1       5.140   8.007  16.023  1.00  0.00    -0.237 OA
ATOM     71  O   UNL     1       6.115   9.810  14.649  1.00  0.00    -0.237 OA
ATOM     72  O   UNL     1       4.189   8.519  13.804  1.00  0.00    -0.744 OA
ENDBRANCH  65  69
ENDBRANCH  39  62
ENDBRANCH  13  14
ENDBRANCH   6   8
ENDBRANCH   5   6
ENDBRANCH   4   5
ENDBRANCH   3   4
ENDBRANCH   2   3
ENDBRANCH   1   2
BRANCH   1  73
ATOM     73  C   UNL     1       2.046   2.058  -2.243  1.00  0.00     0.188 C 
BRANCH  73  74
ATOM     74  O   UNL     1       2.778   2.590  -3.346  1.00  0.00    -0.376 OA
BRANCH  74  75
ATOM     75  C   UNL     1       4.136   2.952  -3.111  1.00  0.00     0.202 C 
BRANCH  75  76
ATOM     76  C   UNL     1       4.405   4.198  -2.258  1.00  0.00     0.261 C 
BRANCH  76  77
ATOM     77  O   UNL     1       3.794   4.190  -0.956  1.00  0.00    -0.460 OA
BRANCH  77  78
ATOM     78  C   UNL     1       2.843   5.142  -0.778  1.00  0.00     0.338 C 
ATOM     79  O   UNL     1       2.415   5.913  -1.623  1.00  0.00    -0.246 OA
BRANCH  78  80
ATOM     80  C   UNL     1       2.390   5.207   0.633  1.00  0.00     0.062 A 
ATOM     81  C   UNL     1       2.711   6.397   1.406  1.00  0.00     0.018 A 
ATOM     82  C   UNL     1       1.562   4.249   1.083  1.00  0.00     0.046 A 
ATOM     83  C   UNL     1       2.175   6.662   2.605  1.00  0.00     0.031 A 
ATOM     84  C   UNL     1       0.916   4.476   2.380  1.00  0.00     0.087 A 
ATOM     85  C   UNL     1       1.227   5.693   3.157  1.00  0.00     0.086 A 
ATOM     86  N   UNL     1       0.028   3.743   2.954  1.00  0.00    -0.247 NA
ATOM     87  N   UNL     1       0.570   5.746   4.260  1.00  0.00    -0.247 NA
ATOM     88  C   UNL     1      -0.294   4.521   4.209  1.00  0.00     0.326 C 
BRANCH  88  89
ATOM     89  C   UNL     1      -1.808   4.894   4.302  1.00  0.00     0.431 C 
ATOM     90  F   UNL     1      -2.222   4.991   5.588  1.00  0.00    -0.167 F 
ATOM     91  F   UNL     1      -2.082   6.076   3.694  1.00  0.00    -0.167 F 
ATOM     92  F   UNL     1      -2.598   3.963   3.707  1.00  0.00    -0.167 F 
ENDBRANCH  88  89
ENDBRANCH  78  80
ENDBRANCH  77  78
ENDBRANCH  76  77
ENDBRANCH  75  76
ENDBRANCH  74  75
ENDBRANCH  73  74
ENDBRANCH   1  73
TORSDOF 21
