REMARK SMILES O=C(OCCOCCOCCOC(=O)c1cccnc1Sc1cccc(C(F)(F)F)c1)c1ccc(-c2c3nc(c(-c4cc(S(=O)(=O)[O-])ccc4F)c4ccc([nH]4)c(-c4cc(S(=O)(=O)[O-])ccc4F)c4nc(c(-c5cc(S(=O)(=O)[O-])ccc5F)c5ccc2[nH]5)C=C4)C=C3)cc1
REMARK SMILES IDX 7 1 6 2 5 3 4 4 3 5 2 6 1 7 32 8 33 9 94 10 34 11 93 12
REMARK SMILES IDX 35 13 36 14 37 15 87 16 38 17 92 18 86 19 88 20 39 21 91 22
REMARK SMILES IDX 85 23 84 24 40 26 72 27 52 28 71 29 53 30 56 31 70 32 89 33
REMARK SMILES IDX 54 34 55 35 69 37 90 38 57 39 41 40 42 41 50 42 43 43 49 44
REMARK SMILES IDX 51 45 48 46 44 47 45 48 46 49 47 50 73 51 74 52 82 53 75 54
REMARK SMILES IDX 81 55 83 56 80 57 76 58 77 59 78 60 79 61 58 62 59 63 67 64
REMARK SMILES IDX 60 65 66 66 68 67 65 68 61 69 62 70 63 71 64 72 8 73 9 74
REMARK SMILES IDX 10 75 11 76 12 77 13 78 14 79 15 80 16 81 20 82 17 83 19 84
REMARK SMILES IDX 18 85 21 86 22 87 23 88 31 89 24 90 26 91 25 92 27 93 28 94
REMARK SMILES IDX 29 95 30 96
REMARK H PARENT 88 25 56 36
REMARK Flexibility Score: inf
ROOT
ATOM      1  C   UNL     1       4.263  -0.189   2.105  1.00  0.00     0.188 C 
ENDROOT
BRANCH   1   2
ATOM      2  O   UNL     1       4.104   0.268   0.779  1.00  0.00    -0.376 OA
BRANCH   2   3
ATOM      3  C   UNL     1       5.280   0.298  -0.011  1.00  0.00     0.202 C 
BRANCH   3   4
ATOM      4  C   UNL     1       4.931  -0.233  -1.431  1.00  0.00     0.261 C 
BRANCH   4   5
ATOM      5  O   UNL     1       3.516  -0.584  -1.644  1.00  0.00    -0.460 OA
BRANCH   5   6
ATOM      6  C   UNL     1       2.727  -1.615  -1.223  1.00  0.00     0.338 C 
ATOM      7  O   UNL     1       1.551  -1.664  -1.585  1.00  0.00    -0.246 OA
BRANCH   6   8
ATOM      8  C   UNL     1       3.216  -2.704  -0.323  1.00  0.00     0.060 A 
ATOM      9  C   UNL     1       4.499  -2.672   0.171  1.00  0.00     0.016 A 
ATOM     10  C   UNL     1       2.408  -3.789   0.077  1.00  0.00     0.016 A 
ATOM     11  C   UNL     1       4.965  -3.539   1.110  1.00  0.00     0.010 A 
ATOM     12  C   UNL     1       2.905  -4.769   0.967  1.00  0.00     0.010 A 
ATOM     13  C   UNL     1       4.190  -4.616   1.492  1.00  0.00    -0.014 A 
BRANCH  13  14
ATOM     14  C   UNL     1       5.022  -5.581   2.219  1.00  0.00     0.031 A 
ATOM     15  C   UNL     1       5.902  -6.450   1.356  1.00  0.00     0.074 A 
ATOM     16  C   UNL     1       5.363  -5.258   3.485  1.00  0.00     0.049 A 
ATOM     17  N   UNL     1       6.914  -7.196   1.689  1.00  0.00    -0.248 NA
ATOM     18  C   UNL     1       5.673  -6.368  -0.103  1.00  0.00     0.031 C 
ATOM     19  C   UNL     1       4.806  -4.121   4.239  1.00  0.00     0.029 A 
ATOM     20  N   UNL     1       6.324  -5.757   4.316  1.00  0.00    -0.354 N 
ATOM     21  C   UNL     1       7.434  -7.675   0.490  1.00  0.00     0.074 A 
ATOM     22  C   UNL     1       6.667  -7.095  -0.584  1.00  0.00     0.031 C 
ATOM     23  C   UNL     1       5.432  -4.027   5.423  1.00  0.00     0.029 A 
ATOM     24  C   UNL     1       6.361  -5.142   5.549  1.00  0.00     0.049 A 
ATOM     25  H   UNL     1       6.933  -6.486   4.060  1.00  0.00     0.167 HD
ATOM     26  C   UNL     1       8.438  -8.567   0.323  1.00  0.00     0.034 A 
ATOM     27  C   UNL     1       7.025  -5.511   6.662  1.00  0.00     0.034 A 
ATOM     28  C   UNL     1       9.083  -9.176   1.452  1.00  0.00     0.049 A 
ATOM     29  C   UNL     1       7.924  -6.718   6.510  1.00  0.00     0.074 A 
ATOM     30  C   UNL     1       9.902 -10.285   1.505  1.00  0.00     0.029 A 
ATOM     31  N   UNL     1       8.937  -8.717   2.760  1.00  0.00    -0.354 N 
ATOM     32  N   UNL     1       8.270  -7.349   5.406  1.00  0.00    -0.248 NA
ATOM     33  C   UNL     1       8.501  -7.279   7.732  1.00  0.00     0.031 C 
ATOM     34  C   UNL     1      10.181 -10.542   2.853  1.00  0.00     0.029 A 
ATOM     35  C   UNL     1       9.616  -9.540   3.633  1.00  0.00     0.049 A 
ATOM     36  H   UNL     1       8.422  -7.920   3.022  1.00  0.00     0.167 HD
ATOM     37  C   UNL     1       9.114  -8.378   5.801  1.00  0.00     0.074 A 
ATOM     38  C   UNL     1       9.256  -8.251   7.241  1.00  0.00     0.031 C 
ATOM     39  C   UNL     1       9.710  -9.352   5.063  1.00  0.00     0.034 A 
BRANCH  26  40
ATOM     40  C   UNL     1       8.683  -9.046  -1.084  1.00  0.00     0.023 A 
ATOM     41  C   UNL     1       9.239  -8.217  -2.075  1.00  0.00     0.031 A 
ATOM     42  C   UNL     1       8.197 -10.307  -1.475  1.00  0.00     0.131 A 
ATOM     43  C   UNL     1       9.231  -8.634  -3.417  1.00  0.00     0.055 A 
ATOM     44  C   UNL     1       8.254 -10.742  -2.800  1.00  0.00     0.041 A 
ATOM     45  F   UNL     1       7.606 -11.117  -0.582  1.00  0.00    -0.206 F 
ATOM     46  C   UNL     1       8.761  -9.899  -3.783  1.00  0.00     0.022 A 
BRANCH  43  47
ATOM     47  S   UNL     1       9.698  -7.445  -4.708  1.00  0.00     0.124 S 
ATOM     48  O   UNL     1       8.639  -6.447  -4.582  1.00  0.00    -0.237 OA
ATOM     49  O   UNL     1      11.028  -7.021  -4.285  1.00  0.00    -0.237 OA
ATOM     50  O   UNL     1       9.659  -8.237  -5.936  1.00  0.00    -0.744 OA
ENDBRANCH  43  47
ENDBRANCH  26  40
BRANCH  27  51
ATOM     51  C   UNL     1       6.746  -4.890   7.998  1.00  0.00     0.023 A 
ATOM     52  C   UNL     1       7.776  -4.463   8.852  1.00  0.00     0.031 A 
ATOM     53  C   UNL     1       5.429  -4.839   8.506  1.00  0.00     0.131 A 
ATOM     54  C   UNL     1       7.483  -4.077  10.174  1.00  0.00     0.055 A 
ATOM     55  C   UNL     1       5.138  -4.392   9.796  1.00  0.00     0.041 A 
ATOM     56  F   UNL     1       4.389  -5.244   7.759  1.00  0.00    -0.206 F 
ATOM     57  C   UNL     1       6.171  -4.030  10.648  1.00  0.00     0.022 A 
BRANCH  54  58
ATOM     58  S   UNL     1       8.858  -3.773  11.321  1.00  0.00     0.124 S 
ATOM     59  O   UNL     1       9.633  -5.001  11.187  1.00  0.00    -0.237 OA
ATOM     60  O   UNL     1       9.457  -2.569  10.756  1.00  0.00    -0.237 OA
ATOM     61  O   UNL     1       8.192  -3.591  12.609  1.00  0.00    -0.744 OA
ENDBRANCH  54  58
ENDBRANCH  27  51
BRANCH  39  62
ATOM     62  C   UNL     1      10.586 -10.310   5.817  1.00  0.00     0.023 A 
ATOM     63  C   UNL     1      10.051 -11.199   6.761  1.00  0.00     0.031 A 
ATOM     64  C   UNL     1      11.972 -10.323   5.589  1.00  0.00     0.131 A 
ATOM     65  C   UNL     1      10.910 -12.014   7.504  1.00  0.00     0.055 A 
ATOM     66  C   UNL     1      12.813 -11.197   6.273  1.00  0.00     0.041 A 
ATOM     67  F   UNL     1      12.526  -9.489   4.694  1.00  0.00    -0.206 F 
ATOM     68  C   UNL     1      12.285 -12.037   7.250  1.00  0.00     0.022 A 
BRANCH  65  69
ATOM     69  S   UNL     1      10.218 -12.950   8.891  1.00  0.00     0.124 S 
ATOM     70  O   UNL     1       9.630 -11.890   9.705  1.00  0.00    -0.237 OA
ATOM     71  O   UNL     1       9.273 -13.840   8.226  1.00  0.00    -0.237 OA
ATOM     72  O   UNL     1      11.386 -13.607   9.475  1.00  0.00    -0.744 OA
ENDBRANCH  65  69
ENDBRANCH  39  62
ENDBRANCH  13  14
ENDBRANCH   6   8
ENDBRANCH   5   6
ENDBRANCH   4   5
ENDBRANCH   3   4
ENDBRANCH   2   3
ENDBRANCH   1   2
BRANCH   1  73
ATOM     73  C   UNL     1       4.395   0.935   3.104  1.00  0.00     0.188 C 
BRANCH  73  74
ATOM     74  O   UNL     1       5.274   2.014   2.825  1.00  0.00    -0.376 OA
BRANCH  74  75
ATOM     75  C   UNL     1       4.902   3.191   3.585  1.00  0.00     0.202 C 
BRANCH  75  76
ATOM     76  C   UNL     1       4.799   2.992   5.116  1.00  0.00     0.261 C 
BRANCH  76  77
ATOM     77  O   UNL     1       3.834   1.996   5.536  1.00  0.00    -0.460 OA
BRANCH  77  78
ATOM     78  C   UNL     1       2.499   2.164   5.283  1.00  0.00     0.340 C 
ATOM     79  O   UNL     1       1.952   3.198   5.027  1.00  0.00    -0.246 OA
BRANCH  78  80
ATOM     80  C   UNL     1       1.933   0.780   5.179  1.00  0.00     0.092 A 
ATOM     81  C   UNL     1       2.447  -0.211   6.057  1.00  0.00     0.020 A 
ATOM     82  C   UNL     1       1.027   0.385   4.185  1.00  0.00     0.115 A 
ATOM     83  C   UNL     1       2.058  -1.540   5.948  1.00  0.00     0.021 A 
ATOM     84  N   UNL     1       0.659  -0.934   4.096  1.00  0.00    -0.249 NA
ATOM     85  C   UNL     1       1.163  -1.851   4.954  1.00  0.00     0.112 A 
BRANCH  82  86
ATOM     86  S   UNL     1       0.004   1.337   3.090  1.00  0.00    -0.069 SA
BRANCH  86  87
ATOM     87  C   UNL     1       0.742   2.545   2.013  1.00  0.00     0.014 A 
ATOM     88  C   UNL     1      -0.049   3.689   1.820  1.00  0.00     0.015 A 
ATOM     89  C   UNL     1       1.864   2.426   1.185  1.00  0.00     0.028 A 
ATOM     90  C   UNL     1       0.294   4.694   0.913  1.00  0.00     0.002 A 
ATOM     91  C   UNL     1       2.282   3.472   0.316  1.00  0.00     0.057 A 
ATOM     92  C   UNL     1       1.472   4.604   0.192  1.00  0.00     0.013 A 
BRANCH  91  93
ATOM     93  C   UNL     1       3.582   3.465  -0.462  1.00  0.00     0.416 C 
ATOM     94  F   UNL     1       3.592   4.376  -1.487  1.00  0.00    -0.166 F 
ATOM     95  F   UNL     1       4.653   3.808   0.309  1.00  0.00    -0.166 F 
ATOM     96  F   UNL     1       3.883   2.292  -1.060  1.00  0.00    -0.166 F 
ENDBRANCH  91  93
ENDBRANCH  86  87
ENDBRANCH  82  86
ENDBRANCH  78  80
ENDBRANCH  77  78
ENDBRANCH  76  77
ENDBRANCH  75  76
ENDBRANCH  74  75
ENDBRANCH  73  74
ENDBRANCH   1  73
TORSDOF 23
