REMARK SMILES O=C(OCCOCCOCCOC(=O)c1cc(SC[C@H]2CCOC2)ccn1)c1ccc(-c2c3nc(c(-c4cc(S(=O)(=O)[O-])ccc4F)c4ccc([nH]4)c(-c4cc(S(=O)(=O)[O-])ccc4F)c4nc(c(-c5cc(S(=O)(=O)[O-])ccc5F)c5ccc2[nH]5)C=C4)C=C3)cc1
REMARK SMILES IDX 7 1 6 2 5 3 4 4 3 5 2 6 1 7 28 8 29 9 90 10 30 11 89 12
REMARK SMILES IDX 31 13 32 14 33 15 83 16 34 17 88 18 82 19 84 20 35 21 87 22
REMARK SMILES IDX 81 23 80 24 36 26 68 27 48 28 67 29 49 30 52 31 66 32 85 33
REMARK SMILES IDX 50 34 51 35 65 37 86 38 53 39 37 40 38 41 46 42 39 43 45 44
REMARK SMILES IDX 47 45 44 46 40 47 41 48 42 49 43 50 69 51 70 52 78 53 71 54
REMARK SMILES IDX 77 55 79 56 76 57 72 58 73 59 74 60 75 61 54 62 55 63 63 64
REMARK SMILES IDX 56 65 62 66 64 67 61 68 57 69 58 70 59 71 60 72 8 73 9 74
REMARK SMILES IDX 10 75 11 76 12 77 13 78 14 79 15 80 16 81 27 82 17 83 26 84
REMARK SMILES IDX 25 85 18 86 19 87 20 88 21 89 24 90 22 91 23 92
REMARK H PARENT 84 25 52 36
REMARK Flexibility Score: inf
ROOT
ATOM      1  C   UNL     1       1.299  13.402   4.511  1.00  0.00     0.188 C 
ENDROOT
BRANCH   1   2
ATOM      2  O   UNL     1       1.871  12.359   5.311  1.00  0.00    -0.376 OA
BRANCH   2   3
ATOM      3  C   UNL     1       1.615  12.498   6.712  1.00  0.00     0.202 C 
BRANCH   3   4
ATOM      4  C   UNL     1       2.553  13.462   7.452  1.00  0.00     0.261 C 
BRANCH   4   5
ATOM      5  O   UNL     1       2.897  14.602   6.647  1.00  0.00    -0.460 OA
BRANCH   5   6
ATOM      6  C   UNL     1       4.027  14.786   5.916  1.00  0.00     0.338 C 
ATOM      7  O   UNL     1       4.162  15.838   5.292  1.00  0.00    -0.246 OA
BRANCH   6   8
ATOM      8  C   UNL     1       5.148  13.799   5.878  1.00  0.00     0.060 A 
ATOM      9  C   UNL     1       4.997  12.414   5.961  1.00  0.00     0.016 A 
ATOM     10  C   UNL     1       6.444  14.313   5.703  1.00  0.00     0.016 A 
ATOM     11  C   UNL     1       6.106  11.576   6.045  1.00  0.00     0.010 A 
ATOM     12  C   UNL     1       7.560  13.470   5.714  1.00  0.00     0.010 A 
ATOM     13  C   UNL     1       7.396  12.101   5.951  1.00  0.00    -0.014 A 
BRANCH  13  14
ATOM     14  C   UNL     1       8.545  11.210   6.236  1.00  0.00     0.031 A 
ATOM     15  C   UNL     1       9.260  11.350   7.546  1.00  0.00     0.074 A 
ATOM     16  C   UNL     1       8.864  10.227   5.377  1.00  0.00     0.049 A 
ATOM     17  N   UNL     1      10.254  10.652   8.024  1.00  0.00    -0.248 NA
ATOM     18  C   UNL     1       8.807  12.439   8.423  1.00  0.00     0.031 C 
ATOM     19  C   UNL     1       8.213  10.018   4.088  1.00  0.00     0.029 A 
ATOM     20  N   UNL     1       9.771   9.201   5.464  1.00  0.00    -0.354 N 
ATOM     21  C   UNL     1      10.587  11.253   9.232  1.00  0.00     0.074 A 
ATOM     22  C   UNL     1       9.684  12.369   9.411  1.00  0.00     0.031 C 
ATOM     23  C   UNL     1       8.695   8.893   3.540  1.00  0.00     0.029 A 
ATOM     24  C   UNL     1       9.681   8.298   4.428  1.00  0.00     0.049 A 
ATOM     25  H   UNL     1      10.424   9.119   6.197  1.00  0.00     0.167 HD
ATOM     26  C   UNL     1      11.577  10.912  10.094  1.00  0.00     0.034 A 
ATOM     27  C   UNL     1      10.301   7.114   4.239  1.00  0.00     0.034 A 
ATOM     28  C   UNL     1      12.458   9.791   9.877  1.00  0.00     0.049 A 
ATOM     29  C   UNL     1      11.340   6.714   5.255  1.00  0.00     0.074 A 
ATOM     30  C   UNL     1      13.551   9.385  10.620  1.00  0.00     0.029 A 
ATOM     31  N   UNL     1      12.336   8.886   8.826  1.00  0.00    -0.354 N 
ATOM     32  N   UNL     1      11.687   7.326   6.365  1.00  0.00    -0.248 NA
ATOM     33  C   UNL     1      12.093   5.486   4.978  1.00  0.00     0.031 C 
ATOM     34  C   UNL     1      14.119   8.268   9.992  1.00  0.00     0.029 A 
ATOM     35  C   UNL     1      13.341   7.935   8.893  1.00  0.00     0.049 A 
ATOM     36  H   UNL     1      11.636   8.918   8.135  1.00  0.00     0.167 HD
ATOM     37  C   UNL     1      12.720   6.570   6.904  1.00  0.00     0.074 A 
ATOM     38  C   UNL     1      12.885   5.418   6.037  1.00  0.00     0.031 C 
ATOM     39  C   UNL     1      13.493   6.818   7.991  1.00  0.00     0.034 A 
BRANCH  26  40
ATOM     40  C   UNL     1      11.807  11.849  11.255  1.00  0.00     0.023 A 
ATOM     41  C   UNL     1      10.833  12.062  12.247  1.00  0.00     0.031 A 
ATOM     42  C   UNL     1      12.966  12.644  11.290  1.00  0.00     0.131 A 
ATOM     43  C   UNL     1      10.986  13.118  13.160  1.00  0.00     0.055 A 
ATOM     44  C   UNL     1      13.155  13.631  12.259  1.00  0.00     0.041 A 
ATOM     45  F   UNL     1      13.918  12.508  10.353  1.00  0.00    -0.206 F 
ATOM     46  C   UNL     1      12.151  13.889  13.187  1.00  0.00     0.022 A 
BRANCH  43  47
ATOM     47  S   UNL     1       9.559  13.600  14.174  1.00  0.00     0.124 S 
ATOM     48  O   UNL     1       8.570  13.931  13.151  1.00  0.00    -0.237 OA
ATOM     49  O   UNL     1       9.298  12.391  14.947  1.00  0.00    -0.237 OA
ATOM     50  O   UNL     1      10.054  14.739  14.944  1.00  0.00    -0.744 OA
ENDBRANCH  43  47
ENDBRANCH  26  40
BRANCH  27  51
ATOM     51  C   UNL     1       9.991   6.226   3.073  1.00  0.00     0.023 A 
ATOM     52  C   UNL     1       9.527   4.909   3.267  1.00  0.00     0.031 A 
ATOM     53  C   UNL     1      10.204   6.651   1.750  1.00  0.00     0.131 A 
ATOM     54  C   UNL     1       9.335   4.057   2.165  1.00  0.00     0.055 A 
ATOM     55  C   UNL     1       9.949   5.821   0.655  1.00  0.00     0.041 A 
ATOM     56  F   UNL     1      10.657   7.889   1.498  1.00  0.00    -0.206 F 
ATOM     57  C   UNL     1       9.524   4.513   0.860  1.00  0.00     0.022 A 
BRANCH  54  58
ATOM     58  S   UNL     1       8.917   2.309   2.453  1.00  0.00     0.124 S 
ATOM     59  O   UNL     1      10.059   1.853   3.234  1.00  0.00    -0.237 OA
ATOM     60  O   UNL     1       7.649   2.403   3.169  1.00  0.00    -0.237 OA
ATOM     61  O   UNL     1       8.816   1.760   1.103  1.00  0.00    -0.744 OA
ENDBRANCH  54  58
ENDBRANCH  27  51
BRANCH  39  62
ATOM     62  C   UNL     1      14.592   5.825   8.262  1.00  0.00     0.023 A 
ATOM     63  C   UNL     1      15.678   5.690   7.379  1.00  0.00     0.031 A 
ATOM     64  C   UNL     1      14.535   4.984   9.384  1.00  0.00     0.131 A 
ATOM     65  C   UNL     1      16.631   4.686   7.596  1.00  0.00     0.055 A 
ATOM     66  C   UNL     1      15.520   4.027   9.628  1.00  0.00     0.041 A 
ATOM     67  F   UNL     1      13.517   5.074  10.254  1.00  0.00    -0.206 F 
ATOM     68  C   UNL     1      16.567   3.864   8.724  1.00  0.00     0.022 A 
BRANCH  65  69
ATOM     69  S   UNL     1      17.898   4.406   6.330  1.00  0.00     0.124 S 
ATOM     70  O   UNL     1      17.090   4.088   5.157  1.00  0.00    -0.237 OA
ATOM     71  O   UNL     1      18.595   5.688   6.296  1.00  0.00    -0.237 OA
ATOM     72  O   UNL     1      18.677   3.292   6.867  1.00  0.00    -0.744 OA
ENDBRANCH  65  69
ENDBRANCH  39  62
ENDBRANCH  13  14
ENDBRANCH   6   8
ENDBRANCH   5   6
ENDBRANCH   4   5
ENDBRANCH   3   4
ENDBRANCH   2   3
ENDBRANCH   1   2
BRANCH   1  73
ATOM     73  C   UNL     1       0.837  12.888   3.146  1.00  0.00     0.188 C 
BRANCH  73  74
ATOM     74  O   UNL     1      -0.315  12.038   3.157  1.00  0.00    -0.376 OA
BRANCH  74  75
ATOM     75  C   UNL     1      -0.224  10.839   3.922  1.00  0.00     0.202 C 
BRANCH  75  76
ATOM     76  C   UNL     1       0.643   9.714   3.350  1.00  0.00     0.261 C 
BRANCH  76  77
ATOM     77  O   UNL     1       1.973  10.112   2.999  1.00  0.00    -0.459 OA
BRANCH  77  78
ATOM     78  C   UNL     1       2.221  10.162   1.668  1.00  0.00     0.357 C 
ATOM     79  O   UNL     1       1.438   9.931   0.753  1.00  0.00    -0.244 OA
BRANCH  78  80
ATOM     80  C   UNL     1       3.662  10.371   1.447  1.00  0.00     0.149 A 
ATOM     81  C   UNL     1       4.385   9.264   1.036  1.00  0.00     0.051 A 
ATOM     82  N   UNL     1       4.168  11.623   1.585  1.00  0.00    -0.249 NA
ATOM     83  C   UNL     1       5.736   9.418   0.782  1.00  0.00     0.011 A 
ATOM     84  C   UNL     1       5.479  11.754   1.294  1.00  0.00     0.113 A 
ATOM     85  C   UNL     1       6.288  10.699   0.894  1.00  0.00     0.035 A 
BRANCH  83  86
ATOM     86  S   UNL     1       6.811   8.082   0.306  1.00  0.00    -0.126 SA
BRANCH  86  87
ATOM     87  C   UNL     1       5.855   6.540   0.592  1.00  0.00     0.081 C 
BRANCH  87  88
ATOM     88  C   UNL     1       5.329   6.194   1.990  1.00  0.00     0.027 C 
ATOM     89  C   UNL     1       5.466   4.716   2.330  1.00  0.00     0.035 C 
ATOM     90  C   UNL     1       5.967   6.815   3.211  1.00  0.00     0.164 C 
ATOM     91  C   UNL     1       5.394   4.681   3.850  1.00  0.00     0.160 C 
ATOM     92  O   UNL     1       5.432   6.048   4.299  1.00  0.00    -0.381 OA
ENDBRANCH  87  88
ENDBRANCH  86  87
ENDBRANCH  83  86
ENDBRANCH  78  80
ENDBRANCH  77  78
ENDBRANCH  76  77
ENDBRANCH  75  76
ENDBRANCH  74  75
ENDBRANCH  73  74
ENDBRANCH   1  73
TORSDOF 23
