REMARK SMILES COc1ccc(C2=NN(C(=O)CCC(=O)OCCOCCOCCOC(=O)c3ccc(-c4c5nc(c(-c6cc(S(=O)(=O)[O-])ccc6F)c6ccc([nH]6)c(-c6cc(S(=O)(=O)[O-])ccc6F)c6nc(c(-c7cc(S(=O)(=O)[O-])ccc7F)c7ccc4[nH]7)C=C6)C=C5)cc3)[C@H](c3ccc(Cl)cc3Cl)C2)cc1
REMARK SMILES IDX 20 1 19 2 18 3 17 4 16 5 14 6 15 7 13 8 12 9 10 10 11 11
REMARK SMILES IDX 9 12 7 13 8 14 100 15 91 16 6 17 3 18 4 19 102 20 5 21
REMARK SMILES IDX 101 22 2 23 1 24 92 25 93 26 98 27 94 28 97 29 99 30 95 31
REMARK SMILES IDX 96 32 21 33 22 34 23 35 24 36 25 37 26 38 27 39 28 40 29 41
REMARK SMILES IDX 90 42 30 43 89 44 31 45 32 46 33 47 83 48 34 49 88 50 82 51
REMARK SMILES IDX 84 52 35 53 87 54 81 55 80 56 36 58 68 59 48 60 67 61 49 62
REMARK SMILES IDX 52 63 66 64 85 65 50 66 51 67 65 69 86 70 53 71 37 72 38 73
REMARK SMILES IDX 46 74 39 75 45 76 47 77 44 78 40 79 41 80 42 81 43 82 69 83
REMARK SMILES IDX 70 84 78 85 71 86 77 87 79 88 76 89 72 90 73 91 74 92 75 93
REMARK SMILES IDX 54 94 55 95 63 96 56 97 62 98 64 99 61 100 57 101 58 102
REMARK SMILES IDX 59 103 60 104
REMARK H PARENT 84 57 52 68
REMARK Flexibility Score: inf
ROOT
ATOM      1  C   UNL     1       3.406  -0.138 -10.756  1.00  0.00     0.188 C 
ENDROOT
BRANCH   1   2
ATOM      2  O   UNL     1       4.586  -0.923 -10.376  1.00  0.00    -0.376 OA
BRANCH   2   3
ATOM      3  C   UNL     1       5.551  -0.950  -9.286  1.00  0.00     0.202 C 
BRANCH   3   4
ATOM      4  C   UNL     1       5.887   0.172  -8.298  1.00  0.00     0.261 C 
BRANCH   4   5
ATOM      5  O   UNL     1       5.073   1.286  -8.518  1.00  0.00    -0.463 OA
BRANCH   5   6
ATOM      6  C   UNL     1       5.539   2.233  -9.333  1.00  0.00     0.306 C 
ATOM      7  O   UNL     1       6.725   2.430  -9.592  1.00  0.00    -0.252 OA
BRANCH   6   8
ATOM      8  C   UNL     1       4.401   2.938  -9.995  1.00  0.00     0.132 C 
BRANCH   8   9
ATOM      9  C   UNL     1       2.975   2.491  -9.629  1.00  0.00     0.114 C 
BRANCH   9  10
ATOM     10  C   UNL     1       2.680   1.600  -8.378  1.00  0.00     0.243 C 
ATOM     11  O   UNL     1       2.467   2.355  -7.391  1.00  0.00    -0.273 OA
BRANCH  10  12
ATOM     12  N   UNL     1       2.563   0.159  -8.209  1.00  0.00    -0.225 N 
ATOM     13  C   UNL     1       2.065  -1.098  -6.440  1.00  0.00     0.071 C 
ATOM     14  N   UNL     1       2.126   0.070  -6.892  1.00  0.00    -0.174 NA
ATOM     15  C   UNL     1       2.517  -2.196  -7.333  1.00  0.00     0.091 C 
ATOM     16  C   UNL     1       2.578  -1.569  -8.868  1.00  0.00     0.149 C 
BRANCH  13  17
ATOM     17  C   UNL     1       1.683  -1.263  -5.018  1.00  0.00    -0.002 A 
ATOM     18  C   UNL     1       0.922  -0.982  -2.327  1.00  0.00     0.118 A 
ATOM     19  C   UNL     1      -0.024  -1.305  -3.308  1.00  0.00     0.047 A 
ATOM     20  C   UNL     1       2.253  -0.797  -2.700  1.00  0.00     0.047 A 
ATOM     21  C   UNL     1       0.346  -1.423  -4.656  1.00  0.00     0.014 A 
ATOM     22  C   UNL     1       2.631  -0.928  -4.044  1.00  0.00     0.014 A 
BRANCH  18  23
ATOM     23  O   UNL     1       0.439  -0.904  -1.048  1.00  0.00    -0.497 OA
ATOM     24  C   UNL     1       1.115  -0.010  -0.168  1.00  0.00     0.278 C 
ENDBRANCH  18  23
ENDBRANCH  13  17
BRANCH  16  25
ATOM     25  C   UNL     1       1.842  -2.208 -10.583  1.00  0.00    -0.004 A 
ATOM     26  C   UNL     1       2.505  -3.210 -11.173  1.00  0.00     0.009 A 
ATOM     27  C   UNL     1       0.485  -1.996 -11.449  1.00  0.00     0.047 A 
ATOM     28  C   UNL     1       1.860  -4.111 -12.130  1.00  0.00     0.021 A 
ATOM     29  C   UNL     1       0.056  -2.752 -12.568  1.00  0.00     0.041 A 
ATOM     30  Cl  UNL     1      -0.969  -0.891 -11.186  1.00  0.00    -0.084 Cl
ATOM     31  C   UNL     1       0.685  -3.913 -12.809  1.00  0.00     0.042 A 
ATOM     32  Cl  UNL     1      -0.020  -5.141 -13.776  1.00  0.00    -0.084 Cl
ENDBRANCH  16  25
ENDBRANCH  10  12
ENDBRANCH   9  10
ENDBRANCH   8   9
ENDBRANCH   6   8
ENDBRANCH   5   6
ENDBRANCH   4   5
ENDBRANCH   3   4
ENDBRANCH   2   3
ENDBRANCH   1   2
BRANCH   1  33
ATOM     33  C   UNL     1       1.579  -0.066 -10.274  1.00  0.00     0.188 C 
BRANCH  33  34
ATOM     34  O   UNL     1       0.611  -1.138  -9.151  1.00  0.00    -0.376 OA
BRANCH  34  35
ATOM     35  C   UNL     1       0.429  -2.915  -8.960  1.00  0.00     0.202 C 
BRANCH  35  36
ATOM     36  C   UNL     1       1.626  -4.376  -8.818  1.00  0.00     0.261 C 
BRANCH  36  37
ATOM     37  O   UNL     1       2.294  -5.296  -9.926  1.00  0.00    -0.460 OA
BRANCH  37  38
ATOM     38  C   UNL     1       3.721  -5.528 -10.046  1.00  0.00     0.338 C 
ATOM     39  O   UNL     1       4.478  -5.332  -9.099  1.00  0.00    -0.246 OA
BRANCH  38  40
ATOM     40  C   UNL     1       4.341  -5.560 -11.554  1.00  0.00     0.060 A 
ATOM     41  C   UNL     1       4.889  -4.359 -12.074  1.00  0.00     0.016 A 
ATOM     42  C   UNL     1       4.140  -6.549 -12.531  1.00  0.00     0.016 A 
ATOM     43  C   UNL     1       4.887  -4.053 -13.467  1.00  0.00     0.010 A 
ATOM     44  C   UNL     1       4.390  -6.294 -13.947  1.00  0.00     0.010 A 
ATOM     45  C   UNL     1       4.747  -5.026 -14.460  1.00  0.00    -0.014 A 
BRANCH  45  46
ATOM     46  C   UNL     1       5.120  -4.725 -15.929  1.00  0.00     0.031 A 
ATOM     47  C   UNL     1       4.322  -5.224 -17.140  1.00  0.00     0.074 A 
ATOM     48  C   UNL     1       6.237  -4.010 -16.243  1.00  0.00     0.049 A 
ATOM     49  N   UNL     1       4.708  -5.373 -18.392  1.00  0.00    -0.248 NA
ATOM     50  C   UNL     1       2.907  -5.550 -16.925  1.00  0.00     0.031 C 
ATOM     51  C   UNL     1       7.094  -3.286 -15.302  1.00  0.00     0.029 A 
ATOM     52  N   UNL     1       6.877  -3.795 -17.459  1.00  0.00    -0.354 N 
ATOM     53  C   UNL     1       3.611  -5.870 -19.102  1.00  0.00     0.074 A 
ATOM     54  C   UNL     1       2.529  -5.959 -18.135  1.00  0.00     0.031 C 
ATOM     55  C   UNL     1       8.125  -2.733 -15.949  1.00  0.00     0.029 A 
ATOM     56  C   UNL     1       8.106  -3.172 -17.334  1.00  0.00     0.049 A 
ATOM     57  H   UNL     1       6.492  -4.061 -18.325  1.00  0.00     0.167 HD
ATOM     58  C   UNL     1       3.514  -6.235 -20.415  1.00  0.00     0.034 A 
ATOM     59  C   UNL     1       9.166  -3.037 -18.162  1.00  0.00     0.034 A 
ATOM     60  C   UNL     1       4.574  -6.112 -21.402  1.00  0.00     0.049 A 
ATOM     61  C   UNL     1       9.123  -3.615 -19.551  1.00  0.00     0.074 A 
ATOM     62  C   UNL     1       4.559  -6.489 -22.740  1.00  0.00     0.029 A 
ATOM     63  N   UNL     1       5.832  -5.573 -21.176  1.00  0.00    -0.354 N 
ATOM     64  N   UNL     1       8.134  -4.223 -20.159  1.00  0.00    -0.248 NA
ATOM     65  C   UNL     1      10.346  -3.502 -20.361  1.00  0.00     0.031 C 
ATOM     66  C   UNL     1       5.826  -6.262 -23.291  1.00  0.00     0.029 A 
ATOM     67  C   UNL     1       6.610  -5.654 -22.328  1.00  0.00     0.049 A 
ATOM     68  H   UNL     1       6.133  -5.187 -20.322  1.00  0.00     0.167 HD
ATOM     69  C   UNL     1       8.611  -4.537 -21.430  1.00  0.00     0.074 A 
ATOM     70  C   UNL     1       9.966  -4.041 -21.509  1.00  0.00     0.031 C 
ATOM     71  C   UNL     1       7.969  -5.179 -22.438  1.00  0.00     0.034 A 
BRANCH  58  72
ATOM     72  C   UNL     1       2.236  -6.920 -20.873  1.00  0.00     0.023 A 
ATOM     73  C   UNL     1       1.000  -6.260 -20.956  1.00  0.00     0.031 A 
ATOM     74  C   UNL     1       2.279  -8.275 -21.266  1.00  0.00     0.131 A 
ATOM     75  C   UNL     1      -0.149  -6.969 -21.356  1.00  0.00     0.055 A 
ATOM     76  C   UNL     1       1.151  -8.952 -21.735  1.00  0.00     0.041 A 
ATOM     77  F   UNL     1       3.430  -8.965 -21.209  1.00  0.00    -0.206 F 
ATOM     78  C   UNL     1      -0.077  -8.303 -21.767  1.00  0.00     0.022 A 
BRANCH  75  79
ATOM     79  S   UNL     1      -1.770  -6.168 -21.199  1.00  0.00     0.124 S 
ATOM     80  O   UNL     1      -1.778  -5.790 -19.788  1.00  0.00    -0.237 OA
ATOM     81  O   UNL     1      -1.675  -5.072 -22.156  1.00  0.00    -0.237 OA
ATOM     82  O   UNL     1      -2.713  -7.227 -21.556  1.00  0.00    -0.744 OA
ENDBRANCH  75  79
ENDBRANCH  58  72
BRANCH  59  83
ATOM     83  C   UNL     1      10.447  -2.442 -17.654  1.00  0.00     0.023 A 
ATOM     84  C   UNL     1      11.008  -1.296 -18.239  1.00  0.00     0.031 A 
ATOM     85  C   UNL     1      11.170  -3.068 -16.618  1.00  0.00     0.131 A 
ATOM     86  C   UNL     1      12.268  -0.839 -17.815  1.00  0.00     0.055 A 
ATOM     87  C   UNL     1      12.385  -2.568 -16.152  1.00  0.00     0.041 A 
ATOM     88  F   UNL     1      10.694  -4.179 -16.032  1.00  0.00    -0.206 F 
ATOM     89  C   UNL     1      12.949  -1.454 -16.762  1.00  0.00     0.022 A 
BRANCH  86  90
ATOM     90  S   UNL     1      13.061   0.510 -18.734  1.00  0.00     0.124 S 
ATOM     91  O   UNL     1      13.139  -0.054 -20.076  1.00  0.00    -0.237 OA
ATOM     92  O   UNL     1      12.110   1.601 -18.550  1.00  0.00    -0.237 OA
ATOM     93  O   UNL     1      14.342   0.680 -18.051  1.00  0.00    -0.744 OA
ENDBRANCH  86  90
ENDBRANCH  59  83
BRANCH  71  94
ATOM     94  C   UNL     1       8.707  -5.330 -23.751  1.00  0.00     0.023 A 
ATOM     95  C   UNL     1       9.857  -6.132 -23.875  1.00  0.00     0.031 A 
ATOM     96  C   UNL     1       8.266  -4.637 -24.893  1.00  0.00     0.131 A 
ATOM     97  C   UNL     1      10.551  -6.184 -25.097  1.00  0.00     0.055 A 
ATOM     98  C   UNL     1       8.928  -4.737 -26.120  1.00  0.00     0.041 A 
ATOM     99  F   UNL     1       7.183  -3.847 -24.837  1.00  0.00    -0.206 F 
ATOM    100  C   UNL     1      10.083  -5.505 -26.224  1.00  0.00     0.022 A 
BRANCH  97 101
ATOM    101  S   UNL     1      12.125  -7.086 -25.177  1.00  0.00     0.124 S 
ATOM    102  O   UNL     1      12.925  -6.391 -24.173  1.00  0.00    -0.237 OA
ATOM    103  O   UNL     1      11.723  -8.448 -24.841  1.00  0.00    -0.237 OA
ATOM    104  O   UNL     1      12.562  -6.894 -26.558  1.00  0.00    -0.744 OA
ENDBRANCH  97 101
ENDBRANCH  71  94
ENDBRANCH  45  46
ENDBRANCH  38  40
ENDBRANCH  37  38
ENDBRANCH  36  37
ENDBRANCH  35  36
ENDBRANCH  34  35
ENDBRANCH  33  34
ENDBRANCH   1  33
TORSDOF 26
