REMARK SMILES O=C(OCCOCCOCCOC(=O)[C@]1(NC(=O)C2CCN(C(=O)C3CC3)CC2)CCCc2ccccc21)c1ccc(-c2c3nc(c(-c4cc(S(=O)(=O)[O-])ccc4F)c4ccc([nH]4)c(-c4cc(S(=O)(=O)[O-])ccc4F)c4nc(c(-c5cc(S(=O)(=O)[O-])ccc5F)c5ccc2[nH]5)C=C4)C=C3)cc1
REMARK SMILES IDX 7 1 6 2 5 3 4 4 3 5 2 6 1 7 39 8 40 9 101 10 41 11 100 12
REMARK SMILES IDX 42 13 43 14 44 15 94 16 45 17 99 18 93 19 95 20 46 21 98 22
REMARK SMILES IDX 92 23 91 24 47 26 79 27 59 28 78 29 60 30 63 31 77 32 96 33
REMARK SMILES IDX 61 34 62 35 76 37 97 38 64 39 48 40 49 41 57 42 50 43 56 44
REMARK SMILES IDX 58 45 55 46 51 47 52 48 53 49 54 50 80 51 81 52 89 53 82 54
REMARK SMILES IDX 88 55 90 56 87 57 83 58 84 59 85 60 86 61 65 62 66 63 74 64
REMARK SMILES IDX 67 65 73 66 75 67 72 68 68 69 69 70 70 71 71 72 8 73 9 74
REMARK SMILES IDX 10 75 11 76 12 77 13 78 14 79 15 80 30 81 38 82 31 83 33 84
REMARK SMILES IDX 37 85 32 86 34 87 36 88 35 89 16 90 17 91 18 93 19 94 20 95
REMARK SMILES IDX 29 96 21 97 28 98 22 99 23 100 24 101 25 102 26 103 27 104
REMARK H PARENT 95 25 63 36 16 92
REMARK Flexibility Score: inf
ROOT
ATOM      1  C   UNL     1       4.818   0.262  -3.008  1.00  0.00     0.188 C 
ENDROOT
BRANCH   1   2
ATOM      2  O   UNL     1       4.594  -1.132  -2.774  1.00  0.00    -0.376 OA
BRANCH   2   3
ATOM      3  C   UNL     1       4.095  -1.527  -1.484  1.00  0.00     0.202 C 
BRANCH   3   4
ATOM      4  C   UNL     1       2.590  -1.019  -1.218  1.00  0.00     0.261 C 
BRANCH   4   5
ATOM      5  O   UNL     1       1.768  -0.239   0.369  1.00  0.00    -0.460 OA
BRANCH   5   6
ATOM      6  C   UNL     1       1.243   0.386   1.565  1.00  0.00     0.338 C 
ATOM      7  O   UNL     1       0.096   0.119   1.940  1.00  0.00    -0.246 OA
BRANCH   6   8
ATOM      8  C   UNL     1       1.978   1.345   2.507  1.00  0.00     0.060 A 
ATOM      9  C   UNL     1       2.833   2.326   2.052  1.00  0.00     0.016 A 
ATOM     10  C   UNL     1       1.836   1.314   3.900  1.00  0.00     0.016 A 
ATOM     11  C   UNL     1       3.759   2.978   2.830  1.00  0.00     0.010 A 
ATOM     12  C   UNL     1       2.654   2.129   4.741  1.00  0.00     0.010 A 
ATOM     13  C   UNL     1       3.675   2.931   4.201  1.00  0.00    -0.014 A 
BRANCH  13  14
ATOM     14  C   UNL     1       4.796   3.601   4.917  1.00  0.00     0.031 A 
ATOM     15  C   UNL     1       5.695   2.761   5.773  1.00  0.00     0.074 A 
ATOM     16  C   UNL     1       5.178   4.856   4.570  1.00  0.00     0.049 A 
ATOM     17  N   UNL     1       6.631   3.139   6.595  1.00  0.00    -0.248 NA
ATOM     18  C   UNL     1       5.512   1.303   5.702  1.00  0.00     0.031 C 
ATOM     19  C   UNL     1       4.499   5.697   3.573  1.00  0.00     0.029 A 
ATOM     20  N   UNL     1       6.282   5.601   4.900  1.00  0.00    -0.354 N 
ATOM     21  C   UNL     1       7.031   1.987   7.262  1.00  0.00     0.074 A 
ATOM     22  C   UNL     1       6.314   0.882   6.668  1.00  0.00     0.031 C 
ATOM     23  C   UNL     1       5.287   6.731   3.248  1.00  0.00     0.029 A 
ATOM     24  C   UNL     1       6.420   6.760   4.159  1.00  0.00     0.049 A 
ATOM     25  H   UNL     1       6.918   5.334   5.603  1.00  0.00     0.167 HD
ATOM     26  C   UNL     1       7.861   1.915   8.331  1.00  0.00     0.034 A 
ATOM     27  C   UNL     1       7.325   7.759   4.255  1.00  0.00     0.034 A 
ATOM     28  C   UNL     1       8.579   3.072   8.812  1.00  0.00     0.049 A 
ATOM     29  C   UNL     1       8.279   7.660   5.421  1.00  0.00     0.074 A 
ATOM     30  C   UNL     1       9.311   3.241   9.971  1.00  0.00     0.029 A 
ATOM     31  N   UNL     1       8.667   4.274   8.109  1.00  0.00    -0.354 N 
ATOM     32  N   UNL     1       8.452   6.659   6.258  1.00  0.00    -0.248 NA
ATOM     33  C   UNL     1       9.099   8.840   5.710  1.00  0.00     0.031 C 
ATOM     34  C   UNL     1       9.797   4.556   9.991  1.00  0.00     0.029 A 
ATOM     35  C   UNL     1       9.435   5.186   8.808  1.00  0.00     0.049 A 
ATOM     36  H   UNL     1       8.243   4.447   7.238  1.00  0.00     0.167 HD
ATOM     37  C   UNL     1       9.363   7.108   7.204  1.00  0.00     0.074 A 
ATOM     38  C   UNL     1       9.768   8.438   6.781  1.00  0.00     0.031 C 
ATOM     39  C   UNL     1       9.793   6.508   8.345  1.00  0.00     0.034 A 
BRANCH  26  40
ATOM     40  C   UNL     1       7.826   0.630   9.126  1.00  0.00     0.023 A 
ATOM     41  C   UNL     1       8.243  -0.608   8.610  1.00  0.00     0.031 A 
ATOM     42  C   UNL     1       7.205   0.633  10.392  1.00  0.00     0.131 A 
ATOM     43  C   UNL     1       7.942  -1.793   9.306  1.00  0.00     0.055 A 
ATOM     44  C   UNL     1       6.992  -0.539  11.119  1.00  0.00     0.041 A 
ATOM     45  F   UNL     1       6.746   1.777  10.924  1.00  0.00    -0.206 F 
ATOM     46  C   UNL     1       7.341  -1.765  10.567  1.00  0.00     0.022 A 
BRANCH  43  47
ATOM     47  S   UNL     1       8.171  -3.382   8.457  1.00  0.00     0.124 S 
ATOM     48  O   UNL     1       7.268  -3.236   7.317  1.00  0.00    -0.237 OA
ATOM     49  O   UNL     1       9.595  -3.373   8.147  1.00  0.00    -0.237 OA
ATOM     50  O   UNL     1       7.754  -4.368   9.452  1.00  0.00    -0.744 OA
ENDBRANCH  43  47
ENDBRANCH  26  40
BRANCH  27  51
ATOM     51  C   UNL     1       7.298   8.962   3.354  1.00  0.00     0.023 A 
ATOM     52  C   UNL     1       8.447   9.384   2.660  1.00  0.00     0.031 A 
ATOM     53  C   UNL     1       6.137   9.747   3.198  1.00  0.00     0.131 A 
ATOM     54  C   UNL     1       8.411  10.547   1.865  1.00  0.00     0.055 A 
ATOM     55  C   UNL     1       6.085  10.854   2.346  1.00  0.00     0.041 A 
ATOM     56  F   UNL     1       5.014   9.450   3.871  1.00  0.00    -0.206 F 
ATOM     57  C   UNL     1       7.230  11.267   1.681  1.00  0.00     0.022 A 
BRANCH  54  58
ATOM     58  S   UNL     1       9.957  11.172   1.146  1.00  0.00     0.124 S 
ATOM     59  O   UNL     1      10.799  11.317   2.328  1.00  0.00    -0.237 OA
ATOM     60  O   UNL     1      10.314  10.096   0.228  1.00  0.00    -0.237 OA
ATOM     61  O   UNL     1       9.555  12.424   0.508  1.00  0.00    -0.744 OA
ENDBRANCH  54  58
ENDBRANCH  27  51
BRANCH  39  62
ATOM     62  C   UNL     1      10.749   7.308   9.186  1.00  0.00     0.023 A 
ATOM     63  C   UNL     1      10.335   8.477   9.845  1.00  0.00     0.031 A 
ATOM     64  C   UNL     1      12.092   6.913   9.298  1.00  0.00     0.131 A 
ATOM     65  C   UNL     1      11.275   9.256  10.530  1.00  0.00     0.055 A 
ATOM     66  C   UNL     1      13.009   7.660  10.035  1.00  0.00     0.041 A 
ATOM     67  F   UNL     1      12.531   5.804   8.684  1.00  0.00    -0.206 F 
ATOM     68  C   UNL     1      12.607   8.847  10.643  1.00  0.00     0.022 A 
BRANCH  65  69
ATOM     69  S   UNL     1      10.757  10.871  11.172  1.00  0.00     0.124 S 
ATOM     70  O   UNL     1      10.274  11.535   9.965  1.00  0.00    -0.237 OA
ATOM     71  O   UNL     1       9.738  10.505  12.150  1.00  0.00    -0.237 OA
ATOM     72  O   UNL     1      11.987  11.425  11.734  1.00  0.00    -0.744 OA
ENDBRANCH  65  69
ENDBRANCH  39  62
ENDBRANCH  13  14
ENDBRANCH   6   8
ENDBRANCH   5   6
ENDBRANCH   4   5
ENDBRANCH   3   4
ENDBRANCH   2   3
ENDBRANCH   1   2
BRANCH   1  73
ATOM     73  C   UNL     1       3.887   0.729  -4.136  1.00  0.00     0.188 C 
BRANCH  73  74
ATOM     74  O   UNL     1       4.526   1.171  -5.324  1.00  0.00    -0.376 OA
BRANCH  74  75
ATOM     75  C   UNL     1       5.539   2.160  -5.179  1.00  0.00     0.202 C 
BRANCH  75  76
ATOM     76  C   UNL     1       5.110   3.546  -4.687  1.00  0.00     0.261 C 
BRANCH  76  77
ATOM     77  O   UNL     1       4.563   3.596  -3.353  1.00  0.00    -0.461 OA
BRANCH  77  78
ATOM     78  C   UNL     1       3.274   4.056  -3.285  1.00  0.00     0.336 C 
ATOM     79  O   UNL     1       2.487   3.969  -4.224  1.00  0.00    -0.249 OA
BRANCH  78  80
ATOM     80  C   UNL     1       2.908   4.694  -1.902  1.00  0.00     0.164 C 
ATOM     81  C   UNL     1       1.572   5.474  -2.061  1.00  0.00     0.046 C 
ATOM     82  C   UNL     1       4.024   5.666  -1.438  1.00  0.00    -0.008 A 
ATOM     83  C   UNL     1       1.750   6.750  -2.880  1.00  0.00     0.008 C 
ATOM     84  C   UNL     1       3.910   7.063  -1.596  1.00  0.00    -0.042 A 
ATOM     85  C   UNL     1       5.183   5.158  -0.808  1.00  0.00     0.007 A 
ATOM     86  C   UNL     1       2.676   7.719  -2.160  1.00  0.00     0.036 C 
ATOM     87  C   UNL     1       4.942   7.901  -1.136  1.00  0.00     0.004 A 
ATOM     88  C   UNL     1       6.191   6.003  -0.346  1.00  0.00     0.000 A 
ATOM     89  C   UNL     1       6.075   7.375  -0.519  1.00  0.00     0.000 A 
BRANCH  80  90
ATOM     90  N   UNL     1       2.767   3.668  -0.832  1.00  0.00    -0.336 N 
ATOM     91  C   UNL     1       1.765   2.736  -0.734  1.00  0.00     0.224 C 
ATOM     92  H   UNL     1       3.457   3.658  -0.130  1.00  0.00     0.164 HD
ATOM     93  O   UNL     1       0.621   3.084  -0.467  1.00  0.00    -0.275 OA
BRANCH  91  94
ATOM     94  C   UNL     1       2.203   1.257  -0.856  1.00  0.00     0.082 C 
ATOM     95  C   UNL     1       0.567   0.267  -1.120  1.00  0.00     0.035 C 
ATOM     96  C   UNL     1       3.596   0.391   0.233  1.00  0.00     0.035 C 
ATOM     97  C   UNL     1       0.360  -1.465  -0.353  1.00  0.00     0.120 C 
ATOM     98  C   UNL     1       3.228  -1.355   1.048  1.00  0.00     0.120 C 
ATOM     99  N   UNL     1       1.751  -2.271   0.505  1.00  0.00    -0.342 N 
ATOM    100  C   UNL     1       1.551  -3.660   0.546  1.00  0.00     0.225 C 
ATOM    101  O   UNL     1       0.516  -4.134   0.070  1.00  0.00    -0.275 OA
BRANCH 100 102
ATOM    102  C   UNL     1       2.506  -4.670   1.071  1.00  0.00     0.079 C 
ATOM    103  C   UNL     1       3.978  -4.634   1.333  1.00  0.00     0.014 C 
ATOM    104  C   UNL     1       3.013  -4.582   2.484  1.00  0.00     0.014 C 
ENDBRANCH 100 102
ENDBRANCH  91  94
ENDBRANCH  80  90
ENDBRANCH  78  80
ENDBRANCH  77  78
ENDBRANCH  76  77
ENDBRANCH  75  76
ENDBRANCH  74  75
ENDBRANCH  73  74
ENDBRANCH   1  73
TORSDOF 23
