REMARK SMILES CC[C@H](O)C[C@@H](Cc1ccccc1OC)C(=O)OCCOCCOCCOC(=O)c1ccc(-c2c3nc(c(-c4cc(S(=O)(=O)[O-])ccc4F)c4ccc([nH]4)c(-c4cc(S(=O)(=O)[O-])ccc4F)c4nc(c(-c5cc(S(=O)(=O)[O-])ccc5F)c5ccc2[nH]5)C=C4)C=C3)cc1
REMARK SMILES IDX 22 1 21 2 20 3 19 4 18 5 16 6 17 7 6 8 5 9 3 10 2 11 1 12
REMARK SMILES IDX 4 13 7 15 8 16 9 17 13 18 10 19 12 20 11 21 14 22 15 23
REMARK SMILES IDX 23 24 24 25 25 26 26 27 27 28 28 29 29 30 30 31 31 32 92 33
REMARK SMILES IDX 32 34 91 35 33 36 34 37 35 38 85 39 36 40 90 41 84 42 86 43
REMARK SMILES IDX 37 44 89 45 83 46 82 47 38 49 70 50 50 51 69 52 51 53 54 54
REMARK SMILES IDX 68 55 87 56 52 57 53 58 67 60 88 61 55 62 39 63 40 64 48 65
REMARK SMILES IDX 41 66 47 67 49 68 46 69 42 70 43 71 44 72 45 73 71 74 72 75
REMARK SMILES IDX 80 76 73 77 79 78 81 79 78 80 74 81 75 82 76 83 77 84 56 85
REMARK SMILES IDX 57 86 65 87 58 88 64 89 66 90 63 91 59 92 60 93 61 94 62 95
REMARK H PARENT 4 14 86 48 54 59
REMARK Flexibility Score: inf
ROOT
ATOM      1  C   UNL     1      -2.162   6.421   1.121  1.00  0.00     0.188 C 
ENDROOT
BRANCH   1   2
ATOM      2  O   UNL     1      -2.035   7.825   1.052  1.00  0.00    -0.376 OA
BRANCH   2   3
ATOM      3  C   UNL     1      -0.789   8.373   0.655  1.00  0.00     0.202 C 
BRANCH   3   4
ATOM      4  C   UNL     1       0.544   7.653   0.895  1.00  0.00     0.261 C 
BRANCH   4   5
ATOM      5  O   UNL     1       0.746   6.355   0.286  1.00  0.00    -0.463 OA
BRANCH   5   6
ATOM      6  C   UNL     1       0.997   5.331   1.151  1.00  0.00     0.309 C 
ATOM      7  O   UNL     1       0.850   5.418   2.369  1.00  0.00    -0.252 OA
BRANCH   6   8
ATOM      8  C   UNL     1       1.568   4.055   0.531  1.00  0.00     0.106 C 
BRANCH   8   9
ATOM      9  C   UNL     1       1.031   3.576  -0.843  1.00  0.00     0.047 C 
BRANCH   9  10
ATOM     10  C   UNL     1       1.206   2.057  -1.063  1.00  0.00     0.115 C 
BRANCH  10  11
ATOM     11  C   UNL     1       0.621   1.597  -2.406  1.00  0.00     0.028 C 
ATOM     12  C   UNL     1       0.732   0.086  -2.599  1.00  0.00     0.006 C 
ENDBRANCH  10  11
BRANCH  10  13
ATOM     13  O   UNL     1       0.512   1.361  -0.029  1.00  0.00    -0.393 OA
ATOM     14  H   UNL     1      -0.432   1.578  -0.071  1.00  0.00     0.210 HD
ENDBRANCH  10  13
ENDBRANCH   9  10
ENDBRANCH   8   9
BRANCH   8  15
ATOM     15  C   UNL     1       3.109   4.071   0.616  1.00  0.00     0.054 C 
BRANCH  15  16
ATOM     16  C   UNL     1       3.754   5.146  -0.232  1.00  0.00    -0.005 A 
ATOM     17  C   UNL     1       4.171   4.732  -1.520  1.00  0.00     0.007 A 
ATOM     18  C   UNL     1       3.781   6.517   0.067  1.00  0.00     0.122 A 
ATOM     19  C   UNL     1       4.475   5.650  -2.522  1.00  0.00     0.001 A 
ATOM     20  C   UNL     1       4.058   7.429  -0.966  1.00  0.00     0.047 A 
ATOM     21  C   UNL     1       4.384   7.006  -2.253  1.00  0.00     0.004 A 
BRANCH  18  22
ATOM     22  O   UNL     1       3.374   7.160   1.200  1.00  0.00    -0.496 OA
ATOM     23  C   UNL     1       3.688   6.683   2.496  1.00  0.00     0.278 C 
ENDBRANCH  18  22
ENDBRANCH  15  16
ENDBRANCH   8  15
ENDBRANCH   6   8
ENDBRANCH   5   6
ENDBRANCH   4   5
ENDBRANCH   3   4
ENDBRANCH   2   3
ENDBRANCH   1   2
BRANCH   1  24
ATOM     24  C   UNL     1      -1.925   5.630  -0.166  1.00  0.00     0.188 C 
BRANCH  24  25
ATOM     25  O   UNL     1      -1.663   6.283  -1.384  1.00  0.00    -0.376 OA
BRANCH  25  26
ATOM     26  C   UNL     1      -2.645   7.137  -1.942  1.00  0.00     0.202 C 
BRANCH  26  27
ATOM     27  C   UNL     1      -4.163   6.993  -1.705  1.00  0.00     0.261 C 
BRANCH  27  28
ATOM     28  O   UNL     1      -4.604   6.202  -0.596  1.00  0.00    -0.460 OA
BRANCH  28  29
ATOM     29  C   UNL     1      -4.886   4.901  -0.889  1.00  0.00     0.338 C 
ATOM     30  O   UNL     1      -4.853   4.388  -1.988  1.00  0.00    -0.246 OA
BRANCH  29  31
ATOM     31  C   UNL     1      -4.973   4.135   0.383  1.00  0.00     0.060 A 
ATOM     32  C   UNL     1      -4.120   3.031   0.552  1.00  0.00     0.016 A 
ATOM     33  C   UNL     1      -5.868   4.489   1.393  1.00  0.00     0.016 A 
ATOM     34  C   UNL     1      -4.204   2.239   1.695  1.00  0.00     0.010 A 
ATOM     35  C   UNL     1      -5.983   3.669   2.523  1.00  0.00     0.010 A 
ATOM     36  C   UNL     1      -5.193   2.508   2.647  1.00  0.00    -0.014 A 
BRANCH  36  37
ATOM     37  C   UNL     1      -5.618   1.406   3.551  1.00  0.00     0.031 A 
ATOM     38  C   UNL     1      -6.794   0.570   3.108  1.00  0.00     0.074 A 
ATOM     39  C   UNL     1      -4.956   1.096   4.680  1.00  0.00     0.049 A 
ATOM     40  N   UNL     1      -7.389  -0.426   3.711  1.00  0.00    -0.248 NA
ATOM     41  C   UNL     1      -7.380   0.916   1.802  1.00  0.00     0.031 C 
ATOM     42  C   UNL     1      -3.763   1.776   5.178  1.00  0.00     0.029 A 
ATOM     43  N   UNL     1      -5.200   0.117   5.612  1.00  0.00    -0.354 N 
ATOM     44  C   UNL     1      -8.423  -0.815   2.864  1.00  0.00     0.074 A 
ATOM     45  C   UNL     1      -8.402   0.081   1.730  1.00  0.00     0.031 C 
ATOM     46  C   UNL     1      -3.384   1.199   6.333  1.00  0.00     0.029 A 
ATOM     47  C   UNL     1      -4.326   0.132   6.674  1.00  0.00     0.049 A 
ATOM     48  H   UNL     1      -5.932  -0.535   5.528  1.00  0.00     0.167 HD
ATOM     49  C   UNL     1      -9.303  -1.835   3.009  1.00  0.00     0.034 A 
ATOM     50  C   UNL     1      -4.305  -0.616   7.798  1.00  0.00     0.034 A 
ATOM     51  C   UNL     1      -9.319  -2.719   4.148  1.00  0.00     0.049 A 
ATOM     52  C   UNL     1      -5.354  -1.692   7.984  1.00  0.00     0.074 A 
ATOM     53  C   UNL     1     -10.170  -3.779   4.403  1.00  0.00     0.029 A 
ATOM     54  N   UNL     1      -8.447  -2.641   5.227  1.00  0.00    -0.354 N 
ATOM     55  N   UNL     1      -6.337  -2.043   7.184  1.00  0.00    -0.248 NA
ATOM     56  C   UNL     1      -5.278  -2.484   9.219  1.00  0.00     0.031 C 
ATOM     57  C   UNL     1      -9.866  -4.290   5.669  1.00  0.00     0.029 A 
ATOM     58  C   UNL     1      -8.759  -3.617   6.161  1.00  0.00     0.049 A 
ATOM     59  H   UNL     1      -7.715  -1.989   5.315  1.00  0.00     0.167 HD
ATOM     60  C   UNL     1      -6.960  -3.129   7.799  1.00  0.00     0.074 A 
ATOM     61  C   UNL     1      -6.236  -3.378   9.027  1.00  0.00     0.031 C 
ATOM     62  C   UNL     1      -8.028  -3.860   7.383  1.00  0.00     0.034 A 
BRANCH  49  63
ATOM     63  C   UNL     1     -10.355  -2.000   1.937  1.00  0.00     0.023 A 
ATOM     64  C   UNL     1     -10.023  -2.301   0.604  1.00  0.00     0.031 A 
ATOM     65  C   UNL     1     -11.714  -1.813   2.249  1.00  0.00     0.131 A 
ATOM     66  C   UNL     1     -11.025  -2.334  -0.378  1.00  0.00     0.055 A 
ATOM     67  C   UNL     1     -12.715  -1.935   1.284  1.00  0.00     0.041 A 
ATOM     68  F   UNL     1     -12.092  -1.494   3.497  1.00  0.00    -0.206 F 
ATOM     69  C   UNL     1     -12.372  -2.182  -0.041  1.00  0.00     0.022 A 
BRANCH  66  70
ATOM     70  S   UNL     1     -10.532  -2.425  -2.121  1.00  0.00     0.124 S 
ATOM     71  O   UNL     1      -9.703  -1.229  -2.256  1.00  0.00    -0.237 OA
ATOM     72  O   UNL     1      -9.831  -3.701  -2.185  1.00  0.00    -0.237 OA
ATOM     73  O   UNL     1     -11.804  -2.375  -2.840  1.00  0.00    -0.744 OA
ENDBRANCH  66  70
ENDBRANCH  49  63
BRANCH  50  74
ATOM     74  C   UNL     1      -3.289  -0.366   8.864  1.00  0.00     0.023 A 
ATOM     75  C   UNL     1      -2.374  -1.359   9.252  1.00  0.00     0.031 A 
ATOM     76  C   UNL     1      -3.274   0.850   9.573  1.00  0.00     0.131 A 
ATOM     77  C   UNL     1      -1.526  -1.143  10.351  1.00  0.00     0.055 A 
ATOM     78  C   UNL     1      -2.386   1.084  10.624  1.00  0.00     0.041 A 
ATOM     79  F   UNL     1      -4.132   1.832   9.254  1.00  0.00    -0.206 F 
ATOM     80  C   UNL     1      -1.516   0.077  11.030  1.00  0.00     0.022 A 
BRANCH  77  81
ATOM     81  S   UNL     1      -0.511  -2.521  10.954  1.00  0.00     0.124 S 
ATOM     82  O   UNL     1      -1.524  -3.526  11.254  1.00  0.00    -0.237 OA
ATOM     83  O   UNL     1       0.343  -2.794   9.803  1.00  0.00    -0.237 OA
ATOM     84  O   UNL     1       0.174  -1.957  12.115  1.00  0.00    -0.744 OA
ENDBRANCH  77  81
ENDBRANCH  50  74
BRANCH  62  85
ATOM     85  C   UNL     1      -8.425  -5.053   8.227  1.00  0.00     0.023 A 
ATOM     86  C   UNL     1      -8.871  -4.920   9.553  1.00  0.00     0.031 A 
ATOM     87  C   UNL     1      -8.324  -6.352   7.696  1.00  0.00     0.131 A 
ATOM     88  C   UNL     1      -9.119  -6.065  10.327  1.00  0.00     0.055 A 
ATOM     89  C   UNL     1      -8.650  -7.484   8.444  1.00  0.00     0.041 A 
ATOM     90  F   UNL     1      -7.902  -6.546   6.436  1.00  0.00    -0.206 F 
ATOM     91  C   UNL     1      -9.031  -7.345   9.775  1.00  0.00     0.022 A 
BRANCH  88  92
ATOM     92  S   UNL     1      -9.421  -5.865  12.105  1.00  0.00     0.124 S 
ATOM     93  O   UNL     1      -8.251  -5.104  12.528  1.00  0.00    -0.237 OA
ATOM     94  O   UNL     1     -10.691  -5.147  12.126  1.00  0.00    -0.237 OA
ATOM     95  O   UNL     1      -9.478  -7.240  12.599  1.00  0.00    -0.744 OA
ENDBRANCH  88  92
ENDBRANCH  62  85
ENDBRANCH  36  37
ENDBRANCH  29  31
ENDBRANCH  28  29
ENDBRANCH  27  28
ENDBRANCH  26  27
ENDBRANCH  25  26
ENDBRANCH  24  25
ENDBRANCH   1  24
TORSDOF 27
