REMARK SMILES CC(C)Cc1cc2c(cc1Cl)C=C(C(=O)OCCOCCOCCOC(=O)c1ccc(-c3c4nc(c(-c5cc(S(=O)(=O)[O-])ccc5F)c5ccc([nH]5)c(-c5cc(S(=O)(=O)[O-])ccc5F)c5nc(c(-c6cc(S(=O)(=O)[O-])ccc6F)c6ccc3[nH]6)C=C5)C=C4)cc1)[C@H](C(F)(F)F)O2
REMARK SMILES IDX 21 1 20 2 19 3 18 4 17 5 16 6 14 7 15 8 13 9 5 10 6 11 10 12
REMARK SMILES IDX 7 13 9 14 11 15 8 16 96 17 12 18 91 19 4 20 2 21 1 22 3 23
REMARK SMILES IDX 92 24 93 25 94 26 95 27 22 28 23 29 24 30 25 31 26 32 27 33
REMARK SMILES IDX 28 34 29 35 90 36 30 37 89 38 31 39 32 40 33 41 83 42 34 43
REMARK SMILES IDX 88 44 82 45 84 46 35 47 87 48 81 49 80 50 36 52 68 53 48 54
REMARK SMILES IDX 67 55 49 56 52 57 66 58 85 59 50 60 51 61 65 63 86 64 53 65
REMARK SMILES IDX 37 66 38 67 46 68 39 69 45 70 47 71 44 72 40 73 41 74 42 75
REMARK SMILES IDX 43 76 69 77 70 78 78 79 71 80 77 81 79 82 76 83 72 84 73 85
REMARK SMILES IDX 74 86 75 87 54 88 55 89 63 90 56 91 62 92 64 93 61 94 57 95
REMARK SMILES IDX 58 96 59 97 60 98
REMARK H PARENT 84 51 52 62
REMARK Flexibility Score: inf
ROOT
ATOM      1  C   UNL     1      -5.367   3.524  -6.301  1.00  0.00     0.188 C 
ENDROOT
BRANCH   1   2
ATOM      2  C   UNL     1      -4.314   4.631  -6.479  1.00  0.00     0.188 C 
BRANCH   2   3
ATOM      3  O   UNL     1      -4.107   5.222  -7.757  1.00  0.00    -0.376 OA
BRANCH   3   4
ATOM      4  C   UNL     1      -4.152   4.416  -8.928  1.00  0.00     0.202 C 
BRANCH   4   5
ATOM      5  C   UNL     1      -3.212   3.205  -9.023  1.00  0.00     0.261 C 
BRANCH   5   6
ATOM      6  O   UNL     1      -3.324   2.273  -7.930  1.00  0.00    -0.460 OA
BRANCH   6   7
ATOM      7  C   UNL     1      -2.178   2.021  -7.261  1.00  0.00     0.338 C 
ATOM      8  O   UNL     1      -1.058   2.394  -7.570  1.00  0.00    -0.246 OA
BRANCH   7   9
ATOM      9  C   UNL     1      -2.446   1.290  -6.011  1.00  0.00     0.087 C 
ATOM     10  C   UNL     1      -1.584  -0.406  -1.368  1.00  0.00    -0.025 A 
ATOM     11  C   UNL     1      -1.795  -1.017  -2.621  1.00  0.00     0.052 A 
ATOM     12  C   UNL     1      -1.727   0.988  -1.270  1.00  0.00     0.045 A 
ATOM     13  C   UNL     1      -2.066  -0.250  -3.754  1.00  0.00     0.128 A 
ATOM     14  C   UNL     1      -1.966   1.759  -2.411  1.00  0.00     0.032 A 
ATOM     15  Cl  UNL     1      -1.573   1.830   0.230  1.00  0.00    -0.084 Cl
ATOM     16  C   UNL     1      -2.106   1.143  -3.656  1.00  0.00     0.019 A 
ATOM     17  O   UNL     1      -2.182  -0.919  -4.948  1.00  0.00    -0.475 OA
ATOM     18  C   UNL     1      -2.138   1.933  -4.876  1.00  0.00     0.027 C 
ATOM     19  C   UNL     1      -2.781  -0.173  -6.053  1.00  0.00     0.316 C 
BRANCH  10  20
ATOM     20  C   UNL     1      -1.109  -1.267  -0.216  1.00  0.00     0.040 C 
BRANCH  20  21
ATOM     21  C   UNL     1       0.416  -1.528  -0.253  1.00  0.00    -0.013 C 
ATOM     22  C   UNL     1       1.248  -0.262  -0.024  1.00  0.00     0.008 C 
ATOM     23  C   UNL     1       0.796  -2.574   0.797  1.00  0.00     0.008 C 
ENDBRANCH  20  21
ENDBRANCH  10  20
BRANCH  19  24
ATOM     24  C   UNL     1      -4.279  -0.531  -6.175  1.00  0.00     0.430 C 
ATOM     25  F   UNL     1      -5.061   0.511  -6.514  1.00  0.00    -0.167 F 
ATOM     26  F   UNL     1      -4.461  -1.474  -7.137  1.00  0.00    -0.167 F 
ATOM     27  F   UNL     1      -4.788  -1.042  -5.029  1.00  0.00    -0.167 F 
ENDBRANCH  19  24
ENDBRANCH   7   9
ENDBRANCH   6   7
ENDBRANCH   5   6
ENDBRANCH   4   5
ENDBRANCH   3   4
ENDBRANCH   2   3
ENDBRANCH   1   2
BRANCH   1  28
ATOM     28  O   UNL     1      -6.162   3.306  -7.450  1.00  0.00    -0.376 OA
BRANCH  28  29
ATOM     29  C   UNL     1      -7.564   3.457  -7.301  1.00  0.00     0.202 C 
BRANCH  29  30
ATOM     30  C   UNL     1      -8.060   4.881  -7.015  1.00  0.00     0.261 C 
BRANCH  30  31
ATOM     31  O   UNL     1      -7.426   5.557  -5.920  1.00  0.00    -0.460 OA
BRANCH  31  32
ATOM     32  C   UNL     1      -7.691   5.114  -4.668  1.00  0.00     0.338 C 
ATOM     33  O   UNL     1      -8.414   4.182  -4.362  1.00  0.00    -0.246 OA
BRANCH  32  34
ATOM     34  C   UNL     1      -6.763   5.826  -3.758  1.00  0.00     0.060 A 
ATOM     35  C   UNL     1      -6.665   7.218  -3.817  1.00  0.00     0.016 A 
ATOM     36  C   UNL     1      -5.946   5.097  -2.882  1.00  0.00     0.016 A 
ATOM     37  C   UNL     1      -5.757   7.880  -2.992  1.00  0.00     0.010 A 
ATOM     38  C   UNL     1      -5.037   5.765  -2.052  1.00  0.00     0.010 A 
ATOM     39  C   UNL     1      -4.947   7.165  -2.090  1.00  0.00    -0.014 A 
BRANCH  39  40
ATOM     40  C   UNL     1      -4.161   7.923  -1.083  1.00  0.00     0.031 A 
ATOM     41  C   UNL     1      -2.679   8.114  -1.196  1.00  0.00     0.074 A 
ATOM     42  C   UNL     1      -4.837   8.489  -0.064  1.00  0.00     0.049 A 
ATOM     43  N   UNL     1      -1.906   8.915  -0.509  1.00  0.00    -0.248 NA
ATOM     44  C   UNL     1      -1.971   7.303  -2.195  1.00  0.00     0.031 C 
ATOM     45  C   UNL     1      -6.272   8.320   0.169  1.00  0.00     0.029 A 
ATOM     46  N   UNL     1      -4.430   9.331   0.940  1.00  0.00    -0.354 N 
ATOM     47  C   UNL     1      -0.622   8.729  -1.006  1.00  0.00     0.074 A 
ATOM     48  C   UNL     1      -0.713   7.693  -2.014  1.00  0.00     0.031 C 
ATOM     49  C   UNL     1      -6.635   9.073   1.216  1.00  0.00     0.029 A 
ATOM     50  C   UNL     1      -5.459   9.759   1.746  1.00  0.00     0.049 A 
ATOM     51  H   UNL     1      -3.492   9.602   1.070  1.00  0.00     0.167 HD
ATOM     52  C   UNL     1       0.515   9.384  -0.663  1.00  0.00     0.034 A 
ATOM     53  C   UNL     1      -5.467  10.626   2.780  1.00  0.00     0.034 A 
ATOM     54  C   UNL     1       0.580  10.402   0.361  1.00  0.00     0.049 A 
ATOM     55  C   UNL     1      -4.192  11.345   3.137  1.00  0.00     0.074 A 
ATOM     56  C   UNL     1       1.676  11.155   0.749  1.00  0.00     0.029 A 
ATOM     57  N   UNL     1      -0.479  10.808   1.162  1.00  0.00    -0.354 N 
ATOM     58  N   UNL     1      -3.010  11.255   2.573  1.00  0.00    -0.248 NA
ATOM     59  C   UNL     1      -4.253  12.306   4.246  1.00  0.00     0.031 C 
ATOM     60  C   UNL     1       1.302  11.952   1.830  1.00  0.00     0.029 A 
ATOM     61  C   UNL     1      -0.053  11.777   2.058  1.00  0.00     0.049 A 
ATOM     62  H   UNL     1      -1.398  10.459   1.103  1.00  0.00     0.167 HD
ATOM     63  C   UNL     1      -2.199  12.175   3.232  1.00  0.00     0.074 A 
ATOM     64  C   UNL     1      -3.031  12.825   4.222  1.00  0.00     0.031 C 
ATOM     65  C   UNL     1      -0.886  12.451   3.029  1.00  0.00     0.034 A 
BRANCH  52  66
ATOM     66  C   UNL     1       1.794   9.071  -1.406  1.00  0.00     0.023 A 
ATOM     67  C   UNL     1       2.926   8.605  -0.709  1.00  0.00     0.031 A 
ATOM     68  C   UNL     1       1.943   9.401  -2.766  1.00  0.00     0.131 A 
ATOM     69  C   UNL     1       4.164   8.527  -1.361  1.00  0.00     0.055 A 
ATOM     70  C   UNL     1       3.169   9.276  -3.422  1.00  0.00     0.041 A 
ATOM     71  F   UNL     1       0.899   9.860  -3.475  1.00  0.00    -0.206 F 
ATOM     72  C   UNL     1       4.290   8.853  -2.715  1.00  0.00     0.022 A 
BRANCH  69  73
ATOM     73  S   UNL     1       5.676   8.086  -0.459  1.00  0.00     0.124 S 
ATOM     74  O   UNL     1       6.123   6.900  -1.186  1.00  0.00    -0.237 OA
ATOM     75  O   UNL     1       6.500   9.277  -0.643  1.00  0.00    -0.237 OA
ATOM     76  O   UNL     1       5.214   7.841   0.903  1.00  0.00    -0.744 OA
ENDBRANCH  69  73
ENDBRANCH  52  66
BRANCH  53  77
ATOM     77  C   UNL     1      -6.760  10.916   3.466  1.00  0.00     0.023 A 
ATOM     78  C   UNL     1      -7.477   9.893   4.114  1.00  0.00     0.031 A 
ATOM     79  C   UNL     1      -7.354  12.187   3.383  1.00  0.00     0.131 A 
ATOM     80  C   UNL     1      -8.771  10.141   4.589  1.00  0.00     0.055 A 
ATOM     81  C   UNL     1      -8.612  12.450   3.929  1.00  0.00     0.041 A 
ATOM     82  F   UNL     1      -6.721  13.191   2.756  1.00  0.00    -0.206 F 
ATOM     83  C   UNL     1      -9.335  11.418   4.519  1.00  0.00     0.022 A 
BRANCH  80  84
ATOM     84  S   UNL     1      -9.817   8.783   5.181  1.00  0.00     0.124 S 
ATOM     85  O   UNL     1     -10.096   9.189   6.555  1.00  0.00    -0.237 OA
ATOM     86  O   UNL     1     -10.948   8.856   4.260  1.00  0.00    -0.237 OA
ATOM     87  O   UNL     1      -8.971   7.604   5.030  1.00  0.00    -0.744 OA
ENDBRANCH  80  84
ENDBRANCH  53  77
BRANCH  65  88
ATOM     88  C   UNL     1      -0.228  13.530   3.861  1.00  0.00     0.023 A 
ATOM     89  C   UNL     1       0.350  14.647   3.223  1.00  0.00     0.031 A 
ATOM     90  C   UNL     1      -0.033  13.387   5.245  1.00  0.00     0.131 A 
ATOM     91  C   UNL     1       1.132  15.547   3.958  1.00  0.00     0.055 A 
ATOM     92  C   UNL     1       0.699  14.319   5.984  1.00  0.00     0.041 A 
ATOM     93  F   UNL     1      -0.547  12.335   5.902  1.00  0.00    -0.206 F 
ATOM     94  C   UNL     1       1.299  15.396   5.338  1.00  0.00     0.022 A 
BRANCH  91  95
ATOM     95  S   UNL     1       2.044  16.884   3.137  1.00  0.00     0.124 S 
ATOM     96  O   UNL     1       1.450  18.073   3.746  1.00  0.00    -0.237 OA
ATOM     97  O   UNL     1       3.422  16.604   3.532  1.00  0.00    -0.237 OA
ATOM     98  O   UNL     1       1.747  16.697   1.721  1.00  0.00    -0.744 OA
ENDBRANCH  91  95
ENDBRANCH  65  88
ENDBRANCH  39  40
ENDBRANCH  32  34
ENDBRANCH  31  32
ENDBRANCH  30  31
ENDBRANCH  29  30
ENDBRANCH  28  29
ENDBRANCH   1  28
TORSDOF 23
