REMARK SMILES CCCC[C@H](C(=O)OCCOCCOCCOC(=O)c1ccc(-c2c3nc(c(-c4cc(S(=O)(=O)[O-])ccc4F)c4ccc([nH]4)c(-c4cc(S(=O)(=O)[O-])ccc4F)c4nc(c(-c5cc(S(=O)(=O)[O-])ccc5F)c5ccc2[nH]5)C=C4)C=C3)cc1)N1C(=O)/C(=C/c2ccc(C)cc2)SC1=S
REMARK SMILES IDX 12 1 11 2 10 3 9 4 8 5 6 6 7 7 5 8 4 9 3 10 2 11 1 12 83 13
REMARK SMILES IDX 84 14 96 15 85 16 86 17 95 18 97 19 87 20 88 21 89 22 94 23
REMARK SMILES IDX 90 24 93 25 91 26 92 27 13 28 14 29 15 30 16 31 17 32 18 33
REMARK SMILES IDX 19 34 20 35 21 36 82 37 22 38 81 39 23 40 24 41 25 42 75 43
REMARK SMILES IDX 26 44 80 45 74 46 76 47 27 48 79 49 73 50 72 51 28 53 60 54
REMARK SMILES IDX 40 55 59 56 41 57 44 58 58 59 77 60 42 61 43 62 57 64 78 65
REMARK SMILES IDX 45 66 29 67 30 68 38 69 31 70 37 71 39 72 36 73 32 74 33 75
REMARK SMILES IDX 34 76 35 77 61 78 62 79 70 80 63 81 69 82 71 83 68 84 64 85
REMARK SMILES IDX 65 86 66 87 67 88 46 89 47 90 55 91 48 92 54 93 56 94 53 95
REMARK SMILES IDX 49 96 50 97 51 98 52 99
REMARK H PARENT 76 52 44 63
REMARK Flexibility Score: inf
ROOT
ATOM      1  C   UNL     1       2.265   0.305   2.083  1.00  0.00     0.188 C 
ENDROOT
BRANCH   1   2
ATOM      2  O   UNL     1       3.599   0.768   1.922  1.00  0.00    -0.376 OA
BRANCH   2   3
ATOM      3  C   UNL     1       3.895   2.132   2.203  1.00  0.00     0.202 C 
BRANCH   3   4
ATOM      4  C   UNL     1       2.996   3.228   1.608  1.00  0.00     0.261 C 
BRANCH   4   5
ATOM      5  O   UNL     1       1.605   3.176   2.010  1.00  0.00    -0.462 OA
BRANCH   5   6
ATOM      6  C   UNL     1       0.703   3.096   1.004  1.00  0.00     0.329 C 
ATOM      7  O   UNL     1       1.015   3.053  -0.185  1.00  0.00    -0.250 OA
BRANCH   6   8
ATOM      8  C   UNL     1      -0.777   3.207   1.421  1.00  0.00     0.202 C 
BRANCH   8   9
ATOM      9  C   UNL     1      -1.492   2.811   2.730  1.00  0.00     0.038 C 
BRANCH   9  10
ATOM     10  C   UNL     1      -1.516   3.747   3.940  1.00  0.00     0.002 C 
BRANCH  10  11
ATOM     11  C   UNL     1      -2.546   4.886   3.909  1.00  0.00    -0.003 C 
ATOM     12  C   UNL     1      -4.000   4.453   3.788  1.00  0.00     0.004 C 
ENDBRANCH  10  11
ENDBRANCH   9  10
ENDBRANCH   8   9
BRANCH   8  13
ATOM     13  N   UNL     1      -1.290   4.431   0.812  1.00  0.00    -0.278 N 
ATOM     14  C   UNL     1      -2.316   4.296  -0.107  1.00  0.00     0.266 C 
ATOM     15  C   UNL     1      -0.833   5.712   1.063  1.00  0.00     0.149 C 
ATOM     16  O   UNL     1      -2.909   3.267  -0.395  1.00  0.00    -0.268 OA
ATOM     17  C   UNL     1      -2.630   5.611  -0.690  1.00  0.00     0.081 C 
ATOM     18  S   UNL     1      -1.817   6.854   0.180  1.00  0.00    -0.054 SA
ATOM     19  S   UNL     1       0.431   6.249   2.014  1.00  0.00    -0.052 S 
ATOM     20  C   UNL     1      -3.405   5.747  -1.773  1.00  0.00     0.029 C 
BRANCH  20  21
ATOM     21  C   UNL     1      -3.656   7.067  -2.341  1.00  0.00    -0.024 A 
ATOM     22  C   UNL     1      -4.903   7.662  -2.158  1.00  0.00     0.008 A 
ATOM     23  C   UNL     1      -2.596   7.802  -2.887  1.00  0.00     0.008 A 
ATOM     24  C   UNL     1      -5.067   9.015  -2.449  1.00  0.00     0.004 A 
ATOM     25  C   UNL     1      -2.755   9.158  -3.151  1.00  0.00     0.004 A 
ATOM     26  C   UNL     1      -3.984   9.778  -2.908  1.00  0.00    -0.051 A 
ATOM     27  C   UNL     1      -4.147  11.249  -3.131  1.00  0.00     0.044 C 
ENDBRANCH  20  21
ENDBRANCH   8  13
ENDBRANCH   6   8
ENDBRANCH   5   6
ENDBRANCH   4   5
ENDBRANCH   3   4
ENDBRANCH   2   3
ENDBRANCH   1   2
BRANCH   1  28
ATOM     28  C   UNL     1       1.483   0.747   3.325  1.00  0.00     0.188 C 
BRANCH  28  29
ATOM     29  O   UNL     1       2.179   1.597   4.208  1.00  0.00    -0.376 OA
BRANCH  29  30
ATOM     30  C   UNL     1       2.397   1.147   5.532  1.00  0.00     0.202 C 
BRANCH  30  31
ATOM     31  C   UNL     1       3.110  -0.203   5.717  1.00  0.00     0.261 C 
BRANCH  31  32
ATOM     32  O   UNL     1       2.573  -1.318   4.981  1.00  0.00    -0.460 OA
BRANCH  32  33
ATOM     33  C   UNL     1       1.347  -1.779   5.344  1.00  0.00     0.338 C 
ATOM     34  O   UNL     1       0.673  -1.381   6.271  1.00  0.00    -0.246 OA
BRANCH  33  35
ATOM     35  C   UNL     1       0.862  -2.643   4.230  1.00  0.00     0.060 A 
ATOM     36  C   UNL     1      -0.346  -2.316   3.594  1.00  0.00     0.016 A 
ATOM     37  C   UNL     1       1.632  -3.707   3.757  1.00  0.00     0.016 A 
ATOM     38  C   UNL     1      -0.778  -3.044   2.479  1.00  0.00     0.010 A 
ATOM     39  C   UNL     1       1.181  -4.454   2.662  1.00  0.00     0.010 A 
ATOM     40  C   UNL     1      -0.029  -4.135   2.020  1.00  0.00    -0.014 A 
BRANCH  40  41
ATOM     41  C   UNL     1      -0.568  -5.042   0.970  1.00  0.00     0.031 A 
ATOM     42  C   UNL     1      -1.229  -6.323   1.401  1.00  0.00     0.074 A 
ATOM     43  C   UNL     1      -0.461  -4.753  -0.341  1.00  0.00     0.049 A 
ATOM     44  N   UNL     1      -1.653  -7.327   0.678  1.00  0.00    -0.248 NA
ATOM     45  C   UNL     1      -1.433  -6.489   2.848  1.00  0.00     0.031 C 
ATOM     46  C   UNL     1       0.096  -3.521  -0.893  1.00  0.00     0.029 A 
ATOM     47  N   UNL     1      -0.805  -5.492  -1.449  1.00  0.00    -0.354 N 
ATOM     48  C   UNL     1      -2.167  -8.252   1.581  1.00  0.00     0.074 A 
ATOM     49  C   UNL     1      -1.973  -7.697   2.905  1.00  0.00     0.031 C 
ATOM     50  C   UNL     1       0.074  -3.596  -2.236  1.00  0.00     0.029 A 
ATOM     51  C   UNL     1      -0.448  -4.902  -2.640  1.00  0.00     0.049 A 
ATOM     52  H   UNL     1      -1.264  -6.361  -1.395  1.00  0.00     0.167 HD
ATOM     53  C   UNL     1      -2.748  -9.450   1.329  1.00  0.00     0.034 A 
ATOM     54  C   UNL     1      -0.496  -5.376  -3.904  1.00  0.00     0.034 A 
ATOM     55  C   UNL     1      -2.919 -10.002   0.006  1.00  0.00     0.049 A 
ATOM     56  C   UNL     1      -1.030  -6.771  -4.151  1.00  0.00     0.074 A 
ATOM     57  C   UNL     1      -3.508 -11.201  -0.356  1.00  0.00     0.029 A 
ATOM     58  N   UNL     1      -2.484  -9.405  -1.170  1.00  0.00    -0.354 N 
ATOM     59  N   UNL     1      -1.515  -7.637  -3.291  1.00  0.00    -0.248 NA
ATOM     60  C   UNL     1      -1.018  -7.251  -5.540  1.00  0.00     0.031 C 
ATOM     61  C   UNL     1      -3.350 -11.369  -1.736  1.00  0.00     0.029 A 
ATOM     62  C   UNL     1      -2.747 -10.234  -2.251  1.00  0.00     0.049 A 
ATOM     63  H   UNL     1      -2.052  -8.522  -1.228  1.00  0.00     0.167 HD
ATOM     64  C   UNL     1      -1.889  -8.751  -4.042  1.00  0.00     0.074 A 
ATOM     65  C   UNL     1      -1.593  -8.439  -5.424  1.00  0.00     0.031 C 
ATOM     66  C   UNL     1      -2.431  -9.925  -3.627  1.00  0.00     0.034 A 
BRANCH  53  67
ATOM     67  C   UNL     1      -3.184 -10.273   2.518  1.00  0.00     0.023 A 
ATOM     68  C   UNL     1      -4.191  -9.834   3.395  1.00  0.00     0.031 A 
ATOM     69  C   UNL     1      -2.566 -11.507   2.789  1.00  0.00     0.131 A 
ATOM     70  C   UNL     1      -4.500 -10.588   4.537  1.00  0.00     0.055 A 
ATOM     71  C   UNL     1      -2.938 -12.293   3.880  1.00  0.00     0.041 A 
ATOM     72  F   UNL     1      -1.581 -11.965   2.001  1.00  0.00    -0.206 F 
ATOM     73  C   UNL     1      -3.901 -11.828   4.771  1.00  0.00     0.022 A 
BRANCH  70  74
ATOM     74  S   UNL     1      -5.589  -9.857   5.790  1.00  0.00     0.124 S 
ATOM     75  O   UNL     1      -4.874  -8.625   6.120  1.00  0.00    -0.237 OA
ATOM     76  O   UNL     1      -6.841  -9.693   5.062  1.00  0.00    -0.237 OA
ATOM     77  O   UNL     1      -5.610 -10.859   6.853  1.00  0.00    -0.744 OA
ENDBRANCH  70  74
ENDBRANCH  53  67
BRANCH  54  78
ATOM     78  C   UNL     1       0.034  -4.566  -5.043  1.00  0.00     0.023 A 
ATOM     79  C   UNL     1      -0.794  -4.176  -6.108  1.00  0.00     0.031 A 
ATOM     80  C   UNL     1       1.400  -4.237  -5.120  1.00  0.00     0.131 A 
ATOM     81  C   UNL     1      -0.242  -3.524  -7.224  1.00  0.00     0.055 A 
ATOM     82  C   UNL     1       1.932  -3.533  -6.202  1.00  0.00     0.041 A 
ATOM     83  F   UNL     1       2.243  -4.599  -4.140  1.00  0.00    -0.206 F 
ATOM     84  C   UNL     1       1.111  -3.184  -7.269  1.00  0.00     0.022 A 
BRANCH  81  85
ATOM     85  S   UNL     1      -1.302  -3.218  -8.665  1.00  0.00     0.124 S 
ATOM     86  O   UNL     1      -1.726  -4.570  -9.013  1.00  0.00    -0.237 OA
ATOM     87  O   UNL     1      -2.330  -2.347  -8.107  1.00  0.00    -0.237 OA
ATOM     88  O   UNL     1      -0.399  -2.581  -9.622  1.00  0.00    -0.744 OA
ENDBRANCH  81  85
ENDBRANCH  54  78
BRANCH  66  89
ATOM     89  C   UNL     1      -2.772 -10.948  -4.687  1.00  0.00     0.023 A 
ATOM     90  C   UNL     1      -1.779 -11.575  -5.460  1.00  0.00     0.031 A 
ATOM     91  C   UNL     1      -4.113 -11.299  -4.930  1.00  0.00     0.131 A 
ATOM     92  C   UNL     1      -2.143 -12.476  -6.474  1.00  0.00     0.055 A 
ATOM     93  C   UNL     1      -4.465 -12.246  -5.894  1.00  0.00     0.041 A 
ATOM     94  F   UNL     1      -5.107 -10.732  -4.228  1.00  0.00    -0.206 F 
ATOM     95  C   UNL     1      -3.478 -12.831  -6.681  1.00  0.00     0.022 A 
BRANCH  92  96
ATOM     96  S   UNL     1      -0.855 -13.110  -7.583  1.00  0.00     0.124 S 
ATOM     97  O   UNL     1      -0.319 -11.881  -8.158  1.00  0.00    -0.237 OA
ATOM     98  O   UNL     1       0.027 -13.822  -6.664  1.00  0.00    -0.237 OA
ATOM     99  O   UNL     1      -1.593 -13.960  -8.516  1.00  0.00    -0.744 OA
ENDBRANCH  92  96
ENDBRANCH  66  89
ENDBRANCH  40  41
ENDBRANCH  33  35
ENDBRANCH  32  33
ENDBRANCH  31  32
ENDBRANCH  30  31
ENDBRANCH  29  30
ENDBRANCH  28  29
ENDBRANCH   1  28
TORSDOF 25
