REMARK SMILES COc1cccc([C@@H]2[NH2+][C@@](C)(C(=O)OCCOCCOCCOC(=O)c3ccc(-c4c5nc(c(-c6cc(S(=O)(=O)[O-])ccc6F)c6ccc([nH]6)c(-c6cc(S(=O)(=O)[O-])ccc6F)c6nc(c(-c7cc(S(=O)(=O)[O-])ccc7F)c7ccc4[nH]7)C=C6)C=C5)cc3)[C@@H]3C(=O)N(C)C(=O)[C@@H]32)c1O
REMARK SMILES IDX 19 1 18 2 17 3 16 4 15 5 14 6 12 7 13 8 10 9 8 10 9 11 96 12
REMARK SMILES IDX 89 15 94 16 11 17 90 18 92 19 95 20 91 21 93 22 7 23 3 24
REMARK SMILES IDX 4 25 97 26 5 27 6 28 2 29 1 30 98 31 20 33 21 34 22 35 23 36
REMARK SMILES IDX 24 37 25 38 26 39 27 40 88 41 28 42 87 43 29 44 30 45 31 46
REMARK SMILES IDX 81 47 32 48 86 49 80 50 82 51 33 52 85 53 79 54 78 55 34 57
REMARK SMILES IDX 66 58 46 59 65 60 47 61 50 62 64 63 83 64 48 65 49 66 63 68
REMARK SMILES IDX 84 69 51 70 35 71 36 72 44 73 37 74 43 75 45 76 42 77 38 78
REMARK SMILES IDX 39 79 40 80 41 81 67 82 68 83 76 84 69 85 75 86 77 87 74 88
REMARK SMILES IDX 70 89 71 90 72 91 73 92 52 93 53 94 61 95 54 96 60 97 62 98
REMARK SMILES IDX 59 99 55 100 56 101 57 102 58 103
REMARK H PARENT 9 13 9 14 98 32 82 56 50 67
REMARK Flexibility Score: inf
ROOT
ATOM      1  C   UNL     1      -1.210  -7.390  -2.004  1.00  0.00     0.188 C 
ENDROOT
BRANCH   1   2
ATOM      2  C   UNL     1       0.079  -7.871  -1.309  1.00  0.00     0.188 C 
BRANCH   2   3
ATOM      3  O   UNL     1       0.033  -8.925  -0.353  1.00  0.00    -0.376 OA
BRANCH   3   4
ATOM      4  C   UNL     1      -1.146  -9.136   0.404  1.00  0.00     0.202 C 
BRANCH   4   5
ATOM      5  C   UNL     1      -1.655  -8.005   1.310  1.00  0.00     0.261 C 
BRANCH   5   6
ATOM      6  O   UNL     1      -1.659  -6.676   0.752  1.00  0.00    -0.459 OA
BRANCH   6   7
ATOM      7  C   UNL     1      -0.656  -5.866   1.181  1.00  0.00     0.368 C 
ATOM      8  O   UNL     1       0.193  -6.232   1.994  1.00  0.00    -0.245 OA
BRANCH   7   9
ATOM      9  C   UNL     1      -0.682  -4.400   0.644  1.00  0.00     0.204 C 
ATOM     10  C   UNL     1      -0.641  -3.769  -1.726  1.00  0.00     0.232 C 
ATOM     11  N   UNL     1      -1.517  -4.177  -0.589  1.00  0.00    -0.325 N 
ATOM     12  C   UNL     1       0.776  -4.135  -1.294  1.00  0.00     0.161 C 
ATOM     13  H   UNL     1      -2.003  -5.040  -0.829  1.00  0.00     0.347 HD
ATOM     14  H   UNL     1      -2.197  -3.438  -0.407  1.00  0.00     0.347 HD
ATOM     15  C   UNL     1       0.759  -4.106   0.227  1.00  0.00     0.170 C 
ATOM     16  C   UNL     1       1.868  -3.164  -1.639  1.00  0.00     0.239 C 
ATOM     17  C   UNL     1      -1.280  -3.655   1.847  1.00  0.00     0.093 C 
ATOM     18  C   UNL     1       1.399  -2.784   0.552  1.00  0.00     0.240 C 
ATOM     19  N   UNL     1       2.182  -2.448  -0.520  1.00  0.00    -0.285 N 
ATOM     20  O   UNL     1       2.331  -3.013  -2.757  1.00  0.00    -0.274 OA
ATOM     21  O   UNL     1       1.275  -2.159   1.593  1.00  0.00    -0.274 OA
ATOM     22  C   UNL     1       3.144  -1.374  -0.546  1.00  0.00     0.156 C 
BRANCH  10  23
ATOM     23  C   UNL     1      -0.779  -2.340  -2.254  1.00  0.00     0.056 A 
ATOM     24  C   UNL     1      -0.542   0.073  -1.912  1.00  0.00     0.161 A 
ATOM     25  C   UNL     1      -0.379   0.275  -3.277  1.00  0.00     0.050 A 
ATOM     26  C   UNL     1      -0.805  -1.213  -1.427  1.00  0.00     0.166 A 
ATOM     27  C   UNL     1      -0.456  -0.816  -4.144  1.00  0.00     0.005 A 
ATOM     28  C   UNL     1      -0.642  -2.110  -3.638  1.00  0.00     0.014 A 
BRANCH  24  29
ATOM     29  O   UNL     1      -0.543   1.156  -1.071  1.00  0.00    -0.493 OA
ATOM     30  C   UNL     1       0.662   1.260  -0.305  1.00  0.00     0.278 C 
ENDBRANCH  24  29
BRANCH  26  31
ATOM     31  O   UNL     1      -1.082  -1.393  -0.108  1.00  0.00    -0.504 OA
ATOM     32  H   UNL     1      -1.107  -0.656   0.470  1.00  0.00     0.293 HD
ENDBRANCH  26  31
ENDBRANCH  10  23
ENDBRANCH   7   9
ENDBRANCH   6   7
ENDBRANCH   5   6
ENDBRANCH   4   5
ENDBRANCH   3   4
ENDBRANCH   2   3
ENDBRANCH   1   2
BRANCH   1  33
ATOM     33  O   UNL     1      -2.239  -8.357  -1.966  1.00  0.00    -0.376 OA
BRANCH  33  34
ATOM     34  C   UNL     1      -2.723  -8.830  -3.202  1.00  0.00     0.202 C 
BRANCH  34  35
ATOM     35  C   UNL     1      -1.736  -9.637  -4.058  1.00  0.00     0.261 C 
BRANCH  35  36
ATOM     36  O   UNL     1      -0.396  -9.123  -4.164  1.00  0.00    -0.460 OA
BRANCH  36  37
ATOM     37  C   UNL     1      -0.193  -8.108  -5.042  1.00  0.00     0.338 C 
ATOM     38  O   UNL     1      -1.040  -7.564  -5.717  1.00  0.00    -0.246 OA
BRANCH  37  39
ATOM     39  C   UNL     1       1.208  -7.632  -4.892  1.00  0.00     0.060 A 
ATOM     40  C   UNL     1       1.427  -6.297  -4.537  1.00  0.00     0.016 A 
ATOM     41  C   UNL     1       2.297  -8.479  -5.118  1.00  0.00     0.016 A 
ATOM     42  C   UNL     1       2.732  -5.805  -4.423  1.00  0.00     0.010 A 
ATOM     43  C   UNL     1       3.606  -7.975  -5.019  1.00  0.00     0.010 A 
ATOM     44  C   UNL     1       3.833  -6.629  -4.683  1.00  0.00    -0.014 A 
BRANCH  44  45
ATOM     45  C   UNL     1       5.191  -6.025  -4.800  1.00  0.00     0.031 A 
ATOM     46  C   UNL     1       5.672  -5.614  -6.166  1.00  0.00     0.074 A 
ATOM     47  C   UNL     1       5.970  -5.787  -3.727  1.00  0.00     0.049 A 
ATOM     48  N   UNL     1       6.842  -5.167  -6.542  1.00  0.00    -0.248 NA
ATOM     49  C   UNL     1       4.689  -5.722  -7.255  1.00  0.00     0.031 C 
ATOM     50  C   UNL     1       5.592  -6.028  -2.336  1.00  0.00     0.029 A 
ATOM     51  N   UNL     1       7.251  -5.291  -3.643  1.00  0.00    -0.354 N 
ATOM     52  C   UNL     1       6.741  -4.947  -7.912  1.00  0.00     0.074 A 
ATOM     53  C   UNL     1       5.401  -5.334  -8.300  1.00  0.00     0.031 C 
ATOM     54  C   UNL     1       6.625  -5.695  -1.540  1.00  0.00     0.029 A 
ATOM     55  C   UNL     1       7.758  -5.270  -2.363  1.00  0.00     0.049 A 
ATOM     56  H   UNL     1       7.759  -4.979  -4.427  1.00  0.00     0.167 HD
ATOM     57  C   UNL     1       7.678  -4.470  -8.768  1.00  0.00     0.034 A 
ATOM     58  C   UNL     1       9.001  -4.984  -1.914  1.00  0.00     0.034 A 
ATOM     59  C   UNL     1       9.017  -4.102  -8.375  1.00  0.00     0.049 A 
ATOM     60  C   UNL     1      10.076  -4.592  -2.907  1.00  0.00     0.074 A 
ATOM     61  C   UNL     1      10.047  -3.630  -9.171  1.00  0.00     0.029 A 
ATOM     62  N   UNL     1       9.519  -4.176  -7.083  1.00  0.00    -0.354 N 
ATOM     63  N   UNL     1       9.985  -4.429  -4.208  1.00  0.00    -0.248 NA
ATOM     64  C   UNL     1      11.423  -4.347  -2.371  1.00  0.00     0.031 C 
ATOM     65  C   UNL     1      11.191  -3.500  -8.377  1.00  0.00     0.029 A 
ATOM     66  C   UNL     1      10.853  -3.796  -7.067  1.00  0.00     0.049 A 
ATOM     67  H   UNL     1       9.003  -4.457  -6.293  1.00  0.00     0.167 HD
ATOM     68  C   UNL     1      11.251  -4.026  -4.633  1.00  0.00     0.074 A 
ATOM     69  C   UNL     1      12.084  -3.960  -3.452  1.00  0.00     0.031 C 
ATOM     70  C   UNL     1      11.683  -3.732  -5.886  1.00  0.00     0.034 A 
BRANCH  57  71
ATOM     71  C   UNL     1       7.306  -4.396 -10.228  1.00  0.00     0.023 A 
ATOM     72  C   UNL     1       6.292  -3.543 -10.697  1.00  0.00     0.031 A 
ATOM     73  C   UNL     1       7.957  -5.221 -11.162  1.00  0.00     0.131 A 
ATOM     74  C   UNL     1       5.913  -3.586 -12.048  1.00  0.00     0.055 A 
ATOM     75  C   UNL     1       7.634  -5.197 -12.519  1.00  0.00     0.041 A 
ATOM     76  F   UNL     1       8.914  -6.077 -10.768  1.00  0.00    -0.206 F 
ATOM     77  C   UNL     1       6.596  -4.386 -12.967  1.00  0.00     0.022 A 
BRANCH  74  78
ATOM     78  S   UNL     1       4.418  -2.695 -12.558  1.00  0.00     0.124 S 
ATOM     79  O   UNL     1       3.405  -3.298 -11.694  1.00  0.00    -0.237 OA
ATOM     80  O   UNL     1       4.761  -1.308 -12.267  1.00  0.00    -0.237 OA
ATOM     81  O   UNL     1       4.290  -3.023 -13.976  1.00  0.00    -0.744 OA
ENDBRANCH  74  78
ENDBRANCH  57  71
BRANCH  58  82
ATOM     82  C   UNL     1       9.345  -5.128  -0.465  1.00  0.00     0.023 A 
ATOM     83  C   UNL     1       9.822  -4.040   0.287  1.00  0.00     0.031 A 
ATOM     84  C   UNL     1       9.294  -6.385   0.165  1.00  0.00     0.131 A 
ATOM     85  C   UNL     1      10.279  -4.241   1.600  1.00  0.00     0.055 A 
ATOM     86  C   UNL     1       9.689  -6.567   1.492  1.00  0.00     0.041 A 
ATOM     87  F   UNL     1       8.864  -7.465  -0.507  1.00  0.00    -0.206 F 
ATOM     88  C   UNL     1      10.200  -5.493   2.213  1.00  0.00     0.022 A 
BRANCH  85  89
ATOM     89  S   UNL     1      11.084  -2.862   2.463  1.00  0.00     0.124 S 
ATOM     90  O   UNL     1      12.194  -2.560   1.567  1.00  0.00    -0.237 OA
ATOM     91  O   UNL     1      10.014  -1.872   2.515  1.00  0.00    -0.237 OA
ATOM     92  O   UNL     1      11.460  -3.439   3.752  1.00  0.00    -0.744 OA
ENDBRANCH  85  89
ENDBRANCH  58  82
BRANCH  70  93
ATOM     93  C   UNL     1      13.107  -3.245  -6.042  1.00  0.00     0.023 A 
ATOM     94  C   UNL     1      14.215  -4.065  -5.763  1.00  0.00     0.031 A 
ATOM     95  C   UNL     1      13.357  -1.932  -6.483  1.00  0.00     0.131 A 
ATOM     96  C   UNL     1      15.516  -3.549  -5.878  1.00  0.00     0.055 A 
ATOM     97  C   UNL     1      14.654  -1.446  -6.660  1.00  0.00     0.041 A 
ATOM     98  F   UNL     1      12.342  -1.099  -6.760  1.00  0.00    -0.206 F 
ATOM     99  C   UNL     1      15.743  -2.252  -6.344  1.00  0.00     0.022 A 
BRANCH  96 100
ATOM    100  S   UNL     1      16.913  -4.563  -5.317  1.00  0.00     0.124 S 
ATOM    101  O   UNL     1      16.561  -4.819  -3.924  1.00  0.00    -0.237 OA
ATOM    102  O   UNL     1      16.845  -5.713  -6.213  1.00  0.00    -0.237 OA
ATOM    103  O   UNL     1      18.071  -3.693  -5.513  1.00  0.00    -0.744 OA
ENDBRANCH  96 100
ENDBRANCH  70  93
ENDBRANCH  44  45
ENDBRANCH  37  39
ENDBRANCH  36  37
ENDBRANCH  35  36
ENDBRANCH  34  35
ENDBRANCH  33  34
ENDBRANCH   1  33
TORSDOF 23
