REMARK SMILES Cc1cc(C[N@H+]2CC[C@](C)(C(=O)OCCOCCOCCOC(=O)c3ccc(-c4c5nc(c(-c6cc(S(=O)(=O)[O-])ccc6F)c6ccc([nH]6)c(-c6cc(S(=O)(=O)[O-])ccc6F)c6nc(c(-c7cc(S(=O)(=O)[O-])ccc7F)c7ccc4[nH]7)C=C6)C=C5)cc3)C2)c2ccccc2n1
REMARK SMILES IDX 18 1 17 2 16 3 15 4 14 5 13 6 11 7 12 8 9 9 6 10 7 11 88 12
REMARK SMILES IDX 8 14 10 15 5 16 4 17 1 18 2 19 3 20 95 21 94 22 89 23 93 24
REMARK SMILES IDX 90 25 92 26 91 27 19 28 20 29 21 30 22 31 23 32 24 33 25 34
REMARK SMILES IDX 26 35 87 36 27 37 86 38 28 39 29 40 30 41 80 42 31 43 85 44
REMARK SMILES IDX 79 45 81 46 32 47 84 48 78 49 77 50 33 52 65 53 45 54 64 55
REMARK SMILES IDX 46 56 49 57 63 58 82 59 47 60 48 61 62 63 83 64 50 65 34 66
REMARK SMILES IDX 35 67 43 68 36 69 42 70 44 71 41 72 37 73 38 74 39 75 40 76
REMARK SMILES IDX 66 77 67 78 75 79 68 80 74 81 76 82 73 83 69 84 70 85 71 86
REMARK SMILES IDX 72 87 51 88 52 89 60 90 53 91 59 92 61 93 58 94 54 95 55 96
REMARK SMILES IDX 56 97 57 98
REMARK H PARENT 6 13 81 51 49 62
REMARK Flexibility Score: inf
ROOT
ATOM      1  C   UNL     1       3.567   5.220   2.013  1.00  0.00     0.188 C 
ENDROOT
BRANCH   1   2
ATOM      2  C   UNL     1       3.628   5.550   3.513  1.00  0.00     0.188 C 
BRANCH   2   3
ATOM      3  O   UNL     1       4.867   5.466   4.209  1.00  0.00    -0.376 OA
BRANCH   3   4
ATOM      4  C   UNL     1       5.837   4.510   3.815  1.00  0.00     0.202 C 
BRANCH   4   5
ATOM      5  C   UNL     1       5.473   3.018   3.848  1.00  0.00     0.261 C 
BRANCH   5   6
ATOM      6  O   UNL     1       4.241   2.642   3.203  1.00  0.00    -0.463 OA
BRANCH   6   7
ATOM      7  C   UNL     1       3.220   2.284   4.027  1.00  0.00     0.317 C 
ATOM      8  O   UNL     1       3.310   2.265   5.251  1.00  0.00    -0.251 OA
BRANCH   7   9
ATOM      9  C   UNL     1       1.948   1.838   3.307  1.00  0.00     0.119 C 
ATOM     10  N   UNL     1       0.687   2.950   1.554  1.00  0.00    -0.330 N 
ATOM     11  C   UNL     1      -0.223   2.719   2.674  1.00  0.00     0.263 C 
ATOM     12  C   UNL     1       1.845   2.067   1.792  1.00  0.00     0.281 C 
ATOM     13  H   UNL     1       1.010   3.917   1.523  1.00  0.00     0.348 HD
ATOM     14  C   UNL     1       0.735   2.608   3.853  1.00  0.00     0.086 C 
ATOM     15  C   UNL     1       1.817   0.324   3.572  1.00  0.00     0.030 C 
BRANCH  10  16
ATOM     16  C   UNL     1       0.047   2.878   0.217  1.00  0.00     0.299 C 
BRANCH  16  17
ATOM     17  C   UNL     1      -0.400   1.492  -0.238  1.00  0.00     0.017 A 
ATOM     18  C   UNL     1      -3.465  -0.714   0.086  1.00  0.00     0.067 C 
ATOM     19  C   UNL     1      -2.055  -0.243  -0.111  1.00  0.00     0.038 A 
ATOM     20  C   UNL     1      -1.729   1.102  -0.025  1.00  0.00     0.033 A 
ATOM     21  N   UNL     1      -1.118  -1.203  -0.289  1.00  0.00    -0.253 NA
ATOM     22  C   UNL     1       0.152  -0.829  -0.519  1.00  0.00     0.071 A 
ATOM     23  C   UNL     1       0.539   0.516  -0.655  1.00  0.00     0.009 A 
ATOM     24  C   UNL     1       1.149  -1.798  -0.538  1.00  0.00     0.029 A 
ATOM     25  C   UNL     1       1.869   0.813  -1.050  1.00  0.00     0.011 A 
ATOM     26  C   UNL     1       2.492  -1.481  -0.765  1.00  0.00     0.002 A 
ATOM     27  C   UNL     1       2.845  -0.177  -1.074  1.00  0.00     0.001 A 
ENDBRANCH  16  17
ENDBRANCH  10  16
ENDBRANCH   7   9
ENDBRANCH   6   7
ENDBRANCH   5   6
ENDBRANCH   4   5
ENDBRANCH   3   4
ENDBRANCH   2   3
ENDBRANCH   1   2
BRANCH   1  28
ATOM     28  O   UNL     1       4.822   5.204   1.363  1.00  0.00    -0.376 OA
BRANCH  28  29
ATOM     29  C   UNL     1       5.022   6.171   0.349  1.00  0.00     0.202 C 
BRANCH  29  30
ATOM     30  C   UNL     1       4.987   7.640   0.798  1.00  0.00     0.261 C 
BRANCH  30  31
ATOM     31  O   UNL     1       3.831   8.044   1.556  1.00  0.00    -0.460 OA
BRANCH  31  32
ATOM     32  C   UNL     1       2.650   8.121   0.898  1.00  0.00     0.338 C 
ATOM     33  O   UNL     1       2.472   7.915  -0.291  1.00  0.00    -0.246 OA
BRANCH  32  34
ATOM     34  C   UNL     1       1.573   8.273   1.909  1.00  0.00     0.060 A 
ATOM     35  C   UNL     1       0.563   7.302   1.985  1.00  0.00     0.016 A 
ATOM     36  C   UNL     1       1.569   9.353   2.793  1.00  0.00     0.016 A 
ATOM     37  C   UNL     1      -0.466   7.425   2.926  1.00  0.00     0.010 A 
ATOM     38  C   UNL     1       0.526   9.486   3.720  1.00  0.00     0.010 A 
ATOM     39  C   UNL     1      -0.514   8.539   3.775  1.00  0.00    -0.014 A 
BRANCH  39  40
ATOM     40  C   UNL     1      -1.737   8.821   4.578  1.00  0.00     0.031 A 
ATOM     41  C   UNL     1      -2.726   9.825   4.041  1.00  0.00     0.074 A 
ATOM     42  C   UNL     1      -1.988   8.197   5.745  1.00  0.00     0.049 A 
ATOM     43  N   UNL     1      -3.809  10.308   4.593  1.00  0.00    -0.248 NA
ATOM     44  C   UNL     1      -2.449  10.353   2.695  1.00  0.00     0.031 C 
ATOM     45  C   UNL     1      -1.152   7.162   6.351  1.00  0.00     0.029 A 
ATOM     46  N   UNL     1      -3.024   8.353   6.638  1.00  0.00    -0.354 N 
ATOM     47  C   UNL     1      -4.347  11.191   3.662  1.00  0.00     0.074 A 
ATOM     48  C   UNL     1      -3.446  11.209   2.529  1.00  0.00     0.031 C 
ATOM     49  C   UNL     1      -1.698   6.790   7.523  1.00  0.00     0.029 A 
ATOM     50  C   UNL     1      -2.897   7.588   7.777  1.00  0.00     0.049 A 
ATOM     51  H   UNL     1      -3.785   8.956   6.478  1.00  0.00     0.167 HD
ATOM     52  C   UNL     1      -5.494  11.910   3.735  1.00  0.00     0.034 A 
ATOM     53  C   UNL     1      -3.642   7.562   8.904  1.00  0.00     0.034 A 
ATOM     54  C   UNL     1      -6.380  11.905   4.872  1.00  0.00     0.049 A 
ATOM     55  C   UNL     1      -4.852   8.471   9.011  1.00  0.00     0.074 A 
ATOM     56  C   UNL     1      -7.552  12.620   5.052  1.00  0.00     0.029 A 
ATOM     57  N   UNL     1      -6.193  11.154   6.023  1.00  0.00    -0.354 N 
ATOM     58  N   UNL     1      -5.342   9.309   8.126  1.00  0.00    -0.248 NA
ATOM     59  C   UNL     1      -5.614   8.421  10.268  1.00  0.00     0.031 C 
ATOM     60  C   UNL     1      -8.038  12.351   6.336  1.00  0.00     0.029 A 
ATOM     61  C   UNL     1      -7.216  11.405   6.925  1.00  0.00     0.049 A 
ATOM     62  H   UNL     1      -5.444  10.534   6.178  1.00  0.00     0.167 HD
ATOM     63  C   UNL     1      -6.492   9.847   8.707  1.00  0.00     0.074 A 
ATOM     64  C   UNL     1      -6.632   9.225  10.005  1.00  0.00     0.031 C 
ATOM     65  C   UNL     1      -7.356  10.771   8.213  1.00  0.00     0.034 A 
BRANCH  52  66
ATOM     66  C   UNL     1      -5.837  12.791   2.560  1.00  0.00     0.023 A 
ATOM     67  C   UNL     1      -6.153  12.248   1.303  1.00  0.00     0.031 A 
ATOM     68  C   UNL     1      -5.856  14.190   2.699  1.00  0.00     0.131 A 
ATOM     69  C   UNL     1      -6.426  13.098   0.222  1.00  0.00     0.055 A 
ATOM     70  C   UNL     1      -6.201  15.029   1.638  1.00  0.00     0.041 A 
ATOM     71  F   UNL     1      -5.539  14.765   3.870  1.00  0.00    -0.206 F 
ATOM     72  C   UNL     1      -6.480  14.485   0.388  1.00  0.00     0.022 A 
BRANCH  69  73
ATOM     73  S   UNL     1      -6.601  12.373  -1.430  1.00  0.00     0.124 S 
ATOM     74  O   UNL     1      -5.293  11.750  -1.618  1.00  0.00    -0.237 OA
ATOM     75  O   UNL     1      -7.724  11.458  -1.257  1.00  0.00    -0.237 OA
ATOM     76  O   UNL     1      -6.862  13.528  -2.286  1.00  0.00    -0.744 OA
ENDBRANCH  69  73
ENDBRANCH  52  66
BRANCH  53  77
ATOM     77  C   UNL     1      -3.259   6.702  10.067  1.00  0.00     0.023 A 
ATOM     78  C   UNL     1      -4.145   5.743  10.585  1.00  0.00     0.031 A 
ATOM     79  C   UNL     1      -2.053   6.918  10.758  1.00  0.00     0.131 A 
ATOM     80  C   UNL     1      -3.853   5.099  11.799  1.00  0.00     0.055 A 
ATOM     81  C   UNL     1      -1.732   6.219  11.924  1.00  0.00     0.041 A 
ATOM     82  F   UNL     1      -1.171   7.831  10.320  1.00  0.00    -0.206 F 
ATOM     83  C   UNL     1      -2.645   5.319  12.464  1.00  0.00     0.022 A 
BRANCH  80  84
ATOM     84  S   UNL     1      -5.145   4.091  12.579  1.00  0.00     0.124 S 
ATOM     85  O   UNL     1      -6.248   5.041  12.667  1.00  0.00    -0.237 OA
ATOM     86  O   UNL     1      -5.307   3.008  11.615  1.00  0.00    -0.237 OA
ATOM     87  O   UNL     1      -4.551   3.704  13.857  1.00  0.00    -0.744 OA
ENDBRANCH  80  84
ENDBRANCH  53  77
BRANCH  65  88
ATOM     88  C   UNL     1      -8.569  11.109   9.050  1.00  0.00     0.023 A 
ATOM     89  C   UNL     1      -8.461  11.741  10.302  1.00  0.00     0.031 A 
ATOM     90  C   UNL     1      -9.857  10.780   8.589  1.00  0.00     0.131 A 
ATOM     91  C   UNL     1      -9.611  11.966  11.075  1.00  0.00     0.055 A 
ATOM     92  C   UNL     1     -11.003  11.068   9.332  1.00  0.00     0.041 A 
ATOM     93  F   UNL     1     -10.024  10.174   7.402  1.00  0.00    -0.206 F 
ATOM     94  C   UNL     1     -10.882  11.650  10.590  1.00  0.00     0.022 A 
BRANCH  91  95
ATOM     95  S   UNL     1      -9.416  12.584  12.769  1.00  0.00     0.124 S 
ATOM     96  O   UNL     1      -8.556  11.568  13.367  1.00  0.00    -0.237 OA
ATOM     97  O   UNL     1      -8.803  13.891  12.556  1.00  0.00    -0.237 OA
ATOM     98  O   UNL     1     -10.784  12.619  13.282  1.00  0.00    -0.744 OA
ENDBRANCH  91  95
ENDBRANCH  65  88
ENDBRANCH  39  40
ENDBRANCH  32  34
ENDBRANCH  31  32
ENDBRANCH  30  31
ENDBRANCH  29  30
ENDBRANCH  28  29
ENDBRANCH   1  28
TORSDOF 22
