REMARK SMILES CCC[C@@]1(C(=O)OCCOCCOCCOC(=O)c2ccc(-c3c4nc(c(-c5cc(S(=O)(=O)[O-])ccc5F)c5ccc([nH]5)c(-c5cc(S(=O)(=O)[O-])ccc5F)c5nc(c(-c6cc(S(=O)(=O)[O-])ccc6F)c6ccc3[nH]6)C=C5)C=C4)cc2)CCCN(C(=O)C[C@H]2CCCCO2)C1
REMARK SMILES IDX 11 1 10 2 9 3 8 4 7 5 5 6 6 7 4 8 82 9 95 10 83 11 85 12
REMARK SMILES IDX 84 13 3 14 2 15 1 16 86 17 87 18 88 19 89 20 90 21 94 22
REMARK SMILES IDX 91 23 93 24 92 25 12 26 13 27 14 28 15 29 16 30 17 31 18 32
REMARK SMILES IDX 19 33 20 34 81 35 21 36 80 37 22 38 23 39 24 40 74 41 25 42
REMARK SMILES IDX 79 43 73 44 75 45 26 46 78 47 72 48 71 49 27 51 59 52 39 53
REMARK SMILES IDX 58 54 40 55 43 56 57 57 76 58 41 59 42 60 56 62 77 63 44 64
REMARK SMILES IDX 28 65 29 66 37 67 30 68 36 69 38 70 35 71 31 72 32 73 33 74
REMARK SMILES IDX 34 75 60 76 61 77 69 78 62 79 68 80 70 81 67 82 63 83 64 84
REMARK SMILES IDX 65 85 66 86 45 87 46 88 54 89 47 90 53 91 55 92 52 93 48 94
REMARK SMILES IDX 49 95 50 96 51 97
REMARK H PARENT 75 50 43 61
REMARK Flexibility Score: inf
ROOT
ATOM      1  C   UNL     1       6.241  -2.139  -6.788  1.00  0.00     0.188 C 
ENDROOT
BRANCH   1   2
ATOM      2  O   UNL     1       7.565  -2.397  -6.322  1.00  0.00    -0.376 OA
BRANCH   2   3
ATOM      3  C   UNL     1       8.624  -1.557  -6.785  1.00  0.00     0.202 C 
BRANCH   3   4
ATOM      4  C   UNL     1       8.788  -1.362  -8.299  1.00  0.00     0.261 C 
BRANCH   4   5
ATOM      5  O   UNL     1       7.677  -0.632  -8.865  1.00  0.00    -0.463 OA
BRANCH   5   6
ATOM      6  C   UNL     1       7.169  -1.200  -9.995  1.00  0.00     0.313 C 
ATOM      7  O   UNL     1       7.668  -2.146 -10.545  1.00  0.00    -0.252 OA
BRANCH   6   8
ATOM      8  C   UNL     1       5.848  -0.572 -10.490  1.00  0.00     0.086 C 
ATOM      9  C   UNL     1       5.288   0.704  -9.809  1.00  0.00     0.022 C 
ATOM     10  C   UNL     1       4.848  -1.873 -10.325  1.00  0.00     0.138 C 
ATOM     11  C   UNL     1       3.793   0.834  -9.694  1.00  0.00     0.023 C 
ATOM     12  N   UNL     1       3.617  -1.628  -9.483  1.00  0.00    -0.341 N 
ATOM     13  C   UNL     1       3.049  -0.416 -10.057  1.00  0.00     0.119 C 
BRANCH   8  14
ATOM     14  C   UNL     1       6.249  -0.134 -11.962  1.00  0.00     0.020 C 
BRANCH  14  15
ATOM     15  C   UNL     1       6.785   1.328 -12.226  1.00  0.00    -0.002 C 
ATOM     16  C   UNL     1       7.690   2.058 -11.214  1.00  0.00     0.004 C 
ENDBRANCH  14  15
ENDBRANCH   8  14
BRANCH  12  17
ATOM     17  C   UNL     1       2.968  -2.726  -8.764  1.00  0.00     0.225 C 
ATOM     18  O   UNL     1       3.332  -3.862  -9.147  1.00  0.00    -0.275 OA
BRANCH  17  19
ATOM     19  C   UNL     1       2.078  -2.853  -7.189  1.00  0.00     0.132 C 
BRANCH  19  20
ATOM     20  C   UNL     1       0.865  -2.298  -6.034  1.00  0.00     0.127 C 
ATOM     21  C   UNL     1       1.240  -2.487  -4.526  1.00  0.00     0.033 C 
ATOM     22  O   UNL     1       0.073  -1.117  -6.225  1.00  0.00    -0.378 OA
ATOM     23  C   UNL     1       0.626  -1.481  -3.534  1.00  0.00     0.005 C 
ATOM     24  C   UNL     1       0.096   0.049  -5.368  1.00  0.00     0.160 C 
ATOM     25  C   UNL     1       0.801  -0.076  -4.035  1.00  0.00     0.029 C 
ENDBRANCH  19  20
ENDBRANCH  17  19
ENDBRANCH  12  17
ENDBRANCH   6   8
ENDBRANCH   5   6
ENDBRANCH   4   5
ENDBRANCH   3   4
ENDBRANCH   2   3
ENDBRANCH   1   2
BRANCH   1  26
ATOM     26  C   UNL     1       5.770  -0.672  -6.764  1.00  0.00     0.188 C 
BRANCH  26  27
ATOM     27  O   UNL     1       4.834  -0.313  -5.736  1.00  0.00    -0.376 OA
BRANCH  27  28
ATOM     28  C   UNL     1       3.792   0.604  -6.230  1.00  0.00     0.202 C 
BRANCH  28  29
ATOM     29  C   UNL     1       2.715  -0.257  -6.934  1.00  0.00     0.261 C 
BRANCH  29  30
ATOM     30  O   UNL     1       1.579   0.238  -7.796  1.00  0.00    -0.460 OA
BRANCH  30  31
ATOM     31  C   UNL     1       0.416  -0.263  -8.492  1.00  0.00     0.338 C 
ATOM     32  O   UNL     1      -0.496   0.556  -8.629  1.00  0.00    -0.246 OA
BRANCH  31  33
ATOM     33  C   UNL     1       0.226  -1.545  -9.427  1.00  0.00     0.060 A 
ATOM     34  C   UNL     1       0.272  -1.356 -10.829  1.00  0.00     0.016 A 
ATOM     35  C   UNL     1      -0.201  -2.836  -9.072  1.00  0.00     0.016 A 
ATOM     36  C   UNL     1       0.132  -2.404 -11.783  1.00  0.00     0.010 A 
ATOM     37  C   UNL     1      -0.322  -3.916 -10.018  1.00  0.00     0.010 A 
ATOM     38  C   UNL     1      -0.153  -3.717 -11.399  1.00  0.00    -0.014 A 
BRANCH  38  39
ATOM     39  C   UNL     1      -0.567  -4.715 -12.465  1.00  0.00     0.031 A 
ATOM     40  C   UNL     1      -2.047  -4.843 -12.771  1.00  0.00     0.074 A 
ATOM     41  C   UNL     1       0.300  -5.388 -13.262  1.00  0.00     0.049 A 
ATOM     42  N   UNL     1      -2.656  -5.405 -13.788  1.00  0.00    -0.248 NA
ATOM     43  C   UNL     1      -2.958  -4.233 -11.793  1.00  0.00     0.031 C 
ATOM     44  C   UNL     1       1.754  -5.398 -13.117  1.00  0.00     0.029 A 
ATOM     45  N   UNL     1       0.084  -6.181 -14.380  1.00  0.00    -0.354 N 
ATOM     46  C   UNL     1      -4.014  -5.159 -13.600  1.00  0.00     0.074 A 
ATOM     47  C   UNL     1      -4.141  -4.475 -12.332  1.00  0.00     0.031 C 
ATOM     48  C   UNL     1       2.297  -6.123 -14.117  1.00  0.00     0.029 A 
ATOM     49  C   UNL     1       1.239  -6.640 -14.988  1.00  0.00     0.049 A 
ATOM     50  H   UNL     1      -0.817  -6.399 -14.713  1.00  0.00     0.167 HD
ATOM     51  C   UNL     1      -5.068  -5.439 -14.410  1.00  0.00     0.034 A 
ATOM     52  C   UNL     1       1.429  -7.370 -16.116  1.00  0.00     0.034 A 
ATOM     53  C   UNL     1      -4.973  -6.189 -15.635  1.00  0.00     0.049 A 
ATOM     54  C   UNL     1       0.226  -7.775 -16.953  1.00  0.00     0.074 A 
ATOM     55  C   UNL     1      -5.987  -6.583 -16.492  1.00  0.00     0.029 A 
ATOM     56  N   UNL     1      -3.791  -6.686 -16.166  1.00  0.00    -0.354 N 
ATOM     57  N   UNL     1      -1.042  -7.477 -16.782  1.00  0.00    -0.248 NA
ATOM     58  C   UNL     1       0.483  -8.604 -18.145  1.00  0.00     0.031 C 
ATOM     59  C   UNL     1      -5.425  -7.368 -17.506  1.00  0.00     0.029 A 
ATOM     60  C   UNL     1      -4.053  -7.408 -17.319  1.00  0.00     0.049 A 
ATOM     61  H   UNL     1      -2.897  -6.545 -15.780  1.00  0.00     0.167 HD
ATOM     62  C   UNL     1      -1.722  -8.056 -17.854  1.00  0.00     0.074 A 
ATOM     63  C   UNL     1      -0.726  -8.704 -18.680  1.00  0.00     0.031 C 
ATOM     64  C   UNL     1      -3.051  -8.053 -18.133  1.00  0.00     0.034 A 
BRANCH  51  65
ATOM     65  C   UNL     1      -6.419  -4.956 -13.937  1.00  0.00     0.023 A 
ATOM     66  C   UNL     1      -6.696  -3.580 -13.818  1.00  0.00     0.031 A 
ATOM     67  C   UNL     1      -7.397  -5.866 -13.503  1.00  0.00     0.131 A 
ATOM     68  C   UNL     1      -7.876  -3.157 -13.189  1.00  0.00     0.055 A 
ATOM     69  C   UNL     1      -8.605  -5.436 -12.950  1.00  0.00     0.041 A 
ATOM     70  F   UNL     1      -7.179  -7.189 -13.573  1.00  0.00    -0.206 F 
ATOM     71  C   UNL     1      -8.841  -4.075 -12.771  1.00  0.00     0.022 A 
BRANCH  68  72
ATOM     72  S   UNL     1      -8.053  -1.400 -12.771  1.00  0.00     0.124 S 
ATOM     73  O   UNL     1      -6.919  -1.194 -11.876  1.00  0.00    -0.237 OA
ATOM     74  O   UNL     1      -7.965  -0.753 -14.076  1.00  0.00    -0.237 OA
ATOM     75  O   UNL     1      -9.365  -1.331 -12.130  1.00  0.00    -0.744 OA
ENDBRANCH  68  72
ENDBRANCH  51  65
BRANCH  52  76
ATOM     76  C   UNL     1       2.801  -7.808 -16.552  1.00  0.00     0.023 A 
ATOM     77  C   UNL     1       3.352  -7.421 -17.790  1.00  0.00     0.031 A 
ATOM     78  C   UNL     1       3.540  -8.720 -15.775  1.00  0.00     0.131 A 
ATOM     79  C   UNL     1       4.574  -7.971 -18.228  1.00  0.00     0.055 A 
ATOM     80  C   UNL     1       4.776  -9.225 -16.192  1.00  0.00     0.041 A 
ATOM     81  F   UNL     1       3.062  -9.149 -14.597  1.00  0.00    -0.206 F 
ATOM     82  C   UNL     1       5.294  -8.861 -17.430  1.00  0.00     0.022 A 
BRANCH  79  83
ATOM     83  S   UNL     1       5.170  -7.586 -19.903  1.00  0.00     0.124 S 
ATOM     84  O   UNL     1       4.052  -8.022 -20.728  1.00  0.00    -0.237 OA
ATOM     85  O   UNL     1       5.388  -6.144 -19.823  1.00  0.00    -0.237 OA
ATOM     86  O   UNL     1       6.387  -8.388 -20.026  1.00  0.00    -0.744 OA
ENDBRANCH  79  83
ENDBRANCH  52  76
BRANCH  64  87
ATOM     87  C   UNL     1      -3.501  -8.744 -19.398  1.00  0.00     0.023 A 
ATOM     88  C   UNL     1      -3.442 -10.142 -19.538  1.00  0.00     0.031 A 
ATOM     89  C   UNL     1      -4.014  -7.993 -20.471  1.00  0.00     0.131 A 
ATOM     90  C   UNL     1      -3.849 -10.742 -20.740  1.00  0.00     0.055 A 
ATOM     91  C   UNL     1      -4.463  -8.599 -21.645  1.00  0.00     0.041 A 
ATOM     92  F   UNL     1      -4.097  -6.655 -20.390  1.00  0.00    -0.206 F 
ATOM     93  C   UNL     1      -4.373  -9.981 -21.789  1.00  0.00     0.022 A 
BRANCH  90  94
ATOM     94  S   UNL     1      -3.629 -12.532 -20.942  1.00  0.00     0.124 S 
ATOM     95  O   UNL     1      -2.186 -12.682 -20.784  1.00  0.00    -0.237 OA
ATOM     96  O   UNL     1      -4.449 -13.072 -19.862  1.00  0.00    -0.237 OA
ATOM     97  O   UNL     1      -4.135 -12.791 -22.289  1.00  0.00    -0.744 OA
ENDBRANCH  90  94
ENDBRANCH  64  87
ENDBRANCH  38  39
ENDBRANCH  31  33
ENDBRANCH  30  31
ENDBRANCH  29  30
ENDBRANCH  28  29
ENDBRANCH  27  28
ENDBRANCH  26  27
ENDBRANCH   1  26
TORSDOF 25
