REMARK SMILES Cc1ccc(-c2nn(CCC(=O)OCCOCCOCCOC(=O)c3ccc(-c4c5nc(c(-c6cc(S(=O)(=O)[O-])ccc6F)c6ccc([nH]6)c(-c6cc(S(=O)(=O)[O-])ccc6F)c6nc(c(-c7cc(S(=O)(=O)[O-])ccc7F)c7ccc4[nH]7)C=C6)C=C5)cc3)c(=O)c3noc(C)c23)cc1C
REMARK SMILES IDX 17 1 16 2 15 3 14 4 13 5 11 6 12 7 10 8 9 9 8 10 6 11 7 12
REMARK SMILES IDX 95 13 90 14 93 15 88 16 91 17 92 18 94 19 89 20 5 21 1 22
REMARK SMILES IDX 2 23 3 24 97 25 4 26 96 27 98 28 18 29 19 30 20 31 21 32
REMARK SMILES IDX 22 33 23 34 24 35 25 36 26 37 87 38 27 39 86 40 28 41 29 42
REMARK SMILES IDX 30 43 80 44 31 45 85 46 79 47 81 48 32 49 84 50 78 51 77 52
REMARK SMILES IDX 33 54 65 55 45 56 64 57 46 58 49 59 63 60 82 61 47 62 48 63
REMARK SMILES IDX 62 65 83 66 50 67 34 68 35 69 43 70 36 71 42 72 44 73 41 74
REMARK SMILES IDX 37 75 38 76 39 77 40 78 66 79 67 80 75 81 68 82 74 83 76 84
REMARK SMILES IDX 73 85 69 86 70 87 71 88 72 89 51 90 52 91 60 92 53 93 59 94
REMARK SMILES IDX 61 95 58 96 54 97 55 98 56 99 57 100
REMARK H PARENT 81 53 49 64
REMARK Flexibility Score: inf
ROOT
ATOM      1  C   UNL     1      -8.666  -4.188  -1.636  1.00  0.00     0.188 C 
ENDROOT
BRANCH   1   2
ATOM      2  O   UNL     1      -8.952  -5.434  -1.019  1.00  0.00    -0.376 OA
BRANCH   2   3
ATOM      3  C   UNL     1      -7.872  -6.019  -0.287  1.00  0.00     0.202 C 
BRANCH   3   4
ATOM      4  C   UNL     1      -6.640  -6.499  -1.099  1.00  0.00     0.261 C 
BRANCH   4   5
ATOM      5  O   UNL     1      -5.784  -5.448  -1.613  1.00  0.00    -0.463 OA
BRANCH   5   6
ATOM      6  C   UNL     1      -5.947  -5.063  -2.900  1.00  0.00     0.307 C 
ATOM      7  O   UNL     1      -6.587  -5.696  -3.733  1.00  0.00    -0.252 OA
BRANCH   6   8
ATOM      8  C   UNL     1      -5.244  -3.756  -3.231  1.00  0.00     0.146 C 
BRANCH   8   9
ATOM      9  C   UNL     1      -5.417  -2.544  -2.300  1.00  0.00     0.160 C 
BRANCH   9  10
ATOM     10  N   UNL     1      -4.620  -2.549  -1.069  1.00  0.00    -0.227 N 
ATOM     11  C   UNL     1      -2.718  -1.649  -0.022  1.00  0.00     0.104 A 
ATOM     12  N   UNL     1      -3.465  -1.749  -1.086  1.00  0.00    -0.169 NA
ATOM     13  C   UNL     1      -3.023  -2.412   1.156  1.00  0.00     0.078 A 
ATOM     14  C   UNL     1      -4.200  -3.155   1.201  1.00  0.00     0.183 A 
ATOM     15  C   UNL     1      -2.423  -2.661   2.368  1.00  0.00     0.143 A 
ATOM     16  C   UNL     1      -5.111  -3.176   0.092  1.00  0.00     0.296 A 
ATOM     17  N   UNL     1      -4.339  -3.833   2.346  1.00  0.00    -0.074 NA
ATOM     18  O   UNL     1      -3.213  -3.517   3.082  1.00  0.00    -0.360 OA
ATOM     19  C   UNL     1      -1.176  -2.268   3.045  1.00  0.00     0.091 C 
ATOM     20  O   UNL     1      -6.197  -3.727   0.188  1.00  0.00    -0.265 OA
BRANCH  11  21
ATOM     21  C   UNL     1      -1.538  -0.788  -0.036  1.00  0.00     0.003 A 
ATOM     22  C   UNL     1       1.987   1.655   0.006  1.00  0.00     0.044 C 
ATOM     23  C   UNL     1       0.769   0.775  -0.008  1.00  0.00    -0.048 A 
ATOM     24  C   UNL     1      -0.506   1.375   0.004  1.00  0.00     0.004 A 
ATOM     25  C   UNL     1       0.876  -0.630  -0.044  1.00  0.00    -0.048 A 
ATOM     26  C   UNL     1      -1.663   0.598  -0.011  1.00  0.00     0.011 A 
ATOM     27  C   UNL     1      -0.289  -1.400  -0.078  1.00  0.00     0.014 A 
ATOM     28  C   UNL     1       2.178  -1.377  -0.035  1.00  0.00     0.044 C 
ENDBRANCH  11  21
ENDBRANCH   9  10
ENDBRANCH   8   9
ENDBRANCH   6   8
ENDBRANCH   5   6
ENDBRANCH   4   5
ENDBRANCH   3   4
ENDBRANCH   2   3
ENDBRANCH   1   2
BRANCH   1  29
ATOM     29  C   UNL     1      -9.254  -2.957  -0.970  1.00  0.00     0.188 C 
BRANCH  29  30
ATOM     30  O   UNL     1      -8.467  -2.397   0.077  1.00  0.00    -0.376 OA
BRANCH  30  31
ATOM     31  C   UNL     1      -8.862  -2.720   1.406  1.00  0.00     0.202 C 
BRANCH  31  32
ATOM     32  C   UNL     1     -10.213  -2.144   1.874  1.00  0.00     0.261 C 
BRANCH  32  33
ATOM     33  O   UNL     1     -11.012  -1.558   0.839  1.00  0.00    -0.460 OA
BRANCH  33  34
ATOM     34  C   UNL     1     -10.499  -0.403   0.345  1.00  0.00     0.338 C 
ATOM     35  O   UNL     1      -9.541   0.216   0.776  1.00  0.00    -0.246 OA
BRANCH  34  36
ATOM     36  C   UNL     1     -11.207  -0.021  -0.888  1.00  0.00     0.060 A 
ATOM     37  C   UNL     1     -10.463   0.257  -2.044  1.00  0.00     0.016 A 
ATOM     38  C   UNL     1     -12.573   0.221  -0.850  1.00  0.00     0.016 A 
ATOM     39  C   UNL     1     -11.075   0.851  -3.146  1.00  0.00     0.010 A 
ATOM     40  C   UNL     1     -13.164   0.873  -1.929  1.00  0.00     0.010 A 
ATOM     41  C   UNL     1     -12.421   1.222  -3.075  1.00  0.00    -0.014 A 
BRANCH  41  42
ATOM     42  C   UNL     1     -13.034   1.962  -4.215  1.00  0.00     0.031 A 
ATOM     43  C   UNL     1     -14.418   1.499  -4.541  1.00  0.00     0.074 A 
ATOM     44  C   UNL     1     -12.672   3.239  -4.506  1.00  0.00     0.049 A 
ATOM     45  N   UNL     1     -15.414   1.816  -3.767  1.00  0.00    -0.248 NA
ATOM     46  C   UNL     1     -14.732   0.413  -5.469  1.00  0.00     0.031 C 
ATOM     47  C   UNL     1     -12.031   4.128  -3.521  1.00  0.00     0.029 A 
ATOM     48  N   UNL     1     -12.959   4.084  -5.564  1.00  0.00    -0.354 N 
ATOM     49  C   UNL     1     -16.448   0.943  -4.022  1.00  0.00     0.074 A 
ATOM     50  C   UNL     1     -16.001   0.120  -5.125  1.00  0.00     0.031 C 
ATOM     51  C   UNL     1     -12.143   5.404  -3.939  1.00  0.00     0.029 A 
ATOM     52  C   UNL     1     -12.753   5.443  -5.272  1.00  0.00     0.049 A 
ATOM     53  H   UNL     1     -13.277   3.764  -6.438  1.00  0.00     0.167 HD
ATOM     54  C   UNL     1     -17.576   0.939  -3.263  1.00  0.00     0.034 A 
ATOM     55  C   UNL     1     -13.581   6.463  -5.651  1.00  0.00     0.034 A 
ATOM     56  C   UNL     1     -17.560   1.826  -2.133  1.00  0.00     0.049 A 
ATOM     57  C   UNL     1     -14.831   6.150  -4.866  1.00  0.00     0.074 A 
ATOM     58  C   UNL     1     -17.332   1.733  -0.776  1.00  0.00     0.029 A 
ATOM     59  N   UNL     1     -17.743   3.169  -2.358  1.00  0.00    -0.354 N 
ATOM     60  N   UNL     1     -15.023   6.348  -3.591  1.00  0.00    -0.248 NA
ATOM     61  C   UNL     1     -15.787   5.242  -5.500  1.00  0.00     0.031 C 
ATOM     62  C   UNL     1     -16.905   3.039  -0.373  1.00  0.00     0.029 A 
ATOM     63  C   UNL     1     -16.888   3.835  -1.516  1.00  0.00     0.049 A 
ATOM     64  H   UNL     1     -18.368   3.576  -3.000  1.00  0.00     0.167 HD
ATOM     65  C   UNL     1     -15.955   5.386  -3.204  1.00  0.00     0.074 A 
ATOM     66  C   UNL     1     -16.392   4.748  -4.430  1.00  0.00     0.031 C 
ATOM     67  C   UNL     1     -16.197   5.043  -1.906  1.00  0.00     0.034 A 
BRANCH  54  68
ATOM     68  C   UNL     1     -18.828   0.243  -3.606  1.00  0.00     0.023 A 
ATOM     69  C   UNL     1     -19.815   1.025  -4.222  1.00  0.00     0.031 A 
ATOM     70  C   UNL     1     -19.171  -1.030  -3.144  1.00  0.00     0.131 A 
ATOM     71  C   UNL     1     -21.125   0.555  -4.322  1.00  0.00     0.055 A 
ATOM     72  C   UNL     1     -20.481  -1.510  -3.267  1.00  0.00     0.041 A 
ATOM     73  F   UNL     1     -18.265  -1.802  -2.523  1.00  0.00    -0.206 F 
ATOM     74  C   UNL     1     -21.470  -0.709  -3.844  1.00  0.00     0.022 A 
BRANCH  71  75
ATOM     75  S   UNL     1     -22.368   1.675  -5.012  1.00  0.00     0.124 S 
ATOM     76  O   UNL     1     -22.280   2.817  -4.110  1.00  0.00    -0.237 OA
ATOM     77  O   UNL     1     -21.858   1.885  -6.363  1.00  0.00    -0.237 OA
ATOM     78  O   UNL     1     -23.605   0.902  -4.925  1.00  0.00    -0.744 OA
ENDBRANCH  71  75
ENDBRANCH  54  68
BRANCH  55  79
ATOM     79  C   UNL     1     -13.654   6.868  -7.094  1.00  0.00     0.023 A 
ATOM     80  C   UNL     1     -12.471   6.928  -7.855  1.00  0.00     0.031 A 
ATOM     81  C   UNL     1     -14.838   7.259  -7.751  1.00  0.00     0.131 A 
ATOM     82  C   UNL     1     -12.509   7.242  -9.226  1.00  0.00     0.055 A 
ATOM     83  C   UNL     1     -14.883   7.527  -9.124  1.00  0.00     0.041 A 
ATOM     84  F   UNL     1     -15.995   7.383  -7.085  1.00  0.00    -0.206 F 
ATOM     85  C   UNL     1     -13.716   7.499  -9.875  1.00  0.00     0.022 A 
BRANCH  82  86
ATOM     86  S   UNL     1     -10.957   7.263 -10.164  1.00  0.00     0.124 S 
ATOM     87  O   UNL     1     -10.353   8.516  -9.725  1.00  0.00    -0.237 OA
ATOM     88  O   UNL     1     -10.298   6.042  -9.709  1.00  0.00    -0.237 OA
ATOM     89  O   UNL     1     -11.401   7.238 -11.556  1.00  0.00    -0.744 OA
ENDBRANCH  82  86
ENDBRANCH  55  79
BRANCH  67  90
ATOM     90  C   UNL     1     -15.544   5.887  -0.863  1.00  0.00     0.023 A 
ATOM     91  C   UNL     1     -16.022   7.186  -0.637  1.00  0.00     0.031 A 
ATOM     92  C   UNL     1     -14.521   5.397  -0.034  1.00  0.00     0.131 A 
ATOM     93  C   UNL     1     -15.510   7.945   0.420  1.00  0.00     0.055 A 
ATOM     94  C   UNL     1     -14.022   6.152   1.030  1.00  0.00     0.041 A 
ATOM     95  F   UNL     1     -14.012   4.166  -0.214  1.00  0.00    -0.206 F 
ATOM     96  C   UNL     1     -14.526   7.429   1.269  1.00  0.00     0.022 A 
BRANCH  93  97
ATOM     97  S   UNL     1     -16.207   9.589   0.726  1.00  0.00     0.124 S 
ATOM     98  O   UNL     1     -15.660  10.374  -0.375  1.00  0.00    -0.237 OA
ATOM     99  O   UNL     1     -17.645   9.341   0.683  1.00  0.00    -0.237 OA
ATOM    100  O   UNL     1     -15.689   9.936   2.050  1.00  0.00    -0.744 OA
ENDBRANCH  93  97
ENDBRANCH  67  90
ENDBRANCH  41  42
ENDBRANCH  34  36
ENDBRANCH  33  34
ENDBRANCH  32  33
ENDBRANCH  31  32
ENDBRANCH  30  31
ENDBRANCH  29  30
ENDBRANCH   1  29
TORSDOF 23
