REMARK SMILES C[C@@](NC(=O)CCOC1CC[NH2+]CC1)(C(=O)OCCOCCOCCOC(=O)c1ccc(-c2c3nc(c(-c4cc(S(=O)(=O)[O-])ccc4F)c4ccc([nH]4)c(-c4cc(S(=O)(=O)[O-])ccc4F)c4nc(c(-c5cc(S(=O)(=O)[O-])ccc5F)c5ccc2[nH]5)C=C4)C=C3)cc1)C(F)(F)F
REMARK SMILES IDX 21 1 20 2 19 3 18 4 17 5 15 6 16 7 2 8 1 9 3 10 4 11 5 13
REMARK SMILES IDX 6 14 7 15 8 16 9 17 10 18 14 19 11 20 13 21 12 22 92 25
REMARK SMILES IDX 93 26 94 27 95 28 22 29 23 30 24 31 25 32 26 33 27 34 28 35
REMARK SMILES IDX 29 36 30 37 91 38 31 39 90 40 32 41 33 42 34 43 84 44 35 45
REMARK SMILES IDX 89 46 83 47 85 48 36 49 88 50 82 51 81 52 37 54 69 55 49 56
REMARK SMILES IDX 68 57 50 58 53 59 67 60 86 61 51 62 52 63 66 65 87 66 54 67
REMARK SMILES IDX 38 68 39 69 47 70 40 71 46 72 48 73 45 74 41 75 42 76 43 77
REMARK SMILES IDX 44 78 70 79 71 80 79 81 72 82 78 83 80 84 77 85 73 86 74 87
REMARK SMILES IDX 75 88 76 89 55 90 56 91 64 92 57 93 63 94 65 95 62 96 58 97
REMARK SMILES IDX 59 98 60 99 61 100
REMARK H PARENT 3 12 12 23 12 24 85 53 53 64
REMARK Flexibility Score: inf
ROOT
ATOM      1  C   UNL     1      -2.785  -1.918   2.080  1.00  0.00     0.188 C 
ENDROOT
BRANCH   1   2
ATOM      2  O   UNL     1      -3.789  -1.113   2.665  1.00  0.00    -0.376 OA
BRANCH   2   3
ATOM      3  C   UNL     1      -4.052   0.103   1.996  1.00  0.00     0.202 C 
BRANCH   3   4
ATOM      4  C   UNL     1      -2.928   1.138   1.896  1.00  0.00     0.261 C 
BRANCH   4   5
ATOM      5  O   UNL     1      -1.531   0.723   1.907  1.00  0.00    -0.461 OA
BRANCH   5   6
ATOM      6  C   UNL     1      -0.895   0.967   3.094  1.00  0.00     0.341 C 
ATOM      7  O   UNL     1      -1.531   1.214   4.115  1.00  0.00    -0.249 OA
BRANCH   6   8
ATOM      8  C   UNL     1       0.626   1.213   2.997  1.00  0.00     0.231 C 
ATOM      9  C   UNL     1       1.506   0.553   1.934  1.00  0.00     0.058 C 
BRANCH   8  10
ATOM     10  N   UNL     1       0.910   2.702   2.936  1.00  0.00    -0.333 N 
ATOM     11  C   UNL     1       0.602   3.586   1.929  1.00  0.00     0.223 C 
ATOM     12  H   UNL     1       1.373   3.083   3.716  1.00  0.00     0.164 HD
ATOM     13  O   UNL     1       1.453   4.417   1.604  1.00  0.00    -0.275 OA
BRANCH  11  14
ATOM     14  C   UNL     1      -0.799   3.680   1.353  1.00  0.00     0.128 C 
BRANCH  14  15
ATOM     15  C   UNL     1      -0.960   3.540  -0.167  1.00  0.00     0.170 C 
BRANCH  15  16
ATOM     16  O   UNL     1      -1.089   2.193  -0.655  1.00  0.00    -0.377 OA
BRANCH  16  17
ATOM     17  C   UNL     1       0.139   1.614  -1.132  1.00  0.00     0.129 C 
ATOM     18  C   UNL     1       0.579   2.147  -2.496  1.00  0.00     0.093 C 
ATOM     19  C   UNL     1       0.085   0.077  -0.991  1.00  0.00     0.093 C 
ATOM     20  C   UNL     1       0.515   1.131  -3.622  1.00  0.00     0.263 C 
ATOM     21  C   UNL     1       0.289  -0.763  -2.242  1.00  0.00     0.263 C 
ATOM     22  N   UNL     1       1.162  -0.106  -3.204  1.00  0.00    -0.346 N 
ATOM     23  H   UNL     1       2.061   0.102  -2.770  1.00  0.00     0.346 HD
ATOM     24  H   UNL     1       1.324  -0.712  -4.008  1.00  0.00     0.346 HD
ENDBRANCH  16  17
ENDBRANCH  15  16
ENDBRANCH  14  15
ENDBRANCH  11  14
ENDBRANCH   8  10
BRANCH   8  25
ATOM     25  C   UNL     1       1.119   0.508   4.298  1.00  0.00     0.422 C 
ATOM     26  F   UNL     1       0.886  -0.828   4.224  1.00  0.00    -0.168 F 
ATOM     27  F   UNL     1       2.464   0.662   4.434  1.00  0.00    -0.168 F 
ATOM     28  F   UNL     1       0.575   0.974   5.434  1.00  0.00    -0.168 F 
ENDBRANCH   8  25
ENDBRANCH   6   8
ENDBRANCH   5   6
ENDBRANCH   4   5
ENDBRANCH   3   4
ENDBRANCH   2   3
ENDBRANCH   1   2
BRANCH   1  29
ATOM     29  C   UNL     1      -3.005  -2.388   0.643  1.00  0.00     0.188 C 
BRANCH  29  30
ATOM     30  O   UNL     1      -3.549  -1.476  -0.303  1.00  0.00    -0.376 OA
BRANCH  30  31
ATOM     31  C   UNL     1      -3.384  -1.866  -1.673  1.00  0.00     0.202 C 
BRANCH  31  32
ATOM     32  C   UNL     1      -3.792  -3.300  -2.067  1.00  0.00     0.261 C 
BRANCH  32  33
ATOM     33  O   UNL     1      -3.128  -4.345  -1.322  1.00  0.00    -0.460 OA
BRANCH  33  34
ATOM     34  C   UNL     1      -1.769  -4.414  -1.416  1.00  0.00     0.338 C 
ATOM     35  O   UNL     1      -1.092  -3.854  -2.240  1.00  0.00    -0.246 OA
BRANCH  34  36
ATOM     36  C   UNL     1      -1.243  -5.042  -0.154  1.00  0.00     0.060 A 
ATOM     37  C   UNL     1       0.020  -4.637   0.304  1.00  0.00     0.016 A 
ATOM     38  C   UNL     1      -2.011  -5.905   0.639  1.00  0.00     0.016 A 
ATOM     39  C   UNL     1       0.536  -5.140   1.506  1.00  0.00     0.010 A 
ATOM     40  C   UNL     1      -1.496  -6.403   1.846  1.00  0.00     0.010 A 
ATOM     41  C   UNL     1      -0.199  -6.061   2.266  1.00  0.00    -0.014 A 
BRANCH  41  42
ATOM     42  C   UNL     1       0.485  -6.826   3.350  1.00  0.00     0.031 A 
ATOM     43  C   UNL     1       0.977  -8.218   3.030  1.00  0.00     0.074 A 
ATOM     44  C   UNL     1       0.743  -6.297   4.562  1.00  0.00     0.049 A 
ATOM     45  N   UNL     1       1.646  -9.061   3.775  1.00  0.00    -0.248 NA
ATOM     46  C   UNL     1       0.669  -8.723   1.683  1.00  0.00     0.031 C 
ATOM     47  C   UNL     1       0.353  -4.961   5.006  1.00  0.00     0.029 A 
ATOM     48  N   UNL     1       1.406  -6.829   5.645  1.00  0.00    -0.354 N 
ATOM     49  C   UNL     1       1.860 -10.182   2.980  1.00  0.00     0.074 A 
ATOM     50  C   UNL     1       1.189  -9.938   1.722  1.00  0.00     0.031 C 
ATOM     51  C   UNL     1       0.783  -4.778   6.269  1.00  0.00     0.029 A 
ATOM     52  C   UNL     1       1.460  -5.989   6.735  1.00  0.00     0.049 A 
ATOM     53  H   UNL     1       1.805  -7.729   5.641  1.00  0.00     0.167 HD
ATOM     54  C   UNL     1       2.571 -11.304   3.253  1.00  0.00     0.034 A 
ATOM     55  C   UNL     1       1.984  -6.176   7.966  1.00  0.00     0.034 A 
ATOM     56  C   UNL     1       3.219 -11.565   4.515  1.00  0.00     0.049 A 
ATOM     57  C   UNL     1       2.694  -7.477   8.283  1.00  0.00     0.074 A 
ATOM     58  C   UNL     1       3.949 -12.679   4.894  1.00  0.00     0.029 A 
ATOM     59  N   UNL     1       3.206 -10.711   5.609  1.00  0.00    -0.354 N 
ATOM     60  N   UNL     1       2.904  -8.519   7.511  1.00  0.00    -0.248 NA
ATOM     61  C   UNL     1       3.254  -7.615   9.636  1.00  0.00     0.031 C 
ATOM     62  C   UNL     1       4.317 -12.530   6.235  1.00  0.00     0.029 A 
ATOM     63  C   UNL     1       3.891 -11.286   6.671  1.00  0.00     0.049 A 
ATOM     64  H   UNL     1       2.774  -9.827   5.630  1.00  0.00     0.167 HD
ATOM     65  C   UNL     1       3.645  -9.419   8.278  1.00  0.00     0.074 A 
ATOM     66  C   UNL     1       3.870  -8.784   9.559  1.00  0.00     0.031 C 
ATOM     67  C   UNL     1       4.099 -10.658   7.954  1.00  0.00     0.034 A 
BRANCH  54  68
ATOM     68  C   UNL     1       2.650 -12.348   2.166  1.00  0.00     0.023 A 
ATOM     69  C   UNL     1       3.291 -12.086   0.941  1.00  0.00     0.031 A 
ATOM     70  C   UNL     1       2.053 -13.608   2.340  1.00  0.00     0.131 A 
ATOM     71  C   UNL     1       3.259 -13.042  -0.084  1.00  0.00     0.055 A 
ATOM     72  C   UNL     1       2.096 -14.586   1.346  1.00  0.00     0.041 A 
ATOM     73  F   UNL     1       1.404 -13.905   3.477  1.00  0.00    -0.206 F 
ATOM     74  C   UNL     1       2.690 -14.302   0.119  1.00  0.00     0.022 A 
BRANCH  71  75
ATOM     75  S   UNL     1       3.846 -12.566  -1.733  1.00  0.00     0.124 S 
ATOM     76  O   UNL     1       2.965 -11.443  -2.046  1.00  0.00    -0.237 OA
ATOM     77  O   UNL     1       5.244 -12.232  -1.487  1.00  0.00    -0.237 OA
ATOM     78  O   UNL     1       3.622 -13.766  -2.537  1.00  0.00    -0.744 OA
ENDBRANCH  71  75
ENDBRANCH  54  68
BRANCH  55  79
ATOM     79  C   UNL     1       1.829  -5.136   9.031  1.00  0.00     0.023 A 
ATOM     80  C   UNL     1       2.942  -4.521   9.630  1.00  0.00     0.031 A 
ATOM     81  C   UNL     1       0.555  -4.819   9.535  1.00  0.00     0.131 A 
ATOM     82  C   UNL     1       2.763  -3.670  10.734  1.00  0.00     0.055 A 
ATOM     83  C   UNL     1       0.379  -3.925  10.592  1.00  0.00     0.041 A 
ATOM     84  F   UNL     1      -0.543  -5.387   9.011  1.00  0.00    -0.206 F 
ATOM     85  C   UNL     1       1.488  -3.357  11.209  1.00  0.00     0.022 A 
BRANCH  82  86
ATOM     86  S   UNL     1       4.230  -3.066  11.618  1.00  0.00     0.124 S 
ATOM     87  O   UNL     1       4.882  -4.314  11.998  1.00  0.00    -0.237 OA
ATOM     88  O   UNL     1       4.902  -2.280  10.589  1.00  0.00    -0.237 OA
ATOM     89  O   UNL     1       3.668  -2.292  12.723  1.00  0.00    -0.744 OA
ENDBRANCH  82  86
ENDBRANCH  55  79
BRANCH  67  90
ATOM     90  C   UNL     1       4.920 -11.389   8.995  1.00  0.00     0.023 A 
ATOM     91  C   UNL     1       4.377 -11.770  10.235  1.00  0.00     0.031 A 
ATOM     92  C   UNL     1       6.276 -11.680   8.756  1.00  0.00     0.131 A 
ATOM     93  C   UNL     1       5.201 -12.346  11.216  1.00  0.00     0.055 A 
ATOM     94  C   UNL     1       7.073 -12.319   9.709  1.00  0.00     0.041 A 
ATOM     95  F   UNL     1       6.854 -11.343   7.592  1.00  0.00    -0.206 F 
ATOM     96  C   UNL     1       6.542 -12.638  10.954  1.00  0.00     0.022 A 
BRANCH  93  97
ATOM     97  S   UNL     1       4.529 -12.592  12.884  1.00  0.00     0.124 S 
ATOM     98  O   UNL     1       4.072 -11.250  13.228  1.00  0.00    -0.237 OA
ATOM     99  O   UNL     1       3.483 -13.583  12.654  1.00  0.00    -0.237 OA
ATOM    100  O   UNL     1       5.679 -13.071  13.649  1.00  0.00    -0.744 OA
ENDBRANCH  93  97
ENDBRANCH  67  90
ENDBRANCH  41  42
ENDBRANCH  34  36
ENDBRANCH  33  34
ENDBRANCH  32  33
ENDBRANCH  31  32
ENDBRANCH  30  31
ENDBRANCH  29  30
ENDBRANCH   1  29
TORSDOF 26
