REMARK SMILES O=C(OCCOCCOCCOC(=O)c1ccccc1C(=O)Nc1ccc(N2C(=O)[C@H]3[C@@H]4CC[C@@H](C4)[C@@H]3C2=O)cc1)c1ccc(-c2c3nc(c(-c4cc(S(=O)(=O)[O-])ccc4F)c4ccc([nH]4)c(-c4cc(S(=O)(=O)[O-])ccc4F)c4nc(c(-c5cc(S(=O)(=O)[O-])ccc5F)c5ccc2[nH]5)C=C4)C=C3)cc1
REMARK SMILES IDX 7 1 6 2 5 3 4 4 3 5 2 6 1 7 42 8 43 9 104 10 44 11 103 12
REMARK SMILES IDX 45 13 46 14 47 15 97 16 48 17 102 18 96 19 98 20 49 21
REMARK SMILES IDX 101 22 95 23 94 24 50 26 82 27 62 28 81 29 63 30 66 31 80 32
REMARK SMILES IDX 99 33 64 34 65 35 79 37 100 38 67 39 51 40 52 41 60 42 53 43
REMARK SMILES IDX 59 44 61 45 58 46 54 47 55 48 56 49 57 50 83 51 84 52 92 53
REMARK SMILES IDX 85 54 91 55 93 56 90 57 86 58 87 59 88 60 89 61 68 62 69 63
REMARK SMILES IDX 77 64 70 65 76 66 78 67 75 68 71 69 72 70 73 71 74 72 8 73
REMARK SMILES IDX 9 74 10 75 11 76 12 77 13 78 14 79 15 80 16 81 20 82 17 83
REMARK SMILES IDX 19 84 18 85 21 86 22 87 23 88 24 90 25 91 41 92 26 93 40 94
REMARK SMILES IDX 27 95 28 96 29 97 38 98 30 99 31 100 37 101 39 102 32 103
REMARK SMILES IDX 35 104 33 105 36 106 34 107
REMARK H PARENT 98 25 66 36 23 89
REMARK Flexibility Score: inf
ROOT
ATOM      1  C   UNL     1       0.231   0.754  -1.429  1.00  0.00     0.188 C 
ENDROOT
BRANCH   1   2
ATOM      2  O   UNL     1       1.188   0.904  -0.350  1.00  0.00    -0.376 OA
BRANCH   2   3
ATOM      3  C   UNL     1       2.198  -0.129  -0.251  1.00  0.00     0.202 C 
BRANCH   3   4
ATOM      4  C   UNL     1       2.029  -1.256   0.766  1.00  0.00     0.261 C 
BRANCH   4   5
ATOM      5  O   UNL     1       0.776  -1.155   1.435  1.00  0.00    -0.460 OA
BRANCH   5   6
ATOM      6  C   UNL     1       0.603  -0.581   2.647  1.00  0.00     0.338 C 
ATOM      7  O   UNL     1      -0.511  -0.573   3.163  1.00  0.00    -0.246 OA
BRANCH   6   8
ATOM      8  C   UNL     1       1.755  -0.029   3.409  1.00  0.00     0.060 A 
ATOM      9  C   UNL     1       2.733   0.783   2.836  1.00  0.00     0.016 A 
ATOM     10  C   UNL     1       1.819  -0.283   4.780  1.00  0.00     0.016 A 
ATOM     11  C   UNL     1       3.819   1.242   3.576  1.00  0.00     0.010 A 
ATOM     12  C   UNL     1       2.854   0.263   5.549  1.00  0.00     0.010 A 
ATOM     13  C   UNL     1       3.877   1.017   4.948  1.00  0.00    -0.014 A 
BRANCH  13  14
ATOM     14  C   UNL     1       5.041   1.488   5.742  1.00  0.00     0.031 A 
ATOM     15  C   UNL     1       5.870   0.467   6.455  1.00  0.00     0.074 A 
ATOM     16  C   UNL     1       5.393   2.787   5.799  1.00  0.00     0.049 A 
ATOM     17  N   UNL     1       6.690   0.614   7.458  1.00  0.00    -0.248 NA
ATOM     18  C   UNL     1       5.728  -0.916   5.978  1.00  0.00     0.031 C 
ATOM     19  C   UNL     1       4.771   3.862   5.032  1.00  0.00     0.029 A 
ATOM     20  N   UNL     1       6.372   3.426   6.517  1.00  0.00    -0.354 N 
ATOM     21  C   UNL     1       7.096  -0.671   7.796  1.00  0.00     0.074 A 
ATOM     22  C   UNL     1       6.446  -1.577   6.872  1.00  0.00     0.031 C 
ATOM     23  C   UNL     1       5.410   5.015   5.277  1.00  0.00     0.029 A 
ATOM     24  C   UNL     1       6.405   4.788   6.315  1.00  0.00     0.049 A 
ATOM     25  H   UNL     1       6.992   2.955   7.120  1.00  0.00     0.167 HD
ATOM     26  C   UNL     1       7.912  -1.044   8.812  1.00  0.00     0.034 A 
ATOM     27  C   UNL     1       7.109   5.749   6.945  1.00  0.00     0.034 A 
ATOM     28  C   UNL     1       8.557  -0.093   9.684  1.00  0.00     0.049 A 
ATOM     29  C   UNL     1       7.982   5.327   8.098  1.00  0.00     0.074 A 
ATOM     30  C   UNL     1       9.300  -0.311  10.829  1.00  0.00     0.029 A 
ATOM     31  N   UNL     1       8.549   1.284   9.475  1.00  0.00    -0.354 N 
ATOM     32  N   UNL     1       8.198   4.118   8.567  1.00  0.00    -0.248 NA
ATOM     33  C   UNL     1       8.669   6.394   8.834  1.00  0.00     0.031 C 
ATOM     34  C   UNL     1       9.716   0.934  11.326  1.00  0.00     0.029 A 
ATOM     35  C   UNL     1       9.272   1.927  10.466  1.00  0.00     0.049 A 
ATOM     36  H   UNL     1       8.093   1.737   8.729  1.00  0.00     0.167 HD
ATOM     37  C   UNL     1       9.030   4.280   9.667  1.00  0.00     0.074 A 
ATOM     38  C   UNL     1       9.309   5.701   9.766  1.00  0.00     0.031 C 
ATOM     39  C   UNL     1       9.505   3.350  10.534  1.00  0.00     0.034 A 
BRANCH  26  40
ATOM     40  C   UNL     1       8.010  -2.526   9.074  1.00  0.00     0.023 A 
ATOM     41  C   UNL     1       8.578  -3.412   8.142  1.00  0.00     0.031 A 
ATOM     42  C   UNL     1       7.373  -3.074  10.202  1.00  0.00     0.131 A 
ATOM     43  C   UNL     1       8.400  -4.797   8.299  1.00  0.00     0.055 A 
ATOM     44  C   UNL     1       7.276  -4.454  10.396  1.00  0.00     0.041 A 
ATOM     45  F   UNL     1       6.784  -2.279  11.109  1.00  0.00    -0.206 F 
ATOM     46  C   UNL     1       7.771  -5.324   9.429  1.00  0.00     0.022 A 
BRANCH  43  47
ATOM     47  S   UNL     1       8.820  -5.888   6.910  1.00  0.00     0.124 S 
ATOM     48  O   UNL     1       7.959  -5.363   5.853  1.00  0.00    -0.237 OA
ATOM     49  O   UNL     1      10.250  -5.655   6.747  1.00  0.00    -0.237 OA
ATOM     50  O   UNL     1       8.456  -7.218   7.396  1.00  0.00    -0.744 OA
ENDBRANCH  43  47
ENDBRANCH  26  40
BRANCH  27  51
ATOM     51  C   UNL     1       6.934   7.188   6.582  1.00  0.00     0.023 A 
ATOM     52  C   UNL     1       7.997   7.947   6.069  1.00  0.00     0.031 A 
ATOM     53  C   UNL     1       5.693   7.832   6.755  1.00  0.00     0.131 A 
ATOM     54  C   UNL     1       7.804   9.305   5.757  1.00  0.00     0.055 A 
ATOM     55  C   UNL     1       5.493   9.167   6.398  1.00  0.00     0.041 A 
ATOM     56  F   UNL     1       4.641   7.161   7.253  1.00  0.00    -0.206 F 
ATOM     57  C   UNL     1       6.555   9.913   5.901  1.00  0.00     0.022 A 
BRANCH  54  58
ATOM     58  S   UNL     1       9.229  10.295   5.221  1.00  0.00     0.124 S 
ATOM     59  O   UNL     1      10.136  10.151   6.355  1.00  0.00    -0.237 OA
ATOM     60  O   UNL     1       9.628   9.621   3.991  1.00  0.00    -0.237 OA
ATOM     61  O   UNL     1       8.666  11.633   5.042  1.00  0.00    -0.744 OA
ENDBRANCH  54  58
ENDBRANCH  27  51
BRANCH  39  62
ATOM     62  C   UNL     1      10.373   3.871  11.644  1.00  0.00     0.023 A 
ATOM     63  C   UNL     1       9.818   4.575  12.726  1.00  0.00     0.031 A 
ATOM     64  C   UNL     1      11.765   3.699  11.597  1.00  0.00     0.131 A 
ATOM     65  C   UNL     1      10.661   5.127  13.700  1.00  0.00     0.055 A 
ATOM     66  C   UNL     1      12.596   4.217  12.589  1.00  0.00     0.041 A 
ATOM     67  F   UNL     1      12.336   3.035  10.579  1.00  0.00    -0.206 F 
ATOM     68  C   UNL     1      12.046   4.945  13.642  1.00  0.00     0.022 A 
BRANCH  65  69
ATOM     69  S   UNL     1       9.928   6.148  15.007  1.00  0.00     0.124 S 
ATOM     70  O   UNL     1       9.295   7.217  14.241  1.00  0.00    -0.237 OA
ATOM     71  O   UNL     1       9.022   5.212  15.665  1.00  0.00    -0.237 OA
ATOM     72  O   UNL     1      11.081   6.558  15.807  1.00  0.00    -0.744 OA
ENDBRANCH  65  69
ENDBRANCH  39  62
ENDBRANCH  13  14
ENDBRANCH   6   8
ENDBRANCH   5   6
ENDBRANCH   4   5
ENDBRANCH   3   4
ENDBRANCH   2   3
ENDBRANCH   1   2
BRANCH   1  73
ATOM     73  C   UNL     1      -0.069   1.969  -2.503  1.00  0.00     0.188 C 
BRANCH  73  74
ATOM     74  O   UNL     1       0.891   2.251  -3.571  1.00  0.00    -0.376 OA
BRANCH  74  75
ATOM     75  C   UNL     1       1.623   3.525  -3.777  1.00  0.00     0.202 C 
BRANCH  75  76
ATOM     76  C   UNL     1       3.393   3.705  -3.356  1.00  0.00     0.261 C 
BRANCH  76  77
ATOM     77  O   UNL     1       4.165   3.291  -1.502  1.00  0.00    -0.460 OA
BRANCH  77  78
ATOM     78  C   UNL     1       4.339   3.397  -0.062  1.00  0.00     0.339 C 
ATOM     79  O   UNL     1       4.856   2.449   0.538  1.00  0.00    -0.246 OA
BRANCH  78  80
ATOM     80  C   UNL     1       3.768   4.526   0.837  1.00  0.00     0.072 A 
ATOM     81  C   UNL     1       2.717   4.196   1.728  1.00  0.00     0.016 A 
ATOM     82  C   UNL     1       4.236   5.856   0.880  1.00  0.00     0.054 A 
ATOM     83  C   UNL     1       2.224   5.105   2.685  1.00  0.00     0.001 A 
ATOM     84  C   UNL     1       3.752   6.751   1.872  1.00  0.00     0.015 A 
ATOM     85  C   UNL     1       2.769   6.376   2.781  1.00  0.00     0.001 A 
BRANCH  82  86
ATOM     86  C   UNL     1       5.215   6.474  -0.046  1.00  0.00     0.256 C 
ATOM     87  O   UNL     1       5.954   7.365   0.368  1.00  0.00    -0.269 OA
ATOM     88  N   UNL     1       5.331   6.096  -1.357  1.00  0.00    -0.322 N 
ATOM     89  H   UNL     1       6.003   6.575  -1.893  1.00  0.00     0.170 HD
BRANCH  88  90
ATOM     90  C   UNL     1       4.603   5.111  -2.012  1.00  0.00     0.041 A 
ATOM     91  C   UNL     1       5.649   3.830  -2.677  1.00  0.00     0.028 A 
ATOM     92  C   UNL     1       2.893   4.758  -1.570  1.00  0.00     0.028 A 
ATOM     93  C   UNL     1       5.082   2.163  -2.848  1.00  0.00     0.029 A 
ATOM     94  C   UNL     1       2.338   3.015  -1.659  1.00  0.00     0.029 A 
ATOM     95  C   UNL     1       3.425   1.718  -2.420  1.00  0.00     0.052 A 
BRANCH  95  96
ATOM     96  N   UNL     1       2.940   0.571  -3.216  1.00  0.00    -0.250 N 
ATOM     97  C   UNL     1       2.402   0.608  -4.530  1.00  0.00     0.237 C 
ATOM     98  C   UNL     1       3.337  -0.750  -3.054  1.00  0.00     0.237 C 
ATOM     99  O   UNL     1       2.661   1.311  -5.489  1.00  0.00    -0.274 OA
ATOM    100  C   UNL     1       1.493  -0.593  -4.510  1.00  0.00     0.095 C 
ATOM    101  C   UNL     1       2.544  -1.583  -4.061  1.00  0.00     0.095 C 
ATOM    102  O   UNL     1       4.226  -1.204  -2.353  1.00  0.00    -0.274 OA
ATOM    103  C   UNL     1       0.443  -1.468  -5.208  1.00  0.00     0.002 C 
ATOM    104  C   UNL     1       1.698  -2.858  -3.933  1.00  0.00     0.002 C 
ATOM    105  C   UNL     1      -0.549  -1.893  -4.069  1.00  0.00     0.005 C 
ATOM    106  C   UNL     1       1.117  -2.844  -5.371  1.00  0.00     0.009 C 
ATOM    107  C   UNL     1       0.379  -2.712  -3.126  1.00  0.00     0.005 C 
ENDBRANCH  95  96
ENDBRANCH  88  90
ENDBRANCH  82  86
ENDBRANCH  78  80
ENDBRANCH  77  78
ENDBRANCH  76  77
ENDBRANCH  75  76
ENDBRANCH  74  75
ENDBRANCH  73  74
ENDBRANCH   1  73
TORSDOF 23
