REMARK SMILES O=C(OCCOCCOCCOC(=O)[C@@H]1C[C@@H]2CC(=O)[C@H]1C2)c1ccc(-c2c3nc(c(-c4cc(S(=O)(=O)[O-])ccc4F)c4ccc([nH]4)c(-c4cc(S(=O)(=O)[O-])ccc4F)c4nc(c(-c5cc(S(=O)(=O)[O-])ccc5F)c5ccc2[nH]5)C=C4)C=C3)cc1
REMARK SMILES IDX 6 1 5 2 4 3 3 4 2 5 1 6 23 7 24 8 85 9 25 10 84 11 26 12
REMARK SMILES IDX 27 13 28 14 78 15 29 16 83 17 77 18 79 19 30 20 82 21 76 22
REMARK SMILES IDX 75 23 31 25 63 26 43 27 62 28 44 29 47 30 61 31 80 32 45 33
REMARK SMILES IDX 46 34 60 36 81 37 48 38 32 39 33 40 41 41 34 42 40 43 42 44
REMARK SMILES IDX 39 45 35 46 36 47 37 48 38 49 64 50 65 51 73 52 66 53 72 54
REMARK SMILES IDX 74 55 71 56 67 57 68 58 69 59 70 60 49 61 50 62 58 63 51 64
REMARK SMILES IDX 57 65 59 66 56 67 52 68 53 69 54 70 55 71 7 72 8 73 9 74
REMARK SMILES IDX 10 75 11 76 12 77 13 78 14 79 15 80 16 81 21 82 17 83 19 84
REMARK SMILES IDX 22 85 18 86 20 87
REMARK H PARENT 79 24 47 35
REMARK Flexibility Score: inf
ROOT
ATOM      1  O   UNL     1       3.862  -1.219   1.013  1.00  0.00    -0.376 OA
ENDROOT
BRANCH   1   2
ATOM      2  C   UNL     1       4.771  -0.137   1.251  1.00  0.00     0.202 C 
BRANCH   2   3
ATOM      3  C   UNL     1       4.434   1.220   0.602  1.00  0.00     0.261 C 
BRANCH   3   4
ATOM      4  O   UNL     1       3.047   1.395   0.263  1.00  0.00    -0.460 OA
BRANCH   4   5
ATOM      5  C   UNL     1       2.424   1.149  -0.917  1.00  0.00     0.338 C 
ATOM      6  O   UNL     1       1.242   1.472  -1.035  1.00  0.00    -0.246 OA
BRANCH   5   7
ATOM      7  C   UNL     1       3.084   0.476  -2.074  1.00  0.00     0.060 A 
ATOM      8  C   UNL     1       4.148  -0.414  -1.963  1.00  0.00     0.016 A 
ATOM      9  C   UNL     1       2.534   0.685  -3.350  1.00  0.00     0.016 A 
ATOM     10  C   UNL     1       4.726  -1.001  -3.077  1.00  0.00     0.010 A 
ATOM     11  C   UNL     1       3.072   0.051  -4.477  1.00  0.00     0.010 A 
ATOM     12  C   UNL     1       4.192  -0.777  -4.341  1.00  0.00    -0.014 A 
BRANCH  12  13
ATOM     13  C   UNL     1       4.925  -1.325  -5.499  1.00  0.00     0.031 A 
ATOM     14  C   UNL     1       5.737  -0.389  -6.327  1.00  0.00     0.074 A 
ATOM     15  C   UNL     1       5.034  -2.654  -5.673  1.00  0.00     0.049 A 
ATOM     16  N   UNL     1       6.427  -0.639  -7.402  1.00  0.00    -0.248 NA
ATOM     17  C   UNL     1       5.803   1.006  -5.865  1.00  0.00     0.031 C 
ATOM     18  C   UNL     1       4.460  -3.643  -4.767  1.00  0.00     0.029 A 
ATOM     19  N   UNL     1       5.710  -3.407  -6.597  1.00  0.00    -0.354 N 
ATOM     20  C   UNL     1       6.987   0.573  -7.770  1.00  0.00     0.074 A 
ATOM     21  C   UNL     1       6.555   1.558  -6.802  1.00  0.00     0.031 C 
ATOM     22  C   UNL     1       4.886  -4.859  -5.133  1.00  0.00     0.029 A 
ATOM     23  C   UNL     1       5.567  -4.761  -6.403  1.00  0.00     0.049 A 
ATOM     24  H   UNL     1       6.243  -3.018  -7.327  1.00  0.00     0.167 HD
ATOM     25  C   UNL     1       7.776   0.822  -8.840  1.00  0.00     0.034 A 
ATOM     26  C   UNL     1       5.864  -5.814  -7.187  1.00  0.00     0.034 A 
ATOM     27  C   UNL     1       8.165  -0.202  -9.776  1.00  0.00     0.049 A 
ATOM     28  C   UNL     1       6.561  -5.497  -8.473  1.00  0.00     0.074 A 
ATOM     29  C   UNL     1       8.895  -0.074 -10.942  1.00  0.00     0.029 A 
ATOM     30  N   UNL     1       7.842  -1.551  -9.653  1.00  0.00    -0.354 N 
ATOM     31  N   UNL     1       6.989  -4.328  -8.891  1.00  0.00    -0.248 NA
ATOM     32  C   UNL     1       6.813  -6.607  -9.392  1.00  0.00     0.031 C 
ATOM     33  C   UNL     1       8.939  -1.326 -11.564  1.00  0.00     0.029 A 
ATOM     34  C   UNL     1       8.315  -2.257 -10.747  1.00  0.00     0.049 A 
ATOM     35  H   UNL     1       7.348  -1.946  -8.899  1.00  0.00     0.167 HD
ATOM     36  C   UNL     1       7.585  -4.563 -10.117  1.00  0.00     0.074 A 
ATOM     37  C   UNL     1       7.474  -5.991 -10.361  1.00  0.00     0.031 C 
ATOM     38  C   UNL     1       8.175  -3.680 -10.962  1.00  0.00     0.034 A 
BRANCH  25  39
ATOM     39  C   UNL     1       8.118   2.264  -9.099  1.00  0.00     0.023 A 
ATOM     40  C   UNL     1       8.904   3.022  -8.215  1.00  0.00     0.031 A 
ATOM     41  C   UNL     1       7.540   2.920 -10.200  1.00  0.00     0.131 A 
ATOM     42  C   UNL     1       9.020   4.409  -8.402  1.00  0.00     0.055 A 
ATOM     43  C   UNL     1       7.732   4.282 -10.429  1.00  0.00     0.041 A 
ATOM     44  F   UNL     1       6.743   2.254 -11.051  1.00  0.00    -0.206 F 
ATOM     45  C   UNL     1       8.462   5.039  -9.518  1.00  0.00     0.022 A 
BRANCH  42  46
ATOM     46  S   UNL     1       9.759   5.405  -7.078  1.00  0.00     0.124 S 
ATOM     47  O   UNL     1       8.843   5.146  -5.969  1.00  0.00    -0.237 OA
ATOM     48  O   UNL     1      11.092   4.828  -6.952  1.00  0.00    -0.237 OA
ATOM     49  O   UNL     1       9.715   6.767  -7.607  1.00  0.00    -0.744 OA
ENDBRANCH  42  46
ENDBRANCH  25  39
BRANCH  26  50
ATOM     50  C   UNL     1       5.375  -7.193  -6.859  1.00  0.00     0.023 A 
ATOM     51  C   UNL     1       6.244  -8.289  -6.748  1.00  0.00     0.031 A 
ATOM     52  C   UNL     1       3.993  -7.445  -6.711  1.00  0.00     0.131 A 
ATOM     53  C   UNL     1       5.724  -9.581  -6.544  1.00  0.00     0.055 A 
ATOM     54  C   UNL     1       3.487  -8.719  -6.446  1.00  0.00     0.041 A 
ATOM     55  F   UNL     1       3.102  -6.445  -6.814  1.00  0.00    -0.206 F 
ATOM     56  C   UNL     1       4.354  -9.800  -6.377  1.00  0.00     0.022 A 
BRANCH  53  57
ATOM     57  S   UNL     1       6.853 -11.001  -6.618  1.00  0.00     0.124 S 
ATOM     58  O   UNL     1       7.496 -10.801  -7.912  1.00  0.00    -0.237 OA
ATOM     59  O   UNL     1       7.689 -10.782  -5.443  1.00  0.00    -0.237 OA
ATOM     60  O   UNL     1       5.956 -12.152  -6.539  1.00  0.00    -0.744 OA
ENDBRANCH  53  57
ENDBRANCH  26  50
BRANCH  38  61
ATOM     61  C   UNL     1       8.781  -4.264 -12.203  1.00  0.00     0.023 A 
ATOM     62  C   UNL     1       7.984  -4.825 -13.214  1.00  0.00     0.031 A 
ATOM     63  C   UNL     1      10.177  -4.274 -12.363  1.00  0.00     0.131 A 
ATOM     64  C   UNL     1       8.596  -5.426 -14.320  1.00  0.00     0.055 A 
ATOM     65  C   UNL     1      10.775  -4.808 -13.501  1.00  0.00     0.041 A 
ATOM     66  F   UNL     1      10.977  -3.759 -11.415  1.00  0.00    -0.206 F 
ATOM     67  C   UNL     1       9.984  -5.400 -14.482  1.00  0.00     0.022 A 
BRANCH  64  68
ATOM     68  S   UNL     1       7.555  -6.329 -15.495  1.00  0.00     0.124 S 
ATOM     69  O   UNL     1       6.986  -7.375 -14.651  1.00  0.00    -0.237 OA
ATOM     70  O   UNL     1       6.625  -5.299 -15.947  1.00  0.00    -0.237 OA
ATOM     71  O   UNL     1       8.504  -6.792 -16.506  1.00  0.00    -0.744 OA
ENDBRANCH  64  68
ENDBRANCH  38  61
ENDBRANCH  12  13
ENDBRANCH   5   7
ENDBRANCH   4   5
ENDBRANCH   3   4
ENDBRANCH   2   3
ENDBRANCH   1   2
BRANCH   1  72
ATOM     72  C   UNL     1       2.544  -1.025   1.527  1.00  0.00     0.188 C 
BRANCH  72  73
ATOM     73  C   UNL     1       1.917  -2.302   2.088  1.00  0.00     0.188 C 
BRANCH  73  74
ATOM     74  O   UNL     1       2.513  -2.871   3.251  1.00  0.00    -0.376 OA
BRANCH  74  75
ATOM     75  C   UNL     1       3.928  -3.031   3.254  1.00  0.00     0.202 C 
BRANCH  75  76
ATOM     76  C   UNL     1       4.553  -4.070   2.309  1.00  0.00     0.261 C 
BRANCH  76  77
ATOM     77  O   UNL     1       3.974  -4.119   1.000  1.00  0.00    -0.463 OA
BRANCH  77  78
ATOM     78  C   UNL     1       3.072  -5.122   0.819  1.00  0.00     0.309 C 
ATOM     79  O   UNL     1       2.736  -5.929   1.675  1.00  0.00    -0.252 OA
BRANCH  78  80
ATOM     80  C   UNL     1       2.462  -5.054  -0.572  1.00  0.00     0.110 C 
ATOM     81  C   UNL     1       1.468  -6.223  -0.805  1.00  0.00     0.020 C 
ATOM     82  C   UNL     1       3.474  -5.255  -1.709  1.00  0.00     0.070 C 
ATOM     83  C   UNL     1       2.140  -7.047  -1.913  1.00  0.00    -0.002 C 
ATOM     84  C   UNL     1       4.310  -6.444  -1.313  1.00  0.00     0.137 C 
ATOM     85  C   UNL     1       2.628  -5.915  -2.805  1.00  0.00     0.016 C 
ATOM     86  C   UNL     1       3.468  -7.690  -1.432  1.00  0.00     0.079 C 
ATOM     87  O   UNL     1       5.452  -6.382  -0.876  1.00  0.00    -0.299 OA
ENDBRANCH  78  80
ENDBRANCH  77  78
ENDBRANCH  76  77
ENDBRANCH  75  76
ENDBRANCH  74  75
ENDBRANCH  73  74
ENDBRANCH  72  73
ENDBRANCH   1  72
TORSDOF 20
