REMARK SMILES Cc1ccc(C[N@H+]2CCC[C@@H](C(=O)OCCOCCOCCOC(=O)c3ccc(-c4c5nc(c(-c6cc(S(=O)(=O)[O-])ccc6F)c6ccc([nH]6)c(-c6cc(S(=O)(=O)[O-])ccc6F)c6nc(c(-c7cc(S(=O)(=O)[O-])ccc7F)c7ccc4[nH]7)C=C6)C=C5)cc3)C2)o1
REMARK SMILES IDX 19 1 18 2 17 3 16 4 15 5 14 6 12 7 13 8 11 9 7 10 8 11 89 12
REMARK SMILES IDX 9 14 10 15 6 16 5 17 1 18 2 19 3 20 90 21 4 22 20 23 21 24
REMARK SMILES IDX 22 25 23 26 24 27 25 28 26 29 27 30 88 31 28 32 87 33 29 34
REMARK SMILES IDX 30 35 31 36 81 37 32 38 86 39 80 40 82 41 33 42 85 43 79 44
REMARK SMILES IDX 78 45 34 47 66 48 46 49 65 50 47 51 50 52 64 53 83 54 48 55
REMARK SMILES IDX 49 56 63 58 84 59 51 60 35 61 36 62 44 63 37 64 43 65 45 66
REMARK SMILES IDX 42 67 38 68 39 69 40 70 41 71 67 72 68 73 76 74 69 75 75 76
REMARK SMILES IDX 77 77 74 78 70 79 71 80 72 81 73 82 52 83 53 84 61 85 54 86
REMARK SMILES IDX 60 87 62 88 59 89 55 90 56 91 57 92 58 93
REMARK H PARENT 7 13 82 46 50 57
REMARK Flexibility Score: inf
ROOT
ATOM      1  C   UNL     1       1.262   5.128   4.601  1.00  0.00     0.188 C 
ENDROOT
BRANCH   1   2
ATOM      2  C   UNL     1       2.105   4.330   3.584  1.00  0.00     0.188 C 
BRANCH   2   3
ATOM      3  O   UNL     1       3.157   4.991   2.889  1.00  0.00    -0.376 OA
BRANCH   3   4
ATOM      4  C   UNL     1       2.950   6.328   2.461  1.00  0.00     0.202 C 
BRANCH   4   5
ATOM      5  C   UNL     1       1.695   6.667   1.636  1.00  0.00     0.261 C 
BRANCH   5   6
ATOM      6  O   UNL     1       0.466   5.997   2.011  1.00  0.00    -0.463 OA
BRANCH   6   7
ATOM      7  C   UNL     1      -0.078   5.206   1.049  1.00  0.00     0.314 C 
ATOM      8  O   UNL     1       0.391   5.125  -0.084  1.00  0.00    -0.252 OA
BRANCH   7   9
ATOM      9  C   UNL     1      -1.371   4.477   1.455  1.00  0.00     0.154 C 
ATOM     10  N   UNL     1      -2.583   2.377   0.754  1.00  0.00    -0.328 N 
ATOM     11  C   UNL     1      -2.603   1.855   2.122  1.00  0.00     0.262 C 
ATOM     12  C   UNL     1      -1.426   3.252   0.531  1.00  0.00     0.278 C 
ATOM     13  H   UNL     1      -3.432   2.932   0.643  1.00  0.00     0.348 HD
ATOM     14  C   UNL     1      -2.663   3.015   3.114  1.00  0.00     0.062 C 
ATOM     15  C   UNL     1      -1.508   4.000   2.907  1.00  0.00     0.027 C 
BRANCH  10  16
ATOM     16  C   UNL     1      -2.623   1.296  -0.260  1.00  0.00     0.338 C 
BRANCH  16  17
ATOM     17  C   UNL     1      -1.519   0.288  -0.208  1.00  0.00     0.158 A 
ATOM     18  C   UNL     1       2.037  -0.010  -0.314  1.00  0.00     0.087 C 
ATOM     19  C   UNL     1       0.595  -0.314  -0.246  1.00  0.00     0.101 A 
ATOM     20  C   UNL     1      -0.132  -1.467  -0.050  1.00  0.00     0.046 A 
ATOM     21  O   UNL     1      -0.245   0.744  -0.387  1.00  0.00    -0.460 OA
ATOM     22  C   UNL     1      -1.495  -1.079  -0.026  1.00  0.00     0.052 A 
ENDBRANCH  16  17
ENDBRANCH  10  16
ENDBRANCH   7   9
ENDBRANCH   6   7
ENDBRANCH   5   6
ENDBRANCH   4   5
ENDBRANCH   3   4
ENDBRANCH   2   3
ENDBRANCH   1   2
BRANCH   1  23
ATOM     23  O   UNL     1       1.768   6.421   4.851  1.00  0.00    -0.376 OA
BRANCH  23  24
ATOM     24  C   UNL     1       1.881   6.815   6.201  1.00  0.00     0.202 C 
BRANCH  24  25
ATOM     25  C   UNL     1       2.977   6.096   7.003  1.00  0.00     0.261 C 
BRANCH  25  26
ATOM     26  O   UNL     1       3.070   4.668   6.830  1.00  0.00    -0.460 OA
BRANCH  26  27
ATOM     27  C   UNL     1       2.160   3.908   7.482  1.00  0.00     0.338 C 
ATOM     28  O   UNL     1       1.261   4.322   8.202  1.00  0.00    -0.246 OA
BRANCH  27  29
ATOM     29  C   UNL     1       2.277   2.508   7.002  1.00  0.00     0.060 A 
ATOM     30  C   UNL     1       1.178   1.906   6.369  1.00  0.00     0.016 A 
ATOM     31  C   UNL     1       3.458   1.786   7.180  1.00  0.00     0.016 A 
ATOM     32  C   UNL     1       1.250   0.576   5.936  1.00  0.00     0.010 A 
ATOM     33  C   UNL     1       3.519   0.447   6.768  1.00  0.00     0.010 A 
ATOM     34  C   UNL     1       2.407  -0.178   6.170  1.00  0.00    -0.014 A 
BRANCH  34  35
ATOM     35  C   UNL     1       2.402  -1.655   5.975  1.00  0.00     0.031 A 
ATOM     36  C   UNL     1       2.222  -2.536   7.183  1.00  0.00     0.074 A 
ATOM     37  C   UNL     1       2.557  -2.221   4.763  1.00  0.00     0.049 A 
ATOM     38  N   UNL     1       2.296  -3.838   7.286  1.00  0.00    -0.248 NA
ATOM     39  C   UNL     1       1.928  -1.845   8.447  1.00  0.00     0.031 C 
ATOM     40  C   UNL     1       2.684  -1.494   3.503  1.00  0.00     0.029 A 
ATOM     41  N   UNL     1       2.650  -3.545   4.399  1.00  0.00    -0.354 N 
ATOM     42  C   UNL     1       2.073  -4.124   8.629  1.00  0.00     0.074 A 
ATOM     43  C   UNL     1       1.896  -2.854   9.303  1.00  0.00     0.031 C 
ATOM     44  C   UNL     1       2.856  -2.382   2.509  1.00  0.00     0.029 A 
ATOM     45  C   UNL     1       2.894  -3.735   3.058  1.00  0.00     0.049 A 
ATOM     46  H   UNL     1       2.552  -4.287   5.038  1.00  0.00     0.167 HD
ATOM     47  C   UNL     1       2.016  -5.332   9.245  1.00  0.00     0.034 A 
ATOM     48  C   UNL     1       3.151  -4.861   2.357  1.00  0.00     0.034 A 
ATOM     49  C   UNL     1       2.209  -6.593   8.569  1.00  0.00     0.049 A 
ATOM     50  C   UNL     1       3.189  -6.189   3.078  1.00  0.00     0.074 A 
ATOM     51  C   UNL     1       2.162  -7.870   9.100  1.00  0.00     0.029 A 
ATOM     52  N   UNL     1       2.503  -6.739   7.219  1.00  0.00    -0.354 N 
ATOM     53  N   UNL     1       2.980  -6.447   4.349  1.00  0.00    -0.248 NA
ATOM     54  C   UNL     1       3.496  -7.378   2.269  1.00  0.00     0.031 C 
ATOM     55  C   UNL     1       2.512  -8.778   8.096  1.00  0.00     0.029 A 
ATOM     56  C   UNL     1       2.681  -8.080   6.911  1.00  0.00     0.049 A 
ATOM     57  H   UNL     1       2.575  -5.998   6.574  1.00  0.00     0.167 HD
ATOM     58  C   UNL     1       3.098  -7.830   4.481  1.00  0.00     0.074 A 
ATOM     59  C   UNL     1       3.381  -8.351   3.161  1.00  0.00     0.031 C 
ATOM     60  C   UNL     1       2.975  -8.599   5.595  1.00  0.00     0.034 A 
BRANCH  47  61
ATOM     61  C   UNL     1       1.798  -5.334  10.740  1.00  0.00     0.023 A 
ATOM     62  C   UNL     1       0.625  -4.822  11.320  1.00  0.00     0.031 A 
ATOM     63  C   UNL     1       2.800  -5.819  11.601  1.00  0.00     0.131 A 
ATOM     64  C   UNL     1       0.519  -4.728  12.716  1.00  0.00     0.055 A 
ATOM     65  C   UNL     1       2.648  -5.807  12.988  1.00  0.00     0.041 A 
ATOM     66  F   UNL     1       3.953  -6.297  11.107  1.00  0.00    -0.206 F 
ATOM     67  C   UNL     1       1.510  -5.243  13.554  1.00  0.00     0.022 A 
BRANCH  64  68
ATOM     68  S   UNL     1      -0.854  -3.771  13.416  1.00  0.00     0.124 S 
ATOM     69  O   UNL     1      -0.660  -2.469  12.781  1.00  0.00    -0.237 OA
ATOM     70  O   UNL     1      -2.022  -4.527  12.977  1.00  0.00    -0.237 OA
ATOM     71  O   UNL     1      -0.594  -3.799  14.853  1.00  0.00    -0.744 OA
ENDBRANCH  64  68
ENDBRANCH  47  61
BRANCH  48  72
ATOM     72  C   UNL     1       3.443  -4.793   0.892  1.00  0.00     0.023 A 
ATOM     73  C   UNL     1       2.622  -5.442  -0.044  1.00  0.00     0.031 A 
ATOM     74  C   UNL     1       4.587  -4.130   0.411  1.00  0.00     0.131 A 
ATOM     75  C   UNL     1       2.978  -5.452  -1.403  1.00  0.00     0.055 A 
ATOM     76  C   UNL     1       4.904  -4.091  -0.948  1.00  0.00     0.041 A 
ATOM     77  F   UNL     1       5.415  -3.502   1.261  1.00  0.00    -0.206 F 
ATOM     78  C   UNL     1       4.103  -4.766  -1.863  1.00  0.00     0.022 A 
BRANCH  75  79
ATOM     79  S   UNL     1       1.997  -6.458  -2.551  1.00  0.00     0.124 S 
ATOM     80  O   UNL     1       2.141  -7.790  -1.975  1.00  0.00    -0.237 OA
ATOM     81  O   UNL     1       0.677  -5.847  -2.432  1.00  0.00    -0.237 OA
ATOM     82  O   UNL     1       2.663  -6.255  -3.835  1.00  0.00    -0.744 OA
ENDBRANCH  75  79
ENDBRANCH  48  72
BRANCH  60  83
ATOM     83  C   UNL     1       3.092 -10.097   5.424  1.00  0.00     0.023 A 
ATOM     84  C   UNL     1       4.289 -10.712   5.018  1.00  0.00     0.031 A 
ATOM     85  C   UNL     1       1.979 -10.924   5.670  1.00  0.00     0.131 A 
ATOM     86  C   UNL     1       4.329 -12.101   4.813  1.00  0.00     0.055 A 
ATOM     87  C   UNL     1       2.045 -12.311   5.532  1.00  0.00     0.041 A 
ATOM     88  F   UNL     1       0.806 -10.395   6.054  1.00  0.00    -0.206 F 
ATOM     89  C   UNL     1       3.221 -12.906   5.088  1.00  0.00     0.022 A 
BRANCH  86  90
ATOM     90  S   UNL     1       5.820 -12.834   4.083  1.00  0.00     0.124 S 
ATOM     91  O   UNL     1       5.928 -12.107   2.822  1.00  0.00    -0.237 OA
ATOM     92  O   UNL     1       6.839 -12.532   5.083  1.00  0.00    -0.237 OA
ATOM     93  O   UNL     1       5.479 -14.250   3.954  1.00  0.00    -0.744 OA
ENDBRANCH  86  90
ENDBRANCH  60  83
ENDBRANCH  34  35
ENDBRANCH  27  29
ENDBRANCH  26  27
ENDBRANCH  25  26
ENDBRANCH  24  25
ENDBRANCH  23  24
ENDBRANCH   1  23
TORSDOF 22
