REMARK SMILES COc1cc(OC)cc(-c2ccc([C@@H](C)C(=O)OCCOCCOCCOC(=O)c3ccc(-c4c5nc(c(-c6cc(S(=O)(=O)[O-])ccc6F)c6ccc([nH]6)c(-c6cc(S(=O)(=O)[O-])ccc6F)c6nc(c(-c7cc(S(=O)(=O)[O-])ccc7F)c7ccc4[nH]7)C=C6)C=C5)cc3)cc2F)c1
REMARK SMILES IDX 22 1 21 2 20 3 19 4 18 5 16 6 17 7 14 8 15 9 13 10 10 11
REMARK SMILES IDX 11 12 94 13 12 14 93 15 95 16 9 17 3 18 4 19 96 20 5 21 8 22
REMARK SMILES IDX 2 23 1 24 6 25 7 26 23 27 24 28 25 29 26 30 27 31 28 32
REMARK SMILES IDX 29 33 30 34 31 35 92 36 32 37 91 38 33 39 34 40 35 41 85 42
REMARK SMILES IDX 36 43 90 44 84 45 86 46 37 47 89 48 83 49 82 50 38 52 70 53
REMARK SMILES IDX 50 54 69 55 51 56 54 57 68 58 87 59 52 60 53 61 67 63 88 64
REMARK SMILES IDX 55 65 39 66 40 67 48 68 41 69 47 70 49 71 46 72 42 73 43 74
REMARK SMILES IDX 44 75 45 76 71 77 72 78 80 79 73 80 79 81 81 82 78 83 74 84
REMARK SMILES IDX 75 85 76 86 77 87 56 88 57 89 65 90 58 91 64 92 66 93 63 94
REMARK SMILES IDX 59 95 60 96 61 97 62 98
REMARK H PARENT 86 51 54 62
REMARK Flexibility Score: inf
ROOT
ATOM      1  C   UNL     1       8.682   3.214   1.548  1.00  0.00     0.188 C 
ENDROOT
BRANCH   1   2
ATOM      2  O   UNL     1       9.282   3.739   2.728  1.00  0.00    -0.376 OA
BRANCH   2   3
ATOM      3  C   UNL     1       8.872   5.012   3.212  1.00  0.00     0.202 C 
BRANCH   3   4
ATOM      4  C   UNL     1       8.924   6.217   2.257  1.00  0.00     0.261 C 
BRANCH   4   5
ATOM      5  O   UNL     1       8.173   6.073   1.029  1.00  0.00    -0.463 OA
BRANCH   5   6
ATOM      6  C   UNL     1       8.867   6.234  -0.127  1.00  0.00     0.313 C 
ATOM      7  O   UNL     1      10.051   6.565  -0.156  1.00  0.00    -0.252 OA
BRANCH   6   8
ATOM      8  C   UNL     1       8.097   5.966  -1.427  1.00  0.00     0.126 C 
ATOM      9  C   UNL     1       8.184   7.214  -2.305  1.00  0.00     0.025 C 
BRANCH   8  10
ATOM     10  C   UNL     1       6.663   5.434  -1.408  1.00  0.00    -0.031 A 
ATOM     11  C   UNL     1       4.012   4.331  -1.431  1.00  0.00     0.018 A 
ATOM     12  C   UNL     1       4.329   5.483  -0.686  1.00  0.00     0.012 A 
ATOM     13  C   UNL     1       5.052   3.745  -2.159  1.00  0.00     0.131 A 
ATOM     14  C   UNL     1       5.626   6.034  -0.682  1.00  0.00     0.005 A 
ATOM     15  C   UNL     1       6.346   4.285  -2.160  1.00  0.00     0.044 A 
ATOM     16  F   UNL     1       4.824   2.655  -2.906  1.00  0.00    -0.206 F 
BRANCH  11  17
ATOM     17  C   UNL     1       2.619   3.848  -1.530  1.00  0.00    -0.008 A 
ATOM     18  C   UNL     1       0.894   2.135  -1.313  1.00  0.00     0.123 A 
ATOM     19  C   UNL     1      -0.042   3.011  -1.868  1.00  0.00     0.092 A 
ATOM     20  C   UNL     1       2.224   2.547  -1.154  1.00  0.00     0.055 A 
ATOM     21  C   UNL     1       0.323   4.298  -2.251  1.00  0.00     0.123 A 
ATOM     22  C   UNL     1       1.643   4.711  -2.067  1.00  0.00     0.055 A 
BRANCH  18  23
ATOM     23  O   UNL     1       0.392   0.893  -1.030  1.00  0.00    -0.497 OA
ATOM     24  C   UNL     1       1.048   0.155  -0.008  1.00  0.00     0.278 C 
ENDBRANCH  18  23
BRANCH  21  25
ATOM     25  O   UNL     1      -0.681   5.056  -2.788  1.00  0.00    -0.497 OA
ATOM     26  C   UNL     1      -0.278   6.245  -3.458  1.00  0.00     0.278 C 
ENDBRANCH  21  25
ENDBRANCH  11  17
ENDBRANCH   8  10
ENDBRANCH   6   8
ENDBRANCH   5   6
ENDBRANCH   4   5
ENDBRANCH   3   4
ENDBRANCH   2   3
ENDBRANCH   1   2
BRANCH   1  27
ATOM     27  C   UNL     1       7.180   3.432   1.322  1.00  0.00     0.188 C 
BRANCH  27  28
ATOM     28  O   UNL     1       6.494   3.980   2.425  1.00  0.00    -0.376 OA
BRANCH  28  29
ATOM     29  C   UNL     1       5.444   3.213   2.976  1.00  0.00     0.202 C 
BRANCH  29  30
ATOM     30  C   UNL     1       5.804   1.817   3.506  1.00  0.00     0.261 C 
BRANCH  30  31
ATOM     31  O   UNL     1       6.602   0.984   2.645  1.00  0.00    -0.460 OA
BRANCH  31  32
ATOM     32  C   UNL     1       6.002   0.429   1.565  1.00  0.00     0.338 C 
ATOM     33  O   UNL     1       4.831   0.555   1.240  1.00  0.00    -0.246 OA
BRANCH  32  34
ATOM     34  C   UNL     1       7.070  -0.168   0.723  1.00  0.00     0.060 A 
ATOM     35  C   UNL     1       7.309   0.342  -0.562  1.00  0.00     0.016 A 
ATOM     36  C   UNL     1       7.868  -1.200   1.222  1.00  0.00     0.016 A 
ATOM     37  C   UNL     1       8.348  -0.175  -1.346  1.00  0.00     0.010 A 
ATOM     38  C   UNL     1       8.889  -1.733   0.425  1.00  0.00     0.010 A 
ATOM     39  C   UNL     1       9.132  -1.233  -0.867  1.00  0.00    -0.014 A 
BRANCH  39  40
ATOM     40  C   UNL     1      10.121  -1.915  -1.746  1.00  0.00     0.031 A 
ATOM     41  C   UNL     1       9.739  -3.223  -2.387  1.00  0.00     0.074 A 
ATOM     42  C   UNL     1      11.349  -1.403  -1.952  1.00  0.00     0.049 A 
ATOM     43  N   UNL     1      10.473  -4.061  -3.071  1.00  0.00    -0.248 NA
ATOM     44  C   UNL     1       8.339  -3.639  -2.224  1.00  0.00     0.031 C 
ATOM     45  C   UNL     1      11.827  -0.122  -1.437  1.00  0.00     0.029 A 
ATOM     46  N   UNL     1      12.428  -1.913  -2.636  1.00  0.00    -0.354 N 
ATOM     47  C   UNL     1       9.630  -5.114  -3.411  1.00  0.00     0.074 A 
ATOM     48  C   UNL     1       8.336  -4.816  -2.831  1.00  0.00     0.031 C 
ATOM     49  C   UNL     1      13.109   0.045  -1.806  1.00  0.00     0.029 A 
ATOM     50  C   UNL     1      13.562  -1.139  -2.535  1.00  0.00     0.049 A 
ATOM     51  H   UNL     1      12.393  -2.752  -3.150  1.00  0.00     0.167 HD
ATOM     52  C   UNL     1       9.908  -6.224  -4.139  1.00  0.00     0.034 A 
ATOM     53  C   UNL     1      14.828  -1.376  -2.944  1.00  0.00     0.034 A 
ATOM     54  C   UNL     1      11.206  -6.514  -4.699  1.00  0.00     0.049 A 
ATOM     55  C   UNL     1      15.143  -2.675  -3.654  1.00  0.00     0.074 A 
ATOM     56  C   UNL     1      11.586  -7.598  -5.473  1.00  0.00     0.029 A 
ATOM     57  N   UNL     1      12.342  -5.733  -4.530  1.00  0.00    -0.354 N 
ATOM     58  N   UNL     1      14.335  -3.659  -3.979  1.00  0.00    -0.248 NA
ATOM     59  C   UNL     1      16.541  -2.895  -4.051  1.00  0.00     0.031 C 
ATOM     60  C   UNL     1      12.964  -7.519  -5.694  1.00  0.00     0.029 A 
ATOM     61  C   UNL     1      13.431  -6.337  -5.142  1.00  0.00     0.049 A 
ATOM     62  H   UNL     1      12.370  -4.876  -4.047  1.00  0.00     0.167 HD
ATOM     63  C   UNL     1      15.124  -4.597  -4.642  1.00  0.00     0.074 A 
ATOM     64  C   UNL     1      16.465  -4.054  -4.687  1.00  0.00     0.031 C 
ATOM     65  C   UNL     1      14.771  -5.798  -5.170  1.00  0.00     0.034 A 
BRANCH  52  66
ATOM     66  C   UNL     1       8.802  -7.237  -4.317  1.00  0.00     0.023 A 
ATOM     67  C   UNL     1       7.620  -6.933  -5.014  1.00  0.00     0.031 A 
ATOM     68  C   UNL     1       8.928  -8.525  -3.766  1.00  0.00     0.131 A 
ATOM     69  C   UNL     1       6.587  -7.880  -5.083  1.00  0.00     0.055 A 
ATOM     70  C   UNL     1       7.931  -9.490  -3.911  1.00  0.00     0.041 A 
ATOM     71  F   UNL     1      10.023  -8.865  -3.067  1.00  0.00    -0.206 F 
ATOM     72  C   UNL     1       6.745  -9.165  -4.561  1.00  0.00     0.022 A 
BRANCH  69  73
ATOM     73  S   UNL     1       4.977  -7.358  -5.737  1.00  0.00     0.124 S 
ATOM     74  O   UNL     1       4.645  -6.246  -4.850  1.00  0.00    -0.237 OA
ATOM     75  O   UNL     1       5.297  -7.004  -7.115  1.00  0.00    -0.237 OA
ATOM     76  O   UNL     1       4.141  -8.546  -5.575  1.00  0.00    -0.744 OA
ENDBRANCH  69  73
ENDBRANCH  52  66
BRANCH  53  77
ATOM     77  C   UNL     1      15.920  -0.403  -2.642  1.00  0.00     0.023 A 
ATOM     78  C   UNL     1      16.648   0.218  -3.670  1.00  0.00     0.031 A 
ATOM     79  C   UNL     1      16.301  -0.134  -1.314  1.00  0.00     0.131 A 
ATOM     80  C   UNL     1      17.746   1.036  -3.357  1.00  0.00     0.055 A 
ATOM     81  C   UNL     1      17.353   0.731  -1.006  1.00  0.00     0.041 A 
ATOM     82  F   UNL     1      15.651  -0.710  -0.290  1.00  0.00    -0.206 F 
ATOM     83  C   UNL     1      18.092   1.311  -2.032  1.00  0.00     0.022 A 
BRANCH  80  84
ATOM     84  S   UNL     1      18.784   1.655  -4.710  1.00  0.00     0.124 S 
ATOM     85  O   UNL     1      19.219   0.413  -5.341  1.00  0.00    -0.237 OA
ATOM     86  O   UNL     1      17.839   2.464  -5.472  1.00  0.00    -0.237 OA
ATOM     87  O   UNL     1      19.831   2.406  -4.021  1.00  0.00    -0.744 OA
ENDBRANCH  80  84
ENDBRANCH  53  77
BRANCH  65  88
ATOM     88  C   UNL     1      15.846  -6.591  -5.879  1.00  0.00     0.023 A 
ATOM     89  C   UNL     1      16.954  -7.120  -5.193  1.00  0.00     0.031 A 
ATOM     90  C   UNL     1      15.759  -6.822  -7.264  1.00  0.00     0.131 A 
ATOM     91  C   UNL     1      17.953  -7.808  -5.900  1.00  0.00     0.055 A 
ATOM     92  C   UNL     1      16.721  -7.565  -7.950  1.00  0.00     0.041 A 
ATOM     93  F   UNL     1      14.727  -6.338  -7.974  1.00  0.00    -0.206 F 
ATOM     94  C   UNL     1      17.833  -8.052  -7.270  1.00  0.00     0.022 A 
BRANCH  91  95
ATOM     95  S   UNL     1      19.462  -8.301  -5.022  1.00  0.00     0.124 S 
ATOM     96  O   UNL     1      19.965  -7.019  -4.541  1.00  0.00    -0.237 OA
ATOM     97  O   UNL     1      18.948  -9.208  -4.000  1.00  0.00    -0.237 OA
ATOM     98  O   UNL     1      20.272  -8.935  -6.060  1.00  0.00    -0.744 OA
ENDBRANCH  91  95
ENDBRANCH  65  88
ENDBRANCH  39  40
ENDBRANCH  32  34
ENDBRANCH  31  32
ENDBRANCH  30  31
ENDBRANCH  29  30
ENDBRANCH  28  29
ENDBRANCH  27  28
ENDBRANCH   1  27
TORSDOF 24
