REMARK SMILES C[C@@H](C(=O)OCCOCCOCCOC(=O)c1ccc(-c2c3nc(c(-c4cc(S(=O)(=O)[O-])ccc4F)c4ccc([nH]4)c(-c4cc(S(=O)(=O)[O-])ccc4F)c4nc(c(-c5cc(S(=O)(=O)[O-])ccc5F)c5ccc2[nH]5)C=C4)C=C3)cc1)c1ccc(C[C@H]2CCC[C@H]2O)cc1-c1ccc(O)cc1
REMARK SMILES IDX 9 1 8 2 7 3 6 4 5 5 3 6 4 7 2 8 1 9 80 10 81 11 92 12 82 13
REMARK SMILES IDX 91 14 83 15 93 16 94 17 99 18 95 19 98 20 96 21 97 22 84 24
REMARK SMILES IDX 85 25 86 26 89 27 87 28 88 29 90 30 10 32 11 33 12 34 13 35
REMARK SMILES IDX 14 36 15 37 16 38 17 39 18 40 79 41 19 42 78 43 20 44 21 45
REMARK SMILES IDX 22 46 72 47 23 48 77 49 71 50 73 51 24 52 76 53 70 54 69 55
REMARK SMILES IDX 25 57 57 58 37 59 56 60 38 61 41 62 55 63 74 64 39 65 40 66
REMARK SMILES IDX 54 68 75 69 42 70 26 71 27 72 35 73 28 74 34 75 36 76 33 77
REMARK SMILES IDX 29 78 30 79 31 80 32 81 58 82 59 83 67 84 60 85 66 86 68 87
REMARK SMILES IDX 65 88 61 89 62 90 63 91 64 92 43 93 44 94 52 95 45 96 51 97
REMARK SMILES IDX 53 98 50 99 46 100 47 101 48 102 49 103
REMARK H PARENT 97 23 90 31 73 56 41 67
REMARK Flexibility Score: inf
ROOT
ATOM      1  C   UNL     1       2.786  -2.090  -1.255  1.00  0.00     0.188 C 
ENDROOT
BRANCH   1   2
ATOM      2  O   UNL     1       3.078  -3.023  -2.293  1.00  0.00    -0.376 OA
BRANCH   2   3
ATOM      3  C   UNL     1       2.639  -2.622  -3.606  1.00  0.00     0.202 C 
BRANCH   3   4
ATOM      4  C   UNL     1       2.986  -1.187  -4.041  1.00  0.00     0.261 C 
BRANCH   4   5
ATOM      5  O   UNL     1       2.233  -0.201  -3.304  1.00  0.00    -0.463 OA
BRANCH   5   6
ATOM      6  C   UNL     1       0.901  -0.083  -3.603  1.00  0.00     0.313 C 
ATOM      7  O   UNL     1       0.397  -0.568  -4.605  1.00  0.00    -0.252 OA
BRANCH   6   8
ATOM      8  C   UNL     1       0.213   0.836  -2.596  1.00  0.00     0.127 C 
ATOM      9  C   UNL     1       0.820   0.835  -1.179  1.00  0.00     0.025 C 
BRANCH   8  10
ATOM     10  C   UNL     1      -1.304   0.717  -2.444  1.00  0.00    -0.026 A 
ATOM     11  C   UNL     1      -1.992   1.948  -2.338  1.00  0.00     0.005 A 
ATOM     12  C   UNL     1      -2.038  -0.475  -2.252  1.00  0.00    -0.014 A 
ATOM     13  C   UNL     1      -3.342   2.014  -2.001  1.00  0.00     0.004 A 
ATOM     14  C   UNL     1      -3.374  -0.363  -1.803  1.00  0.00     0.012 A 
ATOM     15  C   UNL     1      -4.037   0.861  -1.664  1.00  0.00    -0.047 A 
BRANCH  12  16
ATOM     16  C   UNL     1      -1.562  -1.839  -2.549  1.00  0.00    -0.018 A 
ATOM     17  C   UNL     1      -2.019  -2.504  -3.705  1.00  0.00     0.012 A 
ATOM     18  C   UNL     1      -0.747  -2.556  -1.675  1.00  0.00     0.012 A 
ATOM     19  C   UNL     1      -1.673  -3.833  -3.977  1.00  0.00     0.047 A 
ATOM     20  C   UNL     1      -0.363  -3.871  -1.970  1.00  0.00     0.047 A 
ATOM     21  C   UNL     1      -0.842  -4.509  -3.104  1.00  0.00     0.115 A 
BRANCH  21  22
ATOM     22  O   UNL     1      -0.513  -5.803  -3.375  1.00  0.00    -0.508 OA
ATOM     23  H   UNL     1      -0.846  -6.220  -4.146  1.00  0.00     0.293 HD
ENDBRANCH  21  22
ENDBRANCH  12  16
BRANCH  15  24
ATOM     24  C   UNL     1      -5.481   0.914  -1.231  1.00  0.00     0.041 C 
BRANCH  24  25
ATOM     25  C   UNL     1      -5.807   1.292   0.223  1.00  0.00     0.022 C 
ATOM     26  C   UNL     1      -5.171   0.418   1.312  1.00  0.00     0.007 C 
ATOM     27  C   UNL     1      -5.533   2.729   0.689  1.00  0.00     0.117 C 
ATOM     28  C   UNL     1      -5.146   1.290   2.575  1.00  0.00     0.003 C 
ATOM     29  C   UNL     1      -5.787   2.624   2.188  1.00  0.00     0.032 C 
BRANCH  27  30
ATOM     30  O   UNL     1      -4.195   3.174   0.508  1.00  0.00    -0.393 OA
ATOM     31  H   UNL     1      -3.591   2.586   0.987  1.00  0.00     0.210 HD
ENDBRANCH  27  30
ENDBRANCH  24  25
ENDBRANCH  15  24
ENDBRANCH   8  10
ENDBRANCH   6   8
ENDBRANCH   5   6
ENDBRANCH   4   5
ENDBRANCH   3   4
ENDBRANCH   2   3
ENDBRANCH   1   2
BRANCH   1  32
ATOM     32  C   UNL     1       2.501  -2.703   0.119  1.00  0.00     0.188 C 
BRANCH  32  33
ATOM     33  O   UNL     1       3.479  -3.629   0.566  1.00  0.00    -0.376 OA
BRANCH  33  34
ATOM     34  C   UNL     1       3.195  -4.979   0.186  1.00  0.00     0.202 C 
BRANCH  34  35
ATOM     35  C   UNL     1       2.235  -5.703   1.149  1.00  0.00     0.261 C 
BRANCH  35  36
ATOM     36  O   UNL     1       0.837  -5.537   0.797  1.00  0.00    -0.460 OA
BRANCH  36  37
ATOM     37  C   UNL     1       0.079  -4.774   1.631  1.00  0.00     0.338 C 
ATOM     38  O   UNL     1       0.495  -4.154   2.598  1.00  0.00    -0.246 OA
BRANCH  37  39
ATOM     39  C   UNL     1      -1.335  -4.676   1.154  1.00  0.00     0.060 A 
ATOM     40  C   UNL     1      -2.059  -3.518   1.468  1.00  0.00     0.016 A 
ATOM     41  C   UNL     1      -1.963  -5.685   0.411  1.00  0.00     0.016 A 
ATOM     42  C   UNL     1      -3.392  -3.372   1.054  1.00  0.00     0.010 A 
ATOM     43  C   UNL     1      -3.303  -5.539  -0.000  1.00  0.00     0.010 A 
ATOM     44  C   UNL     1      -4.038  -4.391   0.337  1.00  0.00    -0.014 A 
BRANCH  44  45
ATOM     45  C   UNL     1      -5.524  -4.335   0.163  1.00  0.00     0.031 A 
ATOM     46  C   UNL     1      -6.386  -4.849   1.285  1.00  0.00     0.074 A 
ATOM     47  C   UNL     1      -6.125  -3.812  -0.924  1.00  0.00     0.049 A 
ATOM     48  N   UNL     1      -7.688  -4.832   1.413  1.00  0.00    -0.248 NA
ATOM     49  C   UNL     1      -5.674  -5.487   2.401  1.00  0.00     0.031 C 
ATOM     50  C   UNL     1      -5.435  -3.320  -2.107  1.00  0.00     0.029 A 
ATOM     51  N   UNL     1      -7.456  -3.587  -1.201  1.00  0.00    -0.354 N 
ATOM     52  C   UNL     1      -7.954  -5.452   2.628  1.00  0.00     0.074 A 
ATOM     53  C   UNL     1      -6.677  -5.861   3.177  1.00  0.00     0.031 C 
ATOM     54  C   UNL     1      -6.332  -2.777  -2.950  1.00  0.00     0.029 A 
ATOM     55  C   UNL     1      -7.679  -2.949  -2.404  1.00  0.00     0.049 A 
ATOM     56  H   UNL     1      -8.182  -3.857  -0.594  1.00  0.00     0.167 HD
ATOM     57  C   UNL     1      -9.147  -5.670   3.235  1.00  0.00     0.034 A 
ATOM     58  C   UNL     1      -8.830  -2.565  -3.001  1.00  0.00     0.034 A 
ATOM     59  C   UNL     1     -10.427  -5.329   2.667  1.00  0.00     0.049 A 
ATOM     60  C   UNL     1     -10.156  -2.875  -2.333  1.00  0.00     0.074 A 
ATOM     61  C   UNL     1     -11.688  -5.543   3.196  1.00  0.00     0.029 A 
ATOM     62  N   UNL     1     -10.615  -4.728   1.430  1.00  0.00    -0.354 N 
ATOM     63  N   UNL     1     -10.387  -3.433  -1.167  1.00  0.00    -0.248 NA
ATOM     64  C   UNL     1     -11.377  -2.519  -3.074  1.00  0.00     0.031 C 
ATOM     65  C   UNL     1     -12.637  -5.137   2.252  1.00  0.00     0.029 A 
ATOM     66  C   UNL     1     -11.970  -4.593   1.167  1.00  0.00     0.049 A 
ATOM     67  H   UNL     1      -9.892  -4.439   0.827  1.00  0.00     0.167 HD
ATOM     68  C   UNL     1     -11.776  -3.479  -1.034  1.00  0.00     0.074 A 
ATOM     69  C   UNL     1     -12.330  -2.867  -2.221  1.00  0.00     0.031 C 
ATOM     70  C   UNL     1     -12.524  -3.988  -0.022  1.00  0.00     0.034 A 
BRANCH  57  71
ATOM     71  C   UNL     1      -9.101  -6.377   4.565  1.00  0.00     0.023 A 
ATOM     72  C   UNL     1      -8.485  -5.788   5.682  1.00  0.00     0.031 A 
ATOM     73  C   UNL     1      -9.605  -7.682   4.697  1.00  0.00     0.131 A 
ATOM     74  C   UNL     1      -8.306  -6.536   6.854  1.00  0.00     0.055 A 
ATOM     75  C   UNL     1      -9.502  -8.389   5.895  1.00  0.00     0.041 A 
ATOM     76  F   UNL     1     -10.180  -8.302   3.654  1.00  0.00    -0.206 F 
ATOM     77  C   UNL     1      -8.832  -7.824   6.977  1.00  0.00     0.022 A 
BRANCH  74  78
ATOM     78  S   UNL     1      -7.227  -5.865   8.147  1.00  0.00     0.124 S 
ATOM     79  O   UNL     1      -5.968  -5.699   7.423  1.00  0.00    -0.237 OA
ATOM     80  O   UNL     1      -7.914  -4.635   8.524  1.00  0.00    -0.237 OA
ATOM     81  O   UNL     1      -7.219  -6.914   9.164  1.00  0.00    -0.744 OA
ENDBRANCH  74  78
ENDBRANCH  57  71
BRANCH  58  82
ATOM     82  C   UNL     1      -8.824  -1.893  -4.340  1.00  0.00     0.023 A 
ATOM     83  C   UNL     1      -9.382  -0.614  -4.516  1.00  0.00     0.031 A 
ATOM     84  C   UNL     1      -8.361  -2.566  -5.485  1.00  0.00     0.131 A 
ATOM     85  C   UNL     1      -9.515  -0.075  -5.807  1.00  0.00     0.055 A 
ATOM     86  C   UNL     1      -8.436  -1.998  -6.759  1.00  0.00     0.041 A 
ATOM     87  F   UNL     1      -7.836  -3.797  -5.383  1.00  0.00    -0.206 F 
ATOM     88  C   UNL     1      -9.031  -0.752  -6.928  1.00  0.00     0.022 A 
BRANCH  85  89
ATOM     89  S   UNL     1     -10.436   1.476  -6.018  1.00  0.00     0.124 S 
ATOM     90  O   UNL     1     -11.749   1.112  -5.497  1.00  0.00    -0.237 OA
ATOM     91  O   UNL     1      -9.658   2.404  -5.204  1.00  0.00    -0.237 OA
ATOM     92  O   UNL     1     -10.379   1.714  -7.459  1.00  0.00    -0.744 OA
ENDBRANCH  85  89
ENDBRANCH  58  82
BRANCH  70  93
ATOM     93  C   UNL     1     -14.028  -3.869  -0.130  1.00  0.00     0.023 A 
ATOM     94  C   UNL     1     -14.767  -4.567  -1.104  1.00  0.00     0.031 A 
ATOM     95  C   UNL     1     -14.737  -3.056   0.774  1.00  0.00     0.131 A 
ATOM     96  C   UNL     1     -16.161  -4.406  -1.176  1.00  0.00     0.055 A 
ATOM     97  C   UNL     1     -16.128  -2.942   0.731  1.00  0.00     0.041 A 
ATOM     98  F   UNL     1     -14.087  -2.365   1.725  1.00  0.00    -0.206 F 
ATOM     99  C   UNL     1     -16.847  -3.611  -0.254  1.00  0.00     0.022 A 
BRANCH  96 100
ATOM    100  S   UNL     1     -17.067  -5.196  -2.537  1.00  0.00     0.124 S 
ATOM    101  O   UNL     1     -16.421  -4.617  -3.710  1.00  0.00    -0.237 OA
ATOM    102  O   UNL     1     -16.811  -6.613  -2.301  1.00  0.00    -0.237 OA
ATOM    103  O   UNL     1     -18.450  -4.773  -2.319  1.00  0.00    -0.744 OA
ENDBRANCH  96 100
ENDBRANCH  70  93
ENDBRANCH  44  45
ENDBRANCH  37  39
ENDBRANCH  36  37
ENDBRANCH  35  36
ENDBRANCH  34  35
ENDBRANCH  33  34
ENDBRANCH  32  33
ENDBRANCH   1  32
TORSDOF 26
