REMARK SMILES COc1ccc(OC)c([C@@](C)(O)[C@H](F)C(=O)OCCOCCOCCOC(=O)c2ccc(-c3c4nc(c(-c5cc(S(=O)(=O)[O-])ccc5F)c5ccc([nH]5)c(-c5cc(S(=O)(=O)[O-])ccc5F)c5nc(c(-c6cc(S(=O)(=O)[O-])ccc6F)c6ccc3[nH]6)C=C5)C=C4)cc2)c1
REMARK SMILES IDX 21 1 20 2 19 3 18 4 17 5 15 6 16 7 13 8 14 9 10 10 11 11
REMARK SMILES IDX 9 12 3 13 4 14 92 15 5 16 6 17 2 18 1 19 7 20 8 21 12 22
REMARK SMILES IDX 22 24 23 25 24 26 25 27 26 28 27 29 28 30 29 31 30 32 91 33
REMARK SMILES IDX 31 34 90 35 32 36 33 37 34 38 84 39 35 40 89 41 83 42 85 43
REMARK SMILES IDX 36 44 88 45 82 46 81 47 37 49 69 50 49 51 68 52 50 53 53 54
REMARK SMILES IDX 67 55 86 56 51 57 52 58 66 60 87 61 54 62 38 63 39 64 47 65
REMARK SMILES IDX 40 66 46 67 48 68 45 69 41 70 42 71 43 72 44 73 70 74 71 75
REMARK SMILES IDX 79 76 72 77 78 78 80 79 77 80 73 81 74 82 75 83 76 84 55 85
REMARK SMILES IDX 56 86 64 87 57 88 63 89 65 90 62 91 58 92 59 93 60 94 61 95
REMARK H PARENT 12 23 85 48 53 59
REMARK Flexibility Score: inf
ROOT
ATOM      1  C   UNL     1       5.329  -1.712  -4.292  1.00  0.00     0.188 C 
ENDROOT
BRANCH   1   2
ATOM      2  O   UNL     1       4.984  -3.076  -4.164  1.00  0.00    -0.376 OA
BRANCH   2   3
ATOM      3  C   UNL     1       3.938  -3.512  -3.308  1.00  0.00     0.202 C 
BRANCH   3   4
ATOM      4  C   UNL     1       3.447  -2.752  -2.068  1.00  0.00     0.261 C 
BRANCH   4   5
ATOM      5  O   UNL     1       3.296  -1.342  -2.232  1.00  0.00    -0.461 OA
BRANCH   5   6
ATOM      6  C   UNL     1       4.226  -0.586  -1.589  1.00  0.00     0.344 C 
ATOM      7  O   UNL     1       5.097  -1.058  -0.868  1.00  0.00    -0.249 OA
BRANCH   6   8
ATOM      8  C   UNL     1       4.114   0.890  -1.955  1.00  0.00     0.311 C 
ATOM      9  F   UNL     1       3.088   1.126  -2.841  1.00  0.00    -0.231 F 
BRANCH   8  10
ATOM     10  C   UNL     1       3.874   1.768  -0.711  1.00  0.00     0.133 C 
ATOM     11  C   UNL     1       2.492   1.304  -0.183  1.00  0.00     0.051 C 
BRANCH  10  12
ATOM     12  C   UNL     1       5.017   1.758   0.316  1.00  0.00     0.033 A 
ATOM     13  C   UNL     1       7.311   1.053   0.893  1.00  0.00     0.119 A 
ATOM     14  C   UNL     1       7.024   1.260   2.237  1.00  0.00     0.050 A 
ATOM     15  C   UNL     1       6.332   1.351  -0.057  1.00  0.00     0.057 A 
ATOM     16  C   UNL     1       5.800   1.804   2.619  1.00  0.00     0.050 A 
ATOM     17  C   UNL     1       4.818   2.088   1.666  1.00  0.00     0.125 A 
BRANCH  13  18
ATOM     18  O   UNL     1       8.537   0.500   0.654  1.00  0.00    -0.497 OA
ATOM     19  C   UNL     1       9.002   0.415  -0.688  1.00  0.00     0.278 C 
ENDBRANCH  13  18
BRANCH  17  20
ATOM     20  O   UNL     1       3.660   2.619   2.170  1.00  0.00    -0.496 OA
ATOM     21  C   UNL     1       3.401   3.944   1.693  1.00  0.00     0.278 C 
ENDBRANCH  17  20
ENDBRANCH  10  12
BRANCH  10  22
ATOM     22  O   UNL     1       3.747   3.131  -1.170  1.00  0.00    -0.382 OA
ATOM     23  H   UNL     1       3.594   3.716  -0.411  1.00  0.00     0.212 HD
ENDBRANCH  10  22
ENDBRANCH   8  10
ENDBRANCH   6   8
ENDBRANCH   5   6
ENDBRANCH   4   5
ENDBRANCH   3   4
ENDBRANCH   2   3
ENDBRANCH   1   2
BRANCH   1  24
ATOM     24  C   UNL     1       4.330  -0.731  -4.934  1.00  0.00     0.188 C 
BRANCH  24  25
ATOM     25  O   UNL     1       2.984  -1.119  -5.016  1.00  0.00    -0.376 OA
BRANCH  25  26
ATOM     26  C   UNL     1       2.579  -2.012  -6.037  1.00  0.00     0.202 C 
BRANCH  26  27
ATOM     27  C   UNL     1       3.446  -2.477  -7.231  1.00  0.00     0.261 C 
BRANCH  27  28
ATOM     28  O   UNL     1       4.859  -2.238  -7.198  1.00  0.00    -0.460 OA
BRANCH  28  29
ATOM     29  C   UNL     1       5.298  -1.189  -7.947  1.00  0.00     0.338 C 
ATOM     30  O   UNL     1       4.620  -0.454  -8.637  1.00  0.00    -0.246 OA
BRANCH  29  31
ATOM     31  C   UNL     1       6.716  -0.921  -7.606  1.00  0.00     0.060 A 
ATOM     32  C   UNL     1       7.046   0.281  -6.961  1.00  0.00     0.016 A 
ATOM     33  C   UNL     1       7.713  -1.837  -7.939  1.00  0.00     0.016 A 
ATOM     34  C   UNL     1       8.377   0.578  -6.659  1.00  0.00     0.010 A 
ATOM     35  C   UNL     1       9.049  -1.522  -7.666  1.00  0.00     0.010 A 
ATOM     36  C   UNL     1       9.392  -0.303  -7.050  1.00  0.00    -0.014 A 
BRANCH  36  37
ATOM     37  C   UNL     1      10.812   0.133  -7.014  1.00  0.00     0.031 A 
ATOM     38  C   UNL     1      11.425   0.653  -8.288  1.00  0.00     0.074 A 
ATOM     39  C   UNL     1      11.546   0.078  -5.887  1.00  0.00     0.049 A 
ATOM     40  N   UNL     1      12.664   0.978  -8.545  1.00  0.00    -0.248 NA
ATOM     41  C   UNL     1      10.508   0.820  -9.428  1.00  0.00     0.031 C 
ATOM     42  C   UNL     1      11.055  -0.345  -4.577  1.00  0.00     0.029 A 
ATOM     43  N   UNL     1      12.872   0.367  -5.670  1.00  0.00    -0.354 N 
ATOM     44  C   UNL     1      12.681   1.380  -9.877  1.00  0.00     0.074 A 
ATOM     45  C   UNL     1      11.333   1.225 -10.381  1.00  0.00     0.031 C 
ATOM     46  C   UNL     1      12.073  -0.310  -3.698  1.00  0.00     0.029 A 
ATOM     47  C   UNL     1      13.298   0.090  -4.391  1.00  0.00     0.049 A 
ATOM     48  H   UNL     1      13.462   0.738  -6.366  1.00  0.00     0.167 HD
ATOM     49  C   UNL     1      13.723   1.841 -10.611  1.00  0.00     0.034 A 
ATOM     50  C   UNL     1      14.538   0.117  -3.856  1.00  0.00     0.034 A 
ATOM     51  C   UNL     1      15.065   1.977 -10.102  1.00  0.00     0.049 A 
ATOM     52  C   UNL     1      15.707   0.531  -4.726  1.00  0.00     0.074 A 
ATOM     53  C   UNL     1      16.193   2.432 -10.763  1.00  0.00     0.029 A 
ATOM     54  N   UNL     1      15.465   1.649  -8.814  1.00  0.00    -0.354 N 
ATOM     55  N   UNL     1      15.711   0.903  -5.987  1.00  0.00    -0.248 NA
ATOM     56  C   UNL     1      17.036   0.535  -4.099  1.00  0.00     0.031 C 
ATOM     57  C   UNL     1      17.287   2.305  -9.901  1.00  0.00     0.029 A 
ATOM     58  C   UNL     1      16.828   1.861  -8.671  1.00  0.00     0.049 A 
ATOM     59  H   UNL     1      14.869   1.315  -8.106  1.00  0.00     0.167 HD
ATOM     60  C   UNL     1      17.036   1.222  -6.285  1.00  0.00     0.074 A 
ATOM     61  C   UNL     1      17.797   1.014  -5.072  1.00  0.00     0.031 C 
ATOM     62  C   UNL     1      17.576   1.653  -7.454  1.00  0.00     0.034 A 
BRANCH  49  63
ATOM     63  C   UNL     1      13.459   2.184 -12.057  1.00  0.00     0.023 A 
ATOM     64  C   UNL     1      12.598   3.233 -12.424  1.00  0.00     0.031 A 
ATOM     65  C   UNL     1      14.073   1.445 -13.084  1.00  0.00     0.131 A 
ATOM     66  C   UNL     1      12.331   3.476 -13.779  1.00  0.00     0.055 A 
ATOM     67  C   UNL     1      13.865   1.744 -14.431  1.00  0.00     0.041 A 
ATOM     68  F   UNL     1      14.883   0.415 -12.794  1.00  0.00    -0.206 F 
ATOM     69  C   UNL     1      12.980   2.757 -14.786  1.00  0.00     0.022 A 
BRANCH  66  70
ATOM     70  S   UNL     1      11.025   4.659 -14.206  1.00  0.00     0.124 S 
ATOM     71  O   UNL     1       9.863   4.064 -13.550  1.00  0.00    -0.237 OA
ATOM     72  O   UNL     1      11.520   5.901 -13.623  1.00  0.00    -0.237 OA
ATOM     73  O   UNL     1      10.994   4.623 -15.666  1.00  0.00    -0.744 OA
ENDBRANCH  66  70
ENDBRANCH  49  63
BRANCH  50  74
ATOM     74  C   UNL     1      14.773  -0.311  -2.443  1.00  0.00     0.023 A 
ATOM     75  C   UNL     1      15.336   0.565  -1.502  1.00  0.00     0.031 A 
ATOM     76  C   UNL     1      14.526  -1.636  -2.039  1.00  0.00     0.131 A 
ATOM     77  C   UNL     1      15.694   0.092  -0.229  1.00  0.00     0.055 A 
ATOM     78  C   UNL     1      14.820  -2.083  -0.749  1.00  0.00     0.041 A 
ATOM     79  F   UNL     1      13.998  -2.522  -2.898  1.00  0.00    -0.206 F 
ATOM     80  C   UNL     1      15.424  -1.221   0.160  1.00  0.00     0.022 A 
BRANCH  77  81
ATOM     81  S   UNL     1      16.637   1.187   0.869  1.00  0.00     0.124 S 
ATOM     82  O   UNL     1      17.798   1.502   0.045  1.00  0.00    -0.237 OA
ATOM     83  O   UNL     1      15.692   2.277   1.092  1.00  0.00    -0.237 OA
ATOM     84  O   UNL     1      16.907   0.349   2.035  1.00  0.00    -0.744 OA
ENDBRANCH  77  81
ENDBRANCH  50  74
BRANCH  62  85
ATOM     85  C   UNL     1      19.050   1.994  -7.459  1.00  0.00     0.023 A 
ATOM     86  C   UNL     1      20.043   1.020  -7.258  1.00  0.00     0.031 A 
ATOM     87  C   UNL     1      19.464   3.323  -7.669  1.00  0.00     0.131 A 
ATOM     88  C   UNL     1      21.395   1.398  -7.213  1.00  0.00     0.055 A 
ATOM     89  C   UNL     1      20.812   3.681  -7.692  1.00  0.00     0.041 A 
ATOM     90  F   UNL     1      18.561   4.298  -7.863  1.00  0.00    -0.206 F 
ATOM     91  C   UNL     1      21.786   2.718  -7.449  1.00  0.00     0.022 A 
BRANCH  88  92
ATOM     92  S   UNL     1      22.631   0.157  -6.741  1.00  0.00     0.124 S 
ATOM     93  O   UNL     1      22.151  -0.266  -5.430  1.00  0.00    -0.237 OA
ATOM     94  O   UNL     1      22.511  -0.827  -7.812  1.00  0.00    -0.237 OA
ATOM     95  O   UNL     1      23.885   0.909  -6.729  1.00  0.00    -0.744 OA
ENDBRANCH  88  92
ENDBRANCH  62  85
ENDBRANCH  36  37
ENDBRANCH  29  31
ENDBRANCH  28  29
ENDBRANCH  27  28
ENDBRANCH  26  27
ENDBRANCH  25  26
ENDBRANCH  24  25
ENDBRANCH   1  24
TORSDOF 25
