REMARK SMILES C[C@@H]1CN(c2cc(C(=O)OCCOCCOCCOC(=O)c3ccc(-c4c5nc(c(-c6cc(S(=O)(=O)[O-])ccc6F)c6ccc([nH]6)c(-c6cc(S(=O)(=O)[O-])ccc6F)c6nc(c(-c7cc(S(=O)(=O)[O-])ccc7F)c7ccc4[nH]7)C=C6)C=C5)cc3)c(F)cc2F)S(=O)(=O)C1
REMARK SMILES IDX 15 1 14 2 13 3 12 4 11 5 10 6 8 7 9 8 7 9 5 10 6 11 88 12
REMARK SMILES IDX 87 13 89 14 85 15 86 16 4 17 1 18 2 19 3 20 93 21 90 22
REMARK SMILES IDX 91 23 92 24 16 25 17 26 18 27 19 28 20 29 21 30 22 31 23 32
REMARK SMILES IDX 84 33 24 34 83 35 25 36 26 37 27 38 77 39 28 40 82 41 76 42
REMARK SMILES IDX 78 43 29 44 81 45 75 46 74 47 30 49 62 50 42 51 61 52 43 53
REMARK SMILES IDX 46 54 60 55 79 56 44 57 45 58 59 60 80 61 47 62 31 63 32 64
REMARK SMILES IDX 40 65 33 66 39 67 41 68 38 69 34 70 35 71 36 72 37 73 63 74
REMARK SMILES IDX 64 75 72 76 65 77 71 78 73 79 70 80 66 81 67 82 68 83 69 84
REMARK SMILES IDX 48 85 49 86 57 87 50 88 56 89 58 90 55 91 51 92 52 93 53 94
REMARK SMILES IDX 54 95
REMARK H PARENT 78 48 46 59
REMARK Flexibility Score: inf
ROOT
ATOM      1  C   UNL     1      -1.196   8.017  -1.383  1.00  0.00     0.188 C 
ENDROOT
BRANCH   1   2
ATOM      2  C   UNL     1      -2.545   7.529  -0.817  1.00  0.00     0.188 C 
BRANCH   2   3
ATOM      3  O   UNL     1      -3.628   8.433  -0.704  1.00  0.00    -0.376 OA
BRANCH   3   4
ATOM      4  C   UNL     1      -3.500   9.612   0.073  1.00  0.00     0.202 C 
BRANCH   4   5
ATOM      5  C   UNL     1      -2.687   9.678   1.377  1.00  0.00     0.261 C 
BRANCH   5   6
ATOM      6  O   UNL     1      -1.443   8.968   1.377  1.00  0.00    -0.460 OA
BRANCH   6   7
ATOM      7  C   UNL     1      -1.350   7.944   2.262  1.00  0.00     0.341 C 
ATOM      8  O   UNL     1      -2.203   7.586   3.055  1.00  0.00    -0.246 OA
BRANCH   7   9
ATOM      9  C   UNL     1      -0.138   7.152   1.987  1.00  0.00     0.098 A 
ATOM     10  C   UNL     1       0.849   4.971   1.630  1.00  0.00     0.088 A 
ATOM     11  C   UNL     1      -0.264   5.758   1.923  1.00  0.00     0.048 A 
ATOM     12  C   UNL     1       2.083   5.585   1.386  1.00  0.00     0.150 A 
ATOM     13  C   UNL     1       2.217   6.970   1.460  1.00  0.00     0.081 A 
ATOM     14  F   UNL     1       3.162   4.848   1.082  1.00  0.00    -0.205 F 
ATOM     15  C   UNL     1       1.103   7.749   1.768  1.00  0.00     0.140 A 
ATOM     16  F   UNL     1       1.253   9.078   1.853  1.00  0.00    -0.206 F 
BRANCH  10  17
ATOM     17  N   UNL     1       0.687   3.563   1.676  1.00  0.00    -0.267 N 
ATOM     18  C   UNL     1       0.824   0.260  -0.091  1.00  0.00     0.011 C 
ATOM     19  C   UNL     1       0.470   1.257   1.003  1.00  0.00     0.023 C 
ATOM     20  C   UNL     1       0.459   2.715   0.499  1.00  0.00     0.140 C 
ATOM     21  C   UNL     1       1.462   1.198   2.167  1.00  0.00     0.165 C 
ATOM     22  S   UNL     1       1.187   2.718   3.054  1.00  0.00     0.235 S 
ATOM     23  O   UNL     1       2.450   3.249   3.525  1.00  0.00    -0.206 OA
ATOM     24  O   UNL     1       0.039   2.591   3.917  1.00  0.00    -0.206 OA
ENDBRANCH  10  17
ENDBRANCH   7   9
ENDBRANCH   6   7
ENDBRANCH   5   6
ENDBRANCH   4   5
ENDBRANCH   3   4
ENDBRANCH   2   3
ENDBRANCH   1   2
BRANCH   1  25
ATOM     25  O   UNL     1      -1.041   9.395  -1.617  1.00  0.00    -0.376 OA
BRANCH  25  26
ATOM     26  C   UNL     1      -1.601   9.997  -2.770  1.00  0.00     0.202 C 
BRANCH  26  27
ATOM     27  C   UNL     1      -2.312   9.272  -3.933  1.00  0.00     0.261 C 
BRANCH  27  28
ATOM     28  O   UNL     1      -2.693   7.906  -3.764  1.00  0.00    -0.460 OA
BRANCH  28  29
ATOM     29  C   UNL     1      -1.901   6.997  -4.389  1.00  0.00     0.338 C 
ATOM     30  O   UNL     1      -0.888   7.222  -5.026  1.00  0.00    -0.246 OA
BRANCH  29  31
ATOM     31  C   UNL     1      -2.348   5.642  -4.009  1.00  0.00     0.060 A 
ATOM     32  C   UNL     1      -1.515   4.864  -3.194  1.00  0.00     0.016 A 
ATOM     33  C   UNL     1      -3.563   5.135  -4.471  1.00  0.00     0.016 A 
ATOM     34  C   UNL     1      -1.894   3.569  -2.845  1.00  0.00     0.010 A 
ATOM     35  C   UNL     1      -3.930   3.827  -4.137  1.00  0.00     0.010 A 
ATOM     36  C   UNL     1      -3.089   3.030  -3.338  1.00  0.00    -0.014 A 
BRANCH  36  37
ATOM     37  C   UNL     1      -3.369   1.583  -3.160  1.00  0.00     0.031 A 
ATOM     38  C   UNL     1      -3.060   0.648  -4.297  1.00  0.00     0.074 A 
ATOM     39  C   UNL     1      -3.858   1.101  -2.002  1.00  0.00     0.049 A 
ATOM     40  N   UNL     1      -3.280  -0.636  -4.401  1.00  0.00    -0.248 NA
ATOM     41  C   UNL     1      -2.413   1.248  -5.474  1.00  0.00     0.031 C 
ATOM     42  C   UNL     1      -4.139   1.895  -0.807  1.00  0.00     0.029 A 
ATOM     43  N   UNL     1      -4.216  -0.177  -1.648  1.00  0.00    -0.354 N 
ATOM     44  C   UNL     1      -2.807  -1.000  -5.657  1.00  0.00     0.074 A 
ATOM     45  C   UNL     1      -2.317   0.208  -6.287  1.00  0.00     0.031 C 
ATOM     46  C   UNL     1      -4.643   1.087   0.143  1.00  0.00     0.029 A 
ATOM     47  C   UNL     1      -4.767  -0.269  -0.390  1.00  0.00     0.049 A 
ATOM     48  H   UNL     1      -4.090  -0.955  -2.239  1.00  0.00     0.167 HD
ATOM     49  C   UNL     1      -2.778  -2.228  -6.229  1.00  0.00     0.034 A 
ATOM     50  C   UNL     1      -5.341  -1.316   0.239  1.00  0.00     0.034 A 
ATOM     51  C   UNL     1      -3.289  -3.420  -5.598  1.00  0.00     0.049 A 
ATOM     52  C   UNL     1      -5.408  -2.652  -0.468  1.00  0.00     0.074 A 
ATOM     53  C   UNL     1      -3.301  -4.715  -6.088  1.00  0.00     0.029 A 
ATOM     54  N   UNL     1      -3.894  -3.464  -4.349  1.00  0.00    -0.354 N 
ATOM     55  N   UNL     1      -4.950  -2.986  -1.654  1.00  0.00    -0.248 NA
ATOM     56  C   UNL     1      -6.065  -3.753   0.251  1.00  0.00     0.031 C 
ATOM     57  C   UNL     1      -3.988  -5.522  -5.176  1.00  0.00     0.029 A 
ATOM     58  C   UNL     1      -4.319  -4.754  -4.071  1.00  0.00     0.049 A 
ATOM     59  H   UNL     1      -4.006  -2.691  -3.749  1.00  0.00     0.167 HD
ATOM     60  C   UNL     1      -5.233  -4.344  -1.802  1.00  0.00     0.074 A 
ATOM     61  C   UNL     1      -5.884  -4.768  -0.582  1.00  0.00     0.031 C 
ATOM     62  C   UNL     1      -4.973  -5.167  -2.851  1.00  0.00     0.034 A 
BRANCH  49  63
ATOM     63  C   UNL     1      -2.228  -2.329  -7.631  1.00  0.00     0.023 A 
ATOM     64  C   UNL     1      -0.886  -2.029  -7.922  1.00  0.00     0.031 A 
ATOM     65  C   UNL     1      -3.064  -2.710  -8.696  1.00  0.00     0.131 A 
ATOM     66  C   UNL     1      -0.438  -2.050  -9.251  1.00  0.00     0.055 A 
ATOM     67  C   UNL     1      -2.590  -2.810 -10.005  1.00  0.00     0.041 A 
ATOM     68  F   UNL     1      -4.361  -2.982  -8.482  1.00  0.00    -0.206 F 
ATOM     69  C   UNL     1      -1.273  -2.465 -10.291  1.00  0.00     0.022 A 
BRANCH  66  70
ATOM     70  S   UNL     1       1.209  -1.385  -9.618  1.00  0.00     0.124 S 
ATOM     71  O   UNL     1       1.096  -0.021  -9.106  1.00  0.00    -0.237 OA
ATOM     72  O   UNL     1       2.084  -2.277  -8.866  1.00  0.00    -0.237 OA
ATOM     73  O   UNL     1       1.306  -1.491 -11.072  1.00  0.00    -0.744 OA
ENDBRANCH  66  70
ENDBRANCH  49  63
BRANCH  50  74
ATOM     74  C   UNL     1      -5.954  -1.152   1.591  1.00  0.00     0.023 A 
ATOM     75  C   UNL     1      -5.496  -1.894   2.691  1.00  0.00     0.031 A 
ATOM     76  C   UNL     1      -7.066  -0.311   1.785  1.00  0.00     0.131 A 
ATOM     77  C   UNL     1      -6.179  -1.828   3.916  1.00  0.00     0.055 A 
ATOM     78  C   UNL     1      -7.701  -0.198   3.023  1.00  0.00     0.041 A 
ATOM     79  F   UNL     1      -7.556   0.412   0.765  1.00  0.00    -0.206 F 
ATOM     80  C   UNL     1      -7.268  -0.971   4.094  1.00  0.00     0.022 A 
BRANCH  77  81
ATOM     81  S   UNL     1      -5.697  -2.971   5.239  1.00  0.00     0.124 S 
ATOM     82  O   UNL     1      -5.888  -4.265   4.593  1.00  0.00    -0.237 OA
ATOM     83  O   UNL     1      -4.314  -2.578   5.490  1.00  0.00    -0.237 OA
ATOM     84  O   UNL     1      -6.638  -2.664   6.314  1.00  0.00    -0.744 OA
ENDBRANCH  77  81
ENDBRANCH  50  74
BRANCH  62  85
ATOM     85  C   UNL     1      -5.341  -6.626  -2.699  1.00  0.00     0.023 A 
ATOM     86  C   UNL     1      -6.677  -7.049  -2.580  1.00  0.00     0.031 A 
ATOM     87  C   UNL     1      -4.335  -7.609  -2.674  1.00  0.00     0.131 A 
ATOM     88  C   UNL     1      -6.965  -8.409  -2.384  1.00  0.00     0.055 A 
ATOM     89  C   UNL     1      -4.632  -8.967  -2.549  1.00  0.00     0.041 A 
ATOM     90  F   UNL     1      -3.041  -7.266  -2.779  1.00  0.00    -0.206 F 
ATOM     91  C   UNL     1      -5.953  -9.373  -2.389  1.00  0.00     0.022 A 
BRANCH  88  92
ATOM     92  S   UNL     1      -8.675  -8.894  -2.020  1.00  0.00     0.124 S 
ATOM     93  O   UNL     1      -8.962  -8.114  -0.821  1.00  0.00    -0.237 OA
ATOM     94  O   UNL     1      -9.380  -8.485  -3.231  1.00  0.00    -0.237 OA
ATOM     95  O   UNL     1      -8.585 -10.339  -1.814  1.00  0.00    -0.744 OA
ENDBRANCH  88  92
ENDBRANCH  62  85
ENDBRANCH  36  37
ENDBRANCH  29  31
ENDBRANCH  28  29
ENDBRANCH  27  28
ENDBRANCH  26  27
ENDBRANCH  25  26
ENDBRANCH   1  25
TORSDOF 21
