REMARK SMILES O=C(OCCOCCOCCOC(=O)[C@@H]1CCCC[C@@H]1NS(=O)(=O)c1ccc2ccccc2c1)c1ccc(-c2c3nc(c(-c4cc(S(=O)(=O)[O-])ccc4F)c4ccc([nH]4)c(-c4cc(S(=O)(=O)[O-])ccc4F)c4nc(c(-c5cc(S(=O)(=O)[O-])ccc5F)c5ccc2[nH]5)C=C4)C=C3)cc1
REMARK SMILES IDX 7 1 6 2 5 3 4 4 3 5 2 6 1 7 35 8 36 9 97 10 37 11 96 12
REMARK SMILES IDX 38 13 39 14 40 15 90 16 41 17 95 18 89 19 91 20 42 21 94 22
REMARK SMILES IDX 88 23 87 24 43 26 75 27 55 28 74 29 56 30 59 31 73 32 92 33
REMARK SMILES IDX 57 34 58 35 72 37 93 38 60 39 44 40 45 41 53 42 46 43 52 44
REMARK SMILES IDX 54 45 51 46 47 47 48 48 49 49 50 50 76 51 77 52 85 53 78 54
REMARK SMILES IDX 84 55 86 56 83 57 79 58 80 59 81 60 82 61 61 62 62 63 70 64
REMARK SMILES IDX 63 65 69 66 71 67 68 68 64 69 65 70 66 71 67 72 8 73 9 74
REMARK SMILES IDX 10 75 11 76 12 77 13 78 14 79 15 80 16 81 20 82 17 83 19 84
REMARK SMILES IDX 18 85 21 86 22 88 23 89 24 90 25 91 26 92 34 93 27 94 33 95
REMARK SMILES IDX 28 96 32 97 29 98 31 99 30 100
REMARK H PARENT 91 25 59 36 21 87
REMARK Flexibility Score: inf
ROOT
ATOM      1  C   UNL     1       2.564   0.592   1.908  1.00  0.00     0.188 C 
ENDROOT
BRANCH   1   2
ATOM      2  O   UNL     1       3.873   0.096   1.605  1.00  0.00    -0.376 OA
BRANCH   2   3
ATOM      3  C   UNL     1       4.736   1.081   1.023  1.00  0.00     0.202 C 
BRANCH   3   4
ATOM      4  C   UNL     1       4.500   1.374  -0.470  1.00  0.00     0.261 C 
BRANCH   4   5
ATOM      5  O   UNL     1       3.131   1.203  -0.871  1.00  0.00    -0.460 OA
BRANCH   5   6
ATOM      6  C   UNL     1       2.577   0.146  -1.519  1.00  0.00     0.338 C 
ATOM      7  O   UNL     1       1.418   0.251  -1.920  1.00  0.00    -0.246 OA
BRANCH   6   8
ATOM      8  C   UNL     1       3.292  -1.146  -1.768  1.00  0.00     0.060 A 
ATOM      9  C   UNL     1       4.366  -1.623  -1.015  1.00  0.00     0.016 A 
ATOM     10  C   UNL     1       2.797  -1.972  -2.792  1.00  0.00     0.016 A 
ATOM     11  C   UNL     1       5.002  -2.820  -1.331  1.00  0.00     0.010 A 
ATOM     12  C   UNL     1       3.390  -3.210  -3.075  1.00  0.00     0.010 A 
ATOM     13  C   UNL     1       4.520  -3.626  -2.361  1.00  0.00    -0.014 A 
BRANCH  13  14
ATOM     14  C   UNL     1       5.266  -4.856  -2.712  1.00  0.00     0.031 A 
ATOM     15  C   UNL     1       6.075  -4.875  -3.972  1.00  0.00     0.074 A 
ATOM     16  C   UNL     1       5.298  -5.896  -1.856  1.00  0.00     0.049 A 
ATOM     17  N   UNL     1       6.784  -5.846  -4.479  1.00  0.00    -0.248 NA
ATOM     18  C   UNL     1       6.104  -3.629  -4.755  1.00  0.00     0.031 C 
ATOM     19  C   UNL     1       4.618  -5.918  -0.562  1.00  0.00     0.029 A 
ATOM     20  N   UNL     1       5.922  -7.117  -1.920  1.00  0.00    -0.354 N 
ATOM     21  C   UNL     1       7.337  -5.336  -5.646  1.00  0.00     0.074 A 
ATOM     22  C   UNL     1       6.866  -3.974  -5.782  1.00  0.00     0.031 C 
ATOM     23  C   UNL     1       4.869  -7.089   0.041  1.00  0.00     0.029 A 
ATOM     24  C   UNL     1       5.653  -7.934  -0.842  1.00  0.00     0.049 A 
ATOM     25  H   UNL     1       6.508  -7.384  -2.665  1.00  0.00     0.167 HD
ATOM     26  C   UNL     1       8.162  -5.957  -6.522  1.00  0.00     0.034 A 
ATOM     27  C   UNL     1       5.953  -9.231  -0.610  1.00  0.00     0.034 A 
ATOM     28  C   UNL     1       8.595  -7.322  -6.365  1.00  0.00     0.049 A 
ATOM     29  C   UNL     1       6.767  -9.935  -1.668  1.00  0.00     0.074 A 
ATOM     30  C   UNL     1       9.398  -8.076  -7.201  1.00  0.00     0.029 A 
ATOM     31  N   UNL     1       8.244  -8.145  -5.300  1.00  0.00    -0.354 N 
ATOM     32  N   UNL     1       7.279  -9.438  -2.774  1.00  0.00    -0.248 NA
ATOM     33  C   UNL     1       7.044 -11.360  -1.463  1.00  0.00     0.031 C 
ATOM     34  C   UNL     1       9.484  -9.369  -6.671  1.00  0.00     0.029 A 
ATOM     35  C   UNL     1       8.784  -9.408  -5.474  1.00  0.00     0.049 A 
ATOM     36  H   UNL     1       7.692  -7.869  -4.533  1.00  0.00     0.167 HD
ATOM     37  C   UNL     1       7.953 -10.488  -3.385  1.00  0.00     0.074 A 
ATOM     38  C   UNL     1       7.814 -11.632  -2.505  1.00  0.00     0.031 C 
ATOM     39  C   UNL     1       8.619 -10.519  -4.568  1.00  0.00     0.034 A 
BRANCH  26  40
ATOM     40  C   UNL     1       8.558  -5.181  -7.749  1.00  0.00     0.023 A 
ATOM     41  C   UNL     1       9.394  -4.053  -7.676  1.00  0.00     0.031 A 
ATOM     42  C   UNL     1       8.029  -5.534  -9.002  1.00  0.00     0.131 A 
ATOM     43  C   UNL     1       9.624  -3.280  -8.825  1.00  0.00     0.055 A 
ATOM     44  C   UNL     1       8.316  -4.800 -10.154  1.00  0.00     0.041 A 
ATOM     45  F   UNL     1       7.200  -6.583  -9.121  1.00  0.00    -0.206 F 
ATOM     46  C   UNL     1       9.108  -3.658 -10.068  1.00  0.00     0.022 A 
BRANCH  43  47
ATOM     47  S   UNL     1      10.505  -1.704  -8.652  1.00  0.00     0.124 S 
ATOM     48  O   UNL     1       9.590  -0.948  -7.799  1.00  0.00    -0.237 OA
ATOM     49  O   UNL     1      11.763  -2.108  -8.037  1.00  0.00    -0.237 OA
ATOM     50  O   UNL     1      10.611  -1.217 -10.026  1.00  0.00    -0.744 OA
ENDBRANCH  43  47
ENDBRANCH  26  40
BRANCH  27  51
ATOM     51  C   UNL     1       5.408  -9.966   0.586  1.00  0.00     0.023 A 
ATOM     52  C   UNL     1       6.229 -10.699   1.464  1.00  0.00     0.031 A 
ATOM     53  C   UNL     1       4.016 -10.021   0.815  1.00  0.00     0.131 A 
ATOM     54  C   UNL     1       5.654 -11.491   2.478  1.00  0.00     0.055 A 
ATOM     55  C   UNL     1       3.459 -10.728   1.881  1.00  0.00     0.041 A 
ATOM     56  F   UNL     1       3.164  -9.382  -0.004  1.00  0.00    -0.206 F 
ATOM     57  C   UNL     1       4.278 -11.483   2.708  1.00  0.00     0.022 A 
BRANCH  54  58
ATOM     58  S   UNL     1       6.652 -12.748   3.341  1.00  0.00     0.124 S 
ATOM     59  O   UNL     1       7.695 -13.051   2.368  1.00  0.00    -0.237 OA
ATOM     60  O   UNL     1       7.079 -12.047   4.545  1.00  0.00    -0.237 OA
ATOM     61  O   UNL     1       5.691 -13.825   3.572  1.00  0.00    -0.744 OA
ENDBRANCH  54  58
ENDBRANCH  27  51
BRANCH  39  62
ATOM     62  C   UNL     1       9.263 -11.830  -4.930  1.00  0.00     0.023 A 
ATOM     63  C   UNL     1       8.490 -12.955  -5.261  1.00  0.00     0.031 A 
ATOM     64  C   UNL     1      10.662 -11.962  -4.908  1.00  0.00     0.131 A 
ATOM     65  C   UNL     1       9.119 -14.185  -5.494  1.00  0.00     0.055 A 
ATOM     66  C   UNL     1      11.285 -13.175  -5.199  1.00  0.00     0.041 A 
ATOM     67  F   UNL     1      11.442 -10.914  -4.597  1.00  0.00    -0.206 F 
ATOM     68  C   UNL     1      10.512 -14.299  -5.480  1.00  0.00     0.022 A 
BRANCH  65  69
ATOM     69  S   UNL     1       8.086 -15.656  -5.728  1.00  0.00     0.124 S 
ATOM     70  O   UNL     1       7.378 -15.733  -4.455  1.00  0.00    -0.237 OA
ATOM     71  O   UNL     1       7.277 -15.288  -6.886  1.00  0.00    -0.237 OA
ATOM     72  O   UNL     1       9.058 -16.721  -5.966  1.00  0.00    -0.744 OA
ENDBRANCH  65  69
ENDBRANCH  39  62
ENDBRANCH  13  14
ENDBRANCH   6   8
ENDBRANCH   5   6
ENDBRANCH   4   5
ENDBRANCH   3   4
ENDBRANCH   2   3
ENDBRANCH   1   2
BRANCH   1  73
ATOM     73  C   UNL     1       1.908  -0.160   3.068  1.00  0.00     0.188 C 
BRANCH  73  74
ATOM     74  O   UNL     1       2.487   0.007   4.362  1.00  0.00    -0.376 OA
BRANCH  74  75
ATOM     75  C   UNL     1       3.886  -0.221   4.492  1.00  0.00     0.202 C 
BRANCH  75  76
ATOM     76  C   UNL     1       4.409  -1.660   4.364  1.00  0.00     0.261 C 
BRANCH  76  77
ATOM     77  O   UNL     1       3.755  -2.475   3.382  1.00  0.00    -0.463 OA
BRANCH  77  78
ATOM     78  C   UNL     1       2.758  -3.254   3.883  1.00  0.00     0.310 C 
ATOM     79  O   UNL     1       2.392  -3.261   5.054  1.00  0.00    -0.252 OA
BRANCH  78  80
ATOM     80  C   UNL     1       2.185  -4.189   2.835  1.00  0.00     0.117 C 
ATOM     81  C   UNL     1       0.655  -4.241   2.991  1.00  0.00     0.017 C 
ATOM     82  C   UNL     1       2.887  -5.567   2.919  1.00  0.00     0.084 C 
ATOM     83  C   UNL     1       0.009  -5.335   2.152  1.00  0.00     0.001 C 
ATOM     84  C   UNL     1       2.113  -6.652   2.166  1.00  0.00     0.021 C 
ATOM     85  C   UNL     1       0.627  -6.684   2.481  1.00  0.00     0.002 C 
BRANCH  82  86
ATOM     86  N   UNL     1       3.222  -5.910   4.313  1.00  0.00    -0.207 NA
ATOM     87  H   UNL     1       2.336  -5.831   4.812  1.00  0.00     0.141 HD
BRANCH  86  88
ATOM     88  S   UNL     1       3.918  -7.301   4.923  1.00  0.00     0.240 S 
ATOM     89  O   UNL     1       3.974  -7.036   6.350  1.00  0.00    -0.207 OA
ATOM     90  O   UNL     1       3.183  -8.433   4.414  1.00  0.00    -0.207 OA
BRANCH  88  91
ATOM     91  C   UNL     1       5.605  -7.420   4.378  1.00  0.00     0.083 A 
ATOM     92  C   UNL     1       6.147  -6.658   3.350  1.00  0.00     0.022 A 
ATOM     93  C   UNL     1       6.409  -8.369   5.022  1.00  0.00     0.030 A 
ATOM     94  C   UNL     1       7.438  -6.923   2.879  1.00  0.00     0.010 A 
ATOM     95  C   UNL     1       7.729  -8.603   4.597  1.00  0.00    -0.017 A 
ATOM     96  C   UNL     1       8.234  -7.905   3.480  1.00  0.00    -0.018 A 
ATOM     97  C   UNL     1       8.543  -9.554   5.227  1.00  0.00     0.009 A 
ATOM     98  C   UNL     1       9.510  -8.223   2.983  1.00  0.00     0.009 A 
ATOM     99  C   UNL     1       9.809  -9.859   4.728  1.00  0.00     0.001 A 
ATOM    100  C   UNL     1      10.288  -9.204   3.599  1.00  0.00     0.001 A 
ENDBRANCH  88  91
ENDBRANCH  86  88
ENDBRANCH  82  86
ENDBRANCH  78  80
ENDBRANCH  77  78
ENDBRANCH  76  77
ENDBRANCH  75  76
ENDBRANCH  74  75
ENDBRANCH  73  74
ENDBRANCH   1  73
TORSDOF 23
