REMARK SMILES O=C(OCCOCCOCCOC(=O)[C@H]1Cc2[nH]cnc2CN1C(=O)N1CCC[C@H](O)C1)c1ccc(-c2c3nc(c(-c4cc(S(=O)(=O)[O-])ccc4F)c4ccc([nH]4)c(-c4cc(S(=O)(=O)[O-])ccc4F)c4nc(c(-c5cc(S(=O)(=O)[O-])ccc5F)c5ccc2[nH]5)C=C4)C=C3)cc1
REMARK SMILES IDX 7 1 6 2 5 3 4 4 3 5 2 6 1 7 33 8 34 9 95 10 35 11 94 12
REMARK SMILES IDX 36 13 37 14 38 15 88 16 39 17 93 18 87 19 89 20 40 21 92 22
REMARK SMILES IDX 86 23 85 24 41 26 73 27 53 28 72 29 54 30 57 31 71 32 90 33
REMARK SMILES IDX 55 34 56 35 70 37 91 38 58 39 42 40 43 41 51 42 44 43 50 44
REMARK SMILES IDX 52 45 49 46 45 47 46 48 47 49 48 50 74 51 75 52 83 53 76 54
REMARK SMILES IDX 82 55 84 56 81 57 77 58 78 59 79 60 80 61 59 62 60 63 68 64
REMARK SMILES IDX 61 65 67 66 69 67 66 68 62 69 63 70 64 71 65 72 8 73 9 74
REMARK SMILES IDX 10 75 11 76 12 77 13 78 14 79 15 80 16 81 23 82 17 83 22 84
REMARK SMILES IDX 18 85 21 86 19 87 20 89 24 90 25 91 26 92 27 93 32 94 28 95
REMARK SMILES IDX 30 96 29 97 31 98
REMARK H PARENT 89 25 57 36 18 88 31 99
REMARK Flexibility Score: inf
ROOT
ATOM      1  C   UNL     1       2.058  -0.723   0.109  1.00  0.00     0.188 C 
ENDROOT
BRANCH   1   2
ATOM      2  O   UNL     1       3.245  -0.084  -0.371  1.00  0.00    -0.376 OA
BRANCH   2   3
ATOM      3  C   UNL     1       4.450  -0.230   0.382  1.00  0.00     0.202 C 
BRANCH   3   4
ATOM      4  C   UNL     1       4.563   0.171   1.857  1.00  0.00     0.261 C 
BRANCH   4   5
ATOM      5  O   UNL     1       3.392   0.092   2.672  1.00  0.00    -0.460 OA
BRANCH   5   6
ATOM      6  C   UNL     1       2.259   0.819   2.562  1.00  0.00     0.338 C 
ATOM      7  O   UNL     1       1.226   0.405   3.082  1.00  0.00    -0.246 OA
BRANCH   6   8
ATOM      8  C   UNL     1       2.187   2.033   1.716  1.00  0.00     0.060 A 
ATOM      9  C   UNL     1       3.257   2.907   1.544  1.00  0.00     0.016 A 
ATOM     10  C   UNL     1       0.915   2.349   1.188  1.00  0.00     0.016 A 
ATOM     11  C   UNL     1       3.034   4.137   0.971  1.00  0.00     0.010 A 
ATOM     12  C   UNL     1       0.680   3.583   0.624  1.00  0.00     0.010 A 
ATOM     13  C   UNL     1       1.726   4.492   0.646  1.00  0.00    -0.014 A 
BRANCH  13  14
ATOM     14  C   UNL     1       1.467   5.913   0.632  1.00  0.00     0.031 A 
ATOM     15  C   UNL     1       1.972   6.631  -0.544  1.00  0.00     0.074 A 
ATOM     16  C   UNL     1       0.912   6.488   1.716  1.00  0.00     0.049 A 
ATOM     17  N   UNL     1       3.007   7.398  -0.609  1.00  0.00    -0.248 NA
ATOM     18  C   UNL     1       1.362   6.322  -1.842  1.00  0.00     0.031 C 
ATOM     19  C   UNL     1       0.226   5.831   2.835  1.00  0.00     0.029 A 
ATOM     20  N   UNL     1       0.766   7.806   1.999  1.00  0.00    -0.354 N 
ATOM     21  C   UNL     1       3.029   7.876  -1.911  1.00  0.00     0.074 A 
ATOM     22  C   UNL     1       2.144   7.025  -2.661  1.00  0.00     0.031 C 
ATOM     23  C   UNL     1      -0.474   6.755   3.527  1.00  0.00     0.029 A 
ATOM     24  C   UNL     1      -0.176   8.068   2.983  1.00  0.00     0.049 A 
ATOM     25  H   UNL     1       1.281   8.513   1.547  1.00  0.00     0.167 HD
ATOM     26  C   UNL     1       3.569   9.090  -2.200  1.00  0.00     0.034 A 
ATOM     27  C   UNL     1      -0.752   9.267   3.244  1.00  0.00     0.034 A 
ATOM     28  C   UNL     1       4.443   9.545  -1.142  1.00  0.00     0.049 A 
ATOM     29  C   UNL     1       0.172  10.312   2.729  1.00  0.00     0.074 A 
ATOM     30  C   UNL     1       5.588   9.042  -0.553  1.00  0.00     0.029 A 
ATOM     31  N   UNL     1       3.978  10.515  -0.280  1.00  0.00    -0.354 N 
ATOM     32  N   UNL     1       1.358  10.528   3.233  1.00  0.00    -0.248 NA
ATOM     33  C   UNL     1      -0.002  10.777   1.359  1.00  0.00     0.031 C 
ATOM     34  C   UNL     1       5.478   9.383   0.826  1.00  0.00     0.029 A 
ATOM     35  C   UNL     1       4.310  10.129   0.997  1.00  0.00     0.049 A 
ATOM     36  H   UNL     1       3.496  11.335  -0.532  1.00  0.00     0.167 HD
ATOM     37  C   UNL     1       2.185  10.744   2.140  1.00  0.00     0.074 A 
ATOM     38  C   UNL     1       1.275  10.993   1.025  1.00  0.00     0.031 C 
ATOM     39  C   UNL     1       3.512  10.417   2.176  1.00  0.00     0.034 A 
BRANCH  26  40
ATOM     40  C   UNL     1       3.030  10.019  -3.262  1.00  0.00     0.023 A 
ATOM     41  C   UNL     1       3.723  11.223  -3.474  1.00  0.00     0.031 A 
ATOM     42  C   UNL     1       1.749   9.932  -3.857  1.00  0.00     0.131 A 
ATOM     43  C   UNL     1       3.114  12.294  -4.150  1.00  0.00     0.055 A 
ATOM     44  C   UNL     1       1.179  10.972  -4.593  1.00  0.00     0.041 A 
ATOM     45  F   UNL     1       0.934   8.885  -3.682  1.00  0.00    -0.206 F 
ATOM     46  C   UNL     1       1.847  12.175  -4.716  1.00  0.00     0.022 A 
BRANCH  43  47
ATOM     47  S   UNL     1       3.933  13.906  -4.107  1.00  0.00     0.124 S 
ATOM     48  O   UNL     1       4.123  14.099  -2.674  1.00  0.00    -0.237 OA
ATOM     49  O   UNL     1       5.138  13.648  -4.889  1.00  0.00    -0.237 OA
ATOM     50  O   UNL     1       2.960  14.796  -4.735  1.00  0.00    -0.744 OA
ENDBRANCH  43  47
ENDBRANCH  26  40
BRANCH  27  51
ATOM     51  C   UNL     1      -2.196   9.473   3.543  1.00  0.00     0.023 A 
ATOM     52  C   UNL     1      -2.687  10.655   4.127  1.00  0.00     0.031 A 
ATOM     53  C   UNL     1      -3.163   8.559   3.055  1.00  0.00     0.131 A 
ATOM     54  C   UNL     1      -4.081  10.876   4.216  1.00  0.00     0.055 A 
ATOM     55  C   UNL     1      -4.537   8.773   3.163  1.00  0.00     0.041 A 
ATOM     56  F   UNL     1      -2.806   7.458   2.375  1.00  0.00    -0.206 F 
ATOM     57  C   UNL     1      -5.003   9.940   3.740  1.00  0.00     0.022 A 
BRANCH  54  58
ATOM     58  S   UNL     1      -4.718  12.451   4.868  1.00  0.00     0.124 S 
ATOM     59  O   UNL     1      -4.392  12.354   6.284  1.00  0.00    -0.237 OA
ATOM     60  O   UNL     1      -3.964  13.435   4.093  1.00  0.00    -0.237 OA
ATOM     61  O   UNL     1      -6.146  12.397   4.557  1.00  0.00    -0.744 OA
ENDBRANCH  54  58
ENDBRANCH  27  51
BRANCH  39  62
ATOM     62  C   UNL     1       4.144  10.104   3.518  1.00  0.00     0.023 A 
ATOM     63  C   UNL     1       3.725   9.064   4.379  1.00  0.00     0.031 A 
ATOM     64  C   UNL     1       5.310  10.808   3.868  1.00  0.00     0.131 A 
ATOM     65  C   UNL     1       4.463   8.772   5.543  1.00  0.00     0.055 A 
ATOM     66  C   UNL     1       6.046  10.506   5.013  1.00  0.00     0.041 A 
ATOM     67  F   UNL     1       5.781  11.782   3.072  1.00  0.00    -0.206 F 
ATOM     68  C   UNL     1       5.621   9.489   5.859  1.00  0.00     0.022 A 
BRANCH  65  69
ATOM     69  S   UNL     1       3.928   7.446   6.672  1.00  0.00     0.124 S 
ATOM     70  O   UNL     1       2.501   7.693   6.838  1.00  0.00    -0.237 OA
ATOM     71  O   UNL     1       4.288   6.240   5.929  1.00  0.00    -0.237 OA
ATOM     72  O   UNL     1       4.732   7.679   7.874  1.00  0.00    -0.744 OA
ENDBRANCH  65  69
ENDBRANCH  39  62
ENDBRANCH  13  14
ENDBRANCH   6   8
ENDBRANCH   5   6
ENDBRANCH   4   5
ENDBRANCH   3   4
ENDBRANCH   2   3
ENDBRANCH   1   2
BRANCH   1  73
ATOM     73  C   UNL     1       1.352  -1.682  -0.845  1.00  0.00     0.188 C 
BRANCH  73  74
ATOM     74  O   UNL     1       1.795  -3.034  -0.816  1.00  0.00    -0.376 OA
BRANCH  74  75
ATOM     75  C   UNL     1       3.180  -3.228  -0.630  1.00  0.00     0.202 C 
BRANCH  75  76
ATOM     76  C   UNL     1       4.099  -2.743  -1.744  1.00  0.00     0.261 C 
BRANCH  76  77
ATOM     77  O   UNL     1       3.665  -1.735  -2.653  1.00  0.00    -0.462 OA
BRANCH  77  78
ATOM     78  C   UNL     1       2.830  -2.155  -3.646  1.00  0.00     0.329 C 
ATOM     79  O   UNL     1       2.230  -3.220  -3.657  1.00  0.00    -0.250 OA
BRANCH  78  80
ATOM     80  C   UNL     1       2.788  -1.150  -4.790  1.00  0.00     0.203 C 
ATOM     81  C   UNL     1       3.270   0.277  -4.386  1.00  0.00     0.093 C 
ATOM     82  N   UNL     1       3.317  -1.589  -6.127  1.00  0.00    -0.304 N 
ATOM     83  C   UNL     1       3.102   1.157  -5.567  1.00  0.00     0.042 A 
ATOM     84  C   UNL     1       2.915  -0.727  -7.271  1.00  0.00     0.180 C 
ATOM     85  N   UNL     1       3.042   2.519  -5.620  1.00  0.00    -0.348 N 
ATOM     86  C   UNL     1       2.953   0.716  -6.862  1.00  0.00     0.081 A 
ATOM     87  C   UNL     1       2.863   2.848  -6.940  1.00  0.00     0.197 A 
ATOM     88  H   UNL     1       3.114   3.142  -4.862  1.00  0.00     0.167 HD
ATOM     89  N   UNL     1       2.799   1.781  -7.711  1.00  0.00    -0.240 NA
BRANCH  82  90
ATOM     90  C   UNL     1       4.254  -2.565  -6.406  1.00  0.00     0.321 C 
ATOM     91  O   UNL     1       4.656  -2.793  -7.549  1.00  0.00    -0.248 OA
BRANCH  90  92
ATOM     92  N   UNL     1       4.772  -3.308  -5.351  1.00  0.00    -0.322 N 
ATOM     93  C   UNL     1       4.221  -4.657  -5.212  1.00  0.00     0.121 C 
ATOM     94  C   UNL     1       6.231  -3.343  -5.329  1.00  0.00     0.153 C 
ATOM     95  C   UNL     1       4.674  -5.399  -3.953  1.00  0.00     0.024 C 
ATOM     96  C   UNL     1       6.774  -3.818  -3.985  1.00  0.00     0.134 C 
ATOM     97  C   UNL     1       6.095  -5.087  -3.445  1.00  0.00     0.035 C 
BRANCH  96  98
ATOM     98  O   UNL     1       6.710  -2.766  -3.019  1.00  0.00    -0.391 OA
ATOM     99  H   UNL     1       5.784  -2.527  -2.862  1.00  0.00     0.211 HD
ENDBRANCH  96  98
ENDBRANCH  90  92
ENDBRANCH  82  90
ENDBRANCH  78  80
ENDBRANCH  77  78
ENDBRANCH  76  77
ENDBRANCH  75  76
ENDBRANCH  74  75
ENDBRANCH  73  74
ENDBRANCH   1  73
TORSDOF 23
