REMARK SMILES CC(C)c1ccc(C(=O)N2CCC[C@@H](C(=O)OCCOCCOCCOC(=O)c3ccc(-c4c5nc(c(-c6cc(S(=O)(=O)[O-])ccc6F)c6ccc([nH]6)c(-c6cc(S(=O)(=O)[O-])ccc6F)c6nc(c(-c7cc(S(=O)(=O)[O-])ccc7F)c7ccc4[nH]7)C=C6)C=C5)cc3)C2)cc1
REMARK SMILES IDX 21 1 20 2 19 3 18 4 17 5 15 6 16 7 14 8 10 9 11 10 92 11
REMARK SMILES IDX 12 12 13 13 8 14 9 15 7 16 4 17 5 18 94 19 6 20 93 21 2 22
REMARK SMILES IDX 1 23 3 24 22 25 23 26 24 27 25 28 26 29 27 30 28 31 29 32
REMARK SMILES IDX 30 33 91 34 31 35 90 36 32 37 33 38 34 39 84 40 35 41 89 42
REMARK SMILES IDX 83 43 85 44 36 45 88 46 82 47 81 48 37 50 69 51 49 52 68 53
REMARK SMILES IDX 50 54 53 55 67 56 86 57 51 58 52 59 66 61 87 62 54 63 38 64
REMARK SMILES IDX 39 65 47 66 40 67 46 68 48 69 45 70 41 71 42 72 43 73 44 74
REMARK SMILES IDX 70 75 71 76 79 77 72 78 78 79 80 80 77 81 73 82 74 83 75 84
REMARK SMILES IDX 76 85 55 86 56 87 64 88 57 89 63 90 65 91 62 92 58 93 59 94
REMARK SMILES IDX 60 95 61 96
REMARK H PARENT 85 49 53 60
REMARK Flexibility Score: inf
ROOT
ATOM      1  C   UNL     1      -5.847  -3.965   2.804  1.00  0.00     0.188 C 
ENDROOT
BRANCH   1   2
ATOM      2  O   UNL     1      -6.565  -4.919   3.567  1.00  0.00    -0.376 OA
BRANCH   2   3
ATOM      3  C   UNL     1      -7.871  -5.278   3.147  1.00  0.00     0.202 C 
BRANCH   3   4
ATOM      4  C   UNL     1      -8.918  -4.167   3.015  1.00  0.00     0.261 C 
BRANCH   4   5
ATOM      5  O   UNL     1      -8.599  -3.185   2.009  1.00  0.00    -0.463 OA
BRANCH   5   6
ATOM      6  C   UNL     1      -8.596  -1.881   2.406  1.00  0.00     0.310 C 
ATOM      7  O   UNL     1      -8.793  -1.513   3.557  1.00  0.00    -0.252 OA
BRANCH   6   8
ATOM      8  C   UNL     1      -8.256  -0.909   1.284  1.00  0.00     0.119 C 
ATOM      9  N   UNL     1      -6.275   0.279   0.280  1.00  0.00    -0.338 N 
ATOM     10  C   UNL     1      -6.627  -0.151  -1.064  1.00  0.00     0.120 C 
ATOM     11  C   UNL     1      -6.801  -0.454   1.428  1.00  0.00     0.135 C 
ATOM     12  C   UNL     1      -8.126  -0.417  -1.176  1.00  0.00     0.022 C 
ATOM     13  C   UNL     1      -8.564  -1.435  -0.124  1.00  0.00     0.019 C 
BRANCH   9  14
ATOM     14  C   UNL     1      -5.565   1.452   0.501  1.00  0.00     0.253 C 
ATOM     15  O   UNL     1      -6.086   2.412   1.060  1.00  0.00    -0.269 OA
BRANCH  14  16
ATOM     16  C   UNL     1      -4.096   1.451   0.182  1.00  0.00     0.040 A 
ATOM     17  C   UNL     1      -1.256   1.429  -0.044  1.00  0.00    -0.045 A 
ATOM     18  C   UNL     1      -1.946   2.575   0.386  1.00  0.00     0.005 A 
ATOM     19  C   UNL     1      -2.020   0.308  -0.395  1.00  0.00     0.005 A 
ATOM     20  C   UNL     1      -3.345   2.589   0.494  1.00  0.00     0.014 A 
ATOM     21  C   UNL     1      -3.420   0.318  -0.281  1.00  0.00     0.014 A 
BRANCH  17  22
ATOM     22  C   UNL     1       0.273   1.433  -0.041  1.00  0.00     0.013 C 
ATOM     23  C   UNL     1       0.932   0.084  -0.360  1.00  0.00     0.012 C 
ATOM     24  C   UNL     1       0.843   2.493  -0.991  1.00  0.00     0.012 C 
ENDBRANCH  17  22
ENDBRANCH  14  16
ENDBRANCH   9  14
ENDBRANCH   6   8
ENDBRANCH   5   6
ENDBRANCH   4   5
ENDBRANCH   3   4
ENDBRANCH   2   3
ENDBRANCH   1   2
BRANCH   1  25
ATOM     25  C   UNL     1      -5.770  -4.119   1.270  1.00  0.00     0.188 C 
BRANCH  25  26
ATOM     26  O   UNL     1      -6.125  -5.338   0.663  1.00  0.00    -0.376 OA
BRANCH  26  27
ATOM     27  C   UNL     1      -5.344  -6.505   0.810  1.00  0.00     0.202 C 
BRANCH  27  28
ATOM     28  C   UNL     1      -3.868  -6.550   1.244  1.00  0.00     0.261 C 
BRANCH  28  29
ATOM     29  O   UNL     1      -3.378  -5.489   2.065  1.00  0.00    -0.460 OA
BRANCH  29  30
ATOM     30  C   UNL     1      -2.526  -4.633   1.452  1.00  0.00     0.338 C 
ATOM     31  O   UNL     1      -2.198  -4.643   0.270  1.00  0.00    -0.246 OA
BRANCH  30  32
ATOM     32  C   UNL     1      -2.162  -3.548   2.376  1.00  0.00     0.060 A 
ATOM     33  C   UNL     1      -2.648  -2.264   2.112  1.00  0.00     0.016 A 
ATOM     34  C   UNL     1      -1.296  -3.769   3.446  1.00  0.00     0.016 A 
ATOM     35  C   UNL     1      -2.235  -1.183   2.888  1.00  0.00     0.010 A 
ATOM     36  C   UNL     1      -0.879  -2.680   4.223  1.00  0.00     0.010 A 
ATOM     37  C   UNL     1      -1.315  -1.375   3.925  1.00  0.00    -0.014 A 
BRANCH  37  38
ATOM     38  C   UNL     1      -0.697  -0.194   4.582  1.00  0.00     0.031 A 
ATOM     39  C   UNL     1       0.708   0.197   4.205  1.00  0.00     0.074 A 
ATOM     40  C   UNL     1      -1.387   0.555   5.462  1.00  0.00     0.049 A 
ATOM     41  N   UNL     1       1.450   1.176   4.655  1.00  0.00    -0.248 NA
ATOM     42  C   UNL     1       1.360  -0.622   3.172  1.00  0.00     0.031 C 
ATOM     43  C   UNL     1      -2.776   0.330   5.858  1.00  0.00     0.029 A 
ATOM     44  N   UNL     1      -1.005   1.655   6.192  1.00  0.00    -0.354 N 
ATOM     45  C   UNL     1       2.646   1.102   3.950  1.00  0.00     0.074 A 
ATOM     46  C   UNL     1       2.545  -0.041   3.068  1.00  0.00     0.031 C 
ATOM     47  C   UNL     1      -3.123   1.250   6.774  1.00  0.00     0.029 A 
ATOM     48  C   UNL     1      -1.969   2.099   7.067  1.00  0.00     0.049 A 
ATOM     49  H   UNL     1      -0.124   2.085   6.097  1.00  0.00     0.167 HD
ATOM     50  C   UNL     1       3.729   1.912   4.027  1.00  0.00     0.034 A 
ATOM     51  C   UNL     1      -1.914   3.050   8.022  1.00  0.00     0.034 A 
ATOM     52  C   UNL     1       3.846   3.014   4.949  1.00  0.00     0.049 A 
ATOM     53  C   UNL     1      -0.634   3.837   8.203  1.00  0.00     0.074 A 
ATOM     54  C   UNL     1       4.910   3.882   5.122  1.00  0.00     0.029 A 
ATOM     55  N   UNL     1       2.881   3.380   5.877  1.00  0.00    -0.354 N 
ATOM     56  N   UNL     1       0.486   3.764   7.521  1.00  0.00    -0.248 NA
ATOM     57  C   UNL     1      -0.614   4.834   9.282  1.00  0.00     0.031 C 
ATOM     58  C   UNL     1       4.624   4.714   6.210  1.00  0.00     0.029 A 
ATOM     59  C   UNL     1       3.345   4.427   6.659  1.00  0.00     0.049 A 
ATOM     60  H   UNL     1       1.996   2.959   5.966  1.00  0.00     0.167 HD
ATOM     61  C   UNL     1       1.328   4.732   8.068  1.00  0.00     0.074 A 
ATOM     62  C   UNL     1       0.583   5.379   9.127  1.00  0.00     0.031 C 
ATOM     63  C   UNL     1       2.599   5.061   7.721  1.00  0.00     0.034 A 
BRANCH  50  64
ATOM     64  C   UNL     1       4.902   1.582   3.139  1.00  0.00     0.023 A 
ATOM     65  C   UNL     1       4.830   1.701   1.739  1.00  0.00     0.031 A 
ATOM     66  C   UNL     1       6.105   1.122   3.702  1.00  0.00     0.131 A 
ATOM     67  C   UNL     1       5.924   1.315   0.949  1.00  0.00     0.055 A 
ATOM     68  C   UNL     1       7.213   0.805   2.915  1.00  0.00     0.041 A 
ATOM     69  F   UNL     1       6.220   0.963   5.030  1.00  0.00    -0.206 F 
ATOM     70  C   UNL     1       7.123   0.891   1.529  1.00  0.00     0.022 A 
BRANCH  67  71
ATOM     71  S   UNL     1       5.726   1.272  -0.853  1.00  0.00     0.124 S 
ATOM     72  O   UNL     1       4.671   0.274  -1.010  1.00  0.00    -0.237 OA
ATOM     73  O   UNL     1       5.354   2.647  -1.165  1.00  0.00    -0.237 OA
ATOM     74  O   UNL     1       7.043   0.856  -1.333  1.00  0.00    -0.744 OA
ENDBRANCH  67  71
ENDBRANCH  50  64
BRANCH  51  75
ATOM     75  C   UNL     1      -3.069   3.270   8.943  1.00  0.00     0.023 A 
ATOM     76  C   UNL     1      -3.723   4.510   9.019  1.00  0.00     0.031 A 
ATOM     77  C   UNL     1      -3.481   2.255   9.828  1.00  0.00     0.131 A 
ATOM     78  C   UNL     1      -4.714   4.720   9.992  1.00  0.00     0.055 A 
ATOM     79  C   UNL     1      -4.509   2.450  10.751  1.00  0.00     0.041 A 
ATOM     80  F   UNL     1      -2.881   1.054   9.811  1.00  0.00    -0.206 F 
ATOM     81  C   UNL     1      -5.122   3.694  10.848  1.00  0.00     0.022 A 
BRANCH  78  82
ATOM     82  S   UNL     1      -5.385   6.393  10.206  1.00  0.00     0.124 S 
ATOM     83  O   UNL     1      -4.177   7.164  10.480  1.00  0.00    -0.237 OA
ATOM     84  O   UNL     1      -6.020   6.634   8.914  1.00  0.00    -0.237 OA
ATOM     85  O   UNL     1      -6.304   6.250  11.333  1.00  0.00    -0.744 OA
ENDBRANCH  78  82
ENDBRANCH  51  75
BRANCH  63  86
ATOM     86  C   UNL     1       3.246   6.207   8.463  1.00  0.00     0.023 A 
ATOM     87  C   UNL     1       3.560   6.127   9.831  1.00  0.00     0.031 A 
ATOM     88  C   UNL     1       3.551   7.402   7.785  1.00  0.00     0.131 A 
ATOM     89  C   UNL     1       4.112   7.238  10.489  1.00  0.00     0.055 A 
ATOM     90  C   UNL     1       4.156   8.481   8.430  1.00  0.00     0.041 A 
ATOM     91  F   UNL     1       3.273   7.537   6.478  1.00  0.00    -0.206 F 
ATOM     92  C   UNL     1       4.428   8.408   9.793  1.00  0.00     0.022 A 
BRANCH  89  93
ATOM     93  S   UNL     1       4.331   7.168  12.288  1.00  0.00     0.124 S 
ATOM     94  O   UNL     1       2.971   6.909  12.751  1.00  0.00    -0.237 OA
ATOM     95  O   UNL     1       5.278   6.069  12.445  1.00  0.00    -0.237 OA
ATOM     96  O   UNL     1       4.857   8.490  12.622  1.00  0.00    -0.744 OA
ENDBRANCH  89  93
ENDBRANCH  63  86
ENDBRANCH  37  38
ENDBRANCH  30  32
ENDBRANCH  29  30
ENDBRANCH  28  29
ENDBRANCH  27  28
ENDBRANCH  26  27
ENDBRANCH  25  26
ENDBRANCH   1  25
TORSDOF 23
