REMARK SMILES Cc1c(NC(=O)[C@@H]2CC=CC[C@@H]2C(=O)OCCOCCOCCOC(=O)c2ccc(-c3c4nc(c(-c5cc(S(=O)(=O)[O-])ccc5F)c5ccc([nH]5)c(-c5cc(S(=O)(=O)[O-])ccc5F)c5nc(c(-c6cc(S(=O)(=O)[O-])ccc6F)c6ccc3[nH]6)C=C5)C=C4)cc2)cccc1C(=O)N1CCOCC1
REMARK SMILES IDX 19 1 18 2 17 3 16 4 15 5 13 6 14 7 12 8 7 9 8 10 9 11 11 12
REMARK SMILES IDX 10 13 5 14 4 15 6 17 3 18 1 19 2 20 93 21 90 22 92 23 91 24
REMARK SMILES IDX 94 25 95 26 96 27 97 28 101 29 98 30 100 31 99 32 20 33
REMARK SMILES IDX 21 34 22 35 23 36 24 37 25 38 26 39 27 40 28 41 89 42 29 43
REMARK SMILES IDX 88 44 30 45 31 46 32 47 82 48 33 49 87 50 81 51 83 52 34 53
REMARK SMILES IDX 86 54 80 55 79 56 35 58 67 59 47 60 66 61 48 62 51 63 65 64
REMARK SMILES IDX 84 65 49 66 50 67 64 69 85 70 52 71 36 72 37 73 45 74 38 75
REMARK SMILES IDX 44 76 46 77 43 78 39 79 40 80 41 81 42 82 68 83 69 84 77 85
REMARK SMILES IDX 70 86 76 87 78 88 75 89 71 90 72 91 73 92 74 93 53 94 54 95
REMARK SMILES IDX 62 96 55 97 61 98 63 99 60 100 56 101 57 102 58 103 59 104
REMARK H PARENT 4 16 83 57 51 68
REMARK Flexibility Score: inf
ROOT
ATOM      1  C   UNL     1      -7.206  -1.349   0.496  1.00  0.00     0.188 C 
ENDROOT
BRANCH   1   2
ATOM      2  O   UNL     1      -7.074  -2.788   0.510  1.00  0.00    -0.376 OA
BRANCH   2   3
ATOM      3  C   UNL     1      -6.358  -3.531   1.519  1.00  0.00     0.202 C 
BRANCH   3   4
ATOM      4  C   UNL     1      -5.065  -4.481   1.172  1.00  0.00     0.261 C 
BRANCH   4   5
ATOM      5  O   UNL     1      -3.329  -4.178   0.914  1.00  0.00    -0.463 OA
BRANCH   5   6
ATOM      6  C   UNL     1      -2.355  -3.839  -0.097  1.00  0.00     0.310 C 
ATOM      7  O   UNL     1      -2.490  -3.793  -1.323  1.00  0.00    -0.252 OA
BRANCH   6   8
ATOM      8  C   UNL     1      -0.934  -3.382   0.181  1.00  0.00     0.116 C 
ATOM      9  C   UNL     1      -0.306  -3.825   1.459  1.00  0.00     0.097 C 
ATOM     10  C   UNL     1      -0.756  -2.946   2.600  1.00  0.00     0.041 C 
ATOM     11  C   UNL     1      -0.469  -1.500   2.256  1.00  0.00    -0.030 C 
ATOM     12  C   UNL     1      -0.599  -1.931  -0.200  1.00  0.00     0.043 C 
ATOM     13  C   UNL     1      -0.375  -1.052   0.992  1.00  0.00    -0.030 C 
BRANCH   9  14
ATOM     14  C   UNL     1      -0.594  -5.296   1.474  1.00  0.00     0.228 C 
ATOM     15  N   UNL     1       0.149  -5.983   0.506  1.00  0.00    -0.326 N 
ATOM     16  H   UNL     1      -0.193  -6.176  -0.397  1.00  0.00     0.169 HD
ATOM     17  O   UNL     1      -1.488  -5.822   2.123  1.00  0.00    -0.274 OA
BRANCH  15  18
ATOM     18  C   UNL     1       1.431  -6.373   0.942  1.00  0.00     0.044 A 
ATOM     19  C   UNL     1       0.316  -8.512   1.590  1.00  0.00     0.047 C 
ATOM     20  C   UNL     1       1.520  -7.605   1.603  1.00  0.00    -0.015 A 
ATOM     21  C   UNL     1       2.697  -7.871   2.319  1.00  0.00     0.045 A 
ATOM     22  C   UNL     1       2.482  -5.449   0.952  1.00  0.00     0.026 A 
ATOM     23  C   UNL     1       3.689  -6.881   2.450  1.00  0.00     0.014 A 
ATOM     24  C   UNL     1       3.592  -5.679   1.751  1.00  0.00     0.003 A 
BRANCH  21  25
ATOM     25  C   UNL     1       2.849  -9.100   3.128  1.00  0.00     0.254 C 
ATOM     26  O   UNL     1       3.204  -8.969   4.299  1.00  0.00    -0.269 OA
ATOM     27  N   UNL     1       2.515 -10.327   2.572  1.00  0.00    -0.334 N 
ATOM     28  C   UNL     1       2.564 -10.697   1.146  1.00  0.00     0.148 C 
ATOM     29  C   UNL     1       2.174 -11.419   3.475  1.00  0.00     0.148 C 
ATOM     30  C   UNL     1       1.374 -11.584   0.725  1.00  0.00     0.181 C 
ATOM     31  C   UNL     1       0.915 -12.130   2.977  1.00  0.00     0.181 C 
ATOM     32  O   UNL     1       1.139 -12.652   1.657  1.00  0.00    -0.378 OA
ENDBRANCH  21  25
ENDBRANCH  15  18
ENDBRANCH   9  14
ENDBRANCH   6   8
ENDBRANCH   5   6
ENDBRANCH   4   5
ENDBRANCH   3   4
ENDBRANCH   2   3
ENDBRANCH   1   2
BRANCH   1  33
ATOM     33  C   UNL     1      -7.321  -0.550   1.790  1.00  0.00     0.188 C 
BRANCH  33  34
ATOM     34  O   UNL     1      -6.343  -1.012   2.701  1.00  0.00    -0.376 OA
BRANCH  34  35
ATOM     35  C   UNL     1      -6.276  -0.383   3.956  1.00  0.00     0.202 C 
BRANCH  35  36
ATOM     36  C   UNL     1      -5.578   0.983   3.896  1.00  0.00     0.261 C 
BRANCH  36  37
ATOM     37  O   UNL     1      -4.162   0.907   3.585  1.00  0.00    -0.460 OA
BRANCH  37  38
ATOM     38  C   UNL     1      -3.716   1.391   2.356  1.00  0.00     0.338 C 
ATOM     39  O   UNL     1      -3.163   2.441   2.236  1.00  0.00    -0.246 OA
BRANCH  38  40
ATOM     40  C   UNL     1      -3.721   0.304   1.315  1.00  0.00     0.060 A 
ATOM     41  C   UNL     1      -3.730   0.380  -0.083  1.00  0.00     0.016 A 
ATOM     42  C   UNL     1      -3.732  -0.945   1.806  1.00  0.00     0.016 A 
ATOM     43  C   UNL     1      -3.981  -0.791  -0.948  1.00  0.00     0.010 A 
ATOM     44  C   UNL     1      -4.121  -1.977   0.964  1.00  0.00     0.010 A 
ATOM     45  C   UNL     1      -4.299  -2.063  -0.451  1.00  0.00    -0.014 A 
BRANCH  45  46
ATOM     46  C   UNL     1      -4.888  -3.410  -1.377  1.00  0.00     0.031 A 
ATOM     47  C   UNL     1      -4.336  -5.083  -1.582  1.00  0.00     0.074 A 
ATOM     48  C   UNL     1      -5.872  -3.112  -2.247  1.00  0.00     0.049 A 
ATOM     49  N   UNL     1      -3.896  -5.618  -2.709  1.00  0.00    -0.248 NA
ATOM     50  C   UNL     1      -4.093  -6.160  -0.526  1.00  0.00     0.031 C 
ATOM     51  C   UNL     1      -6.590  -4.008  -3.142  1.00  0.00     0.029 A 
ATOM     52  N   UNL     1      -6.306  -1.839  -2.610  1.00  0.00    -0.354 N 
ATOM     53  C   UNL     1      -3.502  -6.954  -2.443  1.00  0.00     0.074 A 
ATOM     54  C   UNL     1      -3.336  -7.098  -1.054  1.00  0.00     0.031 C 
ATOM     55  C   UNL     1      -7.129  -3.267  -4.128  1.00  0.00     0.029 A 
ATOM     56  C   UNL     1      -6.645  -1.903  -3.961  1.00  0.00     0.049 A 
ATOM     57  H   UNL     1      -6.363  -1.048  -2.026  1.00  0.00     0.167 HD
ATOM     58  C   UNL     1      -3.747  -8.027  -3.248  1.00  0.00     0.034 A 
ATOM     59  C   UNL     1      -5.946  -1.165  -4.869  1.00  0.00     0.034 A 
ATOM     60  C   UNL     1      -4.480  -7.570  -4.386  1.00  0.00     0.049 A 
ATOM     61  C   UNL     1      -5.319  -2.050  -5.923  1.00  0.00     0.074 A 
ATOM     62  C   UNL     1      -5.835  -7.503  -4.648  1.00  0.00     0.029 A 
ATOM     63  N   UNL     1      -3.851  -6.677  -5.223  1.00  0.00    -0.354 N 
ATOM     64  N   UNL     1      -5.064  -3.321  -5.758  1.00  0.00    -0.248 NA
ATOM     65  C   UNL     1      -4.987  -1.587  -7.263  1.00  0.00     0.031 C 
ATOM     66  C   UNL     1      -6.020  -6.524  -5.656  1.00  0.00     0.029 A 
ATOM     67  C   UNL     1      -4.774  -6.045  -6.017  1.00  0.00     0.049 A 
ATOM     68  H   UNL     1      -2.881  -6.515  -5.249  1.00  0.00     0.167 HD
ATOM     69  C   UNL     1      -4.592  -3.854  -6.932  1.00  0.00     0.074 A 
ATOM     70  C   UNL     1      -4.561  -2.724  -7.840  1.00  0.00     0.031 C 
ATOM     71  C   UNL     1      -4.284  -5.180  -7.062  1.00  0.00     0.034 A 
BRANCH  58  72
ATOM     72  C   UNL     1      -3.728  -9.463  -2.720  1.00  0.00     0.023 A 
ATOM     73  C   UNL     1      -4.805 -10.326  -2.997  1.00  0.00     0.031 A 
ATOM     74  C   UNL     1      -2.726  -9.994  -1.870  1.00  0.00     0.131 A 
ATOM     75  C   UNL     1      -4.917 -11.588  -2.377  1.00  0.00     0.055 A 
ATOM     76  C   UNL     1      -2.857 -11.234  -1.219  1.00  0.00     0.041 A 
ATOM     77  F   UNL     1      -1.610  -9.296  -1.594  1.00  0.00    -0.206 F 
ATOM     78  C   UNL     1      -3.966 -12.034  -1.462  1.00  0.00     0.022 A 
BRANCH  75  79
ATOM     79  S   UNL     1      -6.336 -12.644  -2.788  1.00  0.00     0.124 S 
ATOM     80  O   UNL     1      -7.459 -11.857  -2.291  1.00  0.00    -0.237 OA
ATOM     81  O   UNL     1      -6.223 -12.763  -4.238  1.00  0.00    -0.237 OA
ATOM     82  O   UNL     1      -6.070 -13.877  -2.047  1.00  0.00    -0.744 OA
ENDBRANCH  75  79
ENDBRANCH  58  72
BRANCH  59  83
ATOM     83  C   UNL     1      -5.431   0.160  -4.367  1.00  0.00     0.023 A 
ATOM     84  C   UNL     1      -6.310   0.974  -3.602  1.00  0.00     0.031 A 
ATOM     85  C   UNL     1      -4.078   0.528  -4.373  1.00  0.00     0.131 A 
ATOM     86  C   UNL     1      -5.827   2.003  -2.778  1.00  0.00     0.055 A 
ATOM     87  C   UNL     1      -3.604   1.607  -3.600  1.00  0.00     0.041 A 
ATOM     88  F   UNL     1      -3.169  -0.212  -5.022  1.00  0.00    -0.206 F 
ATOM     89  C   UNL     1      -4.475   2.337  -2.786  1.00  0.00     0.022 A 
BRANCH  86  90
ATOM     90  S   UNL     1      -6.910   2.731  -1.502  1.00  0.00     0.124 S 
ATOM     91  O   UNL     1      -7.175   4.058  -2.047  1.00  0.00    -0.237 OA
ATOM     92  O   UNL     1      -8.054   1.823  -1.458  1.00  0.00    -0.237 OA
ATOM     93  O   UNL     1      -6.079   2.696  -0.301  1.00  0.00    -0.744 OA
ENDBRANCH  86  90
ENDBRANCH  59  83
BRANCH  71  94
ATOM     94  C   UNL     1      -3.513  -5.851  -8.181  1.00  0.00     0.023 A 
ATOM     95  C   UNL     1      -2.834  -5.135  -9.162  1.00  0.00     0.031 A 
ATOM     96  C   UNL     1      -3.351  -7.267  -8.236  1.00  0.00     0.131 A 
ATOM     97  C   UNL     1      -2.122  -5.796 -10.175  1.00  0.00     0.055 A 
ATOM     98  C   UNL     1      -2.541  -7.913  -9.170  1.00  0.00     0.041 A 
ATOM     99  F   UNL     1      -3.966  -8.100  -7.384  1.00  0.00    -0.206 F 
ATOM    100  C   UNL     1      -1.935  -7.176 -10.167  1.00  0.00     0.022 A 
BRANCH  97 101
ATOM    101  S   UNL     1      -1.556  -4.803 -11.572  1.00  0.00     0.124 S 
ATOM    102  O   UNL     1      -2.812  -4.244 -12.066  1.00  0.00    -0.237 OA
ATOM    103  O   UNL     1      -0.649  -3.856 -10.933  1.00  0.00    -0.237 OA
ATOM    104  O   UNL     1      -0.922  -5.781 -12.453  1.00  0.00    -0.744 OA
ENDBRANCH  97 101
ENDBRANCH  71  94
ENDBRANCH  45  46
ENDBRANCH  38  40
ENDBRANCH  37  38
ENDBRANCH  36  37
ENDBRANCH  35  36
ENDBRANCH  34  35
ENDBRANCH  33  34
ENDBRANCH   1  33
TORSDOF 23
