REMARK SMILES CCN1C(=O)/C(=C/c2cc([N+](=O)[O-])ccc2O)S/C1=[NH+]\c1ccc(C(=O)OCCOCCOCCOC(=O)c2ccc(-c3c4nc(c(-c5cc(S(=O)(=O)[O-])ccc5F)c5ccc([nH]5)c(-c5cc(S(=O)(=O)[O-])ccc5F)c5nc(c(-c6cc(S(=O)(=O)[O-])ccc6F)c6ccc3[nH]6)C=C5)C=C4)cc2)cc1
REMARK SMILES IDX 31 1 30 2 29 3 28 4 27 5 25 6 26 7 24 8 21 9 22 10 103 11
REMARK SMILES IDX 23 12 102 13 20 14 3 15 4 16 19 17 5 18 6 19 18 20 7 21 2 23
REMARK SMILES IDX 1 24 8 25 9 26 16 27 10 28 15 29 14 30 17 31 11 33 12 34
REMARK SMILES IDX 13 35 32 36 33 37 34 38 35 39 36 40 37 41 38 42 39 43 40 44
REMARK SMILES IDX 101 45 41 46 100 47 42 48 43 49 44 50 94 51 45 52 99 53
REMARK SMILES IDX 93 54 95 55 46 56 98 57 92 58 91 59 47 61 79 62 59 63 78 64
REMARK SMILES IDX 60 65 63 66 77 67 96 68 61 69 62 70 76 72 97 73 64 74 48 75
REMARK SMILES IDX 49 76 57 77 50 78 56 79 58 80 55 81 51 82 52 83 53 84 54 85
REMARK SMILES IDX 80 86 81 87 89 88 82 89 88 90 90 91 87 92 83 93 84 94 85 95
REMARK SMILES IDX 86 96 65 97 66 98 74 99 67 100 73 101 75 102 72 103 68 104
REMARK SMILES IDX 69 105 70 106 71 107
REMARK H PARENT 20 22 17 32 95 60 63 71
REMARK Flexibility Score: inf
ROOT
ATOM      1  C   UNL     1       1.308   9.019   1.467  1.00  0.00     0.188 C 
ENDROOT
BRANCH   1   2
ATOM      2  O   UNL     1       1.372  10.237   2.197  1.00  0.00    -0.376 OA
BRANCH   2   3
ATOM      3  C   UNL     1       2.154  10.327   3.380  1.00  0.00     0.202 C 
BRANCH   3   4
ATOM      4  C   UNL     1       2.079   9.246   4.468  1.00  0.00     0.261 C 
BRANCH   4   5
ATOM      5  O   UNL     1       2.172   7.902   3.984  1.00  0.00    -0.460 OA
BRANCH   5   6
ATOM      6  C   UNL     1       1.061   7.144   4.181  1.00  0.00     0.338 C 
ATOM      7  O   UNL     1       0.068   7.452   4.798  1.00  0.00    -0.246 OA
BRANCH   6   8
ATOM      8  C   UNL     1       1.164   5.889   3.396  1.00  0.00     0.060 A 
ATOM      9  C   UNL     1       1.181   3.417   2.100  1.00  0.00     0.125 A 
ATOM     10  C   UNL     1       0.009   4.170   2.146  1.00  0.00     0.052 A 
ATOM     11  C   UNL     1       2.380   3.975   2.571  1.00  0.00     0.052 A 
ATOM     12  C   UNL     1      -0.005   5.402   2.799  1.00  0.00     0.020 A 
ATOM     13  C   UNL     1       2.370   5.197   3.247  1.00  0.00     0.020 A 
BRANCH   9  14
ATOM     14  N   UNL     1       1.104   2.077   1.687  1.00  0.00    -0.234 N 
ATOM     15  N   UNL     1       1.111  -0.200   2.314  1.00  0.00    -0.186 N 
ATOM     16  C   UNL     1       1.325  -1.054   3.387  1.00  0.00     0.348 C 
ATOM     17  C   UNL     1       1.218   1.145   2.580  1.00  0.00     0.324 C 
ATOM     18  O   UNL     1       1.299  -2.278   3.363  1.00  0.00    -0.240 OA
ATOM     19  C   UNL     1       1.588  -0.279   4.630  1.00  0.00     0.110 C 
ATOM     20  S   UNL     1       1.541   1.394   4.288  1.00  0.00     0.007 SA
ATOM     21  C   UNL     1       1.806  -0.841   5.829  1.00  0.00     0.036 C 
ATOM     22  H   UNL     1       0.967   1.850   0.739  1.00  0.00     0.313 HD
BRANCH  15  23
ATOM     23  C   UNL     1       0.616  -0.747   1.053  1.00  0.00     0.244 C 
ATOM     24  C   UNL     1       1.225  -0.178  -0.219  1.00  0.00     0.055 C 
ENDBRANCH  15  23
BRANCH  21  25
ATOM     25  C   UNL     1       1.996  -0.088   7.082  1.00  0.00     0.024 A 
ATOM     26  C   UNL     1       3.246  -0.117   7.715  1.00  0.00     0.097 A 
ATOM     27  C   UNL     1       0.963   0.678   7.653  1.00  0.00     0.123 A 
ATOM     28  C   UNL     1       3.446   0.623   8.892  1.00  0.00     0.270 A 
ATOM     29  C   UNL     1       1.168   1.425   8.814  1.00  0.00     0.054 A 
ATOM     30  C   UNL     1       2.415   1.400   9.439  1.00  0.00     0.089 A 
BRANCH  27  31
ATOM     31  O   UNL     1      -0.270   0.683   7.060  1.00  0.00    -0.507 OA
ATOM     32  H   UNL     1      -0.416   0.184   6.281  1.00  0.00     0.293 HD
ENDBRANCH  27  31
BRANCH  28  33
ATOM     33  N   UNL     1       4.751   0.581   9.566  1.00  0.00     0.062 N 
ATOM     34  O   UNL     1       5.649  -0.097   9.046  1.00  0.00    -0.258 OA
ATOM     35  O   UNL     1       4.877   1.219  10.621  1.00  0.00    -0.258 OA
ENDBRANCH  28  33
ENDBRANCH  21  25
ENDBRANCH   9  14
ENDBRANCH   6   8
ENDBRANCH   5   6
ENDBRANCH   4   5
ENDBRANCH   3   4
ENDBRANCH   2   3
ENDBRANCH   1   2
BRANCH   1  36
ATOM     36  C   UNL     1       2.607   8.284   1.074  1.00  0.00     0.188 C 
BRANCH  36  37
ATOM     37  O   UNL     1       3.791   8.832   1.600  1.00  0.00    -0.376 OA
BRANCH  37  38
ATOM     38  C   UNL     1       4.519   9.793   0.856  1.00  0.00     0.202 C 
BRANCH  38  39
ATOM     39  C   UNL     1       3.981  10.623  -0.330  1.00  0.00     0.261 C 
BRANCH  39  40
ATOM     40  O   UNL     1       2.682  10.332  -0.846  1.00  0.00    -0.460 OA
BRANCH  40  41
ATOM     41  C   UNL     1       2.639   9.540  -1.946  1.00  0.00     0.338 C 
ATOM     42  O   UNL     1       3.583   9.003  -2.497  1.00  0.00    -0.246 OA
BRANCH  41  43
ATOM     43  C   UNL     1       1.223   9.283  -2.275  1.00  0.00     0.060 A 
ATOM     44  C   UNL     1       0.722   7.982  -2.140  1.00  0.00     0.016 A 
ATOM     45  C   UNL     1       0.401  10.317  -2.729  1.00  0.00     0.016 A 
ATOM     46  C   UNL     1      -0.604   7.707  -2.480  1.00  0.00     0.010 A 
ATOM     47  C   UNL     1      -0.921  10.034  -3.088  1.00  0.00     0.010 A 
ATOM     48  C   UNL     1      -1.423   8.723  -2.989  1.00  0.00    -0.014 A 
BRANCH  48  49
ATOM     49  C   UNL     1      -2.744   8.388  -3.580  1.00  0.00     0.031 A 
ATOM     50  C   UNL     1      -2.843   8.236  -5.074  1.00  0.00     0.074 A 
ATOM     51  C   UNL     1      -3.832   8.213  -2.809  1.00  0.00     0.049 A 
ATOM     52  N   UNL     1      -3.893   8.018  -5.821  1.00  0.00    -0.248 NA
ATOM     53  C   UNL     1      -1.582   8.352  -5.823  1.00  0.00     0.031 C 
ATOM     54  C   UNL     1      -3.852   8.287  -1.349  1.00  0.00     0.029 A 
ATOM     55  N   UNL     1      -5.135   7.947  -3.150  1.00  0.00    -0.354 N 
ATOM     56  C   UNL     1      -3.423   7.976  -7.130  1.00  0.00     0.074 A 
ATOM     57  C   UNL     1      -1.999   8.228  -7.073  1.00  0.00     0.031 C 
ATOM     58  C   UNL     1      -5.111   8.086  -0.921  1.00  0.00     0.029 A 
ATOM     59  C   UNL     1      -5.992   7.911  -2.075  1.00  0.00     0.049 A 
ATOM     60  H   UNL     1      -5.428   7.797  -4.078  1.00  0.00     0.167 HD
ATOM     61  C   UNL     1      -4.116   7.743  -8.272  1.00  0.00     0.034 A 
ATOM     62  C   UNL     1      -7.335   7.784  -2.032  1.00  0.00     0.034 A 
ATOM     63  C   UNL     1      -5.539   7.511  -8.315  1.00  0.00     0.049 A 
ATOM     64  C   UNL     1      -8.100   7.624  -3.326  1.00  0.00     0.074 A 
ATOM     65  C   UNL     1      -6.337   7.252  -9.415  1.00  0.00     0.029 A 
ATOM     66  N   UNL     1      -6.382   7.528  -7.210  1.00  0.00    -0.354 N 
ATOM     67  N   UNL     1      -7.645   7.576  -4.558  1.00  0.00    -0.248 NA
ATOM     68  C   UNL     1      -9.560   7.495  -3.222  1.00  0.00     0.031 C 
ATOM     69  C   UNL     1      -7.668   7.191  -8.988  1.00  0.00     0.029 A 
ATOM     70  C   UNL     1      -7.694   7.322  -7.609  1.00  0.00     0.049 A 
ATOM     71  H   UNL     1      -6.090   7.666  -6.280  1.00  0.00     0.167 HD
ATOM     72  C   UNL     1      -8.761   7.376  -5.369  1.00  0.00     0.074 A 
ATOM     73  C   UNL     1      -9.906   7.301  -4.486  1.00  0.00     0.031 C 
ATOM     74  C   UNL     1      -8.832   7.258  -6.720  1.00  0.00     0.034 A 
BRANCH  61  75
ATOM     75  C   UNL     1      -3.345   7.787  -9.570  1.00  0.00     0.023 A 
ATOM     76  C   UNL     1      -2.321   6.867  -9.857  1.00  0.00     0.031 A 
ATOM     77  C   UNL     1      -3.619   8.785 -10.522  1.00  0.00     0.131 A 
ATOM     78  C   UNL     1      -1.562   7.008 -11.029  1.00  0.00     0.055 A 
ATOM     79  C   UNL     1      -2.915   8.869 -11.725  1.00  0.00     0.041 A 
ATOM     80  F   UNL     1      -4.568   9.706 -10.293  1.00  0.00    -0.206 F 
ATOM     81  C   UNL     1      -1.870   7.986 -11.978  1.00  0.00     0.022 A 
BRANCH  78  82
ATOM     82  S   UNL     1      -0.076   5.987 -11.229  1.00  0.00     0.124 S 
ATOM     83  O   UNL     1       0.695   6.353 -10.043  1.00  0.00    -0.237 OA
ATOM     84  O   UNL     1      -0.622   4.635 -11.244  1.00  0.00    -0.237 OA
ATOM     85  O   UNL     1       0.488   6.446 -12.496  1.00  0.00    -0.744 OA
ENDBRANCH  78  82
ENDBRANCH  61  75
BRANCH  62  86
ATOM     86  C   UNL     1      -8.062   7.851  -0.730  1.00  0.00     0.023 A 
ATOM     87  C   UNL     1      -8.808   6.760  -0.255  1.00  0.00     0.031 A 
ATOM     88  C   UNL     1      -8.073   9.035   0.029  1.00  0.00     0.131 A 
ATOM     89  C   UNL     1      -9.573   6.891   0.915  1.00  0.00     0.055 A 
ATOM     90  C   UNL     1      -8.789   9.142   1.223  1.00  0.00     0.041 A 
ATOM     91  F   UNL     1      -7.382  10.111  -0.381  1.00  0.00    -0.206 F 
ATOM     92  C   UNL     1      -9.556   8.069   1.665  1.00  0.00     0.022 A 
BRANCH  89  93
ATOM     93  S   UNL     1     -10.665   5.525   1.397  1.00  0.00     0.124 S 
ATOM     94  O   UNL     1     -11.525   5.405   0.226  1.00  0.00    -0.237 OA
ATOM     95  O   UNL     1      -9.716   4.439   1.611  1.00  0.00    -0.237 OA
ATOM     96  O   UNL     1     -11.320   6.023   2.605  1.00  0.00    -0.744 OA
ENDBRANCH  89  93
ENDBRANCH  62  86
BRANCH  74  97
ATOM     97  C   UNL     1     -10.191   6.981  -7.321  1.00  0.00     0.023 A 
ATOM     98  C   UNL     1     -11.236   7.919  -7.267  1.00  0.00     0.031 A 
ATOM     99  C   UNL     1     -10.442   5.751  -7.957  1.00  0.00     0.131 A 
ATOM    100  C   UNL     1     -12.498   7.592  -7.788  1.00  0.00     0.055 A 
ATOM    101  C   UNL     1     -11.680   5.456  -8.531  1.00  0.00     0.041 A 
ATOM    102  F   UNL     1      -9.483   4.814  -8.037  1.00  0.00    -0.206 F 
ATOM    103  C   UNL     1     -12.721   6.374  -8.436  1.00  0.00     0.022 A 
BRANCH 100 104
ATOM    104  S   UNL     1     -13.877   8.742  -7.524  1.00  0.00     0.124 S 
ATOM    105  O   UNL     1     -13.917   8.838  -6.069  1.00  0.00    -0.237 OA
ATOM    106  O   UNL     1     -13.427   9.937  -8.231  1.00  0.00    -0.237 OA
ATOM    107  O   UNL     1     -15.017   8.056  -8.132  1.00  0.00    -0.744 OA
ENDBRANCH 100 104
ENDBRANCH  74  97
ENDBRANCH  48  49
ENDBRANCH  41  43
ENDBRANCH  40  41
ENDBRANCH  39  40
ENDBRANCH  38  39
ENDBRANCH  37  38
ENDBRANCH  36  37
ENDBRANCH   1  36
TORSDOF 25
