REMARK SMILES Cc1ccc(C(=O)N2C[C@H](C(=O)OCCOCCOCCOC(=O)c3ccc(-c4c5nc(c(-c6cc(S(=O)(=O)[O-])ccc6F)c6ccc([nH]6)c(-c6cc(S(=O)(=O)[O-])ccc6F)c6nc(c(-c7cc(S(=O)(=O)[O-])ccc7F)c7ccc4[nH]7)C=C6)C=C5)cc3)Oc3ccccc32)o1
REMARK SMILES IDX 18 1 17 2 16 3 15 4 14 5 13 6 11 7 12 8 10 9 8 10 9 11 94 12
REMARK SMILES IDX 89 13 93 14 88 15 90 16 92 17 91 18 6 19 7 20 5 21 1 22 2 23
REMARK SMILES IDX 3 24 95 25 4 26 19 27 20 28 21 29 22 30 23 31 24 32 25 33
REMARK SMILES IDX 26 34 87 35 27 36 86 37 28 38 29 39 30 40 80 41 31 42 85 43
REMARK SMILES IDX 79 44 81 45 32 46 84 47 78 48 77 49 33 51 65 52 45 53 64 54
REMARK SMILES IDX 46 55 49 56 63 57 82 58 47 59 48 60 62 62 83 63 50 64 34 65
REMARK SMILES IDX 35 66 43 67 36 68 42 69 44 70 41 71 37 72 38 73 39 74 40 75
REMARK SMILES IDX 66 76 67 77 75 78 68 79 74 80 76 81 73 82 69 83 70 84 71 85
REMARK SMILES IDX 72 86 51 87 52 88 60 89 53 90 59 91 61 92 58 93 54 94 55 95
REMARK SMILES IDX 56 96 57 97
REMARK H PARENT 81 50 49 61
REMARK Flexibility Score: inf
ROOT
ATOM      1  C   UNL     1      -4.454  -0.420   4.817  1.00  0.00     0.188 C 
ENDROOT
BRANCH   1   2
ATOM      2  C   UNL     1      -5.720   0.424   4.966  1.00  0.00     0.188 C 
BRANCH   2   3
ATOM      3  O   UNL     1      -6.843  -0.230   5.548  1.00  0.00    -0.376 OA
BRANCH   3   4
ATOM      4  C   UNL     1      -7.249  -1.466   4.967  1.00  0.00     0.202 C 
BRANCH   4   5
ATOM      5  C   UNL     1      -7.734  -1.425   3.509  1.00  0.00     0.261 C 
BRANCH   5   6
ATOM      6  O   UNL     1      -6.798  -0.866   2.557  1.00  0.00    -0.460 OA
BRANCH   6   7
ATOM      7  C   UNL     1      -7.151   0.349   2.056  1.00  0.00     0.349 C 
ATOM      8  O   UNL     1      -8.179   0.943   2.378  1.00  0.00    -0.248 OA
BRANCH   7   9
ATOM      9  C   UNL     1      -6.184   0.935   1.042  1.00  0.00     0.302 C 
ATOM     10  N   UNL     1      -4.138   1.009  -0.315  1.00  0.00    -0.298 N 
ATOM     11  C   UNL     1      -4.835   0.266   0.767  1.00  0.00     0.183 C 
ATOM     12  C   UNL     1      -4.985   1.503  -1.363  1.00  0.00     0.087 A 
ATOM     13  C   UNL     1      -6.377   1.409  -1.238  1.00  0.00     0.144 A 
ATOM     14  C   UNL     1      -4.467   2.025  -2.556  1.00  0.00     0.030 A 
ATOM     15  O   UNL     1      -7.008   0.909  -0.137  1.00  0.00    -0.475 OA
ATOM     16  C   UNL     1      -7.229   1.817  -2.265  1.00  0.00     0.049 A 
ATOM     17  C   UNL     1      -5.319   2.426  -3.591  1.00  0.00     0.002 A 
ATOM     18  C   UNL     1      -6.700   2.324  -3.446  1.00  0.00     0.004 A 
BRANCH  10  19
ATOM     19  C   UNL     1      -2.806   1.443  -0.229  1.00  0.00     0.294 C 
ATOM     20  O   UNL     1      -2.521   2.622  -0.454  1.00  0.00    -0.265 OA
BRANCH  19  21
ATOM     21  C   UNL     1      -1.775   0.446   0.011  1.00  0.00     0.192 A 
ATOM     22  C   UNL     1       1.799   0.096   0.117  1.00  0.00     0.087 C 
ATOM     23  C   UNL     1       0.347  -0.184   0.128  1.00  0.00     0.101 A 
ATOM     24  C   UNL     1      -0.404  -1.335   0.193  1.00  0.00     0.046 A 
ATOM     25  O   UNL     1      -0.475   0.895   0.034  1.00  0.00    -0.456 OA
ATOM     26  C   UNL     1      -1.764  -0.933   0.116  1.00  0.00     0.056 A 
ENDBRANCH  19  21
ENDBRANCH  10  19
ENDBRANCH   7   9
ENDBRANCH   6   7
ENDBRANCH   5   6
ENDBRANCH   4   5
ENDBRANCH   3   4
ENDBRANCH   2   3
ENDBRANCH   1   2
BRANCH   1  27
ATOM     27  O   UNL     1      -4.639  -1.669   4.165  1.00  0.00    -0.376 OA
BRANCH  27  28
ATOM     28  C   UNL     1      -3.538  -2.583   4.163  1.00  0.00     0.202 C 
BRANCH  28  29
ATOM     29  C   UNL     1      -2.715  -2.736   5.461  1.00  0.00     0.261 C 
BRANCH  29  30
ATOM     30  O   UNL     1      -2.094  -1.533   5.962  1.00  0.00    -0.460 OA
BRANCH  30  31
ATOM     31  C   UNL     1      -1.393  -0.776   5.084  1.00  0.00     0.338 C 
ATOM     32  O   UNL     1      -1.014  -1.135   3.981  1.00  0.00    -0.246 OA
BRANCH  31  33
ATOM     33  C   UNL     1      -1.416   0.642   5.548  1.00  0.00     0.060 A 
ATOM     34  C   UNL     1      -1.489   1.649   4.575  1.00  0.00     0.016 A 
ATOM     35  C   UNL     1      -1.445   0.989   6.904  1.00  0.00     0.016 A 
ATOM     36  C   UNL     1      -1.522   2.996   4.948  1.00  0.00     0.010 A 
ATOM     37  C   UNL     1      -1.464   2.341   7.279  1.00  0.00     0.010 A 
ATOM     38  C   UNL     1      -1.450   3.353   6.301  1.00  0.00    -0.014 A 
BRANCH  38  39
ATOM     39  C   UNL     1      -1.061   4.746   6.660  1.00  0.00     0.031 A 
ATOM     40  C   UNL     1       0.401   5.009   6.929  1.00  0.00     0.074 A 
ATOM     41  C   UNL     1      -1.937   5.767   6.685  1.00  0.00     0.049 A 
ATOM     42  N   UNL     1       1.006   6.120   7.261  1.00  0.00    -0.248 NA
ATOM     43  C   UNL     1       1.300   3.849   6.809  1.00  0.00     0.031 C 
ATOM     44  C   UNL     1      -3.364   5.669   6.389  1.00  0.00     0.029 A 
ATOM     45  N   UNL     1      -1.745   7.100   6.969  1.00  0.00    -0.354 N 
ATOM     46  C   UNL     1       2.353   5.794   7.386  1.00  0.00     0.074 A 
ATOM     47  C   UNL     1       2.466   4.371   7.149  1.00  0.00     0.031 C 
ATOM     48  C   UNL     1      -3.919   6.890   6.508  1.00  0.00     0.029 A 
ATOM     49  C   UNL     1      -2.896   7.853   6.921  1.00  0.00     0.049 A 
ATOM     50  H   UNL     1      -0.864   7.480   7.188  1.00  0.00     0.167 HD
ATOM     51  C   UNL     1       3.406   6.603   7.658  1.00  0.00     0.034 A 
ATOM     52  C   UNL     1      -3.103   9.160   7.194  1.00  0.00     0.034 A 
ATOM     53  C   UNL     1       3.288   8.018   7.904  1.00  0.00     0.049 A 
ATOM     54  C   UNL     1      -1.927  10.027   7.597  1.00  0.00     0.074 A 
ATOM     55  C   UNL     1       4.291   8.927   8.191  1.00  0.00     0.029 A 
ATOM     56  N   UNL     1       2.096   8.730   7.906  1.00  0.00    -0.354 N 
ATOM     57  N   UNL     1      -0.659   9.706   7.714  1.00  0.00    -0.248 NA
ATOM     58  C   UNL     1      -2.213  11.439   7.894  1.00  0.00     0.031 C 
ATOM     59  C   UNL     1       3.699  10.168   8.446  1.00  0.00     0.029 A 
ATOM     60  C   UNL     1       2.336  10.059   8.224  1.00  0.00     0.049 A 
ATOM     61  H   UNL     1       1.210   8.348   7.711  1.00  0.00     0.167 HD
ATOM     62  C   UNL     1       0.005  10.885   8.054  1.00  0.00     0.074 A 
ATOM     63  C   UNL     1      -1.000  11.924   8.116  1.00  0.00     0.031 C 
ATOM     64  C   UNL     1       1.328  11.092   8.285  1.00  0.00     0.034 A 
BRANCH  51  65
ATOM     65  C   UNL     1       4.766   5.953   7.760  1.00  0.00     0.023 A 
ATOM     66  C   UNL     1       5.369   5.313   6.662  1.00  0.00     0.031 A 
ATOM     67  C   UNL     1       5.449   5.936   8.988  1.00  0.00     0.131 A 
ATOM     68  C   UNL     1       6.575   4.618   6.834  1.00  0.00     0.055 A 
ATOM     69  C   UNL     1       6.693   5.319   9.130  1.00  0.00     0.041 A 
ATOM     70  F   UNL     1       4.910   6.504  10.079  1.00  0.00    -0.206 F 
ATOM     71  C   UNL     1       7.256   4.641   8.054  1.00  0.00     0.022 A 
BRANCH  68  72
ATOM     72  S   UNL     1       7.162   3.550   5.490  1.00  0.00     0.124 S 
ATOM     73  O   UNL     1       6.034   2.635   5.326  1.00  0.00    -0.237 OA
ATOM     74  O   UNL     1       7.380   4.498   4.404  1.00  0.00    -0.237 OA
ATOM     75  O   UNL     1       8.371   2.940   6.039  1.00  0.00    -0.744 OA
ENDBRANCH  68  72
ENDBRANCH  51  65
BRANCH  52  76
ATOM     76  C   UNL     1      -4.479   9.742   7.148  1.00  0.00     0.023 A 
ATOM     77  C   UNL     1      -4.805  10.791   6.271  1.00  0.00     0.031 A 
ATOM     78  C   UNL     1      -5.469   9.312   8.050  1.00  0.00     0.131 A 
ATOM     79  C   UNL     1      -6.065  11.408   6.352  1.00  0.00     0.055 A 
ATOM     80  C   UNL     1      -6.741   9.888   8.085  1.00  0.00     0.041 A 
ATOM     81  F   UNL     1      -5.211   8.324   8.921  1.00  0.00    -0.206 F 
ATOM     82  C   UNL     1      -7.040  10.953   7.242  1.00  0.00     0.022 A 
BRANCH  79  83
ATOM     83  S   UNL     1      -6.379  12.889   5.349  1.00  0.00     0.124 S 
ATOM     84  O   UNL     1      -5.330  13.789   5.814  1.00  0.00    -0.237 OA
ATOM     85  O   UNL     1      -6.231  12.374   3.992  1.00  0.00    -0.237 OA
ATOM     86  O   UNL     1      -7.740  13.271   5.723  1.00  0.00    -0.744 OA
ENDBRANCH  79  83
ENDBRANCH  52  76
BRANCH  64  87
ATOM     87  C   UNL     1       1.778  12.510   8.558  1.00  0.00     0.023 A 
ATOM     88  C   UNL     1       1.380  13.216   9.707  1.00  0.00     0.031 A 
ATOM     89  C   UNL     1       2.625  13.166   7.645  1.00  0.00     0.131 A 
ATOM     90  C   UNL     1       1.781  14.550   9.884  1.00  0.00     0.055 A 
ATOM     91  C   UNL     1       3.074  14.470   7.859  1.00  0.00     0.041 A 
ATOM     92  F   UNL     1       3.038  12.545   6.528  1.00  0.00    -0.206 F 
ATOM     93  C   UNL     1       2.640  15.175   8.977  1.00  0.00     0.022 A 
BRANCH  90  94
ATOM     94  S   UNL     1       1.084  15.497  11.266  1.00  0.00     0.124 S 
ATOM     95  O   UNL     1      -0.350  15.384  11.020  1.00  0.00    -0.237 OA
ATOM     96  O   UNL     1       1.590  14.773  12.428  1.00  0.00    -0.237 OA
ATOM     97  O   UNL     1       1.641  16.836  11.081  1.00  0.00    -0.744 OA
ENDBRANCH  90  94
ENDBRANCH  64  87
ENDBRANCH  38  39
ENDBRANCH  31  33
ENDBRANCH  30  31
ENDBRANCH  29  30
ENDBRANCH  28  29
ENDBRANCH  27  28
ENDBRANCH   1  27
TORSDOF 22
