REMARK SMILES O=C(OCCOCCOCCOC(=O)c1cc(NC(=S)NC(=O)c2ccccc2F)ccc1Cl)c1ccc(-c2c3nc(c(-c4cc(S(=O)(=O)[O-])ccc4F)c4ccc([nH]4)c(-c4cc(S(=O)(=O)[O-])ccc4F)c4nc(c(-c5cc(S(=O)(=O)[O-])ccc5F)c5ccc2[nH]5)C=C4)C=C3)cc1
REMARK SMILES IDX 8 1 7 2 6 3 5 4 4 5 3 6 2 7 1 8 35 9 36 10 97 11 37 12 96 13
REMARK SMILES IDX 38 14 39 15 40 16 90 17 41 18 95 19 89 20 91 21 42 22 94 23
REMARK SMILES IDX 88 24 87 25 43 27 75 28 55 29 74 30 56 31 59 32 73 33 92 34
REMARK SMILES IDX 57 35 58 36 72 38 93 39 60 40 44 41 45 42 53 43 46 44 52 45
REMARK SMILES IDX 54 46 51 47 47 48 48 49 49 50 50 51 76 52 77 53 85 54 78 55
REMARK SMILES IDX 84 56 86 57 83 58 79 59 80 60 81 61 82 62 61 63 62 64 70 65
REMARK SMILES IDX 63 66 69 67 71 68 68 69 64 70 65 71 66 72 67 73 9 74 10 75
REMARK SMILES IDX 11 76 12 77 13 78 14 79 15 80 16 81 33 82 17 83 32 84 34 85
REMARK SMILES IDX 31 86 18 87 19 89 20 90 21 91 22 92 23 94 24 95 25 96 29 97
REMARK SMILES IDX 26 98 28 99 30 100 27 101
REMARK H PARENT 91 26 59 37 18 88 21 93
REMARK Flexibility Score: inf
ROOT
ATOM      1  C   UNL     1       2.519   0.796  -3.066  1.00  0.00     0.188 C 
ENDROOT
BRANCH   1   2
ATOM      2  C   UNL     1       3.072   0.111  -1.812  1.00  0.00     0.188 C 
BRANCH   2   3
ATOM      3  O   UNL     1       4.447   0.372  -1.556  1.00  0.00    -0.376 OA
BRANCH   3   4
ATOM      4  C   UNL     1       5.292  -0.700  -1.138  1.00  0.00     0.202 C 
BRANCH   4   5
ATOM      5  C   UNL     1       4.760  -1.731  -0.126  1.00  0.00     0.261 C 
BRANCH   5   6
ATOM      6  O   UNL     1       3.388  -1.603   0.308  1.00  0.00    -0.460 OA
BRANCH   6   7
ATOM      7  C   UNL     1       2.790  -0.842   1.252  1.00  0.00     0.338 C 
ATOM      8  O   UNL     1       1.603  -1.040   1.506  1.00  0.00    -0.246 OA
BRANCH   7   9
ATOM      9  C   UNL     1       3.485   0.263   1.964  1.00  0.00     0.060 A 
ATOM     10  C   UNL     1       4.576   0.941   1.437  1.00  0.00     0.016 A 
ATOM     11  C   UNL     1       2.886   0.810   3.108  1.00  0.00     0.016 A 
ATOM     12  C   UNL     1       5.190   1.998   2.066  1.00  0.00     0.010 A 
ATOM     13  C   UNL     1       3.411   1.973   3.690  1.00  0.00     0.010 A 
ATOM     14  C   UNL     1       4.616   2.518   3.206  1.00  0.00    -0.014 A 
BRANCH  14  15
ATOM     15  C   UNL     1       5.458   3.418   4.008  1.00  0.00     0.031 A 
ATOM     16  C   UNL     1       5.962   2.827   5.287  1.00  0.00     0.074 A 
ATOM     17  C   UNL     1       5.915   4.598   3.539  1.00  0.00     0.049 A 
ATOM     18  N   UNL     1       6.701   3.373   6.205  1.00  0.00    -0.248 NA
ATOM     19  C   UNL     1       5.629   1.409   5.547  1.00  0.00     0.031 C 
ATOM     20  C   UNL     1       5.714   5.119   2.185  1.00  0.00     0.029 A 
ATOM     21  N   UNL     1       6.661   5.578   4.132  1.00  0.00    -0.354 N 
ATOM     22  C   UNL     1       6.921   2.367   7.132  1.00  0.00     0.074 A 
ATOM     23  C   UNL     1       6.178   1.204   6.728  1.00  0.00     0.031 C 
ATOM     24  C   UNL     1       6.195   6.365   2.088  1.00  0.00     0.029 A 
ATOM     25  C   UNL     1       6.815   6.706   3.354  1.00  0.00     0.049 A 
ATOM     26  H   UNL     1       7.052   5.487   5.031  1.00  0.00     0.167 HD
ATOM     27  C   UNL     1       7.733   2.404   8.204  1.00  0.00     0.034 A 
ATOM     28  C   UNL     1       7.415   7.878   3.627  1.00  0.00     0.034 A 
ATOM     29  C   UNL     1       8.491   3.566   8.548  1.00  0.00     0.049 A 
ATOM     30  C   UNL     1       8.151   7.963   4.931  1.00  0.00     0.074 A 
ATOM     31  C   UNL     1       9.305   3.757   9.642  1.00  0.00     0.029 A 
ATOM     32  N   UNL     1       8.521   4.734   7.797  1.00  0.00    -0.354 N 
ATOM     33  N   UNL     1       8.301   7.024   5.837  1.00  0.00    -0.248 NA
ATOM     34  C   UNL     1       8.820   9.227   5.244  1.00  0.00     0.031 C 
ATOM     35  C   UNL     1       9.757   5.074   9.602  1.00  0.00     0.029 A 
ATOM     36  C   UNL     1       9.300   5.675   8.435  1.00  0.00     0.049 A 
ATOM     37  H   UNL     1       8.057   4.869   6.939  1.00  0.00     0.167 HD
ATOM     38  C   UNL     1       9.111   7.572   6.818  1.00  0.00     0.074 A 
ATOM     39  C   UNL     1       9.418   8.925   6.389  1.00  0.00     0.031 C 
ATOM     40  C   UNL     1       9.566   7.011   7.964  1.00  0.00     0.034 A 
BRANCH  27  41
ATOM     41  C   UNL     1       7.780   1.190   9.076  1.00  0.00     0.023 A 
ATOM     42  C   UNL     1       8.380  -0.006   8.650  1.00  0.00     0.031 A 
ATOM     43  C   UNL     1       7.195   1.234  10.350  1.00  0.00     0.131 A 
ATOM     44  C   UNL     1       8.367  -1.123   9.494  1.00  0.00     0.055 A 
ATOM     45  C   UNL     1       7.239   0.138  11.209  1.00  0.00     0.041 A 
ATOM     46  F   UNL     1       6.567   2.342  10.774  1.00  0.00    -0.206 F 
ATOM     47  C   UNL     1       7.827  -1.050  10.782  1.00  0.00     0.022 A 
BRANCH  44  48
ATOM     48  S   UNL     1       9.014  -2.696   8.867  1.00  0.00     0.124 S 
ATOM     49  O   UNL     1       8.055  -3.010   7.811  1.00  0.00    -0.237 OA
ATOM     50  O   UNL     1      10.354  -2.332   8.421  1.00  0.00    -0.237 OA
ATOM     51  O   UNL     1       8.963  -3.575  10.033  1.00  0.00    -0.744 OA
ENDBRANCH  44  48
ENDBRANCH  27  41
BRANCH  28  52
ATOM     52  C   UNL     1       7.350   9.011   2.663  1.00  0.00     0.023 A 
ATOM     53  C   UNL     1       8.499   9.498   2.024  1.00  0.00     0.031 A 
ATOM     54  C   UNL     1       6.119   9.630   2.365  1.00  0.00     0.131 A 
ATOM     55  C   UNL     1       8.402  10.593   1.148  1.00  0.00     0.055 A 
ATOM     56  C   UNL     1       6.023  10.697   1.470  1.00  0.00     0.041 A 
ATOM     57  F   UNL     1       4.983   9.191   2.932  1.00  0.00    -0.206 F 
ATOM     58  C   UNL     1       7.172  11.191   0.862  1.00  0.00     0.022 A 
BRANCH  55  59
ATOM     59  S   UNL     1       9.922  11.260   0.418  1.00  0.00     0.124 S 
ATOM     60  O   UNL     1      10.671  11.656   1.605  1.00  0.00    -0.237 OA
ATOM     61  O   UNL     1      10.437  10.107  -0.312  1.00  0.00    -0.237 OA
ATOM     62  O   UNL     1       9.445  12.361  -0.416  1.00  0.00    -0.744 OA
ENDBRANCH  55  59
ENDBRANCH  28  52
BRANCH  40  63
ATOM     63  C   UNL     1      10.435   7.857   8.841  1.00  0.00     0.023 A 
ATOM     64  C   UNL     1       9.887   8.918   9.571  1.00  0.00     0.031 A 
ATOM     65  C   UNL     1      11.781   7.511   9.046  1.00  0.00     0.131 A 
ATOM     66  C   UNL     1      10.690   9.612  10.479  1.00  0.00     0.055 A 
ATOM     67  C   UNL     1      12.560   8.169   9.993  1.00  0.00     0.041 A 
ATOM     68  F   UNL     1      12.335   6.489   8.374  1.00  0.00    -0.206 F 
ATOM     69  C   UNL     1      12.015   9.229  10.714  1.00  0.00     0.022 A 
BRANCH  66  70
ATOM     70  S   UNL     1       9.976  11.033  11.341  1.00  0.00     0.124 S 
ATOM     71  O   UNL     1       9.698  11.946  10.236  1.00  0.00    -0.237 OA
ATOM     72  O   UNL     1       8.807  10.452  11.994  1.00  0.00    -0.237 OA
ATOM     73  O   UNL     1      11.044  11.456  12.244  1.00  0.00    -0.744 OA
ENDBRANCH  66  70
ENDBRANCH  40  63
ENDBRANCH  14  15
ENDBRANCH   7   9
ENDBRANCH   6   7
ENDBRANCH   5   6
ENDBRANCH   4   5
ENDBRANCH   3   4
ENDBRANCH   2   3
ENDBRANCH   1   2
BRANCH   1  74
ATOM     74  O   UNL     1       3.299   0.671  -4.241  1.00  0.00    -0.376 OA
BRANCH  74  75
ATOM     75  C   UNL     1       4.637   1.142  -4.110  1.00  0.00     0.202 C 
BRANCH  75  76
ATOM     76  C   UNL     1       4.937   2.556  -3.511  1.00  0.00     0.261 C 
BRANCH  76  77
ATOM     77  O   UNL     1       4.254   3.049  -2.299  1.00  0.00    -0.460 OA
BRANCH  77  78
ATOM     78  C   UNL     1       3.430   4.119  -2.509  1.00  0.00     0.339 C 
ATOM     79  O   UNL     1       3.163   4.523  -3.641  1.00  0.00    -0.246 OA
BRANCH  78  80
ATOM     80  C   UNL     1       2.839   4.938  -1.290  1.00  0.00     0.080 A 
ATOM     81  C   UNL     1       1.158   4.848  -0.176  1.00  0.00     0.043 A 
ATOM     82  C   UNL     1       3.367   6.637  -1.684  1.00  0.00     0.055 A 
ATOM     83  C   UNL     1       0.212   6.179   0.252  1.00  0.00     0.041 A 
ATOM     84  C   UNL     1       2.352   7.996  -1.110  1.00  0.00     0.023 A 
ATOM     85  Cl  UNL     1       4.855   6.979  -2.475  1.00  0.00    -0.083 Cl
ATOM     86  C   UNL     1       0.819   7.755  -0.187  1.00  0.00     0.028 A 
BRANCH  83  87
ATOM     87  N   UNL     1      -1.012   5.711   0.759  1.00  0.00    -0.332 N 
ATOM     88  H   UNL     1      -1.607   6.402   1.131  1.00  0.00     0.169 HD
BRANCH  87  89
ATOM     89  C   UNL     1      -1.506   4.410   0.812  1.00  0.00     0.177 C 
ATOM     90  S   UNL     1      -2.847   4.152   1.797  1.00  0.00    -0.040 S 
BRANCH  89  91
ATOM     91  N   UNL     1      -1.025   3.238   0.108  1.00  0.00    -0.299 N 
ATOM     92  C   UNL     1      -0.081   2.486  -0.782  1.00  0.00     0.260 C 
ATOM     93  H   UNL     1      -1.688   2.552   0.350  1.00  0.00     0.172 HD
ATOM     94  O   UNL     1      -0.332   1.327  -1.105  1.00  0.00    -0.269 OA
BRANCH  92  95
ATOM     95  C   UNL     1       1.227   3.087  -1.270  1.00  0.00     0.075 A 
ATOM     96  C   UNL     1       0.797   4.504  -2.201  1.00  0.00     0.017 A 
ATOM     97  C   UNL     1       2.373   3.112   0.110  1.00  0.00     0.135 A 
ATOM     98  C   UNL     1       1.332   6.085  -1.577  1.00  0.00     0.001 A 
ATOM     99  C   UNL     1       2.951   4.617   0.860  1.00  0.00     0.040 A 
ATOM    100  F   UNL     1       2.072   2.176   1.020  1.00  0.00    -0.206 F 
ATOM    101  C   UNL     1       2.427   6.170   0.121  1.00  0.00     0.003 A 
ENDBRANCH  92  95
ENDBRANCH  89  91
ENDBRANCH  87  89
ENDBRANCH  83  87
ENDBRANCH  78  80
ENDBRANCH  77  78
ENDBRANCH  76  77
ENDBRANCH  75  76
ENDBRANCH  74  75
ENDBRANCH   1  74
TORSDOF 24
