REMARK SMILES CC[C@@](C)(NC(=O)Nc1cccc(C[NH2+]C)c1)C(=O)OCCOCCOCCOC(=O)c1ccc(-c2c3nc(c(-c4cc(S(=O)(=O)[O-])ccc4F)c4ccc([nH]4)c(-c4cc(S(=O)(=O)[O-])ccc4F)c4nc(c(-c5cc(S(=O)(=O)[O-])ccc5F)c5ccc2[nH]5)C=C4)C=C3)cc1
REMARK SMILES IDX 24 1 23 2 22 3 21 4 20 5 18 6 19 7 3 8 4 9 2 10 1 11 5 12
REMARK SMILES IDX 6 13 7 15 8 16 9 18 10 19 17 20 11 21 13 22 12 23 14 24
REMARK SMILES IDX 15 25 16 26 25 29 26 30 27 31 28 32 29 33 30 34 31 35 32 36
REMARK SMILES IDX 33 37 94 38 34 39 93 40 35 41 36 42 37 43 87 44 38 45 92 46
REMARK SMILES IDX 86 47 88 48 39 49 91 50 85 51 84 52 40 54 72 55 52 56 71 57
REMARK SMILES IDX 53 58 56 59 70 60 89 61 54 62 55 63 69 65 90 66 57 67 41 68
REMARK SMILES IDX 42 69 50 70 43 71 49 72 51 73 48 74 44 75 45 76 46 77 47 78
REMARK SMILES IDX 73 79 74 80 82 81 75 82 81 83 83 84 80 85 76 86 77 87 78 88
REMARK SMILES IDX 79 89 58 90 59 91 67 92 60 93 66 94 68 95 65 96 61 97 62 98
REMARK SMILES IDX 63 99 64 100
REMARK H PARENT 5 14 8 17 15 27 15 28 88 53 56 64
REMARK Flexibility Score: inf
ROOT
ATOM      1  C   UNL     1       5.119  -3.697  -2.493  1.00  0.00     0.188 C 
ENDROOT
BRANCH   1   2
ATOM      2  O   UNL     1       4.311  -4.507  -1.628  1.00  0.00    -0.376 OA
BRANCH   2   3
ATOM      3  C   UNL     1       4.754  -4.524  -0.264  1.00  0.00     0.202 C 
BRANCH   3   4
ATOM      4  C   UNL     1       3.692  -5.135   0.701  1.00  0.00     0.261 C 
BRANCH   4   5
ATOM      5  O   UNL     1       2.368  -4.588   0.460  1.00  0.00    -0.462 OA
BRANCH   5   6
ATOM      6  C   UNL     1       1.513  -4.032   1.387  1.00  0.00     0.331 C 
ATOM      7  O   UNL     1       1.661  -4.167   2.599  1.00  0.00    -0.249 OA
BRANCH   6   8
ATOM      8  C   UNL     1       0.331  -3.122   0.673  1.00  0.00     0.136 C 
ATOM      9  C   UNL     1      -0.976  -3.668   1.279  1.00  0.00     0.047 C 
BRANCH   8  10
ATOM     10  C   UNL     1       0.045  -1.567   0.460  1.00  0.00     0.037 C 
ATOM     11  C   UNL     1       0.269  -0.440   1.444  1.00  0.00     0.007 C 
ENDBRANCH   8  10
BRANCH   8  12
ATOM     12  N   UNL     1       0.549  -3.527  -0.695  1.00  0.00    -0.322 N 
ATOM     13  C   UNL     1       1.538  -3.074  -1.488  1.00  0.00     0.320 C 
ATOM     14  H   UNL     1      -0.074  -4.186  -1.078  1.00  0.00     0.166 HD
ATOM     15  O   UNL     1       1.472  -3.438  -2.666  1.00  0.00    -0.248 OA
ATOM     16  N   UNL     1       2.528  -2.203  -1.129  1.00  0.00    -0.308 N 
ATOM     17  H   UNL     1       2.938  -1.895  -1.969  1.00  0.00     0.171 HD
BRANCH  16  18
ATOM     18  C   UNL     1       3.236  -1.538  -0.073  1.00  0.00     0.043 A 
ATOM     19  C   UNL     1       4.240  -0.655  -0.489  1.00  0.00     0.026 A 
ATOM     20  C   UNL     1       3.115  -1.645   1.313  1.00  0.00     0.035 A 
ATOM     21  C   UNL     1       5.056   0.041   0.423  1.00  0.00     0.003 A 
ATOM     22  C   UNL     1       3.908  -0.963   2.267  1.00  0.00     0.008 A 
ATOM     23  C   UNL     1       4.901  -0.120   1.800  1.00  0.00     0.010 A 
BRANCH  22  24
ATOM     24  C   UNL     1       3.572  -1.112   3.743  1.00  0.00     0.297 C 
BRANCH  24  25
ATOM     25  N   UNL     1       4.128  -2.335   4.334  1.00  0.00    -0.345 N 
ATOM     26  C   UNL     1       3.367  -2.721   5.524  1.00  0.00     0.331 C 
ATOM     27  H   UNL     1       5.100  -2.170   4.596  1.00  0.00     0.346 HD
ATOM     28  H   UNL     1       4.073  -3.088   3.648  1.00  0.00     0.346 HD
ENDBRANCH  24  25
ENDBRANCH  22  24
ENDBRANCH  16  18
ENDBRANCH   8  12
ENDBRANCH   6   8
ENDBRANCH   5   6
ENDBRANCH   4   5
ENDBRANCH   3   4
ENDBRANCH   2   3
ENDBRANCH   1   2
BRANCH   1  29
ATOM     29  C   UNL     1       4.378  -3.290  -3.773  1.00  0.00     0.188 C 
BRANCH  29  30
ATOM     30  O   UNL     1       3.776  -4.377  -4.453  1.00  0.00    -0.376 OA
BRANCH  30  31
ATOM     31  C   UNL     1       4.625  -5.141  -5.285  1.00  0.00     0.202 C 
BRANCH  31  32
ATOM     32  C   UNL     1       5.242  -4.365  -6.461  1.00  0.00     0.261 C 
BRANCH  32  33
ATOM     33  O   UNL     1       4.676  -3.068  -6.704  1.00  0.00    -0.460 OA
BRANCH  33  34
ATOM     34  C   UNL     1       3.339  -3.010  -6.942  1.00  0.00     0.338 C 
ATOM     35  O   UNL     1       2.623  -3.947  -7.259  1.00  0.00    -0.246 OA
BRANCH  34  36
ATOM     36  C   UNL     1       2.881  -1.633  -6.624  1.00  0.00     0.060 A 
ATOM     37  C   UNL     1       1.677  -1.446  -5.929  1.00  0.00     0.016 A 
ATOM     38  C   UNL     1       3.635  -0.517  -7.010  1.00  0.00     0.016 A 
ATOM     39  C   UNL     1       1.199  -0.150  -5.673  1.00  0.00     0.010 A 
ATOM     40  C   UNL     1       3.156   0.774  -6.757  1.00  0.00     0.010 A 
ATOM     41  C   UNL     1       1.915   0.969  -6.126  1.00  0.00    -0.014 A 
BRANCH  41  42
ATOM     42  C   UNL     1       1.283   2.318  -6.210  1.00  0.00     0.031 A 
ATOM     43  C   UNL     1       0.623   2.690  -7.515  1.00  0.00     0.074 A 
ATOM     44  C   UNL     1       1.338   3.220  -5.210  1.00  0.00     0.049 A 
ATOM     45  N   UNL     1       0.163   3.845  -7.922  1.00  0.00    -0.248 NA
ATOM     46  C   UNL     1       0.481   1.604  -8.500  1.00  0.00     0.031 C 
ATOM     47  C   UNL     1       1.895   2.983  -3.881  1.00  0.00     0.029 A 
ATOM     48  N   UNL     1       0.935   4.536  -5.173  1.00  0.00    -0.354 N 
ATOM     49  C   UNL     1      -0.310   3.628  -9.213  1.00  0.00     0.074 A 
ATOM     50  C   UNL     1      -0.058   2.239  -9.528  1.00  0.00     0.031 C 
ATOM     51  C   UNL     1       1.821   4.123  -3.167  1.00  0.00     0.029 A 
ATOM     52  C   UNL     1       1.256   5.185  -4.001  1.00  0.00     0.049 A 
ATOM     53  H   UNL     1       0.460   4.973  -5.916  1.00  0.00     0.167 HD
ATOM     54  C   UNL     1      -0.899   4.504 -10.062  1.00  0.00     0.034 A 
ATOM     55  C   UNL     1       1.143   6.489  -3.659  1.00  0.00     0.034 A 
ATOM     56  C   UNL     1      -1.134   5.891  -9.753  1.00  0.00     0.049 A 
ATOM     57  C   UNL     1       0.574   7.473  -4.664  1.00  0.00     0.074 A 
ATOM     58  C   UNL     1      -1.734   6.858 -10.540  1.00  0.00     0.029 A 
ATOM     59  N   UNL     1      -0.764   6.515  -8.570  1.00  0.00    -0.354 N 
ATOM     60  N   UNL     1       0.122   7.252  -5.878  1.00  0.00    -0.248 NA
ATOM     61  C   UNL     1       0.505   8.883  -4.252  1.00  0.00     0.031 C 
ATOM     62  C   UNL     1      -1.661   8.080  -9.865  1.00  0.00     0.029 A 
ATOM     63  C   UNL     1      -1.089   7.861  -8.622  1.00  0.00     0.049 A 
ATOM     64  H   UNL     1      -0.335   6.066  -7.806  1.00  0.00     0.167 HD
ATOM     65  C   UNL     1      -0.314   8.489  -6.354  1.00  0.00     0.074 A 
ATOM     66  C   UNL     1      -0.087   9.447  -5.295  1.00  0.00     0.031 C 
ATOM     67  C   UNL     1      -0.855   8.808  -7.558  1.00  0.00     0.034 A 
BRANCH  54  68
ATOM     68  C   UNL     1      -1.273   3.996 -11.431  1.00  0.00     0.023 A 
ATOM     69  C   UNL     1      -2.272   3.025 -11.615  1.00  0.00     0.031 A 
ATOM     70  C   UNL     1      -0.602   4.479 -12.569  1.00  0.00     0.131 A 
ATOM     71  C   UNL     1      -2.534   2.527 -12.900  1.00  0.00     0.055 A 
ATOM     72  C   UNL     1      -0.918   4.032 -13.853  1.00  0.00     0.041 A 
ATOM     73  F   UNL     1       0.379   5.388 -12.450  1.00  0.00    -0.206 F 
ATOM     74  C   UNL     1      -1.881   3.043 -14.023  1.00  0.00     0.022 A 
BRANCH  71  75
ATOM     75  S   UNL     1      -3.656   1.114 -13.074  1.00  0.00     0.124 S 
ATOM     76  O   UNL     1      -2.967   0.092 -12.290  1.00  0.00    -0.237 OA
ATOM     77  O   UNL     1      -4.899   1.625 -12.506  1.00  0.00    -0.237 OA
ATOM     78  O   UNL     1      -3.683   0.872 -14.515  1.00  0.00    -0.744 OA
ENDBRANCH  71  75
ENDBRANCH  54  68
BRANCH  55  79
ATOM     79  C   UNL     1       1.638   6.989  -2.337  1.00  0.00     0.023 A 
ATOM     80  C   UNL     1       0.775   7.624  -1.427  1.00  0.00     0.031 A 
ATOM     81  C   UNL     1       3.007   6.945  -2.015  1.00  0.00     0.131 A 
ATOM     82  C   UNL     1       1.296   8.243  -0.277  1.00  0.00     0.055 A 
ATOM     83  C   UNL     1       3.511   7.506  -0.840  1.00  0.00     0.041 A 
ATOM     84  F   UNL     1       3.884   6.364  -2.850  1.00  0.00    -0.206 F 
ATOM     85  C   UNL     1       2.656   8.176   0.029  1.00  0.00     0.022 A 
BRANCH  82  86
ATOM     86  S   UNL     1       0.186   9.245   0.754  1.00  0.00     0.124 S 
ATOM     87  O   UNL     1      -0.319  10.215  -0.211  1.00  0.00    -0.237 OA
ATOM     88  O   UNL     1      -0.770   8.249   1.225  1.00  0.00    -0.237 OA
ATOM     89  O   UNL     1       1.074   9.788   1.780  1.00  0.00    -0.744 OA
ENDBRANCH  82  86
ENDBRANCH  55  79
BRANCH  67  90
ATOM     90  C   UNL     1      -1.287  10.240  -7.773  1.00  0.00     0.023 A 
ATOM     91  C   UNL     1      -0.360  11.295  -7.838  1.00  0.00     0.031 A 
ATOM     92  C   UNL     1      -2.651  10.551  -7.922  1.00  0.00     0.131 A 
ATOM     93  C   UNL     1      -0.811  12.615  -7.994  1.00  0.00     0.055 A 
ATOM     94  C   UNL     1      -3.090  11.858  -8.139  1.00  0.00     0.041 A 
ATOM     95  F   UNL     1      -3.583   9.585  -7.870  1.00  0.00    -0.206 F 
ATOM     96  C   UNL     1      -2.169  12.901  -8.163  1.00  0.00     0.022 A 
BRANCH  93  97
ATOM     97  S   UNL     1       0.393  13.968  -7.889  1.00  0.00     0.124 S 
ATOM     98  O   UNL     1       0.958  13.770  -6.559  1.00  0.00    -0.237 OA
ATOM     99  O   UNL     1       1.284  13.681  -9.009  1.00  0.00    -0.237 OA
ATOM    100  O   UNL     1      -0.426  15.169  -8.042  1.00  0.00    -0.744 OA
ENDBRANCH  93  97
ENDBRANCH  67  90
ENDBRANCH  41  42
ENDBRANCH  34  36
ENDBRANCH  33  34
ENDBRANCH  32  33
ENDBRANCH  31  32
ENDBRANCH  30  31
ENDBRANCH  29  30
ENDBRANCH   1  29
TORSDOF 25
