REMARK SMILES Cn1ccc(S(=O)(=O)N2[C@@H](C(=O)OCCOCCOCCOC(=O)c3ccc(-c4c5nc(c(-c6cc(S(=O)(=O)[O-])ccc6F)c6ccc([nH]6)c(-c6cc(S(=O)(=O)[O-])ccc6F)c6nc(c(-c7cc(S(=O)(=O)[O-])ccc7F)c7ccc4[nH]7)C=C6)C=C5)cc3)C[C@H]3CCCC[C@H]32)c1
REMARK SMILES IDX 18 1 17 2 16 3 15 4 14 5 13 6 11 7 12 8 10 9 9 10 94 11
REMARK SMILES IDX 88 12 89 13 93 14 90 15 92 16 91 17 6 18 7 19 8 20 5 21 1 22
REMARK SMILES IDX 2 23 3 24 95 25 4 26 19 27 20 28 21 29 22 30 23 31 24 32
REMARK SMILES IDX 25 33 26 34 87 35 27 36 86 37 28 38 29 39 30 40 80 41 31 42
REMARK SMILES IDX 85 43 79 44 81 45 32 46 84 47 78 48 77 49 33 51 65 52 45 53
REMARK SMILES IDX 64 54 46 55 49 56 63 57 82 58 47 59 48 60 62 62 83 63 50 64
REMARK SMILES IDX 34 65 35 66 43 67 36 68 42 69 44 70 41 71 37 72 38 73 39 74
REMARK SMILES IDX 40 75 66 76 67 77 75 78 68 79 74 80 76 81 73 82 69 83 70 84
REMARK SMILES IDX 71 85 72 86 51 87 52 88 60 89 53 90 59 91 61 92 58 93 54 94
REMARK SMILES IDX 55 95 56 96 57 97
REMARK H PARENT 81 50 49 61
REMARK Flexibility Score: inf
ROOT
ATOM      1  C   UNL     1      -3.520  -6.303   2.449  1.00  0.00     0.188 C 
ENDROOT
BRANCH   1   2
ATOM      2  C   UNL     1      -2.818  -6.005   3.782  1.00  0.00     0.188 C 
BRANCH   2   3
ATOM      3  O   UNL     1      -3.543  -5.292   4.782  1.00  0.00    -0.376 OA
BRANCH   3   4
ATOM      4  C   UNL     1      -4.512  -4.339   4.362  1.00  0.00     0.202 C 
BRANCH   4   5
ATOM      5  C   UNL     1      -3.949  -3.024   3.826  1.00  0.00     0.261 C 
BRANCH   5   6
ATOM      6  O   UNL     1      -3.240  -3.197   2.586  1.00  0.00    -0.462 OA
BRANCH   6   7
ATOM      7  C   UNL     1      -1.914  -2.916   2.611  1.00  0.00     0.324 C 
ATOM      8  O   UNL     1      -1.283  -2.617   3.620  1.00  0.00    -0.250 OA
BRANCH   7   9
ATOM      9  C   UNL     1      -1.238  -3.066   1.269  1.00  0.00     0.183 C 
ATOM     10  N   UNL     1      -2.039  -3.078   0.008  1.00  0.00    -0.180 NA
ATOM     11  C   UNL     1      -1.359  -3.951  -0.996  1.00  0.00     0.077 C 
ATOM     12  C   UNL     1      -0.426  -4.364   1.172  1.00  0.00     0.037 C 
ATOM     13  C   UNL     1      -0.052  -4.381  -0.308  1.00  0.00     0.009 C 
ATOM     14  C   UNL     1      -2.298  -5.117  -1.327  1.00  0.00     0.020 C 
ATOM     15  C   UNL     1       0.569  -5.674  -0.826  1.00  0.00     0.005 C 
ATOM     16  C   UNL     1      -1.573  -6.259  -2.026  1.00  0.00     0.002 C 
ATOM     17  C   UNL     1      -0.431  -6.771  -1.165  1.00  0.00     0.000 C 
BRANCH  10  18
ATOM     18  S   UNL     1      -2.664  -1.594  -0.511  1.00  0.00     0.245 S 
ATOM     19  O   UNL     1      -3.535  -1.085   0.526  1.00  0.00    -0.207 OA
ATOM     20  O   UNL     1      -3.100  -1.713  -1.885  1.00  0.00    -0.207 OA
BRANCH  18  21
ATOM     21  C   UNL     1      -1.378  -0.430  -0.560  1.00  0.00     0.100 A 
ATOM     22  C   UNL     1       2.092   0.529  -0.362  1.00  0.00     0.149 C 
ATOM     23  N   UNL     1       0.652   0.459  -0.487  1.00  0.00    -0.356 N 
ATOM     24  C   UNL     1      -0.221   1.452  -0.128  1.00  0.00     0.086 A 
ATOM     25  C   UNL     1      -0.050  -0.654  -0.868  1.00  0.00     0.106 A 
ATOM     26  C   UNL     1      -1.496   0.927  -0.161  1.00  0.00     0.041 A 
ENDBRANCH  18  21
ENDBRANCH  10  18
ENDBRANCH   7   9
ENDBRANCH   6   7
ENDBRANCH   5   6
ENDBRANCH   4   5
ENDBRANCH   3   4
ENDBRANCH   2   3
ENDBRANCH   1   2
BRANCH   1  27
ATOM     27  O   UNL     1      -4.800  -6.897   2.654  1.00  0.00    -0.376 OA
BRANCH  27  28
ATOM     28  C   UNL     1      -4.983  -8.127   1.958  1.00  0.00     0.202 C 
BRANCH  28  29
ATOM     29  C   UNL     1      -4.628  -9.306   2.869  1.00  0.00     0.261 C 
BRANCH  29  30
ATOM     30  O   UNL     1      -3.244  -9.338   3.265  1.00  0.00    -0.460 OA
BRANCH  30  31
ATOM     31  C   UNL     1      -2.371  -9.617   2.274  1.00  0.00     0.338 C 
ATOM     32  O   UNL     1      -2.636  -9.824   1.103  1.00  0.00    -0.246 OA
BRANCH  31  33
ATOM     33  C   UNL     1      -0.999  -9.488   2.788  1.00  0.00     0.060 A 
ATOM     34  C   UNL     1      -0.208  -8.448   2.297  1.00  0.00     0.016 A 
ATOM     35  C   UNL     1      -0.458 -10.443   3.645  1.00  0.00     0.016 A 
ATOM     36  C   UNL     1       1.154  -8.404   2.579  1.00  0.00     0.010 A 
ATOM     37  C   UNL     1       0.905 -10.382   3.957  1.00  0.00     0.010 A 
ATOM     38  C   UNL     1       1.729  -9.391   3.387  1.00  0.00    -0.014 A 
BRANCH  38  39
ATOM     39  C   UNL     1       3.208  -9.485   3.505  1.00  0.00     0.031 A 
ATOM     40  C   UNL     1       3.915 -10.632   2.834  1.00  0.00     0.074 A 
ATOM     41  C   UNL     1       3.920  -8.546   4.154  1.00  0.00     0.049 A 
ATOM     42  N   UNL     1       5.158 -11.022   2.940  1.00  0.00    -0.248 NA
ATOM     43  C   UNL     1       3.101 -11.453   1.923  1.00  0.00     0.031 C 
ATOM     44  C   UNL     1       3.370  -7.335   4.763  1.00  0.00     0.029 A 
ATOM     45  N   UNL     1       5.266  -8.468   4.412  1.00  0.00    -0.354 N 
ATOM     46  C   UNL     1       5.268 -12.157   2.143  1.00  0.00     0.074 A 
ATOM     47  C   UNL     1       3.960 -12.397   1.571  1.00  0.00     0.031 C 
ATOM     48  C   UNL     1       4.371  -6.634   5.322  1.00  0.00     0.029 A 
ATOM     49  C   UNL     1       5.619  -7.379   5.175  1.00  0.00     0.049 A 
ATOM     50  H   UNL     1       5.917  -9.129   4.082  1.00  0.00     0.167 HD
ATOM     51  C   UNL     1       6.360 -12.929   1.913  1.00  0.00     0.034 A 
ATOM     52  C   UNL     1       6.802  -7.049   5.731  1.00  0.00     0.034 A 
ATOM     53  C   UNL     1       7.660 -12.666   2.477  1.00  0.00     0.049 A 
ATOM     54  C   UNL     1       7.985  -7.965   5.531  1.00  0.00     0.074 A 
ATOM     55  C   UNL     1       8.827 -13.398   2.341  1.00  0.00     0.029 A 
ATOM     56  N   UNL     1       7.969 -11.576   3.281  1.00  0.00    -0.354 N 
ATOM     57  N   UNL     1       8.059  -9.085   4.848  1.00  0.00    -0.248 NA
ATOM     58  C   UNL     1       9.241  -7.576   6.186  1.00  0.00     0.031 C 
ATOM     59  C   UNL     1       9.826 -12.779   3.103  1.00  0.00     0.029 A 
ATOM     60  C   UNL     1       9.301 -11.624   3.660  1.00  0.00     0.049 A 
ATOM     61  H   UNL     1       7.333 -10.871   3.543  1.00  0.00     0.167 HD
ATOM     62  C   UNL     1       9.376  -9.520   4.975  1.00  0.00     0.074 A 
ATOM     63  C   UNL     1      10.063  -8.534   5.784  1.00  0.00     0.031 C 
ATOM     64  C   UNL     1       9.967 -10.633   4.471  1.00  0.00     0.034 A 
BRANCH  51  65
ATOM     65  C   UNL     1       6.161 -14.165   1.072  1.00  0.00     0.023 A 
ATOM     66  C   UNL     1       5.820 -14.093  -0.290  1.00  0.00     0.031 A 
ATOM     67  C   UNL     1       6.262 -15.439   1.660  1.00  0.00     0.131 A 
ATOM     68  C   UNL     1       5.520 -15.267  -0.998  1.00  0.00     0.055 A 
ATOM     69  C   UNL     1       6.038 -16.607   0.929  1.00  0.00     0.041 A 
ATOM     70  F   UNL     1       6.561 -15.568   2.962  1.00  0.00    -0.206 F 
ATOM     71  C   UNL     1       5.649 -16.525  -0.404  1.00  0.00     0.022 A 
BRANCH  68  72
ATOM     72  S   UNL     1       4.818 -15.118  -2.664  1.00  0.00     0.124 S 
ATOM     73  O   UNL     1       3.602 -14.351  -2.404  1.00  0.00    -0.237 OA
ATOM     74  O   UNL     1       5.872 -14.419  -3.390  1.00  0.00    -0.237 OA
ATOM     75  O   UNL     1       4.596 -16.506  -3.067  1.00  0.00    -0.744 OA
ENDBRANCH  68  72
ENDBRANCH  51  65
BRANCH  52  76
ATOM     76  C   UNL     1       6.923  -5.838   6.594  1.00  0.00     0.023 A 
ATOM     77  C   UNL     1       7.768  -4.775   6.239  1.00  0.00     0.031 A 
ATOM     78  C   UNL     1       6.243  -5.758   7.822  1.00  0.00     0.131 A 
ATOM     79  C   UNL     1       7.946  -3.698   7.122  1.00  0.00     0.055 A 
ATOM     80  C   UNL     1       6.382  -4.660   8.673  1.00  0.00     0.041 A 
ATOM     81  F   UNL     1       5.425  -6.749   8.212  1.00  0.00    -0.206 F 
ATOM     82  C   UNL     1       7.249  -3.628   8.330  1.00  0.00     0.022 A 
BRANCH  79  83
ATOM     83  S   UNL     1       9.171  -2.427   6.705  1.00  0.00     0.124 S 
ATOM     84  O   UNL     1      10.390  -3.218   6.580  1.00  0.00    -0.237 OA
ATOM     85  O   UNL     1       8.630  -1.882   5.463  1.00  0.00    -0.237 OA
ATOM     86  O   UNL     1       9.126  -1.522   7.851  1.00  0.00    -0.744 OA
ENDBRANCH  79  83
ENDBRANCH  52  76
BRANCH  64  87
ATOM     87  C   UNL     1      11.441 -10.804   4.739  1.00  0.00     0.023 A 
ATOM     88  C   UNL     1      11.933 -11.075   6.027  1.00  0.00     0.031 A 
ATOM     89  C   UNL     1      12.367 -10.676   3.688  1.00  0.00     0.131 A 
ATOM     90  C   UNL     1      13.318 -11.155   6.242  1.00  0.00     0.055 A 
ATOM     91  C   UNL     1      13.740 -10.810   3.898  1.00  0.00     0.041 A 
ATOM     92  F   UNL     1      11.950 -10.418   2.438  1.00  0.00    -0.206 F 
ATOM     93  C   UNL     1      14.223 -11.038   5.184  1.00  0.00     0.022 A 
BRANCH  90  94
ATOM     94  S   UNL     1      13.927 -11.330   7.942  1.00  0.00     0.124 S 
ATOM     95  O   UNL     1      13.357 -10.154   8.592  1.00  0.00    -0.237 OA
ATOM     96  O   UNL     1      13.367 -12.616   8.344  1.00  0.00    -0.237 OA
ATOM     97  O   UNL     1      15.381 -11.309   7.789  1.00  0.00    -0.744 OA
ENDBRANCH  90  94
ENDBRANCH  64  87
ENDBRANCH  38  39
ENDBRANCH  31  33
ENDBRANCH  30  31
ENDBRANCH  29  30
ENDBRANCH  28  29
ENDBRANCH  27  28
ENDBRANCH   1  27
TORSDOF 22
