REMARK SMILES O=C(OCCOCCOCCOC(=O)[C@@H]1[C@H](C(=O)Nc2ccccc2OC(F)F)[C@@H]2C=C[C@H]1C2)c1ccc(-c2c3nc(c(-c4cc(S(=O)(=O)[O-])ccc4F)c4ccc([nH]4)c(-c4cc(S(=O)(=O)[O-])ccc4F)c4nc(c(-c5cc(S(=O)(=O)[O-])ccc5F)c5ccc2[nH]5)C=C4)C=C3)cc1
REMARK SMILES IDX 8 1 7 2 6 3 5 4 4 5 3 6 2 7 1 8 35 9 36 10 97 11 37 12 96 13
REMARK SMILES IDX 38 14 39 15 40 16 90 17 41 18 95 19 89 20 91 21 42 22 94 23
REMARK SMILES IDX 88 24 87 25 43 27 75 28 55 29 74 30 56 31 59 32 73 33 92 34
REMARK SMILES IDX 57 35 58 36 72 38 93 39 60 40 44 41 45 42 53 43 46 44 52 45
REMARK SMILES IDX 54 46 51 47 47 48 48 49 49 50 50 51 76 52 77 53 85 54 78 55
REMARK SMILES IDX 84 56 86 57 83 58 79 59 80 60 81 61 82 62 61 63 62 64 70 65
REMARK SMILES IDX 63 66 69 67 71 68 68 69 64 70 65 71 66 72 67 73 9 74 10 75
REMARK SMILES IDX 11 76 12 77 13 78 14 79 15 80 16 81 33 82 30 83 32 84 34 85
REMARK SMILES IDX 31 86 17 87 18 88 19 89 20 91 21 92 25 93 22 94 24 95 23 96
REMARK SMILES IDX 26 97 27 98 28 99 29 100
REMARK H PARENT 91 26 59 37 19 90
REMARK Flexibility Score: inf
ROOT
ATOM      1  C   UNL     1       3.820  -3.558  -1.866  1.00  0.00     0.188 C 
ENDROOT
BRANCH   1   2
ATOM      2  C   UNL     1       4.304  -2.720  -0.657  1.00  0.00     0.188 C 
BRANCH   2   3
ATOM      3  O   UNL     1       5.602  -2.169  -0.791  1.00  0.00    -0.376 OA
BRANCH   3   4
ATOM      4  C   UNL     1       6.190  -1.597   0.392  1.00  0.00     0.202 C 
BRANCH   4   5
ATOM      5  C   UNL     1       5.300  -1.078   1.551  1.00  0.00     0.261 C 
BRANCH   5   6
ATOM      6  O   UNL     1       4.199  -0.327   1.032  1.00  0.00    -0.460 OA
BRANCH   6   7
ATOM      7  C   UNL     1       3.849   0.799   1.693  1.00  0.00     0.338 C 
ATOM      8  O   UNL     1       3.151   0.833   2.699  1.00  0.00    -0.246 OA
BRANCH   7   9
ATOM      9  C   UNL     1       4.176   1.950   0.827  1.00  0.00     0.060 A 
ATOM     10  C   UNL     1       5.395   1.966   0.132  1.00  0.00     0.016 A 
ATOM     11  C   UNL     1       3.230   2.955   0.616  1.00  0.00     0.016 A 
ATOM     12  C   UNL     1       5.645   2.925  -0.836  1.00  0.00     0.010 A 
ATOM     13  C   UNL     1       3.490   3.939  -0.342  1.00  0.00     0.010 A 
ATOM     14  C   UNL     1       4.702   3.928  -1.062  1.00  0.00    -0.014 A 
BRANCH  14  15
ATOM     15  C   UNL     1       5.185   5.154  -1.732  1.00  0.00     0.031 A 
ATOM     16  C   UNL     1       5.742   6.198  -0.810  1.00  0.00     0.074 A 
ATOM     17  C   UNL     1       5.237   5.284  -3.069  1.00  0.00     0.049 A 
ATOM     18  N   UNL     1       6.309   7.340  -1.081  1.00  0.00    -0.248 NA
ATOM     19  C   UNL     1       5.660   5.893   0.631  1.00  0.00     0.031 C 
ATOM     20  C   UNL     1       4.803   4.280  -4.037  1.00  0.00     0.029 A 
ATOM     21  N   UNL     1       5.682   6.321  -3.848  1.00  0.00    -0.354 N 
ATOM     22  C   UNL     1       6.672   7.868   0.152  1.00  0.00     0.074 A 
ATOM     23  C   UNL     1       6.185   6.972   1.171  1.00  0.00     0.031 C 
ATOM     24  C   UNL     1       4.955   4.767  -5.282  1.00  0.00     0.029 A 
ATOM     25  C   UNL     1       5.506   6.115  -5.198  1.00  0.00     0.049 A 
ATOM     26  H   UNL     1       6.089   7.136  -3.477  1.00  0.00     0.167 HD
ATOM     27  C   UNL     1       7.381   8.989   0.412  1.00  0.00     0.034 A 
ATOM     28  C   UNL     1       5.757   6.940  -6.236  1.00  0.00     0.034 A 
ATOM     29  C   UNL     1       7.770   9.903  -0.625  1.00  0.00     0.049 A 
ATOM     30  C   UNL     1       6.401   8.271  -5.922  1.00  0.00     0.074 A 
ATOM     31  C   UNL     1       8.388  11.131  -0.516  1.00  0.00     0.029 A 
ATOM     32  N   UNL     1       7.531   9.686  -1.980  1.00  0.00    -0.354 N 
ATOM     33  N   UNL     1       6.752   8.764  -4.753  1.00  0.00    -0.248 NA
ATOM     34  C   UNL     1       6.709   9.145  -7.059  1.00  0.00     0.031 C 
ATOM     35  C   UNL     1       8.460  11.687  -1.800  1.00  0.00     0.029 A 
ATOM     36  C   UNL     1       7.964  10.770  -2.718  1.00  0.00     0.049 A 
ATOM     37  H   UNL     1       7.114   8.877  -2.357  1.00  0.00     0.167 HD
ATOM     38  C   UNL     1       7.362   9.985  -5.018  1.00  0.00     0.074 A 
ATOM     39  C   UNL     1       7.329  10.153  -6.459  1.00  0.00     0.031 C 
ATOM     40  C   UNL     1       7.912  10.883  -4.159  1.00  0.00     0.034 A 
BRANCH  27  41
ATOM     41  C   UNL     1       7.648   9.271   1.870  1.00  0.00     0.023 A 
ATOM     42  C   UNL     1       8.389   8.366   2.660  1.00  0.00     0.031 A 
ATOM     43  C   UNL     1       6.985  10.323   2.520  1.00  0.00     0.131 A 
ATOM     44  C   UNL     1       8.328   8.451   4.059  1.00  0.00     0.055 A 
ATOM     45  C   UNL     1       7.016  10.461   3.909  1.00  0.00     0.041 A 
ATOM     46  F   UNL     1       6.235  11.191   1.824  1.00  0.00    -0.206 F 
ATOM     47  C   UNL     1       7.667   9.507   4.689  1.00  0.00     0.022 A 
BRANCH  44  48
ATOM     48  S   UNL     1       8.919   7.039   5.040  1.00  0.00     0.124 S 
ATOM     49  O   UNL     1       8.040   5.968   4.575  1.00  0.00    -0.237 OA
ATOM     50  O   UNL     1      10.317   6.935   4.639  1.00  0.00    -0.237 OA
ATOM     51  O   UNL     1       8.695   7.463   6.420  1.00  0.00    -0.744 OA
ENDBRANCH  44  48
ENDBRANCH  27  41
BRANCH  28  52
ATOM     52  C   UNL     1       5.395   6.553  -7.633  1.00  0.00     0.023 A 
ATOM     53  C   UNL     1       6.369   6.373  -8.630  1.00  0.00     0.031 A 
ATOM     54  C   UNL     1       4.046   6.391  -8.004  1.00  0.00     0.131 A 
ATOM     55  C   UNL     1       5.981   6.074  -9.950  1.00  0.00     0.055 A 
ATOM     56  C   UNL     1       3.667   6.056  -9.307  1.00  0.00     0.041 A 
ATOM     57  F   UNL     1       3.068   6.552  -7.098  1.00  0.00    -0.206 F 
ATOM     58  C   UNL     1       4.637   5.905 -10.292  1.00  0.00     0.022 A 
BRANCH  55  59
ATOM     59  S   UNL     1       7.256   5.970 -11.239  1.00  0.00     0.124 S 
ATOM     60  O   UNL     1       7.875   7.288 -11.155  1.00  0.00    -0.237 OA
ATOM     61  O   UNL     1       8.065   4.848 -10.774  1.00  0.00    -0.237 OA
ATOM     62  O   UNL     1       6.490   5.718 -12.458  1.00  0.00    -0.744 OA
ENDBRANCH  55  59
ENDBRANCH  28  52
BRANCH  40  63
ATOM     63  C   UNL     1       8.574  12.090  -4.767  1.00  0.00     0.023 A 
ATOM     64  C   UNL     1       7.833  13.100  -5.401  1.00  0.00     0.031 A 
ATOM     65  C   UNL     1       9.968  12.243  -4.666  1.00  0.00     0.131 A 
ATOM     66  C   UNL     1       8.499  14.205  -5.948  1.00  0.00     0.055 A 
ATOM     67  C   UNL     1      10.617  13.373  -5.159  1.00  0.00     0.041 A 
ATOM     68  F   UNL     1      10.717  11.303  -4.067  1.00  0.00    -0.206 F 
ATOM     69  C   UNL     1       9.882  14.358  -5.813  1.00  0.00     0.022 A 
BRANCH  66  70
ATOM     70  S   UNL     1       7.540  15.410  -6.903  1.00  0.00     0.124 S 
ATOM     71  O   UNL     1       7.003  14.584  -7.980  1.00  0.00    -0.237 OA
ATOM     72  O   UNL     1       6.571  15.888  -5.923  1.00  0.00    -0.237 OA
ATOM     73  O   UNL     1       8.540  16.393  -7.316  1.00  0.00    -0.744 OA
ENDBRANCH  66  70
ENDBRANCH  40  63
ENDBRANCH  14  15
ENDBRANCH   7   9
ENDBRANCH   6   7
ENDBRANCH   5   6
ENDBRANCH   4   5
ENDBRANCH   3   4
ENDBRANCH   2   3
ENDBRANCH   1   2
BRANCH   1  74
ATOM     74  O   UNL     1       4.734  -3.993  -2.860  1.00  0.00    -0.376 OA
BRANCH  74  75
ATOM     75  C   UNL     1       5.017  -3.078  -3.942  1.00  0.00     0.202 C 
BRANCH  75  76
ATOM     76  C   UNL     1       3.901  -2.818  -5.018  1.00  0.00     0.261 C 
BRANCH  76  77
ATOM     77  O   UNL     1       3.399  -1.429  -5.117  1.00  0.00    -0.463 OA
BRANCH  77  78
ATOM     78  C   UNL     1       2.038  -1.262  -5.303  1.00  0.00     0.310 C 
ATOM     79  O   UNL     1       1.308  -2.228  -5.531  1.00  0.00    -0.252 OA
BRANCH  78  80
ATOM     80  C   UNL     1       1.500   0.213  -5.364  1.00  0.00     0.119 C 
ATOM     81  C   UNL     1       1.475   1.530  -4.439  1.00  0.00     0.100 C 
ATOM     82  C   UNL     1      -0.019   0.150  -5.780  1.00  0.00     0.027 C 
ATOM     83  C   UNL     1       0.007   2.057  -4.642  1.00  0.00     0.025 C 
ATOM     84  C   UNL     1      -0.901  -0.036  -4.560  1.00  0.00    -0.027 C 
ATOM     85  C   UNL     1      -0.319   1.625  -6.059  1.00  0.00     0.017 C 
ATOM     86  C   UNL     1      -0.918   1.127  -3.897  1.00  0.00    -0.027 C 
BRANCH  81  87
ATOM     87  C   UNL     1       1.766   2.055  -3.004  1.00  0.00     0.229 C 
ATOM     88  O   UNL     1       2.091   3.251  -2.908  1.00  0.00    -0.274 OA
ATOM     89  N   UNL     1       1.455   1.483  -1.812  1.00  0.00    -0.323 N 
ATOM     90  H   UNL     1       1.447   2.104  -1.048  1.00  0.00     0.170 HD
BRANCH  89  91
ATOM     91  C   UNL     1       1.148   0.171  -1.494  1.00  0.00     0.084 A 
ATOM     92  C   UNL     1       0.300  -0.116  -0.425  1.00  0.00     0.030 A 
ATOM     93  C   UNL     1       1.624  -0.859  -2.255  1.00  0.00     0.149 A 
ATOM     94  C   UNL     1      -0.296  -1.378  -0.337  1.00  0.00     0.002 A 
ATOM     95  C   UNL     1       0.889  -2.046  -2.300  1.00  0.00     0.049 A 
ATOM     96  C   UNL     1      -0.072  -2.315  -1.338  1.00  0.00     0.004 A 
BRANCH  93  97
ATOM     97  O   UNL     1       2.789  -0.829  -2.942  1.00  0.00    -0.433 OA
BRANCH  97  98
ATOM     98  C   UNL     1       3.917  -0.005  -2.644  1.00  0.00     0.542 C 
ATOM     99  F   UNL     1       4.012   0.959  -3.589  1.00  0.00    -0.167 F 
ATOM    100  F   UNL     1       3.800   0.561  -1.443  1.00  0.00    -0.167 F 
ENDBRANCH  97  98
ENDBRANCH  93  97
ENDBRANCH  89  91
ENDBRANCH  81  87
ENDBRANCH  78  80
ENDBRANCH  77  78
ENDBRANCH  76  77
ENDBRANCH  75  76
ENDBRANCH  74  75
ENDBRANCH   1  74
TORSDOF 24
