REMARK SMILES Cc1cccc(-c2ncc([C@@H]3[NH2+][C@H](C(=O)OCCOCCOCCOC(=O)c4ccc(-c5c6nc(c(-c7cc(S(=O)(=O)[O-])ccc7F)c7ccc([nH]7)c(-c7cc(S(=O)(=O)[O-])ccc7F)c7nc(c(-c8cc(S(=O)(=O)[O-])ccc8F)c8ccc5[nH]8)C=C7)C=C6)cc4)C(C)(C)S3)s2)c1
REMARK SMILES IDX 21 1 20 2 19 3 18 4 17 5 16 6 14 7 15 8 13 9 11 10 12 11
REMARK SMILES IDX 94 12 91 15 92 16 93 17 10 18 7 19 8 20 95 21 9 22 6 23 1 24
REMARK SMILES IDX 2 25 3 26 96 27 4 28 5 29 22 30 23 31 24 32 25 33 26 34
REMARK SMILES IDX 27 35 28 36 29 37 90 38 30 39 89 40 31 41 32 42 33 43 83 44
REMARK SMILES IDX 34 45 88 46 82 47 84 48 35 49 87 50 81 51 80 52 36 54 68 55
REMARK SMILES IDX 48 56 67 57 49 58 52 59 66 60 85 61 50 62 51 63 65 65 86 66
REMARK SMILES IDX 53 67 37 68 38 69 46 70 39 71 45 72 47 73 44 74 40 75 41 76
REMARK SMILES IDX 42 77 43 78 69 79 70 80 78 81 71 82 77 83 79 84 76 85 72 86
REMARK SMILES IDX 73 87 74 88 75 89 54 90 55 91 63 92 56 93 62 94 64 95 61 96
REMARK SMILES IDX 57 97 58 98 59 99 60 100
REMARK H PARENT 12 13 12 14 84 53 52 64
REMARK Flexibility Score: inf
ROOT
ATOM      1  C   UNL     1      -9.329   4.738   4.031  1.00  0.00     0.188 C 
ENDROOT
BRANCH   1   2
ATOM      2  C   UNL     1      -8.603   5.962   4.634  1.00  0.00     0.188 C 
BRANCH   2   3
ATOM      3  O   UNL     1      -8.903   7.366   4.424  1.00  0.00    -0.376 OA
BRANCH   3   4
ATOM      4  C   UNL     1      -9.269   8.210   3.285  1.00  0.00     0.202 C 
BRANCH   4   5
ATOM      5  C   UNL     1      -8.405   8.897   1.760  1.00  0.00     0.261 C 
BRANCH   5   6
ATOM      6  O   UNL     1      -6.966   8.296   0.796  1.00  0.00    -0.459 OA
BRANCH   6   7
ATOM      7  C   UNL     1      -5.448   8.220   0.877  1.00  0.00     0.366 C 
ATOM      8  O   UNL     1      -4.727   8.892   1.638  1.00  0.00    -0.245 OA
BRANCH   7   9
ATOM      9  C   UNL     1      -4.500   7.268   0.072  1.00  0.00     0.310 C 
ATOM     10  C   UNL     1      -3.245   5.057   0.247  1.00  0.00     0.286 C 
ATOM     11  N   UNL     1      -3.689   6.292   0.915  1.00  0.00    -0.318 N 
ATOM     12  S   UNL     1      -4.213   5.045  -1.344  1.00  0.00    -0.080 SA
ATOM     13  H   UNL     1      -2.857   6.783   1.243  1.00  0.00     0.348 HD
ATOM     14  H   UNL     1      -4.320   5.987   1.656  1.00  0.00     0.348 HD
ATOM     15  C   UNL     1      -4.746   6.841  -1.347  1.00  0.00     0.079 C 
ATOM     16  C   UNL     1      -3.858   7.710  -2.278  1.00  0.00     0.030 C 
ATOM     17  C   UNL     1      -6.194   7.070  -1.768  1.00  0.00     0.030 C 
BRANCH  10  18
ATOM     18  C   UNL     1      -3.442   3.802   1.177  1.00  0.00     0.093 A 
ATOM     19  C   UNL     1      -3.944   1.659   2.414  1.00  0.00     0.123 A 
ATOM     20  N   UNL     1      -4.745   2.659   2.635  1.00  0.00    -0.244 NA
ATOM     21  S   UNL     1      -2.789   2.116   1.153  1.00  0.00    -0.112 S 
ATOM     22  C   UNL     1      -3.980   3.756   2.449  1.00  0.00     0.134 A 
BRANCH  19  23
ATOM     23  C   UNL     1      -4.115   0.529   3.366  1.00  0.00     0.011 A 
ATOM     24  C   UNL     1      -7.329  -0.587   5.213  1.00  0.00     0.044 C 
ATOM     25  C   UNL     1      -5.872  -0.392   4.881  1.00  0.00    -0.050 A 
ATOM     26  C   UNL     1      -4.904  -0.624   5.854  1.00  0.00     0.003 A 
ATOM     27  C   UNL     1      -5.463   0.144   3.641  1.00  0.00     0.014 A 
ATOM     28  C   UNL     1      -3.570  -0.285   5.606  1.00  0.00     0.001 A 
ATOM     29  C   UNL     1      -3.175   0.289   4.380  1.00  0.00     0.011 A 
ENDBRANCH  19  23
ENDBRANCH  10  18
ENDBRANCH   7   9
ENDBRANCH   6   7
ENDBRANCH   5   6
ENDBRANCH   4   5
ENDBRANCH   3   4
ENDBRANCH   2   3
ENDBRANCH   1   2
BRANCH   1  30
ATOM     30  O   UNL     1     -10.250   5.068   3.006  1.00  0.00    -0.376 OA
BRANCH  30  31
ATOM     31  C   UNL     1     -10.918   3.965   2.395  1.00  0.00     0.202 C 
BRANCH  31  32
ATOM     32  C   UNL     1     -10.076   2.815   1.779  1.00  0.00     0.261 C 
BRANCH  32  33
ATOM     33  O   UNL     1      -9.642   3.028   0.406  1.00  0.00    -0.460 OA
BRANCH  33  34
ATOM     34  C   UNL     1      -8.289   3.156   0.158  1.00  0.00     0.338 C 
ATOM     35  O   UNL     1      -7.669   2.457  -0.586  1.00  0.00    -0.246 OA
BRANCH  34  36
ATOM     36  C   UNL     1      -7.771   4.401   0.771  1.00  0.00     0.060 A 
ATOM     37  C   UNL     1      -6.536   4.591   1.353  1.00  0.00     0.016 A 
ATOM     38  C   UNL     1      -8.588   5.450   0.822  1.00  0.00     0.016 A 
ATOM     39  C   UNL     1      -6.170   5.731   2.206  1.00  0.00     0.010 A 
ATOM     40  C   UNL     1      -8.230   6.465   1.700  1.00  0.00     0.010 A 
ATOM     41  C   UNL     1      -7.007   6.771   2.456  1.00  0.00    -0.014 A 
BRANCH  41  42
ATOM     42  C   UNL     1      -6.531   8.236   3.338  1.00  0.00     0.031 A 
ATOM     43  C   UNL     1      -6.382   9.965   2.828  1.00  0.00     0.074 A 
ATOM     44  C   UNL     1      -6.245   8.181   4.661  1.00  0.00     0.049 A 
ATOM     45  N   UNL     1      -6.166  10.982   3.631  1.00  0.00    -0.248 NA
ATOM     46  C   UNL     1      -6.403  10.611   1.394  1.00  0.00     0.031 C 
ATOM     47  C   UNL     1      -6.685   9.225   5.596  1.00  0.00     0.029 A 
ATOM     48  N   UNL     1      -5.706   7.216   5.494  1.00  0.00    -0.354 N 
ATOM     49  C   UNL     1      -6.380  12.160   2.912  1.00  0.00     0.074 A 
ATOM     50  C   UNL     1      -6.177  11.898   1.552  1.00  0.00     0.031 C 
ATOM     51  C   UNL     1      -6.258   8.943   6.828  1.00  0.00     0.029 A 
ATOM     52  C   UNL     1      -5.370   7.818   6.724  1.00  0.00     0.049 A 
ATOM     53  H   UNL     1      -5.578   6.267   5.266  1.00  0.00     0.167 HD
ATOM     54  C   UNL     1      -7.008  13.230   3.456  1.00  0.00     0.034 A 
ATOM     55  C   UNL     1      -4.100   7.771   7.213  1.00  0.00     0.034 A 
ATOM     56  C   UNL     1      -6.679  13.280   4.858  1.00  0.00     0.049 A 
ATOM     57  C   UNL     1      -3.439   9.132   7.198  1.00  0.00     0.074 A 
ATOM     58  C   UNL     1      -7.264  12.896   6.042  1.00  0.00     0.029 A 
ATOM     59  N   UNL     1      -5.333  13.407   5.123  1.00  0.00    -0.354 N 
ATOM     60  N   UNL     1      -4.070  10.279   7.201  1.00  0.00    -0.248 NA
ATOM     61  C   UNL     1      -1.995   9.287   7.049  1.00  0.00     0.031 C 
ATOM     62  C   UNL     1      -6.184  12.575   6.945  1.00  0.00     0.029 A 
ATOM     63  C   UNL     1      -4.970  12.835   6.319  1.00  0.00     0.049 A 
ATOM     64  H   UNL     1      -4.699  13.859   4.520  1.00  0.00     0.167 HD
ATOM     65  C   UNL     1      -3.190  11.268   6.837  1.00  0.00     0.074 A 
ATOM     66  C   UNL     1      -1.896  10.597   6.788  1.00  0.00     0.031 C 
ATOM     67  C   UNL     1      -3.546  12.552   6.506  1.00  0.00     0.034 A 
BRANCH  54  68
ATOM     68  C   UNL     1      -7.931  14.165   2.686  1.00  0.00     0.023 A 
ATOM     69  C   UNL     1      -8.467  15.262   3.375  1.00  0.00     0.031 A 
ATOM     70  C   UNL     1      -8.453  13.981   1.370  1.00  0.00     0.131 A 
ATOM     71  C   UNL     1      -9.442  16.095   2.787  1.00  0.00     0.055 A 
ATOM     72  C   UNL     1      -9.363  14.856   0.760  1.00  0.00     0.041 A 
ATOM     73  F   UNL     1      -8.185  12.908   0.613  1.00  0.00    -0.206 F 
ATOM     74  C   UNL     1      -9.875  15.918   1.475  1.00  0.00     0.022 A 
BRANCH  71  75
ATOM     75  S   UNL     1     -10.212  17.378   3.804  1.00  0.00     0.124 S 
ATOM     76  O   UNL     1     -10.898  16.585   4.818  1.00  0.00    -0.237 OA
ATOM     77  O   UNL     1      -9.057  18.149   4.251  1.00  0.00    -0.237 OA
ATOM     78  O   UNL     1     -11.093  18.073   2.865  1.00  0.00    -0.744 OA
ENDBRANCH  71  75
ENDBRANCH  54  68
BRANCH  55  79
ATOM     79  C   UNL     1      -3.498   6.433   6.956  1.00  0.00     0.023 A 
ATOM     80  C   UNL     1      -4.207   5.364   7.554  1.00  0.00     0.031 A 
ATOM     81  C   UNL     1      -2.706   6.161   5.834  1.00  0.00     0.131 A 
ATOM     82  C   UNL     1      -4.338   4.156   6.871  1.00  0.00     0.055 A 
ATOM     83  C   UNL     1      -2.706   4.893   5.254  1.00  0.00     0.041 A 
ATOM     84  F   UNL     1      -2.055   7.137   5.184  1.00  0.00    -0.206 F 
ATOM     85  C   UNL     1      -3.577   3.908   5.731  1.00  0.00     0.022 A 
BRANCH  82  86
ATOM     86  S   UNL     1      -5.787   3.102   7.221  1.00  0.00     0.124 S 
ATOM     87  O   UNL     1      -5.185   1.967   7.911  1.00  0.00    -0.237 OA
ATOM     88  O   UNL     1      -6.638   3.957   8.044  1.00  0.00    -0.237 OA
ATOM     89  O   UNL     1      -6.335   2.846   5.891  1.00  0.00    -0.744 OA
ENDBRANCH  82  86
ENDBRANCH  55  79
BRANCH  67  90
ATOM     90  C   UNL     1      -2.465  13.591   6.234  1.00  0.00     0.023 A 
ATOM     91  C   UNL     1      -1.301  13.577   7.019  1.00  0.00     0.031 A 
ATOM     92  C   UNL     1      -2.529  14.627   5.273  1.00  0.00     0.131 A 
ATOM     93  C   UNL     1      -0.229  14.437   6.748  1.00  0.00     0.055 A 
ATOM     94  C   UNL     1      -1.516  15.577   5.102  1.00  0.00     0.041 A 
ATOM     95  F   UNL     1      -3.544  14.752   4.408  1.00  0.00    -0.206 F 
ATOM     96  C   UNL     1      -0.342  15.470   5.825  1.00  0.00     0.022 A 
BRANCH  93  97
ATOM     97  S   UNL     1       1.359  14.091   7.537  1.00  0.00     0.124 S 
ATOM     98  O   UNL     1       0.984  13.824   8.921  1.00  0.00    -0.237 OA
ATOM     99  O   UNL     1       1.816  12.935   6.770  1.00  0.00    -0.237 OA
ATOM    100  O   UNL     1       2.118  15.321   7.324  1.00  0.00    -0.744 OA
ENDBRANCH  93  97
ENDBRANCH  67  90
ENDBRANCH  41  42
ENDBRANCH  34  36
ENDBRANCH  33  34
ENDBRANCH  32  33
ENDBRANCH  31  32
ENDBRANCH  30  31
ENDBRANCH   1  30
TORSDOF 22
