REMARK SMILES Cc1ccc2c(c1)C=C(C(=O)OCCOCCOCCOC(=O)c1ccc(-c3c4nc(c(-c5cc(S(=O)(=O)[O-])ccc5F)c5ccc([nH]5)c(-c5cc(S(=O)(=O)[O-])ccc5F)c5nc(c(-c6cc(S(=O)(=O)[O-])ccc6F)c6ccc3[nH]6)C=C5)C=C4)cc1)[C@@H](C(F)(F)F)O2
REMARK SMILES IDX 17 1 16 2 15 3 14 4 13 5 12 6 10 7 11 8 9 9 1 10 2 11 3 12
REMARK SMILES IDX 7 13 4 14 6 15 5 16 8 17 92 18 87 19 88 20 89 21 90 22 91 23
REMARK SMILES IDX 18 24 19 25 20 26 21 27 22 28 23 29 24 30 25 31 86 32 26 33
REMARK SMILES IDX 85 34 27 35 28 36 29 37 79 38 30 39 84 40 78 41 80 42 31 43
REMARK SMILES IDX 83 44 77 45 76 46 32 48 64 49 44 50 63 51 45 52 48 53 62 54
REMARK SMILES IDX 81 55 46 56 47 57 61 59 82 60 49 61 33 62 34 63 42 64 35 65
REMARK SMILES IDX 41 66 43 67 40 68 36 69 37 70 38 71 39 72 65 73 66 74 74 75
REMARK SMILES IDX 67 76 73 77 75 78 72 79 68 80 69 81 70 82 71 83 50 84 51 85
REMARK SMILES IDX 59 86 52 87 58 88 60 89 57 90 53 91 54 92 55 93 56 94
REMARK H PARENT 80 47 48 58
REMARK Flexibility Score: inf
ROOT
ATOM      1  C   UNL     1       0.616   2.975   7.452  1.00  0.00     0.188 C 
ENDROOT
BRANCH   1   2
ATOM      2  C   UNL     1      -0.175   4.258   7.119  1.00  0.00     0.188 C 
BRANCH   2   3
ATOM      3  O   UNL     1      -0.833   4.797   8.251  1.00  0.00    -0.376 OA
BRANCH   3   4
ATOM      4  C   UNL     1      -2.246   4.760   8.274  1.00  0.00     0.202 C 
BRANCH   4   5
ATOM      5  C   UNL     1      -2.941   3.390   8.244  1.00  0.00     0.261 C 
BRANCH   5   6
ATOM      6  O   UNL     1      -2.344   2.399   7.395  1.00  0.00    -0.460 OA
BRANCH   6   7
ATOM      7  C   UNL     1      -2.745   2.365   6.106  1.00  0.00     0.338 C 
ATOM      8  O   UNL     1      -3.545   3.119   5.578  1.00  0.00    -0.246 OA
BRANCH   7   9
ATOM      9  C   UNL     1      -1.970   1.320   5.399  1.00  0.00     0.087 C 
ATOM     10  C   UNL     1       1.066   0.133   0.151  1.00  0.00     0.044 C 
ATOM     11  C   UNL     1       0.513  -0.131   1.522  1.00  0.00    -0.050 A 
ATOM     12  C   UNL     1       0.681  -1.387   2.114  1.00  0.00     0.007 A 
ATOM     13  C   UNL     1      -0.167   0.872   2.228  1.00  0.00     0.015 A 
ATOM     14  C   UNL     1       0.177  -1.637   3.392  1.00  0.00     0.047 A 
ATOM     15  C   UNL     1      -0.697   0.616   3.500  1.00  0.00     0.017 A 
ATOM     16  C   UNL     1      -0.509  -0.638   4.083  1.00  0.00     0.128 A 
ATOM     17  C   UNL     1      -1.464   1.635   4.200  1.00  0.00     0.027 C 
ATOM     18  O   UNL     1      -0.965  -0.976   5.324  1.00  0.00    -0.475 OA
ATOM     19  C   UNL     1      -1.756  -0.014   6.072  1.00  0.00     0.316 C 
BRANCH  19  20
ATOM     20  C   UNL     1      -3.080  -0.686   6.464  1.00  0.00     0.430 C 
ATOM     21  F   UNL     1      -2.866  -1.894   7.044  1.00  0.00    -0.167 F 
ATOM     22  F   UNL     1      -3.775   0.050   7.364  1.00  0.00    -0.167 F 
ATOM     23  F   UNL     1      -3.889  -0.888   5.400  1.00  0.00    -0.167 F 
ENDBRANCH  19  20
ENDBRANCH   7   9
ENDBRANCH   6   7
ENDBRANCH   5   6
ENDBRANCH   4   5
ENDBRANCH   3   4
ENDBRANCH   2   3
ENDBRANCH   1   2
BRANCH   1  24
ATOM     24  O   UNL     1       0.740   2.565   8.811  1.00  0.00    -0.376 OA
BRANCH  24  25
ATOM     25  C   UNL     1       1.114   3.530   9.790  1.00  0.00     0.202 C 
BRANCH  25  26
ATOM     26  C   UNL     1       2.429   4.297   9.604  1.00  0.00     0.261 C 
BRANCH  26  27
ATOM     27  O   UNL     1       2.524   5.017   8.365  1.00  0.00    -0.460 OA
BRANCH  27  28
ATOM     28  C   UNL     1       3.477   4.580   7.500  1.00  0.00     0.338 C 
ATOM     29  O   UNL     1       4.272   3.674   7.679  1.00  0.00    -0.246 OA
BRANCH  28  30
ATOM     30  C   UNL     1       3.273   5.242   6.195  1.00  0.00     0.060 A 
ATOM     31  C   UNL     1       3.269   6.633   6.087  1.00  0.00     0.016 A 
ATOM     32  C   UNL     1       3.070   4.442   5.061  1.00  0.00     0.016 A 
ATOM     33  C   UNL     1       3.073   7.224   4.836  1.00  0.00     0.010 A 
ATOM     34  C   UNL     1       2.855   5.034   3.815  1.00  0.00     0.010 A 
ATOM     35  C   UNL     1       2.870   6.430   3.691  1.00  0.00    -0.014 A 
BRANCH  35  36
ATOM     36  C   UNL     1       2.849   7.066   2.351  1.00  0.00     0.031 A 
ATOM     37  C   UNL     1       1.570   7.367   1.634  1.00  0.00     0.074 A 
ATOM     38  C   UNL     1       4.031   7.375   1.785  1.00  0.00     0.049 A 
ATOM     39  N   UNL     1       1.396   8.041   0.527  1.00  0.00    -0.248 NA
ATOM     40  C   UNL     1       0.331   6.844   2.224  1.00  0.00     0.031 C 
ATOM     41  C   UNL     1       5.335   7.082   2.379  1.00  0.00     0.029 A 
ATOM     42  N   UNL     1       4.332   8.002   0.603  1.00  0.00    -0.354 N 
ATOM     43  C   UNL     1       0.026   8.055   0.298  1.00  0.00     0.074 A 
ATOM     44  C   UNL     1      -0.580   7.270   1.355  1.00  0.00     0.031 C 
ATOM     45  C   UNL     1       6.297   7.549   1.571  1.00  0.00     0.029 A 
ATOM     46  C   UNL     1       5.682   8.158   0.394  1.00  0.00     0.049 A 
ATOM     47  H   UNL     1       3.648   8.311  -0.034  1.00  0.00     0.167 HD
ATOM     48  C   UNL     1      -0.654   8.687  -0.690  1.00  0.00     0.034 A 
ATOM     49  C   UNL     1       6.354   8.739  -0.622  1.00  0.00     0.034 A 
ATOM     50  C   UNL     1      -0.024   9.448  -1.742  1.00  0.00     0.049 A 
ATOM     51  C   UNL     1       5.575   9.415  -1.719  1.00  0.00     0.074 A 
ATOM     52  C   UNL     1      -0.633  10.175  -2.751  1.00  0.00     0.029 A 
ATOM     53  N   UNL     1       1.345   9.574  -1.937  1.00  0.00    -0.354 N 
ATOM     54  N   UNL     1       4.275   9.537  -1.851  1.00  0.00    -0.248 NA
ATOM     55  C   UNL     1       6.347  10.053  -2.795  1.00  0.00     0.031 C 
ATOM     56  C   UNL     1       0.360  10.674  -3.595  1.00  0.00     0.029 A 
ATOM     57  C   UNL     1       1.596  10.331  -3.071  1.00  0.00     0.049 A 
ATOM     58  H   UNL     1       2.036   9.183  -1.355  1.00  0.00     0.167 HD
ATOM     59  C   UNL     1       4.074  10.285  -3.007  1.00  0.00     0.074 A 
ATOM     60  C   UNL     1       5.387  10.609  -3.524  1.00  0.00     0.031 C 
ATOM     61  C   UNL     1       2.906  10.662  -3.586  1.00  0.00     0.034 A 
BRANCH  48  62
ATOM     62  C   UNL     1      -2.163   8.632  -0.688  1.00  0.00     0.023 A 
ATOM     63  C   UNL     1      -2.855   8.066  -1.776  1.00  0.00     0.031 A 
ATOM     64  C   UNL     1      -2.912   9.291   0.303  1.00  0.00     0.131 A 
ATOM     65  C   UNL     1      -4.246   8.209  -1.868  1.00  0.00     0.055 A 
ATOM     66  C   UNL     1      -4.302   9.395   0.228  1.00  0.00     0.041 A 
ATOM     67  F   UNL     1      -2.299   9.856   1.357  1.00  0.00    -0.206 F 
ATOM     68  C   UNL     1      -4.973   8.865  -0.870  1.00  0.00     0.022 A 
BRANCH  65  69
ATOM     69  S   UNL     1      -5.157   7.621  -3.323  1.00  0.00     0.124 S 
ATOM     70  O   UNL     1      -6.095   6.673  -2.725  1.00  0.00    -0.237 OA
ATOM     71  O   UNL     1      -5.753   8.854  -3.829  1.00  0.00    -0.237 OA
ATOM     72  O   UNL     1      -4.126   7.025  -4.166  1.00  0.00    -0.744 OA
ENDBRANCH  65  69
ENDBRANCH  48  62
BRANCH  49  73
ATOM     73  C   UNL     1       7.844   8.765  -0.572  1.00  0.00     0.023 A 
ATOM     74  C   UNL     1       8.585   7.569  -0.571  1.00  0.00     0.031 A 
ATOM     75  C   UNL     1       8.537   9.974  -0.396  1.00  0.00     0.131 A 
ATOM     76  C   UNL     1       9.963   7.604  -0.322  1.00  0.00     0.055 A 
ATOM     77  C   UNL     1       9.922  10.009  -0.222  1.00  0.00     0.041 A 
ATOM     78  F   UNL     1       7.871  11.139  -0.373  1.00  0.00    -0.206 F 
ATOM     79  C   UNL     1      10.639   8.818  -0.165  1.00  0.00     0.022 A 
BRANCH  76  80
ATOM     80  S   UNL     1      10.896   6.072  -0.050  1.00  0.00     0.124 S 
ATOM     81  O   UNL     1      11.889   6.126  -1.117  1.00  0.00    -0.237 OA
ATOM     82  O   UNL     1      11.410   6.273   1.303  1.00  0.00    -0.237 OA
ATOM     83  O   UNL     1       9.886   5.026  -0.179  1.00  0.00    -0.744 OA
ENDBRANCH  76  80
ENDBRANCH  49  73
BRANCH  61  84
ATOM     84  C   UNL     1       2.956  11.473  -4.861  1.00  0.00     0.023 A 
ATOM     85  C   UNL     1       2.395  12.765  -4.900  1.00  0.00     0.031 A 
ATOM     86  C   UNL     1       3.413  10.914  -6.067  1.00  0.00     0.131 A 
ATOM     87  C   UNL     1       2.264  13.434  -6.124  1.00  0.00     0.055 A 
ATOM     88  C   UNL     1       3.328  11.606  -7.277  1.00  0.00     0.041 A 
ATOM     89  F   UNL     1       3.946   9.681  -6.088  1.00  0.00    -0.206 F 
ATOM     90  C   UNL     1       2.736  12.865  -7.311  1.00  0.00     0.022 A 
BRANCH  87  91
ATOM     91  S   UNL     1       1.395  15.023  -6.237  1.00  0.00     0.124 S 
ATOM     92  O   UNL     1       2.438  15.901  -6.764  1.00  0.00    -0.237 OA
ATOM     93  O   UNL     1       0.311  14.715  -7.166  1.00  0.00    -0.237 OA
ATOM     94  O   UNL     1       0.986  15.300  -4.864  1.00  0.00    -0.744 OA
ENDBRANCH  87  91
ENDBRANCH  61  84
ENDBRANCH  35  36
ENDBRANCH  28  30
ENDBRANCH  27  28
ENDBRANCH  26  27
ENDBRANCH  25  26
ENDBRANCH  24  25
ENDBRANCH   1  24
TORSDOF 21
