REMARK SMILES O=C(OCCOCCOCCOC(=O)c1nccnc1C(=O)Nc1n[nH]c2ncccc12)c1ccc(-c2c3nc(c(-c4cc(S(=O)(=O)[O-])ccc4F)c4ccc([nH]4)c(-c4cc(S(=O)(=O)[O-])ccc4F)c4nc(c(-c5cc(S(=O)(=O)[O-])ccc5F)c5ccc2[nH]5)C=C4)C=C3)cc1
REMARK SMILES IDX 7 1 6 2 5 3 4 4 3 5 2 6 1 7 33 8 34 9 95 10 35 11 94 12
REMARK SMILES IDX 36 13 37 14 38 15 88 16 39 17 93 18 87 19 89 20 40 21 92 22
REMARK SMILES IDX 86 23 85 24 41 26 73 27 53 28 72 29 54 30 57 31 71 32 90 33
REMARK SMILES IDX 55 34 56 35 70 37 91 38 58 39 42 40 43 41 51 42 44 43 50 44
REMARK SMILES IDX 52 45 49 46 45 47 46 48 47 49 48 50 74 51 75 52 83 53 76 54
REMARK SMILES IDX 82 55 84 56 81 57 77 58 78 59 79 60 80 61 59 62 60 63 68 64
REMARK SMILES IDX 61 65 67 66 69 67 66 68 62 69 63 70 64 71 65 72 8 73 9 74
REMARK SMILES IDX 10 75 11 76 12 77 13 78 14 79 15 80 16 81 20 82 17 83 19 84
REMARK SMILES IDX 18 85 21 86 22 87 23 88 24 90 25 91 32 92 26 93 27 94 31 95
REMARK SMILES IDX 28 97 30 98 29 99
REMARK H PARENT 89 25 57 36 23 89 26 96
REMARK Flexibility Score: inf
ROOT
ATOM      1  C   UNL     1       3.013   1.525  -0.570  1.00  0.00     0.188 C 
ENDROOT
BRANCH   1   2
ATOM      2  O   UNL     1       4.357   1.058  -0.426  1.00  0.00    -0.376 OA
BRANCH   2   3
ATOM      3  C   UNL     1       5.001   0.715  -1.651  1.00  0.00     0.202 C 
BRANCH   3   4
ATOM      4  C   UNL     1       4.702  -0.693  -2.192  1.00  0.00     0.261 C 
BRANCH   4   5
ATOM      5  O   UNL     1       3.361  -1.149  -1.964  1.00  0.00    -0.460 OA
BRANCH   5   6
ATOM      6  C   UNL     1       2.846  -1.835  -0.913  1.00  0.00     0.338 C 
ATOM      7  O   UNL     1       1.719  -2.313  -1.048  1.00  0.00    -0.246 OA
BRANCH   6   8
ATOM      8  C   UNL     1       3.513  -1.988   0.427  1.00  0.00     0.060 A 
ATOM      9  C   UNL     1       4.834  -1.656   0.726  1.00  0.00     0.016 A 
ATOM     10  C   UNL     1       2.735  -2.543   1.467  1.00  0.00     0.016 A 
ATOM     11  C   UNL     1       5.381  -1.903   1.982  1.00  0.00     0.010 A 
ATOM     12  C   UNL     1       3.280  -2.810   2.732  1.00  0.00     0.010 A 
ATOM     13  C   UNL     1       4.623  -2.525   2.973  1.00  0.00    -0.014 A 
BRANCH  13  14
ATOM     14  C   UNL     1       5.374  -3.054   4.129  1.00  0.00     0.031 A 
ATOM     15  C   UNL     1       6.011  -4.404   3.974  1.00  0.00     0.074 A 
ATOM     16  C   UNL     1       5.677  -2.256   5.167  1.00  0.00     0.049 A 
ATOM     17  N   UNL     1       6.921  -4.978   4.713  1.00  0.00    -0.248 NA
ATOM     18  C   UNL     1       5.607  -5.184   2.792  1.00  0.00     0.031 C 
ATOM     19  C   UNL     1       5.199  -0.887   5.335  1.00  0.00     0.029 A 
ATOM     20  N   UNL     1       6.497  -2.460   6.245  1.00  0.00    -0.354 N 
ATOM     21  C   UNL     1       7.246  -6.156   4.052  1.00  0.00     0.074 A 
ATOM     22  C   UNL     1       6.399  -6.239   2.882  1.00  0.00     0.031 C 
ATOM     23  C   UNL     1       5.750  -0.365   6.444  1.00  0.00     0.029 A 
ATOM     24  C   UNL     1       6.581  -1.377   7.087  1.00  0.00     0.049 A 
ATOM     25  H   UNL     1       6.980  -3.303   6.401  1.00  0.00     0.167 HD
ATOM     26  C   UNL     1       8.180  -7.078   4.385  1.00  0.00     0.034 A 
ATOM     27  C   UNL     1       7.245  -1.230   8.250  1.00  0.00     0.034 A 
ATOM     28  C   UNL     1       8.936  -7.026   5.608  1.00  0.00     0.049 A 
ATOM     29  C   UNL     1       8.134  -2.361   8.703  1.00  0.00     0.074 A 
ATOM     30  C   UNL     1       9.802  -7.967   6.135  1.00  0.00     0.029 A 
ATOM     31  N   UNL     1       8.890  -5.974   6.517  1.00  0.00    -0.354 N 
ATOM     32  N   UNL     1       8.410  -3.489   8.086  1.00  0.00    -0.248 NA
ATOM     33  C   UNL     1       8.816  -2.195   9.991  1.00  0.00     0.031 C 
ATOM     34  C   UNL     1      10.228  -7.512   7.389  1.00  0.00     0.029 A 
ATOM     35  C   UNL     1       9.687  -6.255   7.613  1.00  0.00     0.049 A 
ATOM     36  H   UNL     1       8.366  -5.149   6.397  1.00  0.00     0.167 HD
ATOM     37  C   UNL     1       9.316  -4.157   8.903  1.00  0.00     0.074 A 
ATOM     38  C   UNL     1       9.561  -3.289  10.039  1.00  0.00     0.031 C 
ATOM     39  C   UNL     1       9.895  -5.375   8.739  1.00  0.00     0.034 A 
BRANCH  26  40
ATOM     40  C   UNL     1       8.342  -8.240   3.441  1.00  0.00     0.023 A 
ATOM     41  C   UNL     1       8.853  -8.060   2.142  1.00  0.00     0.031 A 
ATOM     42  C   UNL     1       7.895  -9.521   3.804  1.00  0.00     0.131 A 
ATOM     43  C   UNL     1       8.841  -9.127   1.231  1.00  0.00     0.055 A 
ATOM     44  C   UNL     1       7.949 -10.596   2.915  1.00  0.00     0.041 A 
ATOM     45  F   UNL     1       7.366  -9.741   5.018  1.00  0.00    -0.206 F 
ATOM     46  C   UNL     1       8.411 -10.400   1.616  1.00  0.00     0.022 A 
BRANCH  43  47
ATOM     47  S   UNL     1       9.260  -8.796  -0.503  1.00  0.00     0.124 S 
ATOM     48  O   UNL     1       8.240  -7.818  -0.874  1.00  0.00    -0.237 OA
ATOM     49  O   UNL     1      10.624  -8.289  -0.408  1.00  0.00    -0.237 OA
ATOM     50  O   UNL     1       9.124 -10.102  -1.145  1.00  0.00    -0.744 OA
ENDBRANCH  43  47
ENDBRANCH  26  40
BRANCH  27  51
ATOM     51  C   UNL     1       7.050  -0.014   9.096  1.00  0.00     0.023 A 
ATOM     52  C   UNL     1       8.120   0.818   9.457  1.00  0.00     0.031 A 
ATOM     53  C   UNL     1       5.782   0.281   9.633  1.00  0.00     0.131 A 
ATOM     54  C   UNL     1       7.914   1.867  10.370  1.00  0.00     0.055 A 
ATOM     55  C   UNL     1       5.570   1.361  10.490  1.00  0.00     0.041 A 
ATOM     56  F   UNL     1       4.722  -0.487   9.331  1.00  0.00    -0.206 F 
ATOM     57  C   UNL     1       6.645   2.152  10.877  1.00  0.00     0.022 A 
BRANCH  54  58
ATOM     58  S   UNL     1       9.357   2.782  10.982  1.00  0.00     0.124 S 
ATOM     59  O   UNL     1      10.203   1.702  11.480  1.00  0.00    -0.237 OA
ATOM     60  O   UNL     1       9.822   3.454   9.773  1.00  0.00    -0.237 OA
ATOM     61  O   UNL     1       8.795   3.658  12.007  1.00  0.00    -0.744 OA
ENDBRANCH  54  58
ENDBRANCH  27  51
BRANCH  39  62
ATOM     62  C   UNL     1      10.858  -5.813   9.812  1.00  0.00     0.023 A 
ATOM     63  C   UNL     1      10.424  -6.082  11.121  1.00  0.00     0.031 A 
ATOM     64  C   UNL     1      12.229  -5.941   9.526  1.00  0.00     0.131 A 
ATOM     65  C   UNL     1      11.360  -6.401  12.114  1.00  0.00     0.055 A 
ATOM     66  C   UNL     1      13.148  -6.322  10.504  1.00  0.00     0.041 A 
ATOM     67  F   UNL     1      12.696  -5.696   8.292  1.00  0.00    -0.206 F 
ATOM     68  C   UNL     1      12.717  -6.539  11.811  1.00  0.00     0.022 A 
BRANCH  65  69
ATOM     69  S   UNL     1      10.791  -6.530  13.831  1.00  0.00     0.124 S 
ATOM     70  O   UNL     1      10.197  -5.215  14.052  1.00  0.00    -0.237 OA
ATOM     71  O   UNL     1       9.857  -7.649  13.765  1.00  0.00    -0.237 OA
ATOM     72  O   UNL     1      12.019  -6.790  14.579  1.00  0.00    -0.744 OA
ENDBRANCH  65  69
ENDBRANCH  39  62
ENDBRANCH  13  14
ENDBRANCH   6   8
ENDBRANCH   5   6
ENDBRANCH   4   5
ENDBRANCH   3   4
ENDBRANCH   2   3
ENDBRANCH   1   2
BRANCH   1  73
ATOM     73  C   UNL     1       2.917   2.936  -1.151  1.00  0.00     0.188 C 
BRANCH  73  74
ATOM     74  O   UNL     1       3.238   3.995  -0.263  1.00  0.00    -0.376 OA
BRANCH  74  75
ATOM     75  C   UNL     1       4.568   4.124   0.222  1.00  0.00     0.202 C 
BRANCH  75  76
ATOM     76  C   UNL     1       4.976   3.664   1.778  1.00  0.00     0.261 C 
BRANCH  76  77
ATOM     77  O   UNL     1       3.993   3.924   3.539  1.00  0.00    -0.458 OA
BRANCH  77  78
ATOM     78  C   UNL     1       3.173   3.845   4.696  1.00  0.00     0.359 C 
ATOM     79  O   UNL     1       2.926   4.862   5.348  1.00  0.00    -0.244 OA
BRANCH  78  80
ATOM     80  C   UNL     1       2.564   2.557   5.192  1.00  0.00     0.179 A 
ATOM     81  N   UNL     1       3.162   2.231   6.394  1.00  0.00    -0.245 NA
ATOM     82  C   UNL     1       1.542   1.754   4.654  1.00  0.00     0.161 A 
ATOM     83  C   UNL     1       2.751   1.115   7.026  1.00  0.00     0.132 A 
ATOM     84  N   UNL     1       1.217   0.578   5.306  1.00  0.00    -0.247 NA
ATOM     85  C   UNL     1       1.816   0.282   6.475  1.00  0.00     0.132 A 
BRANCH  82  86
ATOM     86  C   UNL     1       0.568   1.900   3.476  1.00  0.00     0.278 C 
ATOM     87  O   UNL     1      -0.313   1.040   3.325  1.00  0.00    -0.267 OA
ATOM     88  N   UNL     1       0.467   2.957   2.615  1.00  0.00    -0.303 N 
ATOM     89  H   UNL     1      -0.441   3.158   2.293  1.00  0.00     0.172 HD
BRANCH  88  90
ATOM     90  C   UNL     1       1.446   3.763   2.147  1.00  0.00     0.164 A 
ATOM     91  N   UNL     1       1.143   5.013   1.762  1.00  0.00    -0.155 NA
ATOM     92  C   UNL     1       2.812   3.447   2.168  1.00  0.00     0.063 A 
ATOM     93  N   UNL     1       2.265   5.783   1.912  1.00  0.00    -0.259 N 
ATOM     94  C   UNL     1       3.395   5.101   2.250  1.00  0.00     0.157 A 
ATOM     95  C   UNL     1       3.859   2.122   2.833  1.00  0.00     0.017 A 
ATOM     96  H   UNL     1       2.256   6.759   1.784  1.00  0.00     0.192 HD
ATOM     97  N   UNL     1       4.883   5.565   2.965  1.00  0.00    -0.237 NA
ATOM     98  C   UNL     1       5.388   2.569   3.664  1.00  0.00     0.021 A 
ATOM     99  C   UNL     1       5.819   4.269   3.720  1.00  0.00     0.113 A 
ENDBRANCH  88  90
ENDBRANCH  82  86
ENDBRANCH  78  80
ENDBRANCH  77  78
ENDBRANCH  76  77
ENDBRANCH  75  76
ENDBRANCH  74  75
ENDBRANCH  73  74
ENDBRANCH   1  73
TORSDOF 22
