REMARK SMILES O=C(CC[C@H]1CCCC[N@H+]1C[C@@H]1COc2ccccc21)OCCOCCOCCOC(=O)c1ccc(-c2c3nc(c(-c4cc(S(=O)(=O)[O-])ccc4F)c4ccc([nH]4)c(-c4cc(S(=O)(=O)[O-])ccc4F)c4nc(c(-c5cc(S(=O)(=O)[O-])ccc5F)c5ccc2[nH]5)C=C4)C=C3)cc1
REMARK SMILES IDX 25 1 24 2 23 3 22 4 21 5 2 6 1 7 3 8 4 9 5 10 6 11 10 12
REMARK SMILES IDX 7 13 9 14 8 16 11 17 12 18 13 19 20 20 14 21 15 22 19 23
REMARK SMILES IDX 16 24 18 25 17 26 26 27 27 28 28 29 29 30 30 31 31 32 32 33
REMARK SMILES IDX 33 34 34 35 95 36 35 37 94 38 36 39 37 40 38 41 88 42 39 43
REMARK SMILES IDX 93 44 87 45 89 46 40 47 92 48 86 49 85 50 41 52 73 53 53 54
REMARK SMILES IDX 72 55 54 56 57 57 71 58 90 59 55 60 56 61 70 63 91 64 58 65
REMARK SMILES IDX 42 66 43 67 51 68 44 69 50 70 52 71 49 72 45 73 46 74 47 75
REMARK SMILES IDX 48 76 74 77 75 78 83 79 76 80 82 81 84 82 81 83 77 84 78 85
REMARK SMILES IDX 79 86 80 87 59 88 60 89 68 90 61 91 67 92 69 93 66 94 62 95
REMARK SMILES IDX 63 96 64 97 65 98
REMARK H PARENT 10 15 89 51 57 62
REMARK Flexibility Score: inf
ROOT
ATOM      1  C   UNL     1       3.519   3.324   0.343  1.00  0.00     0.188 C 
ENDROOT
BRANCH   1   2
ATOM      2  O   UNL     1       4.029   4.414  -0.407  1.00  0.00    -0.376 OA
BRANCH   2   3
ATOM      3  C   UNL     1       3.333   4.896  -1.557  1.00  0.00     0.202 C 
BRANCH   3   4
ATOM      4  C   UNL     1       2.122   4.131  -2.148  1.00  0.00     0.261 C 
BRANCH   4   5
ATOM      5  O   UNL     1       2.345   2.712  -2.073  1.00  0.00    -0.463 OA
BRANCH   5   6
ATOM      6  C   UNL     1       1.989   1.817  -3.034  1.00  0.00     0.306 C 
ATOM      7  O   UNL     1       1.217   2.038  -3.951  1.00  0.00    -0.252 OA
BRANCH   6   8
ATOM      8  C   UNL     1       2.695   0.507  -2.734  1.00  0.00     0.129 C 
BRANCH   8   9
ATOM      9  C   UNL     1       3.614  -0.195  -3.743  1.00  0.00     0.077 C 
BRANCH   9  10
ATOM     10  C   UNL     1       5.038   0.370  -4.011  1.00  0.00     0.184 C 
ATOM     11  C   UNL     1       5.171   0.791  -5.501  1.00  0.00     0.065 C 
ATOM     12  N   UNL     1       5.424   1.478  -3.175  1.00  0.00    -0.332 N 
ATOM     13  C   UNL     1       4.140   1.843  -5.864  1.00  0.00     0.012 C 
ATOM     14  C   UNL     1       5.072   2.812  -3.638  1.00  0.00     0.262 C 
ATOM     15  H   UNL     1       6.293   0.984  -3.380  1.00  0.00     0.348 HD
ATOM     16  C   UNL     1       4.232   3.024  -4.918  1.00  0.00     0.062 C 
BRANCH  12  17
ATOM     17  C   UNL     1       5.937   1.397  -1.792  1.00  0.00     0.274 C 
BRANCH  17  18
ATOM     18  C   UNL     1       5.943   0.215  -0.749  1.00  0.00     0.116 C 
ATOM     19  C   UNL     1       6.863  -0.940  -1.152  1.00  0.00     0.244 C 
ATOM     20  C   UNL     1       4.732  -0.592  -0.417  1.00  0.00     0.006 A 
ATOM     21  O   UNL     1       6.055  -2.034  -1.640  1.00  0.00    -0.492 OA
ATOM     22  C   UNL     1       4.851  -1.839  -1.012  1.00  0.00     0.123 A 
ATOM     23  C   UNL     1       3.598  -0.303   0.333  1.00  0.00     0.008 A 
ATOM     24  C   UNL     1       3.817  -2.757  -1.023  1.00  0.00     0.047 A 
ATOM     25  C   UNL     1       2.522  -1.201   0.310  1.00  0.00     0.001 A 
ATOM     26  C   UNL     1       2.623  -2.412  -0.389  1.00  0.00     0.004 A 
ENDBRANCH  17  18
ENDBRANCH  12  17
ENDBRANCH   9  10
ENDBRANCH   8   9
ENDBRANCH   6   8
ENDBRANCH   5   6
ENDBRANCH   4   5
ENDBRANCH   3   4
ENDBRANCH   2   3
ENDBRANCH   1   2
BRANCH   1  27
ATOM     27  C   UNL     1       2.173   3.526   1.042  1.00  0.00     0.188 C 
BRANCH  27  28
ATOM     28  O   UNL     1       1.933   4.678   1.837  1.00  0.00    -0.376 OA
BRANCH  28  29
ATOM     29  C   UNL     1       2.861   5.746   1.835  1.00  0.00     0.202 C 
BRANCH  29  30
ATOM     30  C   UNL     1       4.153   5.564   2.655  1.00  0.00     0.261 C 
BRANCH  30  31
ATOM     31  O   UNL     1       4.549   4.217   2.955  1.00  0.00    -0.460 OA
BRANCH  31  32
ATOM     32  C   UNL     1       3.825   3.613   3.928  1.00  0.00     0.338 C 
ATOM     33  O   UNL     1       2.919   4.103   4.572  1.00  0.00    -0.246 OA
BRANCH  32  34
ATOM     34  C   UNL     1       4.245   2.199   4.061  1.00  0.00     0.060 A 
ATOM     35  C   UNL     1       3.269   1.205   3.940  1.00  0.00     0.016 A 
ATOM     36  C   UNL     1       5.543   1.866   4.459  1.00  0.00     0.016 A 
ATOM     37  C   UNL     1       3.565  -0.113   4.290  1.00  0.00     0.010 A 
ATOM     38  C   UNL     1       5.833   0.544   4.830  1.00  0.00     0.010 A 
ATOM     39  C   UNL     1       4.828  -0.439   4.803  1.00  0.00    -0.014 A 
BRANCH  39  40
ATOM     40  C   UNL     1       4.990  -1.735   5.519  1.00  0.00     0.031 A 
ATOM     41  C   UNL     1       4.872  -1.748   7.025  1.00  0.00     0.074 A 
ATOM     42  C   UNL     1       5.135  -2.894   4.849  1.00  0.00     0.049 A 
ATOM     43  N   UNL     1       4.933  -2.755   7.859  1.00  0.00    -0.248 NA
ATOM     44  C   UNL     1       4.648  -0.447   7.673  1.00  0.00     0.031 C 
ATOM     45  C   UNL     1       5.202  -3.025   3.395  1.00  0.00     0.029 A 
ATOM     46  N   UNL     1       5.242  -4.184   5.310  1.00  0.00    -0.354 N 
ATOM     47  C   UNL     1       4.736  -2.213   9.126  1.00  0.00     0.074 A 
ATOM     48  C   UNL     1       4.613  -0.781   8.953  1.00  0.00     0.031 C 
ATOM     49  C   UNL     1       5.349  -4.325   3.083  1.00  0.00     0.029 A 
ATOM     50  C   UNL     1       5.415  -5.115   4.312  1.00  0.00     0.049 A 
ATOM     51  H   UNL     1       5.198  -4.420   6.265  1.00  0.00     0.167 HD
ATOM     52  C   UNL     1       4.646  -2.848  10.322  1.00  0.00     0.034 A 
ATOM     53  C   UNL     1       5.623  -6.447   4.384  1.00  0.00     0.034 A 
ATOM     54  C   UNL     1       4.793  -4.274  10.491  1.00  0.00     0.049 A 
ATOM     55  C   UNL     1       5.623  -7.121   5.739  1.00  0.00     0.074 A 
ATOM     56  C   UNL     1       4.741  -5.015  11.659  1.00  0.00     0.029 A 
ATOM     57  N   UNL     1       5.030  -5.177   9.463  1.00  0.00    -0.354 N 
ATOM     58  N   UNL     1       5.438  -6.595   6.929  1.00  0.00    -0.248 NA
ATOM     59  C   UNL     1       5.841  -8.574   5.756  1.00  0.00     0.031 C 
ATOM     60  C   UNL     1       5.021  -6.350  11.348  1.00  0.00     0.029 A 
ATOM     61  C   UNL     1       5.157  -6.461   9.974  1.00  0.00     0.049 A 
ATOM     62  H   UNL     1       5.099  -4.941   8.509  1.00  0.00     0.167 HD
ATOM     63  C   UNL     1       5.486  -7.660   7.829  1.00  0.00     0.074 A 
ATOM     64  C   UNL     1       5.687  -8.857   7.040  1.00  0.00     0.031 C 
ATOM     65  C   UNL     1       5.373  -7.651   9.183  1.00  0.00     0.034 A 
BRANCH  52  66
ATOM     66  C   UNL     1       4.417  -1.992  11.547  1.00  0.00     0.023 A 
ATOM     67  C   UNL     1       3.238  -1.243  11.716  1.00  0.00     0.031 A 
ATOM     68  C   UNL     1       5.396  -1.909  12.553  1.00  0.00     0.131 A 
ATOM     69  C   UNL     1       3.098  -0.397  12.828  1.00  0.00     0.055 A 
ATOM     70  C   UNL     1       5.215  -1.129  13.697  1.00  0.00     0.041 A 
ATOM     71  F   UNL     1       6.553  -2.582  12.438  1.00  0.00    -0.206 F 
ATOM     72  C   UNL     1       4.066  -0.356  13.833  1.00  0.00     0.022 A 
BRANCH  69  73
ATOM     73  S   UNL     1       1.696   0.753  12.873  1.00  0.00     0.124 S 
ATOM     74  O   UNL     1       1.908   1.524  11.650  1.00  0.00    -0.237 OA
ATOM     75  O   UNL     1       0.548  -0.147  12.872  1.00  0.00    -0.237 OA
ATOM     76  O   UNL     1       1.903   1.498  14.114  1.00  0.00    -0.744 OA
ENDBRANCH  69  73
ENDBRANCH  52  66
BRANCH  53  77
ATOM     77  C   UNL     1       5.905  -7.238   3.148  1.00  0.00     0.023 A 
ATOM     78  C   UNL     1       5.080  -8.303   2.749  1.00  0.00     0.031 A 
ATOM     79  C   UNL     1       7.065  -6.988   2.392  1.00  0.00     0.131 A 
ATOM     80  C   UNL     1       5.458  -9.113   1.665  1.00  0.00     0.055 A 
ATOM     81  C   UNL     1       7.401  -7.755   1.275  1.00  0.00     0.041 A 
ATOM     82  F   UNL     1       7.897  -5.991   2.733  1.00  0.00    -0.206 F 
ATOM     83  C   UNL     1       6.603  -8.836   0.916  1.00  0.00     0.022 A 
BRANCH  80  84
ATOM     84  S   UNL     1       4.492 -10.609   1.318  1.00  0.00     0.124 S 
ATOM     85  O   UNL     1       4.568 -11.314   2.592  1.00  0.00    -0.237 OA
ATOM     86  O   UNL     1       3.188 -10.054   0.969  1.00  0.00    -0.237 OA
ATOM     87  O   UNL     1       5.217 -11.234   0.213  1.00  0.00    -0.744 OA
ENDBRANCH  80  84
ENDBRANCH  53  77
BRANCH  65  88
ATOM     88  C   UNL     1       5.421  -8.989   9.888  1.00  0.00     0.023 A 
ATOM     89  C   UNL     1       6.564  -9.808   9.850  1.00  0.00     0.031 A 
ATOM     90  C   UNL     1       4.293  -9.470  10.579  1.00  0.00     0.131 A 
ATOM     91  C   UNL     1       6.527 -11.092  10.414  1.00  0.00     0.055 A 
ATOM     92  C   UNL     1       4.289 -10.718  11.206  1.00  0.00     0.041 A 
ATOM     93  F   UNL     1       3.171  -8.738  10.651  1.00  0.00    -0.206 F 
ATOM     94  C   UNL     1       5.403 -11.546  11.108  1.00  0.00     0.022 A 
BRANCH  91  95
ATOM     95  S   UNL     1       7.919 -12.216  10.110  1.00  0.00     0.124 S 
ATOM     96  O   UNL     1       7.982 -12.232   8.652  1.00  0.00    -0.237 OA
ATOM     97  O   UNL     1       9.019 -11.541  10.789  1.00  0.00    -0.237 OA
ATOM     98  O   UNL     1       7.488 -13.471  10.725  1.00  0.00    -0.744 OA
ENDBRANCH  91  95
ENDBRANCH  65  88
ENDBRANCH  39  40
ENDBRANCH  32  34
ENDBRANCH  31  32
ENDBRANCH  30  31
ENDBRANCH  29  30
ENDBRANCH  28  29
ENDBRANCH  27  28
ENDBRANCH   1  27
TORSDOF 24
