REMARK SMILES O=C(OCCOCCOCCOC(=O)c1c(-c2ccc(Cl)cc2)noc1CO[C@@H]1CCCCO1)c1ccc(-c2c3nc(c(-c4cc(S(=O)(=O)[O-])ccc4F)c4ccc([nH]4)c(-c4cc(S(=O)(=O)[O-])ccc4F)c4nc(c(-c5cc(S(=O)(=O)[O-])ccc5F)c5ccc2[nH]5)C=C4)C=C3)cc1
REMARK SMILES IDX 7 1 6 2 5 3 4 4 3 5 2 6 1 7 35 8 36 9 97 10 37 11 96 12
REMARK SMILES IDX 38 13 39 14 40 15 90 16 41 17 95 18 89 19 91 20 42 21 94 22
REMARK SMILES IDX 88 23 87 24 43 26 75 27 55 28 74 29 56 30 59 31 73 32 92 33
REMARK SMILES IDX 57 34 58 35 72 37 93 38 60 39 44 40 45 41 53 42 46 43 52 44
REMARK SMILES IDX 54 45 51 46 47 47 48 48 49 49 50 50 76 51 77 52 85 53 78 54
REMARK SMILES IDX 84 55 86 56 83 57 79 58 80 59 81 60 82 61 61 62 62 63 70 64
REMARK SMILES IDX 63 65 69 66 71 67 68 68 64 69 65 70 66 71 67 72 8 73 9 74
REMARK SMILES IDX 10 75 11 76 12 77 13 78 14 79 15 80 16 81 26 82 24 83 25 84
REMARK SMILES IDX 17 85 18 86 23 87 19 88 22 89 20 90 21 91 27 92 28 93 29 94
REMARK SMILES IDX 30 95 34 96 31 97 33 98 32 99
REMARK H PARENT 91 25 59 36
REMARK Flexibility Score: inf
ROOT
ATOM      1  C   UNL     1       2.880   0.337   1.904  1.00  0.00     0.188 C 
ENDROOT
BRANCH   1   2
ATOM      2  O   UNL     1       4.221   0.366   1.392  1.00  0.00    -0.376 OA
BRANCH   2   3
ATOM      3  C   UNL     1       4.788   1.677   1.340  1.00  0.00     0.202 C 
BRANCH   3   4
ATOM      4  C   UNL     1       5.300   1.985  -0.071  1.00  0.00     0.261 C 
BRANCH   4   5
ATOM      5  O   UNL     1       4.247   2.099  -1.051  1.00  0.00    -0.460 OA
BRANCH   5   6
ATOM      6  C   UNL     1       3.351   1.098  -1.240  1.00  0.00     0.338 C 
ATOM      7  O   UNL     1       2.146   1.283  -1.117  1.00  0.00    -0.246 OA
BRANCH   6   8
ATOM      8  C   UNL     1       3.863  -0.112  -1.935  1.00  0.00     0.060 A 
ATOM      9  C   UNL     1       4.907  -0.900  -1.444  1.00  0.00     0.016 A 
ATOM     10  C   UNL     1       3.206  -0.503  -3.110  1.00  0.00     0.016 A 
ATOM     11  C   UNL     1       5.359  -2.006  -2.167  1.00  0.00     0.010 A 
ATOM     12  C   UNL     1       3.631  -1.633  -3.815  1.00  0.00     0.010 A 
ATOM     13  C   UNL     1       4.735  -2.370  -3.366  1.00  0.00    -0.014 A 
BRANCH  13  14
ATOM     14  C   UNL     1       5.290  -3.477  -4.178  1.00  0.00     0.031 A 
ATOM     15  C   UNL     1       6.079  -3.164  -5.418  1.00  0.00     0.074 A 
ATOM     16  C   UNL     1       5.113  -4.755  -3.798  1.00  0.00     0.049 A 
ATOM     17  N   UNL     1       6.646  -3.981  -6.266  1.00  0.00    -0.248 NA
ATOM     18  C   UNL     1       6.247  -1.740  -5.743  1.00  0.00     0.031 C 
ATOM     19  C   UNL     1       4.374  -5.192  -2.613  1.00  0.00     0.029 A 
ATOM     20  N   UNL     1       5.539  -5.922  -4.379  1.00  0.00    -0.354 N 
ATOM     21  C   UNL     1       7.241  -3.174  -7.227  1.00  0.00     0.074 A 
ATOM     22  C   UNL     1       6.933  -1.803  -6.874  1.00  0.00     0.031 C 
ATOM     23  C   UNL     1       4.400  -6.534  -2.556  1.00  0.00     0.029 A 
ATOM     24  C   UNL     1       5.128  -7.049  -3.711  1.00  0.00     0.049 A 
ATOM     25  H   UNL     1       6.088  -5.948  -5.196  1.00  0.00     0.167 HD
ATOM     26  C   UNL     1       7.991  -3.536  -8.296  1.00  0.00     0.034 A 
ATOM     27  C   UNL     1       5.295  -8.351  -4.012  1.00  0.00     0.034 A 
ATOM     28  C   UNL     1       8.303  -4.896  -8.646  1.00  0.00     0.049 A 
ATOM     29  C   UNL     1       6.033  -8.731  -5.264  1.00  0.00     0.074 A 
ATOM     30  C   UNL     1       9.123  -5.368  -9.656  1.00  0.00     0.029 A 
ATOM     31  N   UNL     1       7.786  -6.011  -8.001  1.00  0.00    -0.354 N 
ATOM     32  N   UNL     1       6.615  -7.954  -6.146  1.00  0.00    -0.248 NA
ATOM     33  C   UNL     1       6.121 -10.166  -5.567  1.00  0.00     0.031 C 
ATOM     34  C   UNL     1       9.068  -6.770  -9.648  1.00  0.00     0.029 A 
ATOM     35  C   UNL     1       8.236  -7.168  -8.614  1.00  0.00     0.049 A 
ATOM     36  H   UNL     1       7.186  -5.983  -7.221  1.00  0.00     0.167 HD
ATOM     37  C   UNL     1       7.147  -8.808  -7.105  1.00  0.00     0.074 A 
ATOM     38  C   UNL     1       6.812 -10.158  -6.699  1.00  0.00     0.031 C 
ATOM     39  C   UNL     1       7.864  -8.502  -8.216  1.00  0.00     0.034 A 
BRANCH  26  40
ATOM     40  C   UNL     1       8.490  -2.419  -9.169  1.00  0.00     0.023 A 
ATOM     41  C   UNL     1       9.502  -1.550  -8.727  1.00  0.00     0.031 A 
ATOM     42  C   UNL     1       7.888  -2.169 -10.412  1.00  0.00     0.131 A 
ATOM     43  C   UNL     1       9.837  -0.427  -9.496  1.00  0.00     0.055 A 
ATOM     44  C   UNL     1       8.265  -1.080 -11.199  1.00  0.00     0.041 A 
ATOM     45  F   UNL     1       6.899  -2.957 -10.862  1.00  0.00    -0.206 F 
ATOM     46  C   UNL     1       9.235  -0.193 -10.736  1.00  0.00     0.022 A 
BRANCH  43  47
ATOM     47  S   UNL     1      10.978   0.795  -8.793  1.00  0.00     0.124 S 
ATOM     48  O   UNL     1      10.271   1.200  -7.580  1.00  0.00    -0.237 OA
ATOM     49  O   UNL     1      12.193   0.014  -8.593  1.00  0.00    -0.237 OA
ATOM     50  O   UNL     1      11.061   1.823  -9.829  1.00  0.00    -0.744 OA
ENDBRANCH  43  47
ENDBRANCH  26  40
BRANCH  27  51
ATOM     51  C   UNL     1       4.699  -9.394  -3.140  1.00  0.00     0.023 A 
ATOM     52  C   UNL     1       5.499 -10.156  -2.278  1.00  0.00     0.031 A 
ATOM     53  C   UNL     1       3.317  -9.646  -3.175  1.00  0.00     0.131 A 
ATOM     54  C   UNL     1       4.908 -11.150  -1.483  1.00  0.00     0.055 A 
ATOM     55  C   UNL     1       2.732 -10.622  -2.370  1.00  0.00     0.041 A 
ATOM     56  F   UNL     1       2.522  -8.939  -3.993  1.00  0.00    -0.206 F 
ATOM     57  C   UNL     1       3.530 -11.385  -1.521  1.00  0.00     0.022 A 
BRANCH  54  58
ATOM     58  S   UNL     1       5.978 -12.172  -0.433  1.00  0.00     0.124 S 
ATOM     59  O   UNL     1       6.976 -12.646  -1.386  1.00  0.00    -0.237 OA
ATOM     60  O   UNL     1       6.448 -11.205   0.554  1.00  0.00    -0.237 OA
ATOM     61  O   UNL     1       5.075 -13.200   0.080  1.00  0.00    -0.744 OA
ENDBRANCH  54  58
ENDBRANCH  27  51
BRANCH  39  62
ATOM     62  C   UNL     1       8.340  -9.660  -9.043  1.00  0.00     0.023 A 
ATOM     63  C   UNL     1       7.484 -10.306  -9.949  1.00  0.00     0.031 A 
ATOM     64  C   UNL     1       9.653 -10.138  -8.898  1.00  0.00     0.131 A 
ATOM     65  C   UNL     1       7.944 -11.426 -10.658  1.00  0.00     0.055 A 
ATOM     66  C   UNL     1      10.113 -11.235  -9.626  1.00  0.00     0.041 A 
ATOM     67  F   UNL     1      10.501  -9.551  -8.039  1.00  0.00    -0.206 F 
ATOM     68  C   UNL     1       9.255 -11.888 -10.508  1.00  0.00     0.022 A 
BRANCH  65  69
ATOM     69  S   UNL     1       6.804 -12.292 -11.772  1.00  0.00     0.124 S 
ATOM     70  O   UNL     1       5.893 -12.934 -10.830  1.00  0.00    -0.237 OA
ATOM     71  O   UNL     1       6.240 -11.204 -12.563  1.00  0.00    -0.237 OA
ATOM     72  O   UNL     1       7.676 -13.203 -12.511  1.00  0.00    -0.744 OA
ENDBRANCH  65  69
ENDBRANCH  39  62
ENDBRANCH  13  14
ENDBRANCH   6   8
ENDBRANCH   5   6
ENDBRANCH   4   5
ENDBRANCH   3   4
ENDBRANCH   2   3
ENDBRANCH   1   2
BRANCH   1  73
ATOM     73  C   UNL     1       2.868   0.293   3.433  1.00  0.00     0.188 C 
BRANCH  73  74
ATOM     74  O   UNL     1       2.806  -1.043   3.932  1.00  0.00    -0.376 OA
BRANCH  74  75
ATOM     75  C   UNL     1       4.011  -1.790   3.788  1.00  0.00     0.202 C 
BRANCH  75  76
ATOM     76  C   UNL     1       3.697  -3.269   4.015  1.00  0.00     0.261 C 
BRANCH  76  77
ATOM     77  O   UNL     1       3.414  -3.959   2.779  1.00  0.00    -0.459 OA
BRANCH  77  78
ATOM     78  C   UNL     1       2.160  -3.840   2.262  1.00  0.00     0.344 C 
ATOM     79  O   UNL     1       1.298  -3.086   2.691  1.00  0.00    -0.246 OA
BRANCH  78  80
ATOM     80  C   UNL     1       1.909  -4.777   1.190  1.00  0.00     0.133 A 
ATOM     81  C   UNL     1       0.960  -4.673   0.137  1.00  0.00     0.128 A 
ATOM     82  C   UNL     1       2.479  -6.023   1.004  1.00  0.00     0.177 A 
ATOM     83  N   UNL     1       0.940  -5.787  -0.605  1.00  0.00    -0.079 NA
ATOM     84  O   UNL     1       1.897  -6.623  -0.067  1.00  0.00    -0.357 OA
BRANCH  81  85
ATOM     85  C   UNL     1       0.095  -3.551  -0.185  1.00  0.00     0.005 A 
ATOM     86  C   UNL     1       0.640  -2.368  -0.700  1.00  0.00     0.012 A 
ATOM     87  C   UNL     1      -1.286  -3.646   0.024  1.00  0.00     0.012 A 
ATOM     88  C   UNL     1      -0.192  -1.284  -0.995  1.00  0.00     0.021 A 
ATOM     89  C   UNL     1      -2.115  -2.558  -0.265  1.00  0.00     0.021 A 
ATOM     90  C   UNL     1      -1.563  -1.382  -0.771  1.00  0.00     0.041 A 
ATOM     91  Cl  UNL     1      -2.586  -0.044  -1.124  1.00  0.00    -0.084 Cl
ENDBRANCH  81  85
BRANCH  82  92
ATOM     92  C   UNL     1       3.536  -6.798   1.694  1.00  0.00     0.242 C 
BRANCH  92  93
ATOM     93  O   UNL     1       3.071  -8.051   2.166  1.00  0.00    -0.345 OA
BRANCH  93  94
ATOM     94  C   UNL     1       2.004  -8.140   3.095  1.00  0.00     0.250 C 
ATOM     95  C   UNL     1       1.813  -7.018   4.124  1.00  0.00     0.062 C 
ATOM     96  O   UNL     1       2.129  -9.369   3.831  1.00  0.00    -0.353 OA
ATOM     97  C   UNL     1       2.948  -6.954   5.140  1.00  0.00     0.008 C 
ATOM     98  C   UNL     1       3.305  -9.389   4.644  1.00  0.00     0.163 C 
ATOM     99  C   UNL     1       3.212  -8.330   5.736  1.00  0.00     0.029 C 
ENDBRANCH  93  94
ENDBRANCH  92  93
ENDBRANCH  82  92
ENDBRANCH  78  80
ENDBRANCH  77  78
ENDBRANCH  76  77
ENDBRANCH  75  76
ENDBRANCH  74  75
ENDBRANCH  73  74
ENDBRANCH   1  73
TORSDOF 24
