REMARK SMILES CC(C)C[C@H](NC(=O)CNC(=O)[C@@H](NC(=O)OCc1ccccc1)C(C)C)C(=O)N[C@@H](C)C(=O)OCCOCCOCCOC(=O)c1ccc(-c2c3nc(c(-c4cc(S(=O)(=O)[O-])ccc4F)c4ccc([nH]4)c(-c4cc(S(=O)(=O)[O-])ccc4F)c4nc(c(-c5cc(S(=O)(=O)[O-])ccc5F)c5ccc2[nH]5)C=C4)C=C3)cc1
REMARK SMILES IDX 36 1 35 2 33 3 34 4 31 5 32 6 30 7 28 8 29 9 5 11 4 12 2 13
REMARK SMILES IDX 1 14 3 15 6 16 7 17 8 19 9 20 10 21 11 22 12 24 13 25 14 26
REMARK SMILES IDX 15 27 16 29 17 30 18 31 19 32 20 33 24 34 21 35 23 36 22 37
REMARK SMILES IDX 25 38 26 39 27 40 37 41 38 42 39 43 40 44 41 45 42 46 43 47
REMARK SMILES IDX 44 48 45 49 46 50 47 51 48 52 109 53 49 54 108 55 50 56
REMARK SMILES IDX 51 57 52 58 102 59 53 60 107 61 101 62 103 63 54 64 106 65
REMARK SMILES IDX 100 66 99 67 55 69 87 70 67 71 86 72 68 73 71 74 85 75
REMARK SMILES IDX 104 76 69 77 70 78 84 80 105 81 72 82 56 83 57 84 65 85
REMARK SMILES IDX 58 86 64 87 66 88 63 89 59 90 60 91 61 92 62 93 88 94 89 95
REMARK SMILES IDX 97 96 90 97 96 98 98 99 95 100 91 101 92 102 93 103 94 104
REMARK SMILES IDX 73 105 74 106 82 107 75 108 81 109 83 110 80 111 76 112
REMARK SMILES IDX 77 113 78 114 79 115
REMARK H PARENT 30 10 6 18 10 23 14 28 103 68 71 79
REMARK Flexibility Score: inf
ROOT
ATOM      1  C   UNL     1      -5.117  -6.445  -2.450  1.00  0.00     0.261 C 
ENDROOT
BRANCH   1   2
ATOM      2  O   UNL     1      -4.892  -5.424  -1.462  1.00  0.00    -0.462 OA
BRANCH   2   3
ATOM      3  C   UNL     1      -3.751  -5.504  -0.732  1.00  0.00     0.328 C 
ATOM      4  O   UNL     1      -2.969  -6.446  -0.780  1.00  0.00    -0.250 OA
BRANCH   3   5
ATOM      5  C   UNL     1      -3.596  -4.328   0.258  1.00  0.00     0.189 C 
ATOM      6  C   UNL     1      -3.903  -4.798   1.669  1.00  0.00     0.043 C 
BRANCH   5   7
ATOM      7  N   UNL     1      -4.403  -3.115   0.029  1.00  0.00    -0.341 N 
ATOM      8  C   UNL     1      -4.001  -1.804   0.101  1.00  0.00     0.243 C 
ATOM      9  O   UNL     1      -4.858  -0.921   0.156  1.00  0.00    -0.273 OA
ATOM     10  H   UNL     1      -5.347  -3.264  -0.206  1.00  0.00     0.164 HD
BRANCH   8  11
ATOM     11  C   UNL     1      -2.506  -1.467  -0.026  1.00  0.00     0.171 C 
BRANCH  11  12
ATOM     12  C   UNL     1      -2.079  -2.006  -1.371  1.00  0.00     0.038 C 
BRANCH  12  13
ATOM     13  C   UNL     1      -2.799  -1.542  -2.643  1.00  0.00    -0.015 C 
ATOM     14  C   UNL     1      -2.813  -0.037  -2.906  1.00  0.00     0.007 C 
ATOM     15  C   UNL     1      -2.209  -2.288  -3.846  1.00  0.00     0.007 C 
ENDBRANCH  12  13
ENDBRANCH  11  12
BRANCH  11  16
ATOM     16  N   UNL     1      -1.780  -1.941   1.178  1.00  0.00    -0.343 N 
ATOM     17  C   UNL     1      -0.524  -2.236   1.596  1.00  0.00     0.240 C 
ATOM     18  H   UNL     1      -2.418  -2.090   1.913  1.00  0.00     0.164 HD
ATOM     19  O   UNL     1      -0.387  -2.215   2.830  1.00  0.00    -0.273 OA
BRANCH  17  20
ATOM     20  C   UNL     1       0.717  -2.521   0.752  1.00  0.00     0.216 C 
BRANCH  20  21
ATOM     21  N   UNL     1       0.539  -3.378  -0.378  1.00  0.00    -0.345 N 
ATOM     22  C   UNL     1       0.802  -3.141  -1.677  1.00  0.00     0.243 C 
ATOM     23  H   UNL     1       0.171  -4.269  -0.178  1.00  0.00     0.164 HD
ATOM     24  O   UNL     1       0.756  -4.153  -2.385  1.00  0.00    -0.273 OA
BRANCH  22  25
ATOM     25  C   UNL     1       1.002  -1.697  -2.272  1.00  0.00     0.177 C 
BRANCH  25  26
ATOM     26  N   UNL     1       0.750  -0.468  -1.521  1.00  0.00    -0.309 N 
ATOM     27  C   UNL     1       1.477   0.357  -0.749  1.00  0.00     0.408 C 
ATOM     28  H   UNL     1      -0.185  -0.172  -1.600  1.00  0.00     0.167 HD
ATOM     29  O   UNL     1       0.893   1.109   0.010  1.00  0.00    -0.225 OA
BRANCH  27  30
ATOM     30  O   UNL     1       2.792   0.298  -0.990  1.00  0.00    -0.445 OA
BRANCH  30  31
ATOM     31  C   UNL     1       3.511   1.426  -0.488  1.00  0.00     0.270 C 
BRANCH  31  32
ATOM     32  C   UNL     1       3.422   2.678  -1.349  1.00  0.00    -0.011 A 
ATOM     33  C   UNL     1       2.207   3.261  -1.755  1.00  0.00     0.007 A 
ATOM     34  C   UNL     1       4.607   3.357  -1.665  1.00  0.00     0.007 A 
ATOM     35  C   UNL     1       2.178   4.485  -2.430  1.00  0.00     0.000 A 
ATOM     36  C   UNL     1       4.578   4.584  -2.331  1.00  0.00     0.000 A 
ATOM     37  C   UNL     1       3.364   5.155  -2.701  1.00  0.00     0.000 A 
ENDBRANCH  31  32
ENDBRANCH  30  31
ENDBRANCH  27  30
ENDBRANCH  25  26
BRANCH  25  38
ATOM     38  C   UNL     1       2.042  -1.736  -3.373  1.00  0.00     0.015 C 
ATOM     39  C   UNL     1       1.343  -2.500  -4.512  1.00  0.00     0.010 C 
ATOM     40  C   UNL     1       2.586  -0.359  -3.746  1.00  0.00     0.010 C 
ENDBRANCH  25  38
ENDBRANCH  22  25
ENDBRANCH  20  21
ENDBRANCH  17  20
ENDBRANCH  11  16
ENDBRANCH   8  11
ENDBRANCH   5   7
ENDBRANCH   3   5
ENDBRANCH   2   3
ENDBRANCH   1   2
BRANCH   1  41
ATOM     41  C   UNL     1      -4.868  -6.012  -3.913  1.00  0.00     0.202 C 
BRANCH  41  42
ATOM     42  O   UNL     1      -4.637  -4.637  -4.223  1.00  0.00    -0.376 OA
BRANCH  42  43
ATOM     43  C   UNL     1      -5.433  -3.706  -3.498  1.00  0.00     0.188 C 
BRANCH  43  44
ATOM     44  C   UNL     1      -5.642  -2.361  -4.207  1.00  0.00     0.188 C 
BRANCH  44  45
ATOM     45  O   UNL     1      -6.595  -2.426  -5.255  1.00  0.00    -0.376 OA
BRANCH  45  46
ATOM     46  C   UNL     1      -6.087  -3.016  -6.456  1.00  0.00     0.202 C 
BRANCH  46  47
ATOM     47  C   UNL     1      -5.186  -2.101  -7.323  1.00  0.00     0.261 C 
BRANCH  47  48
ATOM     48  O   UNL     1      -3.738  -2.177  -7.110  1.00  0.00    -0.460 OA
BRANCH  48  49
ATOM     49  C   UNL     1      -3.077  -0.974  -7.113  1.00  0.00     0.338 C 
ATOM     50  O   UNL     1      -3.642   0.111  -7.038  1.00  0.00    -0.246 OA
BRANCH  49  51
ATOM     51  C   UNL     1      -1.562  -1.036  -7.176  1.00  0.00     0.060 A 
ATOM     52  C   UNL     1      -0.852  -0.080  -6.449  1.00  0.00     0.016 A 
ATOM     53  C   UNL     1      -0.796  -1.905  -7.972  1.00  0.00     0.016 A 
ATOM     54  C   UNL     1       0.566  -0.049  -6.464  1.00  0.00     0.010 A 
ATOM     55  C   UNL     1       0.651  -1.844  -8.011  1.00  0.00     0.010 A 
ATOM     56  C   UNL     1       1.387  -0.924  -7.245  1.00  0.00    -0.014 A 
BRANCH  56  57
ATOM     57  C   UNL     1       2.973  -0.818  -7.111  1.00  0.00     0.031 A 
ATOM     58  C   UNL     1       3.532   0.601  -7.167  1.00  0.00     0.074 A 
ATOM     59  C   UNL     1       3.842  -1.766  -6.603  1.00  0.00     0.049 A 
ATOM     60  N   UNL     1       4.670   1.075  -6.725  1.00  0.00    -0.248 NA
ATOM     61  C   UNL     1       2.640   1.625  -7.735  1.00  0.00     0.031 C 
ATOM     62  C   UNL     1       3.530  -3.172  -6.328  1.00  0.00     0.029 A 
ATOM     63  N   UNL     1       5.112  -1.647  -5.998  1.00  0.00    -0.354 N 
ATOM     64  C   UNL     1       4.612   2.448  -6.935  1.00  0.00     0.074 A 
ATOM     65  C   UNL     1       3.289   2.739  -7.444  1.00  0.00     0.031 C 
ATOM     66  C   UNL     1       4.382  -3.660  -5.406  1.00  0.00     0.029 A 
ATOM     67  C   UNL     1       5.504  -2.748  -5.215  1.00  0.00     0.049 A 
ATOM     68  H   UNL     1       5.681  -0.853  -6.116  1.00  0.00     0.167 HD
ATOM     69  C   UNL     1       5.590   3.381  -6.832  1.00  0.00     0.034 A 
ATOM     70  C   UNL     1       6.622  -3.038  -4.473  1.00  0.00     0.034 A 
ATOM     71  C   UNL     1       6.965   3.076  -6.543  1.00  0.00     0.049 A 
ATOM     72  C   UNL     1       7.769  -2.046  -4.564  1.00  0.00     0.074 A 
ATOM     73  C   UNL     1       8.086   3.858  -6.761  1.00  0.00     0.029 A 
ATOM     74  N   UNL     1       7.414   1.877  -6.014  1.00  0.00    -0.354 N 
ATOM     75  N   UNL     1       7.745  -0.798  -4.971  1.00  0.00    -0.248 NA
ATOM     76  C   UNL     1       9.114  -2.524  -4.196  1.00  0.00     0.031 C 
ATOM     77  C   UNL     1       9.218   3.097  -6.452  1.00  0.00     0.029 A 
ATOM     78  C   UNL     1       8.798   1.880  -5.944  1.00  0.00     0.049 A 
ATOM     79  H   UNL     1       6.835   1.132  -5.730  1.00  0.00     0.167 HD
ATOM     80  C   UNL     1       9.070  -0.370  -4.961  1.00  0.00     0.074 A 
ATOM     81  C   UNL     1       9.859  -1.451  -4.414  1.00  0.00     0.031 C 
ATOM     82  C   UNL     1       9.591   0.797  -5.418  1.00  0.00     0.034 A 
BRANCH  69  83
ATOM     83  C   UNL     1       5.221   4.757  -7.318  1.00  0.00     0.023 A 
ATOM     84  C   UNL     1       4.377   5.606  -6.584  1.00  0.00     0.031 A 
ATOM     85  C   UNL     1       5.602   5.148  -8.615  1.00  0.00     0.131 A 
ATOM     86  C   UNL     1       3.893   6.780  -7.181  1.00  0.00     0.055 A 
ATOM     87  C   UNL     1       5.171   6.348  -9.176  1.00  0.00     0.041 A 
ATOM     88  F   UNL     1       6.358   4.341  -9.375  1.00  0.00    -0.206 F 
ATOM     89  C   UNL     1       4.301   7.166  -8.463  1.00  0.00     0.022 A 
BRANCH  86  90
ATOM     90  S   UNL     1       2.600   7.726  -6.329  1.00  0.00     0.124 S 
ATOM     91  O   UNL     1       1.509   6.756  -6.280  1.00  0.00    -0.237 OA
ATOM     92  O   UNL     1       3.230   8.043  -5.052  1.00  0.00    -0.237 OA
ATOM     93  O   UNL     1       2.373   8.868  -7.212  1.00  0.00    -0.744 OA
ENDBRANCH  86  90
ENDBRANCH  69  83
BRANCH  70  94
ATOM     94  C   UNL     1       6.870  -4.374  -3.740  1.00  0.00     0.023 A 
ATOM     95  C   UNL     1       7.512  -4.483  -2.473  1.00  0.00     0.031 A 
ATOM     96  C   UNL     1       6.602  -5.603  -4.380  1.00  0.00     0.131 A 
ATOM     97  C   UNL     1       7.842  -5.753  -1.923  1.00  0.00     0.055 A 
ATOM     98  C   UNL     1       6.829  -6.850  -3.785  1.00  0.00     0.041 A 
ATOM     99  F   UNL     1       6.148  -5.634  -5.641  1.00  0.00    -0.206 F 
ATOM    100  C   UNL     1       7.461  -6.933  -2.557  1.00  0.00     0.022 A 
BRANCH  97 101
ATOM    101  S   UNL     1       8.930  -5.889  -0.457  1.00  0.00     0.124 S 
ATOM    102  O   UNL     1      10.063  -5.057  -0.841  1.00  0.00    -0.237 OA
ATOM    103  O   UNL     1       8.078  -5.371   0.607  1.00  0.00    -0.237 OA
ATOM    104  O   UNL     1       9.217  -7.322  -0.375  1.00  0.00    -0.744 OA
ENDBRANCH  97 101
ENDBRANCH  70  94
BRANCH  82 105
ATOM    105  C   UNL     1      11.088   0.960  -5.355  1.00  0.00     0.023 A 
ATOM    106  C   UNL     1      11.946   0.140  -6.110  1.00  0.00     0.031 A 
ATOM    107  C   UNL     1      11.666   1.930  -4.520  1.00  0.00     0.131 A 
ATOM    108  C   UNL     1      13.335   0.253  -5.957  1.00  0.00     0.055 A 
ATOM    109  C   UNL     1      13.050   2.086  -4.425  1.00  0.00     0.041 A 
ATOM    110  F   UNL     1      10.894   2.740  -3.777  1.00  0.00    -0.206 F 
ATOM    111  C   UNL     1      13.893   1.234  -5.133  1.00  0.00     0.022 A 
BRANCH 108 112
ATOM    112  S   UNL     1      14.401  -0.978  -6.756  1.00  0.00     0.124 S 
ATOM    113  O   UNL     1      13.924  -2.221  -6.158  1.00  0.00    -0.237 OA
ATOM    114  O   UNL     1      14.093  -0.791  -8.170  1.00  0.00    -0.237 OA
ATOM    115  O   UNL     1      15.749  -0.575  -6.357  1.00  0.00    -0.744 OA
ENDBRANCH 108 112
ENDBRANCH  82 105
ENDBRANCH  56  57
ENDBRANCH  49  51
ENDBRANCH  48  49
ENDBRANCH  47  48
ENDBRANCH  46  47
ENDBRANCH  45  46
ENDBRANCH  44  45
ENDBRANCH  43  44
ENDBRANCH  42  43
ENDBRANCH  41  42
ENDBRANCH   1  41
TORSDOF 33
