REMARK SMILES C[C@](NC(=O)c1c(F)cccc1F)(C(=O)OCCOCCOCCOC(=O)c1ccc(-c2c3nc(c(-c4cc(S(=O)(=O)[O-])ccc4F)c4ccc([nH]4)c(-c4cc(S(=O)(=O)[O-])ccc4F)c4nc(c(-c5cc(S(=O)(=O)[O-])ccc5F)c5ccc2[nH]5)C=C4)C=C3)cc1)C(F)(F)F
REMARK SMILES IDX 21 1 20 2 19 3 18 4 17 5 16 6 14 7 15 8 2 9 1 10 91 11 92 12
REMARK SMILES IDX 93 13 94 14 3 15 4 16 5 18 6 19 7 20 12 21 8 22 9 23 11 24
REMARK SMILES IDX 13 25 10 26 22 27 23 28 24 29 25 30 26 31 27 32 28 33 29 34
REMARK SMILES IDX 90 35 30 36 89 37 31 38 32 39 33 40 83 41 34 42 88 43 82 44
REMARK SMILES IDX 84 45 35 46 87 47 81 48 80 49 36 51 68 52 48 53 67 54 49 55
REMARK SMILES IDX 52 56 66 57 85 58 50 59 51 60 65 62 86 63 53 64 37 65 38 66
REMARK SMILES IDX 46 67 39 68 45 69 47 70 44 71 40 72 41 73 42 74 43 75 69 76
REMARK SMILES IDX 70 77 78 78 71 79 77 80 79 81 76 82 72 83 73 84 74 85 75 86
REMARK SMILES IDX 54 87 55 88 63 89 56 90 62 91 64 92 61 93 57 94 58 95 59 96
REMARK SMILES IDX 60 97
REMARK H PARENT 3 17 84 50 52 61
REMARK Flexibility Score: inf
ROOT
ATOM      1  C   UNL     1      -1.472  -1.005   0.849  1.00  0.00     0.188 C 
ENDROOT
BRANCH   1   2
ATOM      2  C   UNL     1      -2.581  -0.337   1.669  1.00  0.00     0.188 C 
BRANCH   2   3
ATOM      3  O   UNL     1      -3.807  -0.299   0.976  1.00  0.00    -0.376 OA
BRANCH   3   4
ATOM      4  C   UNL     1      -4.116   0.860   0.223  1.00  0.00     0.202 C 
BRANCH   4   5
ATOM      5  C   UNL     1      -3.082   1.834  -0.395  1.00  0.00     0.261 C 
BRANCH   5   6
ATOM      6  O   UNL     1      -1.675   1.552  -0.290  1.00  0.00    -0.461 OA
BRANCH   6   7
ATOM      7  C   UNL     1      -0.955   2.409   0.488  1.00  0.00     0.341 C 
ATOM      8  O   UNL     1      -1.469   3.324   1.126  1.00  0.00    -0.249 OA
BRANCH   7   9
ATOM      9  C   UNL     1       0.565   2.138   0.501  1.00  0.00     0.231 C 
ATOM     10  C   UNL     1       1.189   3.474   0.051  1.00  0.00     0.058 C 
BRANCH   9  11
ATOM     11  C   UNL     1       0.815   1.812   2.005  1.00  0.00     0.422 C 
ATOM     12  F   UNL     1      -0.300   1.422   2.665  1.00  0.00    -0.168 F 
ATOM     13  F   UNL     1       1.667   0.768   2.147  1.00  0.00    -0.168 F 
ATOM     14  F   UNL     1       1.338   2.861   2.676  1.00  0.00    -0.168 F 
ENDBRANCH   9  11
BRANCH   9  15
ATOM     15  N   UNL     1       1.043   1.026  -0.407  1.00  0.00    -0.329 N 
ATOM     16  C   UNL     1       2.327   0.590  -0.687  1.00  0.00     0.258 C 
ATOM     17  H   UNL     1       0.328   0.535  -0.873  1.00  0.00     0.165 HD
ATOM     18  O   UNL     1       2.509  -0.537  -1.136  1.00  0.00    -0.269 OA
BRANCH  16  19
ATOM     19  C   UNL     1       3.467   1.517  -0.641  1.00  0.00     0.111 A 
ATOM     20  C   UNL     1       4.086   1.942   0.529  1.00  0.00     0.138 A 
ATOM     21  C   UNL     1       3.911   2.038  -1.856  1.00  0.00     0.138 A 
ATOM     22  F   UNL     1       3.766   1.429   1.719  1.00  0.00    -0.206 F 
ATOM     23  C   UNL     1       5.027   2.973   0.506  1.00  0.00     0.040 A 
ATOM     24  C   UNL     1       4.875   3.044  -1.896  1.00  0.00     0.040 A 
ATOM     25  F   UNL     1       3.382   1.621  -3.016  1.00  0.00    -0.206 F 
ATOM     26  C   UNL     1       5.410   3.540  -0.708  1.00  0.00     0.006 A 
ENDBRANCH  16  19
ENDBRANCH   9  15
ENDBRANCH   7   9
ENDBRANCH   6   7
ENDBRANCH   5   6
ENDBRANCH   4   5
ENDBRANCH   3   4
ENDBRANCH   2   3
ENDBRANCH   1   2
BRANCH   1  27
ATOM     27  O   UNL     1      -1.714  -1.307  -0.512  1.00  0.00    -0.376 OA
BRANCH  27  28
ATOM     28  C   UNL     1      -2.776  -2.199  -0.842  1.00  0.00     0.202 C 
BRANCH  28  29
ATOM     29  C   UNL     1      -3.318  -3.313   0.091  1.00  0.00     0.261 C 
BRANCH  29  30
ATOM     30  O   UNL     1      -2.914  -3.313   1.465  1.00  0.00    -0.460 OA
BRANCH  30  31
ATOM     31  C   UNL     1      -1.830  -4.073   1.766  1.00  0.00     0.338 C 
ATOM     32  O   UNL     1      -1.203  -4.783   0.998  1.00  0.00    -0.246 OA
BRANCH  31  33
ATOM     33  C   UNL     1      -1.386  -3.719   3.135  1.00  0.00     0.060 A 
ATOM     34  C   UNL     1      -0.132  -3.107   3.302  1.00  0.00     0.016 A 
ATOM     35  C   UNL     1      -2.201  -3.960   4.242  1.00  0.00     0.016 A 
ATOM     36  C   UNL     1       0.312  -2.741   4.572  1.00  0.00     0.010 A 
ATOM     37  C   UNL     1      -1.734  -3.633   5.520  1.00  0.00     0.010 A 
ATOM     38  C   UNL     1      -0.466  -3.044   5.694  1.00  0.00    -0.014 A 
BRANCH  38  39
ATOM     39  C   UNL     1       0.131  -2.952   7.051  1.00  0.00     0.031 A 
ATOM     40  C   UNL     1       0.696  -4.208   7.660  1.00  0.00     0.074 A 
ATOM     41  C   UNL     1       0.193  -1.789   7.724  1.00  0.00     0.049 A 
ATOM     42  N   UNL     1       1.184  -4.409   8.856  1.00  0.00    -0.248 NA
ATOM     43  C   UNL     1       0.703  -5.399   6.796  1.00  0.00     0.031 C 
ATOM     44  C   UNL     1      -0.254  -0.493   7.218  1.00  0.00     0.029 A 
ATOM     45  N   UNL     1       0.650  -1.516   8.991  1.00  0.00    -0.354 N 
ATOM     46  C   UNL     1       1.547  -5.751   8.894  1.00  0.00     0.074 A 
ATOM     47  C   UNL     1       1.190  -6.321   7.612  1.00  0.00     0.031 C 
ATOM     48  C   UNL     1      -0.065   0.435   8.173  1.00  0.00     0.029 A 
ATOM     49  C   UNL     1       0.473  -0.206   9.373  1.00  0.00     0.049 A 
ATOM     50  H   UNL     1       1.065  -2.195   9.572  1.00  0.00     0.167 HD
ATOM     51  C   UNL     1       2.130  -6.443   9.903  1.00  0.00     0.034 A 
ATOM     52  C   UNL     1       0.688   0.395  10.562  1.00  0.00     0.034 A 
ATOM     53  C   UNL     1       2.467  -5.865  11.181  1.00  0.00     0.049 A 
ATOM     54  C   UNL     1       1.235  -0.423  11.712  1.00  0.00     0.074 A 
ATOM     55  C   UNL     1       3.066  -6.475  12.270  1.00  0.00     0.029 A 
ATOM     56  N   UNL     1       2.221  -4.549  11.551  1.00  0.00    -0.354 N 
ATOM     57  N   UNL     1       1.571  -1.693  11.742  1.00  0.00    -0.248 NA
ATOM     58  C   UNL     1       1.436   0.277  12.989  1.00  0.00     0.031 C 
ATOM     59  C   UNL     1       3.103  -5.555  13.322  1.00  0.00     0.029 A 
ATOM     60  C   UNL     1       2.619  -4.340  12.863  1.00  0.00     0.049 A 
ATOM     61  H   UNL     1       1.823  -3.864  10.966  1.00  0.00     0.167 HD
ATOM     62  C   UNL     1       2.058  -1.930  13.027  1.00  0.00     0.074 A 
ATOM     63  C   UNL     1       1.982  -0.670  13.736  1.00  0.00     0.031 C 
ATOM     64  C   UNL     1       2.533  -3.082  13.568  1.00  0.00     0.034 A 
BRANCH  51  65
ATOM     65  C   UNL     1       2.375  -7.917   9.682  1.00  0.00     0.023 A 
ATOM     66  C   UNL     1       3.251  -8.385   8.688  1.00  0.00     0.031 A 
ATOM     67  C   UNL     1       1.696  -8.870  10.462  1.00  0.00     0.131 A 
ATOM     68  C   UNL     1       3.371  -9.764   8.453  1.00  0.00     0.055 A 
ATOM     69  C   UNL     1       1.884 -10.241  10.281  1.00  0.00     0.041 A 
ATOM     70  F   UNL     1       0.826  -8.484  11.409  1.00  0.00    -0.206 F 
ATOM     71  C   UNL     1       2.715 -10.695   9.261  1.00  0.00     0.022 A 
BRANCH  68  72
ATOM     72  S   UNL     1       4.277 -10.319   6.983  1.00  0.00     0.124 S 
ATOM     73  O   UNL     1       3.541  -9.650   5.913  1.00  0.00    -0.237 OA
ATOM     74  O   UNL     1       5.625  -9.825   7.238  1.00  0.00    -0.237 OA
ATOM     75  O   UNL     1       4.127 -11.772   7.017  1.00  0.00    -0.744 OA
ENDBRANCH  68  72
ENDBRANCH  51  65
BRANCH  52  76
ATOM     76  C   UNL     1       0.339   1.833  10.761  1.00  0.00     0.023 A 
ATOM     77  C   UNL     1       1.317   2.782  11.102  1.00  0.00     0.031 A 
ATOM     78  C   UNL     1      -0.997   2.268  10.684  1.00  0.00     0.131 A 
ATOM     79  C   UNL     1       0.941   4.101  11.400  1.00  0.00     0.055 A 
ATOM     80  C   UNL     1      -1.359   3.595  10.922  1.00  0.00     0.041 A 
ATOM     81  F   UNL     1      -1.976   1.403  10.374  1.00  0.00    -0.206 F 
ATOM     82  C   UNL     1      -0.388   4.518  11.297  1.00  0.00     0.022 A 
BRANCH  79  83
ATOM     83  S   UNL     1       2.201   5.247  12.027  1.00  0.00     0.124 S 
ATOM     84  O   UNL     1       2.662   4.554  13.224  1.00  0.00    -0.237 OA
ATOM     85  O   UNL     1       3.143   5.300  10.913  1.00  0.00    -0.237 OA
ATOM     86  O   UNL     1       1.453   6.479  12.266  1.00  0.00    -0.744 OA
ENDBRANCH  79  83
ENDBRANCH  52  76
BRANCH  64  87
ATOM     87  C   UNL     1       3.065  -3.020  14.982  1.00  0.00     0.023 A 
ATOM     88  C   UNL     1       2.235  -2.740  16.082  1.00  0.00     0.031 A 
ATOM     89  C   UNL     1       4.431  -3.247  15.231  1.00  0.00     0.131 A 
ATOM     90  C   UNL     1       2.788  -2.638  17.369  1.00  0.00     0.055 A 
ATOM     91  C   UNL     1       4.963  -3.212  16.521  1.00  0.00     0.041 A 
ATOM     92  F   UNL     1       5.275  -3.514  14.221  1.00  0.00    -0.206 F 
ATOM     93  C   UNL     1       4.142  -2.892  17.598  1.00  0.00     0.022 A 
BRANCH  90  94
ATOM     94  S   UNL     1       1.733  -2.067  18.730  1.00  0.00     0.124 S 
ATOM     95  O   UNL     1       1.279  -0.770  18.239  1.00  0.00    -0.237 OA
ATOM     96  O   UNL     1       0.718  -3.113  18.800  1.00  0.00    -0.237 OA
ATOM     97  O   UNL     1       2.645  -2.011  19.872  1.00  0.00    -0.744 OA
ENDBRANCH  90  94
ENDBRANCH  64  87
ENDBRANCH  38  39
ENDBRANCH  31  33
ENDBRANCH  30  31
ENDBRANCH  29  30
ENDBRANCH  28  29
ENDBRANCH  27  28
ENDBRANCH   1  27
TORSDOF 23
