REMARK SMILES CC(C)Cc1cc2c(cc1Cl)C=C(C(=O)OCCOCCOCCOC(=O)c1ccc(-c3c4nc(c(-c5cc(S(=O)(=O)[O-])ccc5F)c5ccc([nH]5)c(-c5cc(S(=O)(=O)[O-])ccc5F)c5nc(c(-c6cc(S(=O)(=O)[O-])ccc6F)c6ccc3[nH]6)C=C5)C=C4)cc1)[C@@H](C(F)(F)F)O2
REMARK SMILES IDX 21 1 20 2 19 3 18 4 17 5 16 6 14 7 15 8 13 9 5 10 6 11 10 12
REMARK SMILES IDX 7 13 9 14 11 15 8 16 96 17 12 18 91 19 4 20 2 21 1 22 3 23
REMARK SMILES IDX 92 24 93 25 94 26 95 27 22 28 23 29 24 30 25 31 26 32 27 33
REMARK SMILES IDX 28 34 29 35 90 36 30 37 89 38 31 39 32 40 33 41 83 42 34 43
REMARK SMILES IDX 88 44 82 45 84 46 35 47 87 48 81 49 80 50 36 52 68 53 48 54
REMARK SMILES IDX 67 55 49 56 52 57 66 58 85 59 50 60 51 61 65 63 86 64 53 65
REMARK SMILES IDX 37 66 38 67 46 68 39 69 45 70 47 71 44 72 40 73 41 74 42 75
REMARK SMILES IDX 43 76 69 77 70 78 78 79 71 80 77 81 79 82 76 83 72 84 73 85
REMARK SMILES IDX 74 86 75 87 54 88 55 89 63 90 56 91 62 92 64 93 61 94 57 95
REMARK SMILES IDX 58 96 59 97 60 98
REMARK H PARENT 84 51 52 62
REMARK Flexibility Score: inf
ROOT
ATOM      1  C   UNL     1      -1.547   5.641   4.963  1.00  0.00     0.188 C 
ENDROOT
BRANCH   1   2
ATOM      2  C   UNL     1      -1.896   7.071   4.496  1.00  0.00     0.188 C 
BRANCH   2   3
ATOM      3  O   UNL     1      -2.613   7.802   5.473  1.00  0.00    -0.376 OA
BRANCH   3   4
ATOM      4  C   UNL     1      -3.974   8.096   5.217  1.00  0.00     0.202 C 
BRANCH   4   5
ATOM      5  C   UNL     1      -4.958   6.937   4.985  1.00  0.00     0.261 C 
BRANCH   5   6
ATOM      6  O   UNL     1      -4.454   5.819   4.241  1.00  0.00    -0.460 OA
BRANCH   6   7
ATOM      7  C   UNL     1      -4.585   5.863   2.898  1.00  0.00     0.338 C 
ATOM      8  O   UNL     1      -5.081   6.769   2.250  1.00  0.00    -0.246 OA
BRANCH   7   9
ATOM      9  C   UNL     1      -3.920   4.675   2.316  1.00  0.00     0.087 C 
ATOM     10  C   UNL     1      -1.349   1.450  -0.584  1.00  0.00    -0.025 A 
ATOM     11  C   UNL     1      -2.100   1.332   0.602  1.00  0.00     0.052 A 
ATOM     12  C   UNL     1      -1.150   2.735  -1.114  1.00  0.00     0.045 A 
ATOM     13  C   UNL     1      -2.666   2.455   1.216  1.00  0.00     0.128 A 
ATOM     14  C   UNL     1      -1.693   3.860  -0.484  1.00  0.00     0.032 A 
ATOM     15  Cl  UNL     1      -0.295   2.997  -2.591  1.00  0.00    -0.084 Cl
ATOM     16  C   UNL     1      -2.473   3.722   0.667  1.00  0.00     0.019 A 
ATOM     17  O   UNL     1      -3.404   2.221   2.341  1.00  0.00    -0.475 OA
ATOM     18  C   UNL     1      -3.119   4.880   1.263  1.00  0.00     0.027 C 
ATOM     19  C   UNL     1      -4.145   3.321   2.941  1.00  0.00     0.316 C 
BRANCH  10  20
ATOM     20  C   UNL     1      -0.850   0.191  -1.265  1.00  0.00     0.040 C 
BRANCH  20  21
ATOM     21  C   UNL     1       0.675  -0.035  -1.228  1.00  0.00    -0.013 C 
ATOM     22  C   UNL     1       1.197  -0.237   0.195  1.00  0.00     0.008 C 
ATOM     23  C   UNL     1       1.035  -1.249  -2.091  1.00  0.00     0.008 C 
ENDBRANCH  20  21
ENDBRANCH  10  20
BRANCH  19  24
ATOM     24  C   UNL     1      -5.634   2.944   2.983  1.00  0.00     0.430 C 
ATOM     25  F   UNL     1      -5.817   1.717   3.530  1.00  0.00    -0.167 F 
ATOM     26  F   UNL     1      -6.350   3.810   3.740  1.00  0.00    -0.167 F 
ATOM     27  F   UNL     1      -6.193   2.925   1.753  1.00  0.00    -0.167 F 
ENDBRANCH  19  24
ENDBRANCH   7   9
ENDBRANCH   6   7
ENDBRANCH   5   6
ENDBRANCH   4   5
ENDBRANCH   3   4
ENDBRANCH   2   3
ENDBRANCH   1   2
BRANCH   1  28
ATOM     28  O   UNL     1      -1.861   5.242   6.294  1.00  0.00    -0.376 OA
BRANCH  28  29
ATOM     29  C   UNL     1      -1.517   6.107   7.372  1.00  0.00     0.202 C 
BRANCH  29  30
ATOM     30  C   UNL     1      -0.058   6.560   7.532  1.00  0.00     0.261 C 
BRANCH  30  31
ATOM     31  O   UNL     1       0.515   7.170   6.365  1.00  0.00    -0.460 OA
BRANCH  31  32
ATOM     32  C   UNL     1       1.527   6.478   5.778  1.00  0.00     0.338 C 
ATOM     33  O   UNL     1       2.007   5.422   6.150  1.00  0.00    -0.246 OA
BRANCH  32  34
ATOM     34  C   UNL     1       1.837   7.097   4.471  1.00  0.00     0.060 A 
ATOM     35  C   UNL     1       2.240   8.430   4.381  1.00  0.00     0.016 A 
ATOM     36  C   UNL     1       1.715   6.312   3.316  1.00  0.00     0.016 A 
ATOM     37  C   UNL     1       2.534   8.975   3.126  1.00  0.00     0.010 A 
ATOM     38  C   UNL     1       1.987   6.864   2.064  1.00  0.00     0.010 A 
ATOM     39  C   UNL     1       2.412   8.196   1.961  1.00  0.00    -0.014 A 
BRANCH  39  40
ATOM     40  C   UNL     1       2.869   8.723   0.652  1.00  0.00     0.031 A 
ATOM     41  C   UNL     1       1.906   9.272  -0.355  1.00  0.00     0.074 A 
ATOM     42  C   UNL     1       4.185   8.665   0.370  1.00  0.00     0.049 A 
ATOM     43  N   UNL     1       2.159   9.809  -1.520  1.00  0.00    -0.248 NA
ATOM     44  C   UNL     1       0.476   9.210  -0.017  1.00  0.00     0.031 C 
ATOM     45  C   UNL     1       5.202   8.122   1.270  1.00  0.00     0.029 A 
ATOM     46  N   UNL     1       4.891   9.051  -0.741  1.00  0.00    -0.354 N 
ATOM     47  C   UNL     1       0.928  10.174  -2.049  1.00  0.00     0.074 A 
ATOM     48  C   UNL     1      -0.078   9.751  -1.097  1.00  0.00     0.031 C 
ATOM     49  C   UNL     1       6.402   8.216   0.680  1.00  0.00     0.029 A 
ATOM     50  C   UNL     1       6.240   8.798  -0.651  1.00  0.00     0.049 A 
ATOM     51  H   UNL     1       4.472   9.470  -1.528  1.00  0.00     0.167 HD
ATOM     52  C   UNL     1       0.673  10.821  -3.212  1.00  0.00     0.034 A 
ATOM     53  C   UNL     1       7.236   9.006  -1.537  1.00  0.00     0.034 A 
ATOM     54  C   UNL     1       1.693  11.219  -4.152  1.00  0.00     0.049 A 
ATOM     55  C   UNL     1       6.918   9.681  -2.847  1.00  0.00     0.074 A 
ATOM     56  C   UNL     1       1.535  11.929  -5.330  1.00  0.00     0.029 A 
ATOM     57  N   UNL     1       3.047  10.934  -4.040  1.00  0.00    -0.354 N 
ATOM     58  N   UNL     1       5.764  10.130  -3.281  1.00  0.00    -0.248 NA
ATOM     59  C   UNL     1       8.031   9.894  -3.783  1.00  0.00     0.031 C 
ATOM     60  C   UNL     1       2.774  12.007  -5.964  1.00  0.00     0.029 A 
ATOM     61  C   UNL     1       3.726  11.419  -5.146  1.00  0.00     0.049 A 
ATOM     62  H   UNL     1       3.463  10.457  -3.286  1.00  0.00     0.167 HD
ATOM     63  C   UNL     1       6.017  10.704  -4.524  1.00  0.00     0.074 A 
ATOM     64  C   UNL     1       7.437  10.560  -4.766  1.00  0.00     0.031 C 
ATOM     65  C   UNL     1       5.147  11.295  -5.380  1.00  0.00     0.034 A 
BRANCH  52  66
ATOM     66  C   UNL     1      -0.752  11.186  -3.549  1.00  0.00     0.023 A 
ATOM     67  C   UNL     1      -1.359  10.677  -4.713  1.00  0.00     0.031 A 
ATOM     68  C   UNL     1      -1.441  12.170  -2.817  1.00  0.00     0.131 A 
ATOM     69  C   UNL     1      -2.595  11.184  -5.133  1.00  0.00     0.055 A 
ATOM     70  C   UNL     1      -2.691  12.643  -3.218  1.00  0.00     0.041 A 
ATOM     71  F   UNL     1      -0.901  12.694  -1.704  1.00  0.00    -0.206 F 
ATOM     72  C   UNL     1      -3.266  12.161  -4.390  1.00  0.00     0.022 A 
BRANCH  69  73
ATOM     73  S   UNL     1      -3.344  10.660  -6.701  1.00  0.00     0.124 S 
ATOM     74  O   UNL     1      -4.620  10.106  -6.251  1.00  0.00    -0.237 OA
ATOM     75  O   UNL     1      -3.436  11.920  -7.433  1.00  0.00    -0.237 OA
ATOM     76  O   UNL     1      -2.398   9.686  -7.233  1.00  0.00    -0.744 OA
ENDBRANCH  69  73
ENDBRANCH  52  66
BRANCH  53  77
ATOM     77  C   UNL     1       8.627   8.626  -1.159  1.00  0.00     0.023 A 
ATOM     78  C   UNL     1       8.959   7.287  -0.877  1.00  0.00     0.031 A 
ATOM     79  C   UNL     1       9.610   9.607  -0.953  1.00  0.00     0.131 A 
ATOM     80  C   UNL     1      10.215   6.979  -0.338  1.00  0.00     0.055 A 
ATOM     81  C   UNL     1      10.885   9.286  -0.484  1.00  0.00     0.041 A 
ATOM     82  F   UNL     1       9.336  10.899  -1.192  1.00  0.00    -0.206 F 
ATOM     83  C   UNL     1      11.186   7.968  -0.156  1.00  0.00     0.022 A 
BRANCH  80  84
ATOM     84  S   UNL     1      10.579   5.310   0.274  1.00  0.00     0.124 S 
ATOM     85  O   UNL     1      11.727   4.930  -0.543  1.00  0.00    -0.237 OA
ATOM     86  O   UNL     1      10.866   5.567   1.684  1.00  0.00    -0.237 OA
ATOM     87  O   UNL     1       9.348   4.571   0.016  1.00  0.00    -0.744 OA
ENDBRANCH  80  84
ENDBRANCH  53  77
BRANCH  65  88
ATOM     88  C   UNL     1       5.668  11.859  -6.682  1.00  0.00     0.023 A 
ATOM     89  C   UNL     1       5.540  13.237  -6.950  1.00  0.00     0.031 A 
ATOM     90  C   UNL     1       6.105  11.019  -7.720  1.00  0.00     0.131 A 
ATOM     91  C   UNL     1       5.785  13.723  -8.241  1.00  0.00     0.055 A 
ATOM     92  C   UNL     1       6.400  11.517  -8.991  1.00  0.00     0.041 A 
ATOM     93  F   UNL     1       6.235   9.698  -7.518  1.00  0.00    -0.206 F 
ATOM     94  C   UNL     1       6.221  12.871  -9.261  1.00  0.00     0.022 A 
BRANCH  91  95
ATOM     95  S   UNL     1       5.451  15.454  -8.669  1.00  0.00     0.124 S 
ATOM     96  O   UNL     1       6.750  15.900  -9.167  1.00  0.00    -0.237 OA
ATOM     97  O   UNL     1       4.407  15.323  -9.681  1.00  0.00    -0.237 OA
ATOM     98  O   UNL     1       5.033  16.055  -7.407  1.00  0.00    -0.744 OA
ENDBRANCH  91  95
ENDBRANCH  65  88
ENDBRANCH  39  40
ENDBRANCH  32  34
ENDBRANCH  31  32
ENDBRANCH  30  31
ENDBRANCH  29  30
ENDBRANCH  28  29
ENDBRANCH   1  28
TORSDOF 23
