REMARK SMILES CCN(C(=O)C1(C)CCCC1)[C@@H]1COC[C@H]1C(=O)OCCOCCOCCOC(=O)c1ccc(-c2c3nc(c(-c4cc(S(=O)(=O)[O-])ccc4F)c4ccc([nH]4)c(-c4cc(S(=O)(=O)[O-])ccc4F)c4nc(c(-c5cc(S(=O)(=O)[O-])ccc5F)c5ccc2[nH]5)C=C4)C=C3)cc1
REMARK SMILES IDX 23 1 22 2 21 3 20 4 19 5 17 6 18 7 16 8 12 9 13 10 14 11
REMARK SMILES IDX 15 12 3 13 2 14 1 15 4 16 5 17 6 18 7 19 8 20 11 21 9 22
REMARK SMILES IDX 10 23 24 24 25 25 26 26 27 27 28 28 29 29 30 30 31 31 32 32
REMARK SMILES IDX 93 33 33 34 92 35 34 36 35 37 36 38 86 39 37 40 91 41 85 42
REMARK SMILES IDX 87 43 38 44 90 45 84 46 83 47 39 49 71 50 51 51 70 52 52 53
REMARK SMILES IDX 55 54 69 55 88 56 53 57 54 58 68 60 89 61 56 62 40 63 41 64
REMARK SMILES IDX 49 65 42 66 48 67 50 68 47 69 43 70 44 71 45 72 46 73 72 74
REMARK SMILES IDX 73 75 81 76 74 77 80 78 82 79 79 80 75 81 76 82 77 83 78 84
REMARK SMILES IDX 57 85 58 86 66 87 59 88 65 89 67 90 64 91 60 92 61 93 62 94
REMARK SMILES IDX 63 95
REMARK H PARENT 87 48 55 59
REMARK Flexibility Score: inf
ROOT
ATOM      1  C   UNL     1       2.111   3.663  -3.328  1.00  0.00     0.188 C 
ENDROOT
BRANCH   1   2
ATOM      2  O   UNL     1       3.244   4.464  -3.646  1.00  0.00    -0.376 OA
BRANCH   2   3
ATOM      3  C   UNL     1       4.235   3.933  -4.511  1.00  0.00     0.202 C 
BRANCH   3   4
ATOM      4  C   UNL     1       5.112   2.825  -3.925  1.00  0.00     0.261 C 
BRANCH   4   5
ATOM      5  O   UNL     1       4.393   1.631  -3.530  1.00  0.00    -0.463 OA
BRANCH   5   6
ATOM      6  C   UNL     1       4.270   1.450  -2.193  1.00  0.00     0.313 C 
ATOM      7  O   UNL     1       4.708   2.236  -1.357  1.00  0.00    -0.252 OA
BRANCH   6   8
ATOM      8  C   UNL     1       3.665   0.136  -1.755  1.00  0.00     0.150 C 
ATOM      9  C   UNL     1       2.731  -0.733  -2.615  1.00  0.00     0.127 C 
ATOM     10  C   UNL     1       3.165  -2.163  -2.216  1.00  0.00     0.186 C 
ATOM     11  O   UNL     1       4.410  -2.111  -1.517  1.00  0.00    -0.378 OA
ATOM     12  C   UNL     1       4.862  -0.765  -1.502  1.00  0.00     0.177 C 
BRANCH   9  13
ATOM     13  N   UNL     1       1.222  -0.581  -2.492  1.00  0.00    -0.336 N 
BRANCH  13  14
ATOM     14  C   UNL     1       0.696   0.031  -1.272  1.00  0.00     0.116 C 
ATOM     15  C   UNL     1       0.875  -0.806  -0.013  1.00  0.00     0.027 C 
ENDBRANCH  13  14
BRANCH  13  16
ATOM     16  C   UNL     1       0.444  -1.387  -3.352  1.00  0.00     0.228 C 
ATOM     17  O   UNL     1       1.038  -2.275  -3.987  1.00  0.00    -0.274 OA
BRANCH  16  18
ATOM     18  C   UNL     1      -1.049  -1.100  -3.794  1.00  0.00     0.047 C 
ATOM     19  C   UNL     1      -0.901  -0.253  -5.061  1.00  0.00     0.022 C 
ATOM     20  C   UNL     1      -1.760  -2.426  -4.181  1.00  0.00     0.016 C 
ATOM     21  C   UNL     1      -2.142  -0.488  -2.915  1.00  0.00     0.016 C 
ATOM     22  C   UNL     1      -2.548  -2.859  -2.944  1.00  0.00     0.001 C 
ATOM     23  C   UNL     1      -2.645  -1.629  -2.051  1.00  0.00     0.001 C 
ENDBRANCH  16  18
ENDBRANCH  13  16
ENDBRANCH   9  13
ENDBRANCH   6   8
ENDBRANCH   5   6
ENDBRANCH   4   5
ENDBRANCH   3   4
ENDBRANCH   2   3
ENDBRANCH   1   2
BRANCH   1  24
ATOM     24  C   UNL     1       1.628   2.625  -4.349  1.00  0.00     0.188 C 
BRANCH  24  25
ATOM     25  O   UNL     1       1.666   3.131  -5.678  1.00  0.00    -0.376 OA
BRANCH  25  26
ATOM     26  C   UNL     1       0.469   2.953  -6.419  1.00  0.00     0.202 C 
BRANCH  26  27
ATOM     27  C   UNL     1      -0.533   4.066  -6.122  1.00  0.00     0.261 C 
BRANCH  27  28
ATOM     28  O   UNL     1      -0.848   4.194  -4.721  1.00  0.00    -0.460 OA
BRANCH  28  29
ATOM     29  C   UNL     1      -1.883   3.444  -4.284  1.00  0.00     0.338 C 
ATOM     30  O   UNL     1      -2.534   2.651  -4.935  1.00  0.00    -0.246 OA
BRANCH  29  31
ATOM     31  C   UNL     1      -2.107   3.694  -2.847  1.00  0.00     0.060 A 
ATOM     32  C   UNL     1      -1.379   2.975  -1.899  1.00  0.00     0.016 A 
ATOM     33  C   UNL     1      -3.160   4.512  -2.446  1.00  0.00     0.016 A 
ATOM     34  C   UNL     1      -1.768   2.985  -0.557  1.00  0.00     0.010 A 
ATOM     35  C   UNL     1      -3.510   4.571  -1.092  1.00  0.00     0.010 A 
ATOM     36  C   UNL     1      -2.851   3.771  -0.140  1.00  0.00    -0.014 A 
BRANCH  36  37
ATOM     37  C   UNL     1      -3.361   3.700   1.260  1.00  0.00     0.031 A 
ATOM     38  C   UNL     1      -4.759   3.193   1.514  1.00  0.00     0.074 A 
ATOM     39  C   UNL     1      -2.590   4.077   2.298  1.00  0.00     0.049 A 
ATOM     40  N   UNL     1      -5.488   3.263   2.599  1.00  0.00    -0.248 NA
ATOM     41  C   UNL     1      -5.426   2.525   0.386  1.00  0.00     0.031 C 
ATOM     42  C   UNL     1      -1.194   4.504   2.201  1.00  0.00     0.029 A 
ATOM     43  N   UNL     1      -2.874   4.173   3.639  1.00  0.00    -0.354 N 
ATOM     44  C   UNL     1      -6.719   2.700   2.270  1.00  0.00     0.074 A 
ATOM     45  C   UNL     1      -6.633   2.292   0.883  1.00  0.00     0.031 C 
ATOM     46  C   UNL     1      -0.742   4.808   3.428  1.00  0.00     0.029 A 
ATOM     47  C   UNL     1      -1.838   4.692   4.383  1.00  0.00     0.049 A 
ATOM     48  H   UNL     1      -3.734   3.897   4.030  1.00  0.00     0.167 HD
ATOM     49  C   UNL     1      -7.818   2.552   3.053  1.00  0.00     0.034 A 
ATOM     50  C   UNL     1      -1.794   5.090   5.671  1.00  0.00     0.034 A 
ATOM     51  C   UNL     1      -7.869   2.949   4.441  1.00  0.00     0.049 A 
ATOM     52  C   UNL     1      -3.045   4.983   6.506  1.00  0.00     0.074 A 
ATOM     53  C   UNL     1      -8.929   2.865   5.329  1.00  0.00     0.029 A 
ATOM     54  N   UNL     1      -6.807   3.502   5.149  1.00  0.00    -0.354 N 
ATOM     55  N   UNL     1      -4.229   4.529   6.163  1.00  0.00    -0.248 NA
ATOM     56  C   UNL     1      -2.957   5.452   7.894  1.00  0.00     0.031 C 
ATOM     57  C   UNL     1      -8.528   3.423   6.549  1.00  0.00     0.029 A 
ATOM     58  C   UNL     1      -7.194   3.787   6.449  1.00  0.00     0.049 A 
ATOM     59  H   UNL     1      -5.910   3.668   4.779  1.00  0.00     0.167 HD
ATOM     60  C   UNL     1      -5.024   4.649   7.300  1.00  0.00     0.074 A 
ATOM     61  C   UNL     1      -4.176   5.191   8.342  1.00  0.00     0.031 C 
ATOM     62  C   UNL     1      -6.336   4.343   7.469  1.00  0.00     0.034 A 
BRANCH  49  63
ATOM     63  C   UNL     1      -9.073   2.014   2.401  1.00  0.00     0.023 A 
ATOM     64  C   UNL     1      -9.154   0.708   1.888  1.00  0.00     0.031 A 
ATOM     65  C   UNL     1     -10.201   2.844   2.262  1.00  0.00     0.131 A 
ATOM     66  C   UNL     1     -10.308   0.296   1.200  1.00  0.00     0.055 A 
ATOM     67  C   UNL     1     -11.374   2.402   1.646  1.00  0.00     0.041 A 
ATOM     68  F   UNL     1     -10.178   4.109   2.712  1.00  0.00    -0.206 F 
ATOM     69  C   UNL     1     -11.427   1.125   1.097  1.00  0.00     0.022 A 
BRANCH  66  70
ATOM     70  S   UNL     1     -10.274  -1.289   0.317  1.00  0.00     0.124 S 
ATOM     71  O   UNL     1      -9.150  -1.093  -0.596  1.00  0.00    -0.237 OA
ATOM     72  O   UNL     1     -10.062  -2.247   1.395  1.00  0.00    -0.237 OA
ATOM     73  O   UNL     1     -11.585  -1.352  -0.326  1.00  0.00    -0.744 OA
ENDBRANCH  66  70
ENDBRANCH  49  63
BRANCH  50  74
ATOM     74  C   UNL     1      -0.552   5.707   6.227  1.00  0.00     0.023 A 
ATOM     75  C   UNL     1       0.144   5.114   7.292  1.00  0.00     0.031 A 
ATOM     76  C   UNL     1      -0.061   6.924   5.718  1.00  0.00     0.131 A 
ATOM     77  C   UNL     1       1.274   5.750   7.830  1.00  0.00     0.055 A 
ATOM     78  C   UNL     1       1.097   7.523   6.218  1.00  0.00     0.041 A 
ATOM     79  F   UNL     1      -0.691   7.542   4.706  1.00  0.00    -0.206 F 
ATOM     80  C   UNL     1       1.766   6.940   7.288  1.00  0.00     0.022 A 
BRANCH  77  81
ATOM     81  S   UNL     1       2.051   5.040   9.307  1.00  0.00     0.124 S 
ATOM     82  O   UNL     1       0.939   5.025  10.251  1.00  0.00    -0.237 OA
ATOM     83  O   UNL     1       2.497   3.740   8.819  1.00  0.00    -0.237 OA
ATOM     84  O   UNL     1       3.121   5.987   9.618  1.00  0.00    -0.744 OA
ENDBRANCH  77  81
ENDBRANCH  50  74
BRANCH  62  85
ATOM     85  C   UNL     1      -6.908   4.556   8.849  1.00  0.00     0.023 A 
ATOM     86  C   UNL     1      -7.064   5.844   9.392  1.00  0.00     0.031 A 
ATOM     87  C   UNL     1      -7.269   3.454   9.643  1.00  0.00     0.131 A 
ATOM     88  C   UNL     1      -7.509   5.995  10.714  1.00  0.00     0.055 A 
ATOM     89  C   UNL     1      -7.767   3.613  10.937  1.00  0.00     0.041 A 
ATOM     90  F   UNL     1      -7.138   2.202   9.174  1.00  0.00    -0.206 F 
ATOM     91  C   UNL     1      -7.875   4.888  11.484  1.00  0.00     0.022 A 
BRANCH  88  92
ATOM     92  S   UNL     1      -7.504   7.653  11.450  1.00  0.00     0.124 S 
ATOM     93  O   UNL     1      -6.101   8.036  11.325  1.00  0.00    -0.237 OA
ATOM     94  O   UNL     1      -8.441   8.376  10.596  1.00  0.00    -0.237 OA
ATOM     95  O   UNL     1      -7.965   7.422  12.818  1.00  0.00    -0.744 OA
ENDBRANCH  88  92
ENDBRANCH  62  85
ENDBRANCH  36  37
ENDBRANCH  29  31
ENDBRANCH  28  29
ENDBRANCH  27  28
ENDBRANCH  26  27
ENDBRANCH  25  26
ENDBRANCH  24  25
ENDBRANCH   1  24
TORSDOF 24
