REMARK SMILES CN(/C=C\C(=O)OCCOCCOCCOC(=O)c1ccc(-c2c3nc(c(-c4cc(S(=O)(=O)[O-])ccc4F)c4ccc([nH]4)c(-c4cc(S(=O)(=O)[O-])ccc4F)c4nc(c(-c5cc(S(=O)(=O)[O-])ccc5F)c5ccc2[nH]5)C=C4)C=C3)cc1)C[C@@H]1CCCO1
REMARK SMILES IDX 11 1 10 2 9 3 8 4 7 5 5 6 6 7 4 8 3 9 2 10 1 11 82 12 83 13
REMARK SMILES IDX 84 14 87 15 85 16 86 17 12 18 13 19 14 20 15 21 16 22 17 23
REMARK SMILES IDX 18 24 19 25 20 26 81 27 21 28 80 29 22 30 23 31 24 32 74 33
REMARK SMILES IDX 25 34 79 35 73 36 75 37 26 38 78 39 72 40 71 41 27 43 59 44
REMARK SMILES IDX 39 45 58 46 40 47 43 48 57 49 76 50 41 51 42 52 56 54 77 55
REMARK SMILES IDX 44 56 28 57 29 58 37 59 30 60 36 61 38 62 35 63 31 64 32 65
REMARK SMILES IDX 33 66 34 67 60 68 61 69 69 70 62 71 68 72 70 73 67 74 63 75
REMARK SMILES IDX 64 76 65 77 66 78 45 79 46 80 54 81 47 82 53 83 55 84 52 85
REMARK SMILES IDX 48 86 49 87 50 88 51 89
REMARK H PARENT 75 42 43 53
REMARK Flexibility Score: inf
ROOT
ATOM      1  C   UNL     1       0.497  -5.930  -0.242  1.00  0.00     0.188 C 
ENDROOT
BRANCH   1   2
ATOM      2  O   UNL     1       0.817  -6.539  -1.474  1.00  0.00    -0.376 OA
BRANCH   2   3
ATOM      3  C   UNL     1       0.479  -5.930  -2.708  1.00  0.00     0.202 C 
BRANCH   3   4
ATOM      4  C   UNL     1      -0.482  -4.745  -2.858  1.00  0.00     0.261 C 
BRANCH   4   5
ATOM      5  O   UNL     1      -0.463  -3.802  -1.786  1.00  0.00    -0.460 OA
BRANCH   5   6
ATOM      6  C   UNL     1      -1.673  -3.509  -1.256  1.00  0.00     0.332 C 
ATOM      7  O   UNL     1      -2.745  -3.958  -1.638  1.00  0.00    -0.247 OA
BRANCH   6   8
ATOM      8  C   UNL     1      -1.596  -2.691  -0.036  1.00  0.00     0.111 C 
ATOM      9  C   UNL     1      -0.782  -1.717   0.386  1.00  0.00     0.088 C 
BRANCH   9  10
ATOM     10  N   UNL     1       0.337  -1.043  -0.072  1.00  0.00    -0.378 N 
ATOM     11  C   UNL     1       0.793   0.181   0.602  1.00  0.00     0.143 C 
BRANCH  10  12
ATOM     12  C   UNL     1       1.124  -1.373  -1.273  1.00  0.00     0.147 C 
BRANCH  12  13
ATOM     13  C   UNL     1       0.473  -0.901  -2.584  1.00  0.00     0.137 C 
ATOM     14  C   UNL     1       1.365  -1.219  -3.785  1.00  0.00     0.036 C 
ATOM     15  O   UNL     1       0.284   0.533  -2.580  1.00  0.00    -0.376 OA
ATOM     16  C   UNL     1       1.208  -0.006  -4.666  1.00  0.00     0.031 C 
ATOM     17  C   UNL     1       1.029   1.098  -3.655  1.00  0.00     0.160 C 
ENDBRANCH  12  13
ENDBRANCH  10  12
ENDBRANCH   9  10
ENDBRANCH   6   8
ENDBRANCH   5   6
ENDBRANCH   4   5
ENDBRANCH   3   4
ENDBRANCH   2   3
ENDBRANCH   1   2
BRANCH   1  18
ATOM     18  C   UNL     1       1.473  -4.882   0.342  1.00  0.00     0.188 C 
BRANCH  18  19
ATOM     19  O   UNL     1       2.594  -4.426  -0.400  1.00  0.00    -0.376 OA
BRANCH  19  20
ATOM     20  C   UNL     1       3.478  -5.372  -0.976  1.00  0.00     0.202 C 
BRANCH  20  21
ATOM     21  C   UNL     1       4.084  -6.490  -0.119  1.00  0.00     0.261 C 
BRANCH  21  22
ATOM     22  O   UNL     1       3.121  -7.289   0.583  1.00  0.00    -0.460 OA
BRANCH  22  23
ATOM     23  C   UNL     1       3.193  -7.233   1.939  1.00  0.00     0.338 C 
ATOM     24  O   UNL     1       3.993  -6.608   2.609  1.00  0.00    -0.246 OA
BRANCH  23  25
ATOM     25  C   UNL     1       2.017  -7.921   2.507  1.00  0.00     0.060 A 
ATOM     26  C   UNL     1       1.083  -7.167   3.232  1.00  0.00     0.016 A 
ATOM     27  C   UNL     1       1.844  -9.294   2.340  1.00  0.00     0.016 A 
ATOM     28  C   UNL     1      -0.040  -7.787   3.781  1.00  0.00     0.010 A 
ATOM     29  C   UNL     1       0.736  -9.918   2.921  1.00  0.00     0.010 A 
ATOM     30  C   UNL     1      -0.207  -9.171   3.650  1.00  0.00    -0.014 A 
BRANCH  30  31
ATOM     31  C   UNL     1      -1.287  -9.874   4.384  1.00  0.00     0.031 A 
ATOM     32  C   UNL     1      -0.960 -10.512   5.704  1.00  0.00     0.074 A 
ATOM     33  C   UNL     1      -2.529  -9.961   3.875  1.00  0.00     0.049 A 
ATOM     34  N   UNL     1      -1.685 -11.309   6.444  1.00  0.00    -0.248 NA
ATOM     35  C   UNL     1       0.367 -10.207   6.262  1.00  0.00     0.031 C 
ATOM     36  C   UNL     1      -2.985  -9.318   2.644  1.00  0.00     0.029 A 
ATOM     37  N   UNL     1      -3.632 -10.645   4.325  1.00  0.00    -0.354 N 
ATOM     38  C   UNL     1      -0.904 -11.606   7.555  1.00  0.00     0.074 A 
ATOM     39  C   UNL     1       0.361 -10.924   7.376  1.00  0.00     0.031 C 
ATOM     40  C   UNL     1      -4.267  -9.660   2.423  1.00  0.00     0.029 A 
ATOM     41  C   UNL     1      -4.704 -10.589   3.464  1.00  0.00     0.049 A 
ATOM     42  H   UNL     1      -3.654 -11.128   5.183  1.00  0.00     0.167 HD
ATOM     43  C   UNL     1      -1.216 -12.377   8.625  1.00  0.00     0.034 A 
ATOM     44  C   UNL     1      -5.880 -11.251   3.491  1.00  0.00     0.034 A 
ATOM     45  C   UNL     1      -2.472 -13.070   8.774  1.00  0.00     0.049 A 
ATOM     46  C   UNL     1      -6.146 -12.223   4.621  1.00  0.00     0.074 A 
ATOM     47  C   UNL     1      -2.889 -13.883   9.814  1.00  0.00     0.029 A 
ATOM     48  N   UNL     1      -3.509 -13.044   7.851  1.00  0.00    -0.354 N 
ATOM     49  N   UNL     1      -5.397 -12.509   5.662  1.00  0.00    -0.248 NA
ATOM     50  C   UNL     1      -7.414 -12.966   4.576  1.00  0.00     0.031 C 
ATOM     51  C   UNL     1      -4.143 -14.407   9.484  1.00  0.00     0.029 A 
ATOM     52  C   UNL     1      -4.546 -13.858   8.277  1.00  0.00     0.049 A 
ATOM     53  H   UNL     1      -3.507 -12.523   7.015  1.00  0.00     0.167 HD
ATOM     54  C   UNL     1      -6.120 -13.440   6.407  1.00  0.00     0.074 A 
ATOM     55  C   UNL     1      -7.369 -13.652   5.707  1.00  0.00     0.031 C 
ATOM     56  C   UNL     1      -5.784 -14.065   7.564  1.00  0.00     0.034 A 
BRANCH  43  57
ATOM     57  C   UNL     1      -0.161 -12.552   9.687  1.00  0.00     0.023 A 
ATOM     58  C   UNL     1       0.274 -11.476  10.479  1.00  0.00     0.031 A 
ATOM     59  C   UNL     1       0.421 -13.813   9.906  1.00  0.00     0.131 A 
ATOM     60  C   UNL     1       1.300 -11.670  11.417  1.00  0.00     0.055 A 
ATOM     61  C   UNL     1       1.390 -14.014  10.891  1.00  0.00     0.041 A 
ATOM     62  F   UNL     1       0.062 -14.871   9.162  1.00  0.00    -0.206 F 
ATOM     63  C   UNL     1       1.842 -12.937  11.646  1.00  0.00     0.022 A 
BRANCH  60  64
ATOM     64  S   UNL     1       1.999 -10.219  12.249  1.00  0.00     0.124 S 
ATOM     65  O   UNL     1       2.490  -9.436  11.118  1.00  0.00    -0.237 OA
ATOM     66  O   UNL     1       0.845  -9.671  12.952  1.00  0.00    -0.237 OA
ATOM     67  O   UNL     1       3.040 -10.783  13.106  1.00  0.00    -0.744 OA
ENDBRANCH  60  64
ENDBRANCH  43  57
BRANCH  44  68
ATOM     68  C   UNL     1      -6.877 -11.096   2.389  1.00  0.00     0.023 A 
ATOM     69  C   UNL     1      -8.179 -10.642   2.652  1.00  0.00     0.031 A 
ATOM     70  C   UNL     1      -6.575 -11.496   1.074  1.00  0.00     0.131 A 
ATOM     71  C   UNL     1      -9.148 -10.662   1.636  1.00  0.00     0.055 A 
ATOM     72  C   UNL     1      -7.523 -11.449   0.051  1.00  0.00     0.041 A 
ATOM     73  F   UNL     1      -5.351 -11.952   0.766  1.00  0.00    -0.206 F 
ATOM     74  C   UNL     1      -8.825 -11.047   0.333  1.00  0.00     0.022 A 
BRANCH  71  75
ATOM     75  S   UNL     1     -10.871 -10.303   2.075  1.00  0.00     0.124 S 
ATOM     76  O   UNL     1     -11.126 -11.299   3.108  1.00  0.00    -0.237 OA
ATOM     77  O   UNL     1     -10.787  -8.918   2.525  1.00  0.00    -0.237 OA
ATOM     78  O   UNL     1     -11.591 -10.507   0.819  1.00  0.00    -0.744 OA
ENDBRANCH  71  75
ENDBRANCH  44  68
BRANCH  56  79
ATOM     79  C   UNL     1      -6.804 -15.002   8.166  1.00  0.00     0.023 A 
ATOM     80  C   UNL     1      -7.158 -16.210   7.540  1.00  0.00     0.031 A 
ATOM     81  C   UNL     1      -7.426 -14.683   9.386  1.00  0.00     0.131 A 
ATOM     82  C   UNL     1      -8.141 -17.032   8.111  1.00  0.00     0.055 A 
ATOM     83  C   UNL     1      -8.358 -15.534   9.981  1.00  0.00     0.041 A 
ATOM     84  F   UNL     1      -7.127 -13.542  10.028  1.00  0.00    -0.206 F 
ATOM     85  C   UNL     1      -8.730 -16.710   9.337  1.00  0.00     0.022 A 
BRANCH  82  86
ATOM     86  S   UNL     1      -8.700 -18.492   7.192  1.00  0.00     0.124 S 
ATOM     87  O   UNL     1      -9.217 -17.898   5.964  1.00  0.00    -0.237 OA
ATOM     88  O   UNL     1      -7.471 -19.267   7.057  1.00  0.00    -0.237 OA
ATOM     89  O   UNL     1      -9.710 -19.084   8.068  1.00  0.00    -0.744 OA
ENDBRANCH  82  86
ENDBRANCH  56  79
ENDBRANCH  30  31
ENDBRANCH  23  25
ENDBRANCH  22  23
ENDBRANCH  21  22
ENDBRANCH  20  21
ENDBRANCH  19  20
ENDBRANCH  18  19
ENDBRANCH   1  18
TORSDOF 23
