REMARK SMILES Cc1cccc2c1N=CN1C2=[NH+]NC(=O)[C@@H]1CC(=O)OCCOCCOCCOC(=O)c1ccc(-c2c3nc(c(-c4cc(S(=O)(=O)[O-])ccc4F)c4ccc([nH]4)c(-c4cc(S(=O)(=O)[O-])ccc4F)c4nc(c(-c5cc(S(=O)(=O)[O-])ccc5F)c5ccc2[nH]5)C=C4)C=C3)cc1
REMARK SMILES IDX 25 1 24 2 23 3 22 4 21 5 20 6 18 7 19 8 17 9 16 10 1 11 2 12
REMARK SMILES IDX 3 13 7 14 4 15 6 16 8 17 5 18 11 19 9 20 10 21 12 22 13 23
REMARK SMILES IDX 14 25 15 27 26 28 27 29 28 30 29 31 30 32 31 33 32 34 33 35
REMARK SMILES IDX 94 36 34 37 93 38 35 39 36 40 37 41 87 42 38 43 92 44 86 45
REMARK SMILES IDX 88 46 39 47 91 48 85 49 84 50 40 52 72 53 52 54 71 55 53 56
REMARK SMILES IDX 56 57 70 58 89 59 54 60 55 61 69 63 90 64 57 65 41 66 42 67
REMARK SMILES IDX 50 68 43 69 49 70 51 71 48 72 44 73 45 74 46 75 47 76 73 77
REMARK SMILES IDX 74 78 82 79 75 80 81 81 83 82 80 83 76 84 77 85 78 86 79 87
REMARK SMILES IDX 58 88 59 89 67 90 60 91 66 92 68 93 65 94 61 95 62 96 63 97
REMARK SMILES IDX 64 98
REMARK H PARENT 12 24 13 26 88 51 56 62
REMARK Flexibility Score: inf
ROOT
ATOM      1  C   UNL     1       4.261   7.761  -2.397  1.00  0.00     0.188 C 
ENDROOT
BRANCH   1   2
ATOM      2  C   UNL     1       5.641   7.274  -1.949  1.00  0.00     0.188 C 
BRANCH   2   3
ATOM      3  O   UNL     1       6.325   6.444  -2.881  1.00  0.00    -0.376 OA
BRANCH   3   4
ATOM      4  C   UNL     1       5.664   5.232  -3.239  1.00  0.00     0.202 C 
BRANCH   4   5
ATOM      5  C   UNL     1       5.377   4.261  -2.079  1.00  0.00     0.261 C 
BRANCH   5   6
ATOM      6  O   UNL     1       4.430   4.783  -1.113  1.00  0.00    -0.463 OA
BRANCH   6   7
ATOM      7  C   UNL     1       4.664   4.449   0.178  1.00  0.00     0.310 C 
ATOM      8  O   UNL     1       5.445   3.573   0.536  1.00  0.00    -0.252 OA
BRANCH   7   9
ATOM      9  C   UNL     1       3.994   5.361   1.178  1.00  0.00     0.183 C 
BRANCH   9  10
ATOM     10  C   UNL     1       2.483   5.314   1.399  1.00  0.00     0.286 C 
ATOM     11  C   UNL     1       1.164  -0.700  -0.182  1.00  0.00     0.047 C 
ATOM     12  C   UNL     1       0.382   0.565  -0.379  1.00  0.00    -0.024 A 
ATOM     13  C   UNL     1      -0.606   0.637  -1.379  1.00  0.00     0.006 A 
ATOM     14  C   UNL     1       0.684   1.704   0.382  1.00  0.00     0.085 A 
ATOM     15  C   UNL     1      -1.338   1.807  -1.589  1.00  0.00     0.001 A 
ATOM     16  C   UNL     1      -0.064   2.870   0.147  1.00  0.00     0.092 A 
ATOM     17  N   UNL     1       1.804   1.683   1.254  1.00  0.00    -0.215 NA
ATOM     18  C   UNL     1      -1.088   2.922  -0.805  1.00  0.00     0.019 A 
ATOM     19  C   UNL     1       0.486   4.137   0.675  1.00  0.00     0.309 C 
ATOM     20  C   UNL     1       2.309   2.840   1.545  1.00  0.00     0.317 C 
ATOM     21  N   UNL     1       1.788   4.053   1.159  1.00  0.00    -0.202 N 
ATOM     22  N   UNL     1      -0.235   5.213   0.545  1.00  0.00    -0.169 N 
ATOM     23  N   UNL     1       0.419   6.397   0.671  1.00  0.00    -0.193 N 
ATOM     24  H   UNL     1      -1.202   5.171   0.366  1.00  0.00     0.340 HD
ATOM     25  C   UNL     1       1.791   6.452   0.667  1.00  0.00     0.300 C 
ATOM     26  H   UNL     1      -0.099   7.229   0.766  1.00  0.00     0.216 HD
ATOM     27  O   UNL     1       2.394   7.404   0.193  1.00  0.00    -0.267 OA
ENDBRANCH   9  10
ENDBRANCH   7   9
ENDBRANCH   6   7
ENDBRANCH   5   6
ENDBRANCH   4   5
ENDBRANCH   3   4
ENDBRANCH   2   3
ENDBRANCH   1   2
BRANCH   1  28
ATOM     28  O   UNL     1       3.280   6.736  -2.592  1.00  0.00    -0.376 OA
BRANCH  28  29
ATOM     29  C   UNL     1       2.348   7.017  -3.639  1.00  0.00     0.202 C 
BRANCH  29  30
ATOM     30  C   UNL     1       1.331   8.135  -3.358  1.00  0.00     0.261 C 
BRANCH  30  31
ATOM     31  O   UNL     1       1.968   9.325  -2.875  1.00  0.00    -0.460 OA
BRANCH  31  32
ATOM     32  C   UNL     1       1.609   9.717  -1.616  1.00  0.00     0.338 C 
ATOM     33  O   UNL     1       0.655   9.351  -0.976  1.00  0.00    -0.246 OA
BRANCH  32  34
ATOM     34  C   UNL     1       2.706  10.584  -1.101  1.00  0.00     0.060 A 
ATOM     35  C   UNL     1       3.318  10.259   0.119  1.00  0.00     0.016 A 
ATOM     36  C   UNL     1       3.169  11.669  -1.843  1.00  0.00     0.016 A 
ATOM     37  C   UNL     1       4.389  11.005   0.602  1.00  0.00     0.010 A 
ATOM     38  C   UNL     1       4.207  12.454  -1.336  1.00  0.00     0.010 A 
ATOM     39  C   UNL     1       4.799  12.139  -0.100  1.00  0.00    -0.014 A 
BRANCH  39  40
ATOM     40  C   UNL     1       5.653  13.136   0.578  1.00  0.00     0.031 A 
ATOM     41  C   UNL     1       4.966  14.222   1.355  1.00  0.00     0.074 A 
ATOM     42  C   UNL     1       6.994  13.085   0.510  1.00  0.00     0.049 A 
ATOM     43  N   UNL     1       5.485  15.232   1.998  1.00  0.00    -0.248 NA
ATOM     44  C   UNL     1       3.494  14.162   1.409  1.00  0.00     0.031 C 
ATOM     45  C   UNL     1       7.768  12.057  -0.179  1.00  0.00     0.029 A 
ATOM     46  N   UNL     1       7.939  13.938   1.023  1.00  0.00    -0.354 N 
ATOM     47  C   UNL     1       4.408  15.926   2.533  1.00  0.00     0.074 A 
ATOM     48  C   UNL     1       3.205  15.244   2.115  1.00  0.00     0.031 C 
ATOM     49  C   UNL     1       9.075  12.350  -0.063  1.00  0.00     0.029 A 
ATOM     50  C   UNL     1       9.227  13.600   0.685  1.00  0.00     0.049 A 
ATOM     51  H   UNL     1       7.716  14.718   1.581  1.00  0.00     0.167 HD
ATOM     52  C   UNL     1       4.423  17.029   3.312  1.00  0.00     0.034 A 
ATOM     53  C   UNL     1      10.391  14.235   0.938  1.00  0.00     0.034 A 
ATOM     54  C   UNL     1       5.622  17.714   3.708  1.00  0.00     0.049 A 
ATOM     55  C   UNL     1      10.381  15.504   1.758  1.00  0.00     0.074 A 
ATOM     56  C   UNL     1       5.736  18.841   4.501  1.00  0.00     0.029 A 
ATOM     57  N   UNL     1       6.907  17.345   3.343  1.00  0.00    -0.354 N 
ATOM     58  N   UNL     1       9.361  16.128   2.299  1.00  0.00    -0.248 NA
ATOM     59  C   UNL     1      11.677  16.149   2.018  1.00  0.00     0.031 C 
ATOM     60  C   UNL     1       7.085  19.188   4.568  1.00  0.00     0.029 A 
ATOM     61  C   UNL     1       7.820  18.233   3.883  1.00  0.00     0.049 A 
ATOM     62  H   UNL     1       7.136  16.568   2.784  1.00  0.00     0.167 HD
ATOM     63  C   UNL     1       9.895  17.208   2.998  1.00  0.00     0.074 A 
ATOM     64  C   UNL     1      11.329  17.155   2.812  1.00  0.00     0.031 C 
ATOM     65  C   UNL     1       9.253  18.151   3.733  1.00  0.00     0.034 A 
BRANCH  52  66
ATOM     66  C   UNL     1       3.109  17.578   3.794  1.00  0.00     0.023 A 
ATOM     67  C   UNL     1       2.684  18.848   3.368  1.00  0.00     0.031 A 
ATOM     68  C   UNL     1       2.342  16.899   4.756  1.00  0.00     0.131 A 
ATOM     69  C   UNL     1       1.542  19.421   3.936  1.00  0.00     0.055 A 
ATOM     70  C   UNL     1       1.182  17.459   5.290  1.00  0.00     0.041 A 
ATOM     71  F   UNL     1       2.705  15.678   5.181  1.00  0.00    -0.206 F 
ATOM     72  C   UNL     1       0.785  18.732   4.890  1.00  0.00     0.022 A 
BRANCH  69  73
ATOM     73  S   UNL     1       1.024  21.100   3.493  1.00  0.00     0.124 S 
ATOM     74  O   UNL     1      -0.365  20.891   3.089  1.00  0.00    -0.237 OA
ATOM     75  O   UNL     1       1.208  21.816   4.751  1.00  0.00    -0.237 OA
ATOM     76  O   UNL     1       1.931  21.473   2.413  1.00  0.00    -0.744 OA
ENDBRANCH  69  73
ENDBRANCH  52  66
BRANCH  53  77
ATOM     77  C   UNL     1      11.665  13.643   0.442  1.00  0.00     0.023 A 
ATOM     78  C   UNL     1      11.923  13.530  -0.936  1.00  0.00     0.031 A 
ATOM     79  C   UNL     1      12.607  13.112   1.339  1.00  0.00     0.131 A 
ATOM     80  C   UNL     1      13.069  12.854  -1.376  1.00  0.00     0.055 A 
ATOM     81  C   UNL     1      13.776  12.491   0.897  1.00  0.00     0.041 A 
ATOM     82  F   UNL     1      12.399  13.193   2.662  1.00  0.00    -0.206 F 
ATOM     83  C   UNL     1      14.005  12.349  -0.469  1.00  0.00     0.022 A 
BRANCH  80  84
ATOM     84  S   UNL     1      13.342  12.540  -3.141  1.00  0.00     0.124 S 
ATOM     85  O   UNL     1      14.694  13.055  -3.341  1.00  0.00    -0.237 OA
ATOM     86  O   UNL     1      13.204  11.088  -3.206  1.00  0.00    -0.237 OA
ATOM     87  O   UNL     1      12.280  13.299  -3.794  1.00  0.00    -0.744 OA
ENDBRANCH  80  84
ENDBRANCH  53  77
BRANCH  65  88
ATOM     88  C   UNL     1      10.060  19.196   4.464  1.00  0.00     0.023 A 
ATOM     89  C   UNL     1      10.005  19.248   5.871  1.00  0.00     0.031 A 
ATOM     90  C   UNL     1      10.715  20.235   3.785  1.00  0.00     0.131 A 
ATOM     91  C   UNL     1      10.549  20.343   6.552  1.00  0.00     0.055 A 
ATOM     92  C   UNL     1      11.298  21.303   4.471  1.00  0.00     0.041 A 
ATOM     93  F   UNL     1      10.781  20.238   2.444  1.00  0.00    -0.206 F 
ATOM     94  C   UNL     1      11.202  21.368   5.860  1.00  0.00     0.022 A 
BRANCH  91  95
ATOM     95  S   UNL     1      10.353  20.519   8.347  1.00  0.00     0.124 S 
ATOM     96  O   UNL     1      11.739  20.640   8.793  1.00  0.00    -0.237 OA
ATOM     97  O   UNL     1       9.556  21.739   8.450  1.00  0.00    -0.237 OA
ATOM     98  O   UNL     1       9.678  19.290   8.751  1.00  0.00    -0.744 OA
ENDBRANCH  91  95
ENDBRANCH  65  88
ENDBRANCH  39  40
ENDBRANCH  32  34
ENDBRANCH  31  32
ENDBRANCH  30  31
ENDBRANCH  29  30
ENDBRANCH  28  29
ENDBRANCH   1  28
TORSDOF 21
