REMARK SMILES COCc1cccc(C(=O)N2C[C@@H](O)C[C@@H]2C(=O)OCCOCCOCCOC(=O)c2ccc(-c3c4nc(c(-c5cc(S(=O)(=O)[O-])ccc5F)c5ccc([nH]5)c(-c5cc(S(=O)(=O)[O-])ccc5F)c5nc(c(-c6cc(S(=O)(=O)[O-])ccc6F)c6ccc3[nH]6)C=C5)C=C4)cc2)c1
REMARK SMILES IDX 23 1 22 2 21 3 20 4 19 5 17 6 18 7 16 8 11 9 12 10 13 11
REMARK SMILES IDX 15 12 9 13 10 14 8 15 4 16 5 17 94 18 6 19 7 20 3 21 2 22
REMARK SMILES IDX 1 23 14 24 24 26 25 27 26 28 27 29 28 30 29 31 30 32 31 33
REMARK SMILES IDX 32 34 93 35 33 36 92 37 34 38 35 39 36 40 86 41 37 42 91 43
REMARK SMILES IDX 85 44 87 45 38 46 90 47 84 48 83 49 39 51 71 52 51 53 70 54
REMARK SMILES IDX 52 55 55 56 69 57 88 58 53 59 54 60 68 62 89 63 56 64 40 65
REMARK SMILES IDX 41 66 49 67 42 68 48 69 50 70 47 71 43 72 44 73 45 74 46 75
REMARK SMILES IDX 72 76 73 77 81 78 74 79 80 80 82 81 79 82 75 83 76 84 77 85
REMARK SMILES IDX 78 86 57 87 58 88 66 89 59 90 65 91 67 92 64 93 60 94 61 95
REMARK SMILES IDX 62 96 63 97
REMARK H PARENT 14 25 87 50 55 61
REMARK Flexibility Score: inf
ROOT
ATOM      1  C   UNL     1       0.972  -5.869  -7.481  1.00  0.00     0.188 C 
ENDROOT
BRANCH   1   2
ATOM      2  O   UNL     1       2.035  -5.051  -7.959  1.00  0.00    -0.376 OA
BRANCH   2   3
ATOM      3  C   UNL     1       2.552  -4.010  -7.154  1.00  0.00     0.202 C 
BRANCH   3   4
ATOM      4  C   UNL     1       1.647  -2.813  -6.842  1.00  0.00     0.261 C 
BRANCH   4   5
ATOM      5  O   UNL     1       0.330  -3.085  -6.336  1.00  0.00    -0.462 OA
BRANCH   5   6
ATOM      6  C   UNL     1      -0.680  -3.098  -7.258  1.00  0.00     0.329 C 
ATOM      7  O   UNL     1      -0.503  -3.148  -8.469  1.00  0.00    -0.250 OA
BRANCH   6   8
ATOM      8  C   UNL     1      -2.079  -3.146  -6.610  1.00  0.00     0.198 C 
ATOM      9  N   UNL     1      -2.102  -2.458  -5.320  1.00  0.00    -0.322 N 
ATOM     10  C   UNL     1      -2.852  -3.222  -4.341  1.00  0.00     0.152 C 
ATOM     11  C   UNL     1      -2.538  -4.652  -4.752  1.00  0.00     0.136 C 
ATOM     12  C   UNL     1      -2.578  -4.565  -6.287  1.00  0.00     0.071 C 
BRANCH   9  13
ATOM     13  C   UNL     1      -1.909  -1.096  -5.301  1.00  0.00     0.254 C 
ATOM     14  O   UNL     1      -2.340  -0.369  -6.191  1.00  0.00    -0.269 OA
BRANCH  13  15
ATOM     15  C   UNL     1      -0.901  -0.565  -4.333  1.00  0.00     0.040 A 
ATOM     16  C   UNL     1       0.716  -0.829  -2.527  1.00  0.00    -0.022 A 
ATOM     17  C   UNL     1       1.194   0.463  -2.784  1.00  0.00     0.006 A 
ATOM     18  C   UNL     1      -0.312  -1.343  -3.329  1.00  0.00     0.020 A 
ATOM     19  C   UNL     1       0.622   1.244  -3.786  1.00  0.00     0.001 A 
ATOM     20  C   UNL     1      -0.428   0.737  -4.548  1.00  0.00     0.014 A 
BRANCH  16  21
ATOM     21  C   UNL     1       1.271  -1.650  -1.389  1.00  0.00     0.195 C 
BRANCH  21  22
ATOM     22  O   UNL     1       0.609  -1.376  -0.153  1.00  0.00    -0.380 OA
ATOM     23  C   UNL     1       0.940  -0.111   0.403  1.00  0.00     0.195 C 
ENDBRANCH  21  22
ENDBRANCH  16  21
ENDBRANCH  13  15
ENDBRANCH   9  13
BRANCH  11  24
ATOM     24  O   UNL     1      -3.432  -5.609  -4.223  1.00  0.00    -0.391 OA
ATOM     25  H   UNL     1      -4.336  -5.400  -4.506  1.00  0.00     0.211 HD
ENDBRANCH  11  24
ENDBRANCH   6   8
ENDBRANCH   5   6
ENDBRANCH   4   5
ENDBRANCH   3   4
ENDBRANCH   2   3
ENDBRANCH   1   2
BRANCH   1  26
ATOM     26  C   UNL     1       0.761  -6.050  -5.966  1.00  0.00     0.188 C 
BRANCH  26  27
ATOM     27  O   UNL     1       1.950  -5.891  -5.221  1.00  0.00    -0.376 OA
BRANCH  27  28
ATOM     28  C   UNL     1       2.491  -7.020  -4.575  1.00  0.00     0.202 C 
BRANCH  28  29
ATOM     29  C   UNL     1       2.863  -8.254  -5.412  1.00  0.00     0.261 C 
BRANCH  29  30
ATOM     30  O   UNL     1       2.031  -8.564  -6.541  1.00  0.00    -0.460 OA
BRANCH  30  31
ATOM     31  C   UNL     1       0.908  -9.282  -6.313  1.00  0.00     0.338 C 
ATOM     32  O   UNL     1       0.497  -9.653  -5.223  1.00  0.00    -0.246 OA
BRANCH  31  33
ATOM     33  C   UNL     1       0.155  -9.394  -7.585  1.00  0.00     0.060 A 
ATOM     34  C   UNL     1      -1.123  -8.825  -7.680  1.00  0.00     0.016 A 
ATOM     35  C   UNL     1       0.705 -10.061  -8.684  1.00  0.00     0.016 A 
ATOM     36  C   UNL     1      -1.864  -8.947  -8.863  1.00  0.00     0.010 A 
ATOM     37  C   UNL     1      -0.046 -10.198  -9.859  1.00  0.00     0.010 A 
ATOM     38  C   UNL     1      -1.347  -9.667  -9.949  1.00  0.00    -0.014 A 
BRANCH  38  39
ATOM     39  C   UNL     1      -2.217 -10.031 -11.103  1.00  0.00     0.031 A 
ATOM     40  C   UNL     1      -2.799 -11.420 -11.152  1.00  0.00     0.074 A 
ATOM     41  C   UNL     1      -2.488  -9.163 -12.095  1.00  0.00     0.049 A 
ATOM     42  N   UNL     1      -3.485 -12.008 -12.098  1.00  0.00    -0.248 NA
ATOM     43  C   UNL     1      -2.560 -12.259  -9.969  1.00  0.00     0.031 C 
ATOM     44  C   UNL     1      -2.032  -7.777 -12.153  1.00  0.00     0.029 A 
ATOM     45  N   UNL     1      -3.201  -9.331 -13.260  1.00  0.00    -0.354 N 
ATOM     46  C   UNL     1      -3.757 -13.289 -11.628  1.00  0.00     0.074 A 
ATOM     47  C   UNL     1      -3.118 -13.402 -10.333  1.00  0.00     0.031 C 
ATOM     48  C   UNL     1      -2.456  -7.227 -13.305  1.00  0.00     0.029 A 
ATOM     49  C   UNL     1      -3.173  -8.233 -14.089  1.00  0.00     0.049 A 
ATOM     50  H   UNL     1      -3.686 -10.159 -13.480  1.00  0.00     0.167 HD
ATOM     51  C   UNL     1      -4.479 -14.277 -12.215  1.00  0.00     0.034 A 
ATOM     52  C   UNL     1      -3.634  -8.069 -15.348  1.00  0.00     0.034 A 
ATOM     53  C   UNL     1      -5.088 -14.163 -13.519  1.00  0.00     0.049 A 
ATOM     54  C   UNL     1      -4.342  -9.217 -16.034  1.00  0.00     0.074 A 
ATOM     55  C   UNL     1      -5.838 -15.103 -14.205  1.00  0.00     0.029 A 
ATOM     56  N   UNL     1      -5.004 -13.048 -14.344  1.00  0.00    -0.354 N 
ATOM     57  N   UNL     1      -4.593 -10.425 -15.582  1.00  0.00    -0.248 NA
ATOM     58  C   UNL     1      -4.833  -8.976 -17.398  1.00  0.00     0.031 C 
ATOM     59  C   UNL     1      -6.135 -14.590 -15.473  1.00  0.00     0.029 A 
ATOM     60  C   UNL     1      -5.655 -13.292 -15.545  1.00  0.00     0.049 A 
ATOM     61  H   UNL     1      -4.548 -12.208 -14.110  1.00  0.00     0.167 HD
ATOM     62  C   UNL     1      -5.299 -11.073 -16.595  1.00  0.00     0.074 A 
ATOM     63  C   UNL     1      -5.444 -10.119 -17.674  1.00  0.00     0.031 C 
ATOM     64  C   UNL     1      -5.789 -12.341 -16.625  1.00  0.00     0.034 A 
BRANCH  51  65
ATOM     65  C   UNL     1      -4.594 -15.584 -11.463  1.00  0.00     0.023 A 
ATOM     66  C   UNL     1      -5.205 -15.658 -10.199  1.00  0.00     0.031 A 
ATOM     67  C   UNL     1      -4.037 -16.763 -11.992  1.00  0.00     0.131 A 
ATOM     68  C   UNL     1      -5.162 -16.854  -9.468  1.00  0.00     0.055 A 
ATOM     69  C   UNL     1      -4.083 -17.974 -11.299  1.00  0.00     0.041 A 
ATOM     70  F   UNL     1      -3.419 -16.754 -13.183  1.00  0.00    -0.206 F 
ATOM     71  C   UNL     1      -4.630 -18.021 -10.020  1.00  0.00     0.022 A 
BRANCH  68  72
ATOM     72  S   UNL     1      -5.646 -16.815  -7.720  1.00  0.00     0.124 S 
ATOM     73  O   UNL     1      -4.748 -15.791  -7.189  1.00  0.00    -0.237 OA
ATOM     74  O   UNL     1      -7.056 -16.453  -7.791  1.00  0.00    -0.237 OA
ATOM     75  O   UNL     1      -5.371 -18.174  -7.258  1.00  0.00    -0.744 OA
ENDBRANCH  68  72
ENDBRANCH  51  65
BRANCH  52  76
ATOM     76  C   UNL     1      -3.389  -6.789 -16.079  1.00  0.00     0.023 A 
ATOM     77  C   UNL     1      -4.447  -5.972 -16.508  1.00  0.00     0.031 A 
ATOM     78  C   UNL     1      -2.079  -6.393 -16.408  1.00  0.00     0.131 A 
ATOM     79  C   UNL     1      -4.181  -4.824 -17.272  1.00  0.00     0.055 A 
ATOM     80  C   UNL     1      -1.816  -5.220 -17.116  1.00  0.00     0.041 A 
ATOM     81  F   UNL     1      -1.029  -7.143 -16.036  1.00  0.00    -0.206 F 
ATOM     82  C   UNL     1      -2.872  -4.433 -17.563  1.00  0.00     0.022 A 
BRANCH  79  83
ATOM     83  S   UNL     1      -5.577  -3.890 -17.961  1.00  0.00     0.124 S 
ATOM     84  O   UNL     1      -6.235  -4.902 -18.779  1.00  0.00    -0.237 OA
ATOM     85  O   UNL     1      -6.289  -3.477 -16.757  1.00  0.00    -0.237 OA
ATOM     86  O   UNL     1      -4.931  -2.810 -18.703  1.00  0.00    -0.744 OA
ENDBRANCH  79  83
ENDBRANCH  52  76
BRANCH  64  87
ATOM     87  C   UNL     1      -6.580 -12.754 -17.848  1.00  0.00     0.023 A 
ATOM     88  C   UNL     1      -5.992 -12.857 -19.121  1.00  0.00     0.031 A 
ATOM     89  C   UNL     1      -7.951 -13.052 -17.732  1.00  0.00     0.131 A 
ATOM     90  C   UNL     1      -6.781 -13.191 -20.233  1.00  0.00     0.055 A 
ATOM     91  C   UNL     1      -8.716 -13.450 -18.829  1.00  0.00     0.041 A 
ATOM     92  F   UNL     1      -8.571 -12.968 -16.544  1.00  0.00    -0.206 F 
ATOM     93  C   UNL     1      -8.135 -13.508 -20.092  1.00  0.00     0.022 A 
BRANCH  90  94
ATOM     94  S   UNL     1      -6.041 -13.110 -21.888  1.00  0.00     0.124 S 
ATOM     95  O   UNL     1      -5.591 -11.723 -21.951  1.00  0.00    -0.237 OA
ATOM     96  O   UNL     1      -4.991 -14.120 -21.811  1.00  0.00    -0.237 OA
ATOM     97  O   UNL     1      -7.153 -13.441 -22.778  1.00  0.00    -0.744 OA
ENDBRANCH  90  94
ENDBRANCH  64  87
ENDBRANCH  38  39
ENDBRANCH  31  33
ENDBRANCH  30  31
ENDBRANCH  29  30
ENDBRANCH  28  29
ENDBRANCH  27  28
ENDBRANCH  26  27
ENDBRANCH   1  26
TORSDOF 25
