REMARK SMILES O=C(Cc1ccccc1Nc1c(F)cccc1C(F)(F)F)OCCOCCOCCOC(=O)c1ccc(-c2c3nc(c(-c4cc(S(=O)(=O)[O-])ccc4F)c4ccc([nH]4)c(-c4cc(S(=O)(=O)[O-])ccc4F)c4nc(c(-c5cc(S(=O)(=O)[O-])ccc5F)c5ccc2[nH]5)C=C4)C=C3)cc1
REMARK SMILES IDX 26 1 25 2 24 3 23 4 22 5 2 6 1 7 3 8 4 9 5 10 9 11 6 12 8 13
REMARK SMILES IDX 7 14 10 15 11 17 12 18 17 19 13 20 14 21 16 22 15 23 18 24
REMARK SMILES IDX 19 25 20 26 21 27 27 28 28 29 29 30 30 31 31 32 32 33 33 34
REMARK SMILES IDX 34 35 35 36 96 37 36 38 95 39 37 40 38 41 39 42 89 43 40 44
REMARK SMILES IDX 94 45 88 46 90 47 41 48 93 49 87 50 86 51 42 53 74 54 54 55
REMARK SMILES IDX 73 56 55 57 58 58 72 59 91 60 56 61 57 62 71 64 92 65 59 66
REMARK SMILES IDX 43 67 44 68 52 69 45 70 51 71 53 72 50 73 46 74 47 75 48 76
REMARK SMILES IDX 49 77 75 78 76 79 84 80 77 81 83 82 85 83 82 84 78 85 79 86
REMARK SMILES IDX 80 87 81 88 60 89 61 90 69 91 62 92 68 93 70 94 67 95 63 96
REMARK SMILES IDX 64 97 65 98 66 99
REMARK H PARENT 10 16 90 52 58 63
REMARK Flexibility Score: inf
ROOT
ATOM      1  C   UNL     1       2.243   0.862   1.839  1.00  0.00     0.188 C 
ENDROOT
BRANCH   1   2
ATOM      2  O   UNL     1       3.611   0.514   1.701  1.00  0.00    -0.376 OA
BRANCH   2   3
ATOM      3  C   UNL     1       4.349   1.075   0.625  1.00  0.00     0.202 C 
BRANCH   3   4
ATOM      4  C   UNL     1       3.633   1.310  -0.706  1.00  0.00     0.261 C 
BRANCH   4   5
ATOM      5  O   UNL     1       2.516   0.475  -1.075  1.00  0.00    -0.463 OA
BRANCH   5   6
ATOM      6  C   UNL     1       2.485  -0.855  -1.298  1.00  0.00     0.310 C 
ATOM      7  O   UNL     1       1.621  -1.312  -2.048  1.00  0.00    -0.252 OA
BRANCH   6   8
ATOM      8  C   UNL     1       3.374  -1.766  -0.494  1.00  0.00     0.160 C 
BRANCH   8   9
ATOM      9  C   UNL     1       4.226  -2.689  -1.331  1.00  0.00    -0.013 A 
ATOM     10  C   UNL     1       3.804  -4.017  -1.501  1.00  0.00     0.006 A 
ATOM     11  C   UNL     1       5.424  -2.250  -1.933  1.00  0.00     0.042 A 
ATOM     12  C   UNL     1       4.579  -4.915  -2.227  1.00  0.00     0.000 A 
ATOM     13  C   UNL     1       6.193  -3.169  -2.654  1.00  0.00     0.026 A 
ATOM     14  C   UNL     1       5.772  -4.492  -2.804  1.00  0.00     0.002 A 
BRANCH  11  15
ATOM     15  N   UNL     1       5.963  -0.990  -1.601  1.00  0.00    -0.352 N 
ATOM     16  H   UNL     1       5.932  -0.787  -0.638  1.00  0.00     0.167 HD
BRANCH  15  17
ATOM     17  C   UNL     1       6.539   0.038  -2.382  1.00  0.00     0.087 A 
ATOM     18  C   UNL     1       7.503   0.848  -1.738  1.00  0.00     0.147 A 
ATOM     19  C   UNL     1       6.151   0.398  -3.684  1.00  0.00     0.082 A 
ATOM     20  F   UNL     1       7.838   0.567  -0.468  1.00  0.00    -0.205 F 
ATOM     21  C   UNL     1       8.101   1.945  -2.347  1.00  0.00     0.041 A 
ATOM     22  C   UNL     1       6.782   1.506  -4.304  1.00  0.00     0.015 A 
ATOM     23  C   UNL     1       7.745   2.272  -3.645  1.00  0.00     0.004 A 
BRANCH  19  24
ATOM     24  C   UNL     1       5.038  -0.284  -4.446  1.00  0.00     0.418 C 
ATOM     25  F   UNL     1       4.617   0.460  -5.517  1.00  0.00    -0.166 F 
ATOM     26  F   UNL     1       5.408  -1.479  -4.976  1.00  0.00    -0.166 F 
ATOM     27  F   UNL     1       3.918  -0.490  -3.712  1.00  0.00    -0.166 F 
ENDBRANCH  19  24
ENDBRANCH  15  17
ENDBRANCH  11  15
ENDBRANCH   8   9
ENDBRANCH   6   8
ENDBRANCH   5   6
ENDBRANCH   4   5
ENDBRANCH   3   4
ENDBRANCH   2   3
ENDBRANCH   1   2
BRANCH   1  28
ATOM     28  C   UNL     1       1.894   2.346   1.988  1.00  0.00     0.188 C 
BRANCH  28  29
ATOM     29  O   UNL     1       2.985   3.228   1.743  1.00  0.00    -0.376 OA
BRANCH  29  30
ATOM     30  C   UNL     1       3.459   3.906   2.906  1.00  0.00     0.202 C 
BRANCH  30  31
ATOM     31  C   UNL     1       4.402   3.087   3.805  1.00  0.00     0.261 C 
BRANCH  31  32
ATOM     32  O   UNL     1       3.887   1.844   4.311  1.00  0.00    -0.460 OA
BRANCH  32  33
ATOM     33  C   UNL     1       2.841   1.919   5.158  1.00  0.00     0.338 C 
ATOM     34  O   UNL     1       2.265   2.940   5.510  1.00  0.00    -0.246 OA
BRANCH  33  35
ATOM     35  C   UNL     1       2.392   0.553   5.496  1.00  0.00     0.060 A 
ATOM     36  C   UNL     1       1.056   0.210   5.258  1.00  0.00     0.016 A 
ATOM     37  C   UNL     1       3.260  -0.365   6.097  1.00  0.00     0.016 A 
ATOM     38  C   UNL     1       0.572  -1.036   5.660  1.00  0.00     0.010 A 
ATOM     39  C   UNL     1       2.766  -1.602   6.529  1.00  0.00     0.010 A 
ATOM     40  C   UNL     1       1.407  -1.922   6.354  1.00  0.00    -0.014 A 
BRANCH  40  41
ATOM     41  C   UNL     1       0.774  -3.008   7.148  1.00  0.00     0.031 A 
ATOM     42  C   UNL     1       0.364  -2.682   8.563  1.00  0.00     0.074 A 
ATOM     43  C   UNL     1       0.500  -4.218   6.627  1.00  0.00     0.049 A 
ATOM     44  N   UNL     1      -0.275  -3.412   9.439  1.00  0.00    -0.248 NA
ATOM     45  C   UNL     1       0.728  -1.341   9.049  1.00  0.00     0.031 C 
ATOM     46  C   UNL     1       0.809  -4.644   5.265  1.00  0.00     0.029 A 
ATOM     47  N   UNL     1      -0.118  -5.308   7.190  1.00  0.00    -0.354 N 
ATOM     48  C   UNL     1      -0.403  -2.615  10.573  1.00  0.00     0.074 A 
ATOM     49  C   UNL     1       0.269  -1.366  10.288  1.00  0.00     0.031 C 
ATOM     50  C   UNL     1       0.377  -5.908   5.096  1.00  0.00     0.029 A 
ATOM     51  C   UNL     1      -0.224  -6.386   6.342  1.00  0.00     0.049 A 
ATOM     52  H   UNL     1      -0.453  -5.318   8.115  1.00  0.00     0.167 HD
ATOM     53  C   UNL     1      -1.032  -2.889  11.741  1.00  0.00     0.034 A 
ATOM     54  C   UNL     1      -0.745  -7.613   6.552  1.00  0.00     0.034 A 
ATOM     55  C   UNL     1      -1.672  -4.148  12.029  1.00  0.00     0.049 A 
ATOM     56  C   UNL     1      -1.371  -7.928   7.893  1.00  0.00     0.074 A 
ATOM     57  C   UNL     1      -2.332  -4.538  13.181  1.00  0.00     0.029 A 
ATOM     58  N   UNL     1      -1.715  -5.232  11.161  1.00  0.00    -0.354 N 
ATOM     59  N   UNL     1      -1.510  -7.156   8.947  1.00  0.00    -0.248 NA
ATOM     60  C   UNL     1      -1.928  -9.278   8.062  1.00  0.00     0.031 C 
ATOM     61  C   UNL     1      -2.713  -5.877  13.036  1.00  0.00     0.029 A 
ATOM     62  C   UNL     1      -2.364  -6.298  11.763  1.00  0.00     0.049 A 
ATOM     63  H   UNL     1      -1.339  -5.241  10.251  1.00  0.00     0.167 HD
ATOM     64  C   UNL     1      -2.213  -7.913   9.884  1.00  0.00     0.074 A 
ATOM     65  C   UNL     1      -2.471  -9.198   9.268  1.00  0.00     0.031 C 
ATOM     66  C   UNL     1      -2.617  -7.575  11.136  1.00  0.00     0.034 A 
BRANCH  53  67
ATOM     67  C   UNL     1      -0.993  -1.820  12.806  1.00  0.00     0.023 A 
ATOM     68  C   UNL     1      -1.606  -0.567  12.621  1.00  0.00     0.031 A 
ATOM     69  C   UNL     1      -0.280  -2.034  13.998  1.00  0.00     0.131 A 
ATOM     70  C   UNL     1      -1.426   0.447  13.574  1.00  0.00     0.055 A 
ATOM     71  C   UNL     1      -0.174  -1.048  14.980  1.00  0.00     0.041 A 
ATOM     72  F   UNL     1       0.349  -3.200  14.218  1.00  0.00    -0.206 F 
ATOM     73  C   UNL     1      -0.735   0.207  14.764  1.00  0.00     0.022 A 
BRANCH  70  74
ATOM     74  S   UNL     1      -1.972   2.129  13.166  1.00  0.00     0.124 S 
ATOM     75  O   UNL     1      -1.210   2.399  11.949  1.00  0.00    -0.237 OA
ATOM     76  O   UNL     1      -3.410   1.962  12.997  1.00  0.00    -0.237 OA
ATOM     77  O   UNL     1      -1.566   2.913  14.331  1.00  0.00    -0.744 OA
ENDBRANCH  70  74
ENDBRANCH  53  67
BRANCH  54  78
ATOM     78  C   UNL     1      -0.693  -8.658   5.486  1.00  0.00     0.023 A 
ATOM     79  C   UNL     1      -1.867  -9.188   4.924  1.00  0.00     0.031 A 
ATOM     80  C   UNL     1       0.537  -9.199   5.071  1.00  0.00     0.131 A 
ATOM     81  C   UNL     1      -1.789 -10.261   4.021  1.00  0.00     0.055 A 
ATOM     82  C   UNL     1       0.612 -10.230   4.133  1.00  0.00     0.041 A 
ATOM     83  F   UNL     1       1.689  -8.733   5.578  1.00  0.00    -0.206 F 
ATOM     84  C   UNL     1      -0.557 -10.778   3.613  1.00  0.00     0.022 A 
BRANCH  81  85
ATOM     85  S   UNL     1      -3.329 -11.037   3.453  1.00  0.00     0.124 S 
ATOM     86  O   UNL     1      -3.923 -11.472   4.712  1.00  0.00    -0.237 OA
ATOM     87  O   UNL     1      -3.995  -9.929   2.778  1.00  0.00    -0.237 OA
ATOM     88  O   UNL     1      -2.865 -12.111   2.577  1.00  0.00    -0.744 OA
ENDBRANCH  81  85
ENDBRANCH  54  78
BRANCH  66  89
ATOM     89  C   UNL     1      -3.444  -8.589  11.894  1.00  0.00     0.023 A 
ATOM     90  C   UNL     1      -2.919  -9.826  12.306  1.00  0.00     0.031 A 
ATOM     91  C   UNL     1      -4.791  -8.311  12.194  1.00  0.00     0.131 A 
ATOM     92  C   UNL     1      -3.751 -10.764  12.937  1.00  0.00     0.055 A 
ATOM     93  C   UNL     1      -5.596  -9.223  12.878  1.00  0.00     0.041 A 
ATOM     94  F   UNL     1      -5.347  -7.146  11.826  1.00  0.00    -0.206 F 
ATOM     95  C   UNL     1      -5.082 -10.464  13.239  1.00  0.00     0.022 A 
BRANCH  92  96
ATOM     96  S   UNL     1      -3.102 -12.427  13.261  1.00  0.00     0.124 S 
ATOM     97  O   UNL     1      -2.657 -12.845  11.936  1.00  0.00    -0.237 OA
ATOM     98  O   UNL     1      -2.047 -12.165  14.234  1.00  0.00    -0.237 OA
ATOM     99  O   UNL     1      -4.259 -13.152  13.784  1.00  0.00    -0.744 OA
ENDBRANCH  92  96
ENDBRANCH  66  89
ENDBRANCH  40  41
ENDBRANCH  33  35
ENDBRANCH  32  33
ENDBRANCH  31  32
ENDBRANCH  30  31
ENDBRANCH  29  30
ENDBRANCH  28  29
ENDBRANCH   1  28
TORSDOF 24
