REMARK SMILES Cc1cccc(-c2cc(C(=O)OCCOCCOCCOC(=O)c3ccc(-c4c5nc(c(-c6cc(S(=O)(=O)[O-])ccc6F)c6ccc([nH]6)c(-c6cc(S(=O)(=O)[O-])ccc6F)c6nc(c(-c7cc(S(=O)(=O)[O-])ccc7F)c7ccc4[nH]7)C=C6)C=C5)cc3)ccn2)c1
REMARK SMILES IDX 17 1 16 2 15 3 14 4 13 5 12 6 10 7 11 8 9 9 7 10 8 11 89 12
REMARK SMILES IDX 88 13 87 14 6 15 1 16 2 17 3 18 90 19 4 20 5 21 18 22 19 23
REMARK SMILES IDX 20 24 21 25 22 26 23 27 24 28 25 29 86 30 26 31 85 32 27 33
REMARK SMILES IDX 28 34 29 35 79 36 30 37 84 38 78 39 80 40 31 41 83 42 77 43
REMARK SMILES IDX 76 44 32 46 64 47 44 48 63 49 45 50 48 51 62 52 81 53 46 54
REMARK SMILES IDX 47 55 61 57 82 58 49 59 33 60 34 61 42 62 35 63 41 64 43 65
REMARK SMILES IDX 40 66 36 67 37 68 38 69 39 70 65 71 66 72 74 73 67 74 73 75
REMARK SMILES IDX 75 76 72 77 68 78 69 79 70 80 71 81 50 82 51 83 59 84 52 85
REMARK SMILES IDX 58 86 60 87 57 88 53 89 54 90 55 91 56 92
REMARK H PARENT 80 45 48 56
REMARK Flexibility Score: inf
ROOT
ATOM      1  C   UNL     1      -4.242   6.552  -6.313  1.00  0.00     0.188 C 
ENDROOT
BRANCH   1   2
ATOM      2  C   UNL     1      -3.122   7.289  -5.562  1.00  0.00     0.188 C 
BRANCH   2   3
ATOM      3  O   UNL     1      -1.818   6.684  -5.460  1.00  0.00    -0.376 OA
BRANCH   3   4
ATOM      4  C   UNL     1      -1.338   5.843  -6.498  1.00  0.00     0.202 C 
BRANCH   4   5
ATOM      5  C   UNL     1      -0.577   4.539  -6.046  1.00  0.00     0.261 C 
BRANCH   5   6
ATOM      6  O   UNL     1      -1.241   3.508  -5.196  1.00  0.00    -0.460 OA
BRANCH   6   7
ATOM      7  C   UNL     1      -0.942   3.680  -3.871  1.00  0.00     0.338 C 
ATOM      8  O   UNL     1      -0.311   4.691  -3.591  1.00  0.00    -0.246 OA
BRANCH   7   9
ATOM      9  C   UNL     1      -1.517   2.720  -2.751  1.00  0.00     0.063 A 
ATOM     10  C   UNL     1      -1.526   0.698  -1.481  1.00  0.00     0.071 A 
ATOM     11  C   UNL     1      -1.222   1.383  -2.688  1.00  0.00     0.044 A 
ATOM     12  N   UNL     1      -2.247   1.172  -0.430  1.00  0.00    -0.256 NA
ATOM     13  C   UNL     1      -2.428   2.467  -0.422  1.00  0.00     0.112 A 
ATOM     14  C   UNL     1      -2.023   3.207  -1.512  1.00  0.00     0.036 A 
BRANCH  10  15
ATOM     15  C   UNL     1      -0.715  -0.405  -1.009  1.00  0.00     0.000 A 
ATOM     16  C   UNL     1       2.840  -0.819   0.255  1.00  0.00     0.044 C 
ATOM     17  C   UNL     1       1.407  -1.120  -0.061  1.00  0.00    -0.050 A 
ATOM     18  C   UNL     1       0.830  -2.365   0.211  1.00  0.00     0.003 A 
ATOM     19  C   UNL     1       0.625  -0.146  -0.673  1.00  0.00     0.013 A 
ATOM     20  C   UNL     1      -0.523  -2.602  -0.055  1.00  0.00     0.001 A 
ATOM     21  C   UNL     1      -1.300  -1.616  -0.647  1.00  0.00     0.010 A 
ENDBRANCH  10  15
ENDBRANCH   7   9
ENDBRANCH   6   7
ENDBRANCH   5   6
ENDBRANCH   4   5
ENDBRANCH   3   4
ENDBRANCH   2   3
ENDBRANCH   1   2
BRANCH   1  22
ATOM     22  O   UNL     1      -4.032   5.146  -6.258  1.00  0.00    -0.376 OA
BRANCH  22  23
ATOM     23  C   UNL     1      -4.967   4.337  -6.949  1.00  0.00     0.202 C 
BRANCH  23  24
ATOM     24  C   UNL     1      -6.315   4.186  -6.220  1.00  0.00     0.261 C 
BRANCH  24  25
ATOM     25  O   UNL     1      -6.163   3.436  -4.986  1.00  0.00    -0.460 OA
BRANCH  25  26
ATOM     26  C   UNL     1      -6.568   4.057  -3.830  1.00  0.00     0.338 C 
ATOM     27  O   UNL     1      -7.739   4.084  -3.464  1.00  0.00    -0.246 OA
BRANCH  26  28
ATOM     28  C   UNL     1      -5.399   4.569  -3.035  1.00  0.00     0.060 A 
ATOM     29  C   UNL     1      -5.434   5.285  -1.829  1.00  0.00     0.016 A 
ATOM     30  C   UNL     1      -4.168   4.447  -3.608  1.00  0.00     0.016 A 
ATOM     31  C   UNL     1      -4.236   5.877  -1.261  1.00  0.00     0.010 A 
ATOM     32  C   UNL     1      -3.129   5.268  -3.183  1.00  0.00     0.010 A 
ATOM     33  C   UNL     1      -3.019   5.892  -1.955  1.00  0.00    -0.014 A 
BRANCH  33  34
ATOM     34  C   UNL     1      -1.641   6.538  -1.644  1.00  0.00     0.031 A 
ATOM     35  C   UNL     1      -0.252   5.943  -1.060  1.00  0.00     0.074 A 
ATOM     36  C   UNL     1      -1.657   7.826  -2.038  1.00  0.00     0.049 A 
ATOM     37  N   UNL     1       0.558   6.557  -0.222  1.00  0.00    -0.248 NA
ATOM     38  C   UNL     1       0.335   4.583  -1.220  1.00  0.00     0.031 C 
ATOM     39  C   UNL     1      -0.568   8.771  -2.132  1.00  0.00     0.029 A 
ATOM     40  N   UNL     1      -2.812   8.604  -2.149  1.00  0.00    -0.354 N 
ATOM     41  C   UNL     1       1.725   5.755  -0.105  1.00  0.00     0.074 A 
ATOM     42  C   UNL     1       1.296   4.439  -0.324  1.00  0.00     0.031 C 
ATOM     43  C   UNL     1      -1.081  10.003  -1.955  1.00  0.00     0.029 A 
ATOM     44  C   UNL     1      -2.492   9.854  -1.619  1.00  0.00     0.049 A 
ATOM     45  H   UNL     1      -3.678   8.325  -2.526  1.00  0.00     0.167 HD
ATOM     46  C   UNL     1       2.997   6.253  -0.244  1.00  0.00     0.034 A 
ATOM     47  C   UNL     1      -3.123  10.237  -0.469  1.00  0.00     0.034 A 
ATOM     48  C   UNL     1       2.910   7.683  -0.079  1.00  0.00     0.049 A 
ATOM     49  C   UNL     1      -2.143  10.388   0.680  1.00  0.00     0.074 A 
ATOM     50  C   UNL     1       2.963   8.761  -0.937  1.00  0.00     0.029 A 
ATOM     51  N   UNL     1       2.333   8.125   1.091  1.00  0.00    -0.354 N 
ATOM     52  N   UNL     1      -0.887  10.027   0.619  1.00  0.00    -0.248 NA
ATOM     53  C   UNL     1      -2.472  10.976   1.974  1.00  0.00     0.031 C 
ATOM     54  C   UNL     1       2.228   9.818  -0.315  1.00  0.00     0.029 A 
ATOM     55  C   UNL     1       1.798   9.382   0.927  1.00  0.00     0.049 A 
ATOM     56  H   UNL     1       2.307   7.611   1.930  1.00  0.00     0.167 HD
ATOM     57  C   UNL     1      -0.260  10.274   1.808  1.00  0.00     0.074 A 
ATOM     58  C   UNL     1      -1.289  10.908   2.613  1.00  0.00     0.031 C 
ATOM     59  C   UNL     1       1.035   9.909   2.047  1.00  0.00     0.034 A 
BRANCH  46  60
ATOM     60  C   UNL     1       4.275   5.542  -0.784  1.00  0.00     0.023 A 
ATOM     61  C   UNL     1       5.399   6.350  -1.100  1.00  0.00     0.031 A 
ATOM     62  C   UNL     1       4.475   4.170  -1.097  1.00  0.00     0.131 A 
ATOM     63  C   UNL     1       6.553   5.838  -1.748  1.00  0.00     0.055 A 
ATOM     64  C   UNL     1       5.611   3.666  -1.763  1.00  0.00     0.041 A 
ATOM     65  F   UNL     1       3.626   3.199  -0.756  1.00  0.00    -0.206 F 
ATOM     66  C   UNL     1       6.653   4.501  -2.107  1.00  0.00     0.022 A 
BRANCH  63  67
ATOM     67  S   UNL     1       7.960   6.933  -2.096  1.00  0.00     0.124 S 
ATOM     68  O   UNL     1       7.425   7.798  -3.142  1.00  0.00    -0.237 OA
ATOM     69  O   UNL     1       8.205   7.553  -0.799  1.00  0.00    -0.237 OA
ATOM     70  O   UNL     1       9.008   6.011  -2.539  1.00  0.00    -0.744 OA
ENDBRANCH  63  67
ENDBRANCH  46  60
BRANCH  47  71
ATOM     71  C   UNL     1      -4.578   9.829  -0.439  1.00  0.00     0.023 A 
ATOM     72  C   UNL     1      -5.332  10.115  -1.610  1.00  0.00     0.031 A 
ATOM     73  C   UNL     1      -5.146   8.916   0.459  1.00  0.00     0.131 A 
ATOM     74  C   UNL     1      -6.470   9.367  -1.951  1.00  0.00     0.055 A 
ATOM     75  C   UNL     1      -6.356   8.249   0.168  1.00  0.00     0.041 A 
ATOM     76  F   UNL     1      -4.491   8.548   1.569  1.00  0.00    -0.206 F 
ATOM     77  C   UNL     1      -6.995   8.435  -1.062  1.00  0.00     0.022 A 
BRANCH  74  78
ATOM     78  S   UNL     1      -7.069   9.394  -3.674  1.00  0.00     0.124 S 
ATOM     79  O   UNL     1      -8.264  10.224  -3.571  1.00  0.00    -0.237 OA
ATOM     80  O   UNL     1      -5.953   9.979  -4.415  1.00  0.00    -0.237 OA
ATOM     81  O   UNL     1      -7.298   7.982  -3.970  1.00  0.00    -0.744 OA
ENDBRANCH  74  78
ENDBRANCH  47  71
BRANCH  59  82
ATOM     82  C   UNL     1       1.713   9.891   3.401  1.00  0.00     0.023 A 
ATOM     83  C   UNL     1       1.008   9.810   4.603  1.00  0.00     0.031 A 
ATOM     84  C   UNL     1       3.126   9.770   3.498  1.00  0.00     0.131 A 
ATOM     85  C   UNL     1       1.688   9.674   5.823  1.00  0.00     0.055 A 
ATOM     86  C   UNL     1       3.785   9.498   4.697  1.00  0.00     0.041 A 
ATOM     87  F   UNL     1       3.918   9.879   2.420  1.00  0.00    -0.206 F 
ATOM     88  C   UNL     1       3.065   9.466   5.877  1.00  0.00     0.022 A 
BRANCH  85  89
ATOM     89  S   UNL     1       0.739   9.902   7.345  1.00  0.00     0.124 S 
ATOM     90  O   UNL     1       0.171  11.234   7.143  1.00  0.00    -0.237 OA
ATOM     91  O   UNL     1      -0.209   8.795   7.294  1.00  0.00    -0.237 OA
ATOM     92  O   UNL     1       1.749   9.815   8.396  1.00  0.00    -0.744 OA
ENDBRANCH  85  89
ENDBRANCH  59  82
ENDBRANCH  33  34
ENDBRANCH  26  28
ENDBRANCH  25  26
ENDBRANCH  24  25
ENDBRANCH  23  24
ENDBRANCH  22  23
ENDBRANCH   1  22
TORSDOF 21
