REMARK SMILES [NH3+][C@H](C(=O)OCCOCCOCCOC(=O)c1ccc(-c2c3nc(c(-c4cc(S(=O)(=O)[O-])ccc4F)c4ccc([nH]4)c(-c4cc(S(=O)(=O)[O-])ccc4F)c4nc(c(-c5cc(S(=O)(=O)[O-])ccc5F)c5ccc2[nH]5)C=C4)C=C3)cc1)c1ccc(OCC(=O)N2CCCC2)cc1
REMARK SMILES IDX 9 1 8 2 7 3 6 4 5 5 3 6 4 7 2 8 1 9 80 13 81 14 94 15 82 16
REMARK SMILES IDX 93 17 83 18 84 19 85 20 86 21 87 22 88 23 89 24 92 25 90 26
REMARK SMILES IDX 91 27 10 28 11 29 12 30 13 31 14 32 15 33 16 34 17 35 18 36
REMARK SMILES IDX 79 37 19 38 78 39 20 40 21 41 22 42 72 43 23 44 77 45 71 46
REMARK SMILES IDX 73 47 24 48 76 49 70 50 69 51 25 53 57 54 37 55 56 56 38 57
REMARK SMILES IDX 41 58 55 59 74 60 39 61 40 62 54 64 75 65 42 66 26 67 27 68
REMARK SMILES IDX 35 69 28 70 34 71 36 72 33 73 29 74 30 75 31 76 32 77 58 78
REMARK SMILES IDX 59 79 67 80 60 81 66 82 68 83 65 84 61 85 62 86 63 87 64 88
REMARK SMILES IDX 43 89 44 90 52 91 45 92 51 93 53 94 50 95 46 96 47 97 48 98
REMARK SMILES IDX 49 99
REMARK H PARENT 1 10 1 11 1 12 73 52 41 63
REMARK Flexibility Score: inf
ROOT
ATOM      1  C   UNL     1       1.028   0.876  -1.854  1.00  0.00     0.188 C 
ENDROOT
BRANCH   1   2
ATOM      2  O   UNL     1       2.102   0.232  -2.526  1.00  0.00    -0.376 OA
BRANCH   2   3
ATOM      3  C   UNL     1       2.173  -1.187  -2.407  1.00  0.00     0.202 C 
BRANCH   3   4
ATOM      4  C   UNL     1       2.342  -1.769  -0.994  1.00  0.00     0.261 C 
BRANCH   4   5
ATOM      5  O   UNL     1       1.379  -1.313  -0.016  1.00  0.00    -0.459 OA
BRANCH   5   6
ATOM      6  C   UNL     1       1.914  -0.758   1.104  1.00  0.00     0.369 C 
ATOM      7  O   UNL     1       3.127  -0.710   1.324  1.00  0.00    -0.245 OA
BRANCH   6   8
ATOM      8  C   UNL     1       0.924  -0.115   2.108  1.00  0.00     0.323 C 
BRANCH   8   9
ATOM      9  N   UNL     1       1.446   1.246   2.419  1.00  0.00    -0.342 N 
ATOM     10  H   UNL     1       0.821   1.708   3.080  1.00  0.00     0.345 HD
ATOM     11  H   UNL     1       1.498   1.795   1.561  1.00  0.00     0.345 HD
ATOM     12  H   UNL     1       2.377   1.168   2.829  1.00  0.00     0.345 HD
ENDBRANCH   8   9
BRANCH   8  13
ATOM     13  C   UNL     1      -0.582  -0.104   1.840  1.00  0.00     0.021 A 
ATOM     14  C   UNL     1      -1.355   1.045   2.092  1.00  0.00     0.014 A 
ATOM     15  C   UNL     1      -1.284  -1.278   1.522  1.00  0.00     0.014 A 
ATOM     16  C   UNL     1      -2.751   1.027   1.996  1.00  0.00     0.047 A 
ATOM     17  C   UNL     1      -2.691  -1.292   1.416  1.00  0.00     0.047 A 
ATOM     18  C   UNL     1      -3.430  -0.134   1.640  1.00  0.00     0.120 A 
BRANCH  18  19
ATOM     19  O   UNL     1      -4.781   0.023   1.525  1.00  0.00    -0.484 OA
BRANCH  19  20
ATOM     20  C   UNL     1      -5.601  -1.128   1.491  1.00  0.00     0.329 C 
BRANCH  20  21
ATOM     21  C   UNL     1      -5.767  -1.855   0.148  1.00  0.00     0.260 C 
ATOM     22  O   UNL     1      -5.397  -3.028   0.026  1.00  0.00    -0.271 OA
ATOM     23  N   UNL     1      -6.406  -1.190  -0.876  1.00  0.00    -0.340 N 
ATOM     24  C   UNL     1      -6.864   0.193  -0.877  1.00  0.00     0.119 C 
ATOM     25  C   UNL     1      -6.624  -1.825  -2.158  1.00  0.00     0.119 C 
ATOM     26  C   UNL     1      -7.557   0.373  -2.224  1.00  0.00     0.023 C 
ATOM     27  C   UNL     1      -6.924  -0.686  -3.117  1.00  0.00     0.023 C 
ENDBRANCH  20  21
ENDBRANCH  19  20
ENDBRANCH  18  19
ENDBRANCH   8  13
ENDBRANCH   6   8
ENDBRANCH   5   6
ENDBRANCH   4   5
ENDBRANCH   3   4
ENDBRANCH   2   3
ENDBRANCH   1   2
BRANCH   1  28
ATOM     28  C   UNL     1      -0.397   0.464  -2.238  1.00  0.00     0.188 C 
BRANCH  28  29
ATOM     29  O   UNL     1      -0.600  -0.927  -2.458  1.00  0.00    -0.376 OA
BRANCH  29  30
ATOM     30  C   UNL     1      -1.967  -1.330  -2.574  1.00  0.00     0.202 C 
BRANCH  30  31
ATOM     31  C   UNL     1      -2.749  -0.681  -3.736  1.00  0.00     0.261 C 
BRANCH  31  32
ATOM     32  O   UNL     1      -2.888   0.755  -3.670  1.00  0.00    -0.460 OA
BRANCH  32  33
ATOM     33  C   UNL     1      -3.419   1.234  -2.522  1.00  0.00     0.338 C 
ATOM     34  O   UNL     1      -3.932   0.558  -1.649  1.00  0.00    -0.246 OA
BRANCH  33  35
ATOM     35  C   UNL     1      -3.083   2.663  -2.341  1.00  0.00     0.060 A 
ATOM     36  C   UNL     1      -2.770   3.089  -1.044  1.00  0.00     0.016 A 
ATOM     37  C   UNL     1      -3.056   3.573  -3.397  1.00  0.00     0.016 A 
ATOM     38  C   UNL     1      -2.467   4.422  -0.784  1.00  0.00     0.010 A 
ATOM     39  C   UNL     1      -2.758   4.917  -3.138  1.00  0.00     0.010 A 
ATOM     40  C   UNL     1      -2.489   5.352  -1.826  1.00  0.00    -0.014 A 
BRANCH  40  41
ATOM     41  C   UNL     1      -2.390   6.799  -1.512  1.00  0.00     0.031 A 
ATOM     42  C   UNL     1      -3.655   7.611  -1.468  1.00  0.00     0.074 A 
ATOM     43  C   UNL     1      -1.207   7.368  -1.216  1.00  0.00     0.049 A 
ATOM     44  N   UNL     1      -3.814   8.895  -1.287  1.00  0.00    -0.248 NA
ATOM     45  C   UNL     1      -4.910   6.867  -1.655  1.00  0.00     0.031 C 
ATOM     46  C   UNL     1       0.074   6.666  -1.148  1.00  0.00     0.029 A 
ATOM     47  N   UNL     1      -0.893   8.670  -0.917  1.00  0.00    -0.354 N 
ATOM     48  C   UNL     1      -5.185   9.118  -1.347  1.00  0.00     0.074 A 
ATOM     49  C   UNL     1      -5.808   7.838  -1.613  1.00  0.00     0.031 C 
ATOM     50  C   UNL     1       1.038   7.550  -0.835  1.00  0.00     0.029 A 
ATOM     51  C   UNL     1       0.452   8.884  -0.728  1.00  0.00     0.049 A 
ATOM     52  H   UNL     1      -1.568   9.383  -0.844  1.00  0.00     0.167 HD
ATOM     53  C   UNL     1      -5.862  10.282  -1.190  1.00  0.00     0.034 A 
ATOM     54  C   UNL     1       1.133  10.032  -0.528  1.00  0.00     0.034 A 
ATOM     55  C   UNL     1      -5.225  11.551  -0.935  1.00  0.00     0.049 A 
ATOM     56  C   UNL     1       0.368  11.333  -0.461  1.00  0.00     0.074 A 
ATOM     57  C   UNL     1      -5.811  12.795  -0.777  1.00  0.00     0.029 A 
ATOM     58  N   UNL     1      -3.854  11.740  -0.810  1.00  0.00    -0.354 N 
ATOM     59  N   UNL     1      -0.926  11.537  -0.552  1.00  0.00    -0.248 NA
ATOM     60  C   UNL     1       1.157  12.557  -0.264  1.00  0.00     0.031 C 
ATOM     61  C   UNL     1      -4.793  13.742  -0.622  1.00  0.00     0.029 A 
ATOM     62  C   UNL     1      -3.574  13.082  -0.607  1.00  0.00     0.049 A 
ATOM     63  H   UNL     1      -3.180  11.024  -0.858  1.00  0.00     0.167 HD
ATOM     64  C   UNL     1      -1.106  12.910  -0.396  1.00  0.00     0.074 A 
ATOM     65  C   UNL     1       0.209  13.480  -0.191  1.00  0.00     0.031 C 
ATOM     66  C   UNL     1      -2.254  13.635  -0.415  1.00  0.00     0.034 A 
BRANCH  53  67
ATOM     67  C   UNL     1      -7.360  10.233  -1.359  1.00  0.00     0.023 A 
ATOM     68  C   UNL     1      -8.184   9.514  -0.475  1.00  0.00     0.031 A 
ATOM     69  C   UNL     1      -7.968  10.876  -2.451  1.00  0.00     0.131 A 
ATOM     70  C   UNL     1      -9.557   9.396  -0.740  1.00  0.00     0.055 A 
ATOM     71  C   UNL     1      -9.346  10.821  -2.665  1.00  0.00     0.041 A 
ATOM     72  F   UNL     1      -7.228  11.554  -3.344  1.00  0.00    -0.206 F 
ATOM     73  C   UNL     1     -10.148  10.065  -1.815  1.00  0.00     0.022 A 
BRANCH  70  74
ATOM     74  S   UNL     1     -10.536   8.234   0.252  1.00  0.00     0.124 S 
ATOM     75  O   UNL     1      -9.844   6.972  -0.003  1.00  0.00    -0.237 OA
ATOM     76  O   UNL     1     -10.400   8.776   1.599  1.00  0.00    -0.237 OA
ATOM     77  O   UNL     1     -11.874   8.330  -0.328  1.00  0.00    -0.744 OA
ENDBRANCH  70  74
ENDBRANCH  53  67
BRANCH  54  78
ATOM     78  C   UNL     1       2.623  10.024  -0.442  1.00  0.00     0.023 A 
ATOM     79  C   UNL     1       3.291  10.444   0.719  1.00  0.00     0.031 A 
ATOM     80  C   UNL     1       3.404   9.659  -1.554  1.00  0.00     0.131 A 
ATOM     81  C   UNL     1       4.693  10.532   0.727  1.00  0.00     0.055 A 
ATOM     82  C   UNL     1       4.799   9.695  -1.523  1.00  0.00     0.041 A 
ATOM     83  F   UNL     1       2.817   9.256  -2.693  1.00  0.00    -0.206 F 
ATOM     84  C   UNL     1       5.451  10.147  -0.381  1.00  0.00     0.022 A 
BRANCH  81  85
ATOM     85  S   UNL     1       5.513  11.245   2.180  1.00  0.00     0.124 S 
ATOM     86  O   UNL     1       4.898  12.566   2.249  1.00  0.00    -0.237 OA
ATOM     87  O   UNL     1       5.136  10.306   3.232  1.00  0.00    -0.237 OA
ATOM     88  O   UNL     1       6.927  11.233   1.813  1.00  0.00    -0.744 OA
ENDBRANCH  81  85
ENDBRANCH  54  78
BRANCH  66  89
ATOM     89  C   UNL     1      -2.134  15.118  -0.162  1.00  0.00     0.023 A 
ATOM     90  C   UNL     1      -1.511  15.979  -1.083  1.00  0.00     0.031 A 
ATOM     91  C   UNL     1      -2.645  15.675   1.024  1.00  0.00     0.131 A 
ATOM     92  C   UNL     1      -1.371  17.342  -0.780  1.00  0.00     0.055 A 
ATOM     93  C   UNL     1      -2.552  17.040   1.295  1.00  0.00     0.041 A 
ATOM     94  F   UNL     1      -3.250  14.898   1.937  1.00  0.00    -0.206 F 
ATOM     95  C   UNL     1      -1.901  17.880   0.396  1.00  0.00     0.022 A 
BRANCH  92  96
ATOM     96  S   UNL     1      -0.413  18.393  -1.906  1.00  0.00     0.124 S 
ATOM     97  O   UNL     1       0.888  17.732  -1.905  1.00  0.00    -0.237 OA
ATOM     98  O   UNL     1      -1.175  18.297  -3.147  1.00  0.00    -0.237 OA
ATOM     99  O   UNL     1      -0.443  19.704  -1.262  1.00  0.00    -0.744 OA
ENDBRANCH  92  96
ENDBRANCH  66  89
ENDBRANCH  40  41
ENDBRANCH  33  35
ENDBRANCH  32  33
ENDBRANCH  31  32
ENDBRANCH  30  31
ENDBRANCH  29  30
ENDBRANCH  28  29
ENDBRANCH   1  28
TORSDOF 25
