REMARK SMILES COc1ccc(C(C)(C)C)cc1CC(=O)OCCOCCOCCOC(=O)c1ccc(-c2c3nc(c(-c4cc(S(=O)(=O)[O-])ccc4F)c4ccc([nH]4)c(-c4cc(S(=O)(=O)[O-])ccc4F)c4nc(c(-c5cc(S(=O)(=O)[O-])ccc5F)c5ccc2[nH]5)C=C4)C=C3)cc1
REMARK SMILES IDX 21 1 20 2 19 3 18 4 17 5 16 6 14 7 15 8 13 9 12 10 3 11 4 12
REMARK SMILES IDX 5 13 11 14 6 15 2 16 1 17 7 18 8 19 9 20 10 21 22 22 23 23
REMARK SMILES IDX 24 24 25 25 26 26 27 27 28 28 29 29 90 30 30 31 89 32 31 33
REMARK SMILES IDX 32 34 33 35 83 36 34 37 88 38 82 39 84 40 35 41 87 42 81 43
REMARK SMILES IDX 80 44 36 46 68 47 48 48 67 49 49 50 52 51 66 52 85 53 50 54
REMARK SMILES IDX 51 55 65 57 86 58 53 59 37 60 38 61 46 62 39 63 45 64 47 65
REMARK SMILES IDX 44 66 40 67 41 68 42 69 43 70 69 71 70 72 78 73 71 74 77 75
REMARK SMILES IDX 79 76 76 77 72 78 73 79 74 80 75 81 54 82 55 83 63 84 56 85
REMARK SMILES IDX 62 86 64 87 61 88 57 89 58 90 59 91 60 92
REMARK H PARENT 84 45 52 56
REMARK Flexibility Score: inf
ROOT
ATOM      1  C   UNL     1       4.517  -4.592  -1.586  1.00  0.00     0.188 C 
ENDROOT
BRANCH   1   2
ATOM      2  C   UNL     1       5.772  -3.724  -1.393  1.00  0.00     0.188 C 
BRANCH   2   3
ATOM      3  O   UNL     1       6.471  -3.823  -0.151  1.00  0.00    -0.376 OA
BRANCH   3   4
ATOM      4  C   UNL     1       5.693  -3.965   1.035  1.00  0.00     0.202 C 
BRANCH   4   5
ATOM      5  C   UNL     1       4.896  -2.717   1.423  1.00  0.00     0.261 C 
BRANCH   5   6
ATOM      6  O   UNL     1       3.956  -2.400   0.385  1.00  0.00    -0.463 OA
BRANCH   6   7
ATOM      7  C   UNL     1       3.601  -1.094   0.278  1.00  0.00     0.310 C 
ATOM      8  O   UNL     1       3.834  -0.239   1.124  1.00  0.00    -0.252 OA
BRANCH   7   9
ATOM      9  C   UNL     1       3.046  -0.791  -1.100  1.00  0.00     0.162 C 
BRANCH   9  10
ATOM     10  C   UNL     1       1.905  -1.659  -1.586  1.00  0.00     0.005 A 
ATOM     11  C   UNL     1       0.742  -1.832  -0.832  1.00  0.00     0.122 A 
ATOM     12  C   UNL     1      -0.307  -2.614  -1.307  1.00  0.00     0.047 A 
ATOM     13  C   UNL     1      -0.228  -3.201  -2.570  1.00  0.00     0.008 A 
ATOM     14  C   UNL     1       1.960  -2.250  -2.870  1.00  0.00     0.012 A 
ATOM     15  C   UNL     1       0.905  -3.035  -3.386  1.00  0.00    -0.042 A 
BRANCH  11  16
ATOM     16  O   UNL     1       0.607  -1.283   0.414  1.00  0.00    -0.496 OA
ATOM     17  C   UNL     1       0.206   0.087   0.331  1.00  0.00     0.278 C 
ENDBRANCH  11  16
BRANCH  15  18
ATOM     18  C   UNL     1       0.949  -3.718  -4.770  1.00  0.00    -0.013 C 
ATOM     19  C   UNL     1       0.851  -5.250  -4.585  1.00  0.00     0.016 C 
ATOM     20  C   UNL     1      -0.220  -3.237  -5.654  1.00  0.00     0.016 C 
ATOM     21  C   UNL     1       2.240  -3.450  -5.562  1.00  0.00     0.016 C 
ENDBRANCH  15  18
ENDBRANCH   9  10
ENDBRANCH   7   9
ENDBRANCH   6   7
ENDBRANCH   5   6
ENDBRANCH   4   5
ENDBRANCH   3   4
ENDBRANCH   2   3
ENDBRANCH   1   2
BRANCH   1  22
ATOM     22  O   UNL     1       4.743  -5.941  -1.179  1.00  0.00    -0.376 OA
BRANCH  22  23
ATOM     23  C   UNL     1       4.434  -6.899  -2.186  1.00  0.00     0.202 C 
BRANCH  23  24
ATOM     24  C   UNL     1       5.683  -7.218  -3.007  1.00  0.00     0.261 C 
BRANCH  24  25
ATOM     25  O   UNL     1       6.198  -6.076  -3.716  1.00  0.00    -0.460 OA
BRANCH  25  26
ATOM     26  C   UNL     1       5.491  -5.708  -4.805  1.00  0.00     0.338 C 
ATOM     27  O   UNL     1       4.470  -6.219  -5.227  1.00  0.00    -0.246 OA
BRANCH  26  28
ATOM     28  C   UNL     1       6.140  -4.533  -5.408  1.00  0.00     0.060 A 
ATOM     29  C   UNL     1       5.693  -3.244  -5.094  1.00  0.00     0.016 A 
ATOM     30  C   UNL     1       7.129  -4.726  -6.368  1.00  0.00     0.016 A 
ATOM     31  C   UNL     1       6.173  -2.144  -5.804  1.00  0.00     0.010 A 
ATOM     32  C   UNL     1       7.643  -3.619  -7.042  1.00  0.00     0.010 A 
ATOM     33  C   UNL     1       7.142  -2.325  -6.795  1.00  0.00    -0.014 A 
BRANCH  33  34
ATOM     34  C   UNL     1       7.594  -1.212  -7.666  1.00  0.00     0.031 A 
ATOM     35  C   UNL     1       7.263  -1.272  -9.130  1.00  0.00     0.074 A 
ATOM     36  C   UNL     1       8.345  -0.207  -7.183  1.00  0.00     0.049 A 
ATOM     37  N   UNL     1       7.825  -0.659 -10.135  1.00  0.00    -0.248 NA
ATOM     38  C   UNL     1       6.154  -2.165  -9.506  1.00  0.00     0.031 C 
ATOM     39  C   UNL     1       8.652   0.024  -5.771  1.00  0.00     0.029 A 
ATOM     40  N   UNL     1       9.027   0.787  -7.841  1.00  0.00    -0.354 N 
ATOM     41  C   UNL     1       7.184  -1.135 -11.273  1.00  0.00     0.074 A 
ATOM     42  C   UNL     1       6.178  -2.077 -10.829  1.00  0.00     0.031 C 
ATOM     43  C   UNL     1       9.492   1.067  -5.673  1.00  0.00     0.029 A 
ATOM     44  C   UNL     1       9.852   1.517  -7.015  1.00  0.00     0.049 A 
ATOM     45  H   UNL     1       8.935   0.961  -8.806  1.00  0.00     0.167 HD
ATOM     46  C   UNL     1       7.435  -0.826 -12.568  1.00  0.00     0.034 A 
ATOM     47  C   UNL     1      10.842   2.384  -7.312  1.00  0.00     0.034 A 
ATOM     48  C   UNL     1       8.429   0.134 -12.979  1.00  0.00     0.049 A 
ATOM     49  C   UNL     1      11.163   2.657  -8.762  1.00  0.00     0.074 A 
ATOM     50  C   UNL     1       8.770   0.530 -14.260  1.00  0.00     0.029 A 
ATOM     51  N   UNL     1       9.241   0.852 -12.111  1.00  0.00    -0.354 N 
ATOM     52  N   UNL     1      10.608   2.152  -9.841  1.00  0.00    -0.248 NA
ATOM     53  C   UNL     1      12.253   3.603  -9.037  1.00  0.00     0.031 C 
ATOM     54  C   UNL     1       9.825   1.445 -14.168  1.00  0.00     0.029 A 
ATOM     55  C   UNL     1      10.095   1.671 -12.828  1.00  0.00     0.049 A 
ATOM     56  H   UNL     1       9.213   0.787 -11.129  1.00  0.00     0.167 HD
ATOM     57  C   UNL     1      11.261   2.747 -10.918  1.00  0.00     0.074 A 
ATOM     58  C   UNL     1      12.248   3.647 -10.361  1.00  0.00     0.031 C 
ATOM     59  C   UNL     1      11.062   2.571 -12.248  1.00  0.00     0.034 A 
BRANCH  46  60
ATOM     60  C   UNL     1       6.684  -1.590 -13.627  1.00  0.00     0.023 A 
ATOM     61  C   UNL     1       5.302  -1.438 -13.822  1.00  0.00     0.031 A 
ATOM     62  C   UNL     1       7.373  -2.500 -14.449  1.00  0.00     0.131 A 
ATOM     63  C   UNL     1       4.643  -2.223 -14.782  1.00  0.00     0.055 A 
ATOM     64  C   UNL     1       6.724  -3.228 -15.447  1.00  0.00     0.041 A 
ATOM     65  F   UNL     1       8.690  -2.703 -14.289  1.00  0.00    -0.206 F 
ATOM     66  C   UNL     1       5.349  -3.099 -15.611  1.00  0.00     0.022 A 
BRANCH  63  67
ATOM     67  S   UNL     1       2.833  -2.163 -14.861  1.00  0.00     0.124 S 
ATOM     68  O   UNL     1       2.463  -2.638 -13.529  1.00  0.00    -0.237 OA
ATOM     69  O   UNL     1       2.574  -0.754 -15.131  1.00  0.00    -0.237 OA
ATOM     70  O   UNL     1       2.506  -3.078 -15.953  1.00  0.00    -0.744 OA
ENDBRANCH  63  67
ENDBRANCH  46  60
BRANCH  47  71
ATOM     71  C   UNL     1      11.678   2.978  -6.229  1.00  0.00     0.023 A 
ATOM     72  C   UNL     1      11.713   4.365  -6.019  1.00  0.00     0.031 A 
ATOM     73  C   UNL     1      12.509   2.170  -5.431  1.00  0.00     0.131 A 
ATOM     74  C   UNL     1      12.597   4.907  -5.072  1.00  0.00     0.055 A 
ATOM     75  C   UNL     1      13.342   2.709  -4.449  1.00  0.00     0.041 A 
ATOM     76  F   UNL     1      12.520   0.837  -5.593  1.00  0.00    -0.206 F 
ATOM     77  C   UNL     1      13.401   4.087  -4.276  1.00  0.00     0.022 A 
BRANCH  74  78
ATOM     78  S   UNL     1      12.760   6.710  -4.972  1.00  0.00     0.124 S 
ATOM     79  O   UNL     1      13.114   7.053  -6.345  1.00  0.00    -0.237 OA
ATOM     80  O   UNL     1      11.426   7.109  -4.535  1.00  0.00    -0.237 OA
ATOM     81  O   UNL     1      13.821   6.902  -3.986  1.00  0.00    -0.744 OA
ENDBRANCH  74  78
ENDBRANCH  47  71
BRANCH  59  82
ATOM     82  C   UNL     1      11.871   3.428 -13.185  1.00  0.00     0.023 A 
ATOM     83  C   UNL     1      13.245   3.218 -13.387  1.00  0.00     0.031 A 
ATOM     84  C   UNL     1      11.242   4.462 -13.902  1.00  0.00     0.131 A 
ATOM     85  C   UNL     1      13.955   4.055 -14.261  1.00  0.00     0.055 A 
ATOM     86  C   UNL     1      11.943   5.261 -14.804  1.00  0.00     0.041 A 
ATOM     87  F   UNL     1       9.930   4.700 -13.745  1.00  0.00    -0.206 F 
ATOM     88  C   UNL     1      13.310   5.065 -14.981  1.00  0.00     0.022 A 
BRANCH  85  89
ATOM     89  S   UNL     1      15.750   3.840 -14.413  1.00  0.00     0.124 S 
ATOM     90  O   UNL     1      16.206   4.128 -13.057  1.00  0.00    -0.237 OA
ATOM     91  O   UNL     1      15.864   2.450 -14.843  1.00  0.00    -0.237 OA
ATOM     92  O   UNL     1      16.130   4.830 -15.419  1.00  0.00    -0.744 OA
ENDBRANCH  85  89
ENDBRANCH  59  82
ENDBRANCH  33  34
ENDBRANCH  26  28
ENDBRANCH  25  26
ENDBRANCH  24  25
ENDBRANCH  23  24
ENDBRANCH  22  23
ENDBRANCH   1  22
TORSDOF 23
