REMARK SMILES CC[C@@](C)(NC(=O)Nc1c(C)cccc1Cl)C(=O)OCCOCCOCCOC(=O)c1ccc(-c2c3nc(c(-c4cc(S(=O)(=O)[O-])ccc4F)c4ccc([nH]4)c(-c4cc(S(=O)(=O)[O-])ccc4F)c4nc(c(-c5cc(S(=O)(=O)[O-])ccc5F)c5ccc2[nH]5)C=C4)C=C3)cc1
REMARK SMILES IDX 24 1 23 2 22 3 21 4 20 5 19 6 17 7 18 8 3 9 4 10 2 11 1 12
REMARK SMILES IDX 5 13 6 14 7 16 8 17 9 19 10 20 15 21 11 22 12 23 14 24 16 25
REMARK SMILES IDX 13 26 25 27 26 28 27 29 28 30 29 31 30 32 31 33 32 34 93 35
REMARK SMILES IDX 33 36 92 37 34 38 35 39 36 40 86 41 37 42 91 43 85 44 87 45
REMARK SMILES IDX 38 46 90 47 84 48 83 49 39 51 71 52 51 53 70 54 52 55 55 56
REMARK SMILES IDX 69 57 88 58 53 59 54 60 68 62 89 63 56 64 40 65 41 66 49 67
REMARK SMILES IDX 42 68 48 69 50 70 47 71 43 72 44 73 45 74 46 75 72 76 73 77
REMARK SMILES IDX 81 78 74 79 80 80 82 81 79 82 75 83 76 84 77 85 78 86 57 87
REMARK SMILES IDX 58 88 66 89 59 90 65 91 67 92 64 93 60 94 61 95 62 96 63 97
REMARK H PARENT 5 15 8 18 87 50 55 61
REMARK Flexibility Score: inf
ROOT
ATOM      1  C   UNL     1       5.646  -3.216  -2.978  1.00  0.00     0.188 C 
ENDROOT
BRANCH   1   2
ATOM      2  C   UNL     1       6.217  -3.283  -1.515  1.00  0.00     0.188 C 
BRANCH   2   3
ATOM      3  O   UNL     1       5.369  -4.040  -0.576  1.00  0.00    -0.376 OA
BRANCH   3   4
ATOM      4  C   UNL     1       5.301  -3.635   0.831  1.00  0.00     0.202 C 
BRANCH   4   5
ATOM      5  C   UNL     1       4.123  -4.376   1.816  1.00  0.00     0.261 C 
BRANCH   5   6
ATOM      6  O   UNL     1       2.599  -4.019   1.717  1.00  0.00    -0.462 OA
BRANCH   6   7
ATOM      7  C   UNL     1       1.434  -3.721   2.493  1.00  0.00     0.331 C 
ATOM      8  O   UNL     1       1.377  -3.969   3.700  1.00  0.00    -0.249 OA
BRANCH   7   9
ATOM      9  C   UNL     1       0.036  -3.009   1.653  1.00  0.00     0.136 C 
ATOM     10  C   UNL     1      -1.223  -3.085   2.551  1.00  0.00     0.047 C 
BRANCH   9  11
ATOM     11  C   UNL     1      -0.369  -1.778   0.638  1.00  0.00     0.037 C 
ATOM     12  C   UNL     1      -0.095  -0.301   0.845  1.00  0.00     0.007 C 
ENDBRANCH   9  11
BRANCH   9  13
ATOM     13  N   UNL     1       0.083  -4.073   0.713  1.00  0.00    -0.322 N 
ATOM     14  C   UNL     1       1.071  -3.994  -0.208  1.00  0.00     0.320 C 
ATOM     15  H   UNL     1      -0.560  -4.819   0.730  1.00  0.00     0.166 HD
ATOM     16  O   UNL     1       1.079  -4.829  -1.111  1.00  0.00    -0.248 OA
ATOM     17  N   UNL     1       1.992  -2.957  -0.194  1.00  0.00    -0.306 N 
ATOM     18  H   UNL     1       2.418  -3.002  -1.081  1.00  0.00     0.171 HD
BRANCH  17  19
ATOM     19  C   UNL     1       2.680  -1.786   0.490  1.00  0.00     0.064 A 
ATOM     20  C   UNL     1       2.907  -1.175   1.810  1.00  0.00    -0.026 A 
ATOM     21  C   UNL     1       3.429  -1.143  -0.516  1.00  0.00     0.064 A 
ATOM     22  C   UNL     1       2.954  -1.634   3.278  1.00  0.00     0.046 C 
ATOM     23  C   UNL     1       3.536   0.116   1.883  1.00  0.00     0.005 A 
ATOM     24  C   UNL     1       4.358  -0.130  -0.304  1.00  0.00     0.023 A 
ATOM     25  Cl  UNL     1       3.165  -1.537  -2.171  1.00  0.00    -0.082 Cl
ATOM     26  C   UNL     1       4.336   0.578   0.867  1.00  0.00     0.002 A 
ENDBRANCH  17  19
ENDBRANCH   9  13
ENDBRANCH   7   9
ENDBRANCH   6   7
ENDBRANCH   5   6
ENDBRANCH   4   5
ENDBRANCH   3   4
ENDBRANCH   2   3
ENDBRANCH   1   2
BRANCH   1  27
ATOM     27  O   UNL     1       4.428  -3.918  -3.147  1.00  0.00    -0.376 OA
BRANCH  27  28
ATOM     28  C   UNL     1       4.484  -5.333  -3.252  1.00  0.00     0.202 C 
BRANCH  28  29
ATOM     29  C   UNL     1       4.670  -5.762  -4.713  1.00  0.00     0.261 C 
BRANCH  29  30
ATOM     30  O   UNL     1       4.009  -4.861  -5.622  1.00  0.00    -0.460 OA
BRANCH  30  31
ATOM     31  C   UNL     1       2.691  -4.658  -5.393  1.00  0.00     0.338 C 
ATOM     32  O   UNL     1       1.904  -5.510  -4.966  1.00  0.00    -0.246 OA
BRANCH  31  33
ATOM     33  C   UNL     1       2.370  -3.218  -5.571  1.00  0.00     0.060 A 
ATOM     34  C   UNL     1       1.278  -2.664  -4.886  1.00  0.00     0.016 A 
ATOM     35  C   UNL     1       3.169  -2.390  -6.370  1.00  0.00     0.016 A 
ATOM     36  C   UNL     1       0.961  -1.304  -5.032  1.00  0.00     0.010 A 
ATOM     37  C   UNL     1       2.859  -1.034  -6.508  1.00  0.00     0.010 A 
ATOM     38  C   UNL     1       1.731  -0.488  -5.870  1.00  0.00    -0.014 A 
BRANCH  38  39
ATOM     39  C   UNL     1       1.262   0.860  -6.295  1.00  0.00     0.031 A 
ATOM     40  C   UNL     1       0.586   0.965  -7.639  1.00  0.00     0.074 A 
ATOM     41  C   UNL     1       1.474   1.968  -5.559  1.00  0.00     0.049 A 
ATOM     42  N   UNL     1       0.233   2.026  -8.315  1.00  0.00    -0.248 NA
ATOM     43  C   UNL     1       0.283  -0.308  -8.315  1.00  0.00     0.031 C 
ATOM     44  C   UNL     1       2.075   2.002  -4.227  1.00  0.00     0.029 A 
ATOM     45  N   UNL     1       1.226   3.292  -5.847  1.00  0.00    -0.354 N 
ATOM     46  C   UNL     1      -0.316   1.551  -9.502  1.00  0.00     0.074 A 
ATOM     47  C   UNL     1      -0.227   0.108  -9.464  1.00  0.00     0.031 C 
ATOM     48  C   UNL     1       2.171   3.283  -3.825  1.00  0.00     0.029 A 
ATOM     49  C   UNL     1       1.687   4.166  -4.887  1.00  0.00     0.049 A 
ATOM     50  H   UNL     1       0.762   3.586  -6.663  1.00  0.00     0.167 HD
ATOM     51  C   UNL     1      -0.847   2.253 -10.531  1.00  0.00     0.034 A 
ATOM     52  C   UNL     1       1.748   5.516  -4.888  1.00  0.00     0.034 A 
ATOM     53  C   UNL     1      -0.932   3.690 -10.563  1.00  0.00     0.049 A 
ATOM     54  C   UNL     1       1.236   6.278  -6.097  1.00  0.00     0.074 A 
ATOM     55  C   UNL     1      -1.495   4.494 -11.538  1.00  0.00     0.029 A 
ATOM     56  N   UNL     1      -0.424   4.538  -9.590  1.00  0.00    -0.354 N 
ATOM     57  N   UNL     1       0.681   5.816  -7.195  1.00  0.00    -0.248 NA
ATOM     58  C   UNL     1       1.363   7.744  -6.068  1.00  0.00     0.031 C 
ATOM     59  C   UNL     1      -1.248   5.827 -11.200  1.00  0.00     0.029 A 
ATOM     60  C   UNL     1      -0.612   5.858  -9.969  1.00  0.00     0.049 A 
ATOM     61  H   UNL     1       0.006   4.247  -8.754  1.00  0.00     0.167 HD
ATOM     62  C   UNL     1       0.369   6.936  -7.966  1.00  0.00     0.074 A 
ATOM     63  C   UNL     1       0.773   8.094  -7.201  1.00  0.00     0.031 C 
ATOM     64  C   UNL     1      -0.198   7.004  -9.198  1.00  0.00     0.034 A 
BRANCH  51  65
ATOM     65  C   UNL     1      -1.327   1.483 -11.734  1.00  0.00     0.023 A 
ATOM     66  C   UNL     1      -2.438   0.626 -11.674  1.00  0.00     0.031 A 
ATOM     67  C   UNL     1      -0.667   1.630 -12.967  1.00  0.00     0.131 A 
ATOM     68  C   UNL     1      -2.832  -0.084 -12.819  1.00  0.00     0.055 A 
ATOM     69  C   UNL     1      -1.107   0.975 -14.118  1.00  0.00     0.041 A 
ATOM     70  F   UNL     1       0.416   2.416 -13.073  1.00  0.00    -0.206 F 
ATOM     71  C   UNL     1      -2.191   0.106 -14.046  1.00  0.00     0.022 A 
BRANCH  68  72
ATOM     72  S   UNL     1      -4.135  -1.334 -12.662  1.00  0.00     0.124 S 
ATOM     73  O   UNL     1      -3.545  -2.257 -11.696  1.00  0.00    -0.237 OA
ATOM     74  O   UNL     1      -5.270  -0.551 -12.186  1.00  0.00    -0.237 OA
ATOM     75  O   UNL     1      -4.268  -1.863 -14.018  1.00  0.00    -0.744 OA
ENDBRANCH  68  72
ENDBRANCH  51  65
BRANCH  52  76
ATOM     76  C   UNL     1       2.384   6.265  -3.758  1.00  0.00     0.023 A 
ATOM     77  C   UNL     1       1.670   7.237  -3.036  1.00  0.00     0.031 A 
ATOM     78  C   UNL     1       3.751   6.108  -3.465  1.00  0.00     0.131 A 
ATOM     79  C   UNL     1       2.340   8.062  -2.116  1.00  0.00     0.055 A 
ATOM     80  C   UNL     1       4.396   6.883  -2.498  1.00  0.00     0.041 A 
ATOM     81  F   UNL     1       4.491   5.206  -4.129  1.00  0.00    -0.206 F 
ATOM     82  C   UNL     1       3.695   7.881  -1.832  1.00  0.00     0.022 A 
BRANCH  79  83
ATOM     83  S   UNL     1       1.448   9.473  -1.401  1.00  0.00     0.124 S 
ATOM     84  O   UNL     1       1.015  10.186  -2.598  1.00  0.00    -0.237 OA
ATOM     85  O   UNL     1       0.400   8.809  -0.633  1.00  0.00    -0.237 OA
ATOM     86  O   UNL     1       2.467  10.151  -0.604  1.00  0.00    -0.744 OA
ENDBRANCH  79  83
ENDBRANCH  52  76
BRANCH  64  87
ATOM     87  C   UNL     1      -0.448   8.377  -9.778  1.00  0.00     0.023 A 
ATOM     88  C   UNL     1       0.608   9.232 -10.136  1.00  0.00     0.031 A 
ATOM     89  C   UNL     1      -1.764   8.828  -9.991  1.00  0.00     0.131 A 
ATOM     90  C   UNL     1       0.332  10.511 -10.643  1.00  0.00     0.055 A 
ATOM     91  C   UNL     1      -2.032  10.076 -10.556  1.00  0.00     0.041 A 
ATOM     92  F   UNL     1      -2.813   8.056  -9.667  1.00  0.00    -0.206 F 
ATOM     93  C   UNL     1      -0.980  10.931 -10.874  1.00  0.00     0.022 A 
BRANCH  90  94
ATOM     94  S   UNL     1       1.712  11.655 -10.922  1.00  0.00     0.124 S 
ATOM     95  O   UNL     1       2.291  11.764  -9.587  1.00  0.00    -0.237 OA
ATOM     96  O   UNL     1       2.516  10.942 -11.909  1.00  0.00    -0.237 OA
ATOM     97  O   UNL     1       1.059  12.867 -11.415  1.00  0.00    -0.744 OA
ENDBRANCH  90  94
ENDBRANCH  64  87
ENDBRANCH  38  39
ENDBRANCH  31  33
ENDBRANCH  30  31
ENDBRANCH  29  30
ENDBRANCH  28  29
ENDBRANCH  27  28
ENDBRANCH   1  27
TORSDOF 23
