REMARK SMILES O=C(/C=C/c1ccc(O)c(O)c1)OCCOCCOCCOC(=O)c1ccc(-c2c3nc(c(-c4cc(S(=O)(=O)[O-])ccc4F)c4ccc([nH]4)c(-c4cc(S(=O)(=O)[O-])ccc4F)c4nc(c(-c5cc(S(=O)(=O)[O-])ccc5F)c5ccc2[nH]5)C=C4)C=C3)cc1
REMARK SMILES IDX 18 1 17 2 16 3 15 4 14 5 13 6 2 7 1 8 3 9 4 10 5 11 6 12
REMARK SMILES IDX 12 13 7 14 10 15 8 16 11 17 9 19 19 21 20 22 21 23 22 24
REMARK SMILES IDX 23 25 24 26 25 27 26 28 87 29 27 30 86 31 28 32 29 33 30 34
REMARK SMILES IDX 80 35 31 36 85 37 79 38 81 39 32 40 84 41 78 42 77 43 33 45
REMARK SMILES IDX 65 46 45 47 64 48 46 49 49 50 63 51 82 52 47 53 48 54 62 56
REMARK SMILES IDX 83 57 50 58 34 59 35 60 43 61 36 62 42 63 44 64 41 65 37 66
REMARK SMILES IDX 38 67 39 68 40 69 66 70 67 71 75 72 68 73 74 74 76 75 73 76
REMARK SMILES IDX 69 77 70 78 71 79 72 80 51 81 52 82 60 83 53 84 59 85 61 86
REMARK SMILES IDX 58 87 54 88 55 89 56 90 57 91
REMARK H PARENT 11 18 9 20 81 44 49 55
REMARK Flexibility Score: inf
ROOT
ATOM      1  C   UNL     1       2.321  -2.011  -1.904  1.00  0.00     0.188 C 
ENDROOT
BRANCH   1   2
ATOM      2  C   UNL     1       2.917  -0.750  -1.261  1.00  0.00     0.188 C 
BRANCH   2   3
ATOM      3  O   UNL     1       4.327  -0.670  -1.246  1.00  0.00    -0.376 OA
BRANCH   3   4
ATOM      4  C   UNL     1       5.040  -0.735  -0.018  1.00  0.00     0.202 C 
BRANCH   4   5
ATOM      5  C   UNL     1       4.345  -0.945   1.325  1.00  0.00     0.261 C 
BRANCH   5   6
ATOM      6  O   UNL     1       3.391  -0.001   1.883  1.00  0.00    -0.460 OA
BRANCH   6   7
ATOM      7  C   UNL     1       2.911   1.205   1.538  1.00  0.00     0.330 C 
ATOM      8  O   UNL     1       1.868   1.621   2.034  1.00  0.00    -0.247 OA
BRANCH   7   9
ATOM      9  C   UNL     1       3.585   2.019   0.531  1.00  0.00     0.094 C 
ATOM     10  C   UNL     1       4.863   2.403   0.640  1.00  0.00     0.016 C 
BRANCH  10  11
ATOM     11  C   UNL     1       5.479   3.258  -0.377  1.00  0.00    -0.021 A 
ATOM     12  C   UNL     1       5.069   4.591  -0.537  1.00  0.00     0.012 A 
ATOM     13  C   UNL     1       6.490   2.744  -1.198  1.00  0.00     0.058 A 
ATOM     14  C   UNL     1       5.672   5.412  -1.497  1.00  0.00     0.051 A 
ATOM     15  C   UNL     1       7.083   3.565  -2.145  1.00  0.00     0.157 A 
ATOM     16  C   UNL     1       6.684   4.891  -2.292  1.00  0.00     0.157 A 
BRANCH  15  17
ATOM     17  O   UNL     1       8.073   3.059  -2.941  1.00  0.00    -0.504 OA
ATOM     18  H   UNL     1       8.481   3.603  -3.585  1.00  0.00     0.293 HD
ENDBRANCH  15  17
BRANCH  16  19
ATOM     19  O   UNL     1       7.324   5.645  -3.236  1.00  0.00    -0.504 OA
ATOM     20  H   UNL     1       7.082   6.541  -3.362  1.00  0.00     0.293 HD
ENDBRANCH  16  19
ENDBRANCH  10  11
ENDBRANCH   7   9
ENDBRANCH   6   7
ENDBRANCH   5   6
ENDBRANCH   4   5
ENDBRANCH   3   4
ENDBRANCH   2   3
ENDBRANCH   1   2
BRANCH   1  21
ATOM     21  O   UNL     1       3.111  -3.192  -1.927  1.00  0.00    -0.376 OA
BRANCH  21  22
ATOM     22  C   UNL     1       4.310  -3.170  -2.702  1.00  0.00     0.202 C 
BRANCH  22  23
ATOM     23  C   UNL     1       4.235  -2.720  -4.169  1.00  0.00     0.261 C 
BRANCH  23  24
ATOM     24  O   UNL     1       3.884  -1.332  -4.334  1.00  0.00    -0.460 OA
BRANCH  24  25
ATOM     25  C   UNL     1       2.849  -1.102  -5.182  1.00  0.00     0.338 C 
ATOM     26  O   UNL     1       2.191  -1.933  -5.781  1.00  0.00    -0.246 OA
BRANCH  25  27
ATOM     27  C   UNL     1       2.525   0.335  -5.224  1.00  0.00     0.060 A 
ATOM     28  C   UNL     1       1.307   0.764  -4.683  1.00  0.00     0.016 A 
ATOM     29  C   UNL     1       3.340   1.221  -5.930  1.00  0.00     0.016 A 
ATOM     30  C   UNL     1       0.891   2.086  -4.866  1.00  0.00     0.010 A 
ATOM     31  C   UNL     1       2.915   2.541  -6.121  1.00  0.00     0.010 A 
ATOM     32  C   UNL     1       1.678   2.975  -5.611  1.00  0.00    -0.014 A 
BRANCH  32  33
ATOM     33  C   UNL     1       1.171   4.331  -5.942  1.00  0.00     0.031 A 
ATOM     34  C   UNL     1       0.519   4.575  -7.277  1.00  0.00     0.074 A 
ATOM     35  C   UNL     1       1.300   5.339  -5.060  1.00  0.00     0.049 A 
ATOM     36  N   UNL     1       0.079   5.694  -7.793  1.00  0.00    -0.248 NA
ATOM     37  C   UNL     1       0.343   3.400  -8.146  1.00  0.00     0.031 C 
ATOM     38  C   UNL     1       1.875   5.217  -3.720  1.00  0.00     0.029 A 
ATOM     39  N   UNL     1       0.969   6.667  -5.164  1.00  0.00    -0.354 N 
ATOM     40  C   UNL     1      -0.425   5.363  -9.047  1.00  0.00     0.074 A 
ATOM     41  C   UNL     1      -0.215   3.940  -9.220  1.00  0.00     0.031 C 
ATOM     42  C   UNL     1       1.873   6.427  -3.134  1.00  0.00     0.029 A 
ATOM     43  C   UNL     1       1.340   7.415  -4.071  1.00  0.00     0.049 A 
ATOM     44  H   UNL     1       0.509   7.048  -5.947  1.00  0.00     0.167 HD
ATOM     45  C   UNL     1      -1.007   6.171  -9.967  1.00  0.00     0.034 A 
ATOM     46  C   UNL     1       1.289   8.747  -3.865  1.00  0.00     0.034 A 
ATOM     47  C   UNL     1      -1.203   7.589  -9.789  1.00  0.00     0.049 A 
ATOM     48  C   UNL     1       0.719   9.639  -4.945  1.00  0.00     0.074 A 
ATOM     49  C   UNL     1      -1.819   8.488 -10.644  1.00  0.00     0.029 A 
ATOM     50  N   UNL     1      -0.770   8.321  -8.693  1.00  0.00    -0.354 N 
ATOM     51  N   UNL     1       0.224   9.307  -6.115  1.00  0.00    -0.248 NA
ATOM     52  C   UNL     1       0.702  11.084  -4.676  1.00  0.00     0.031 C 
ATOM     53  C   UNL     1      -1.695   9.770 -10.098  1.00  0.00     0.029 A 
ATOM     54  C   UNL     1      -1.063   9.664  -8.869  1.00  0.00     0.049 A 
ATOM     55  H   UNL     1      -0.320   7.941  -7.904  1.00  0.00     0.167 HD
ATOM     56  C   UNL     1      -0.182  10.501  -6.708  1.00  0.00     0.074 A 
ATOM     57  C   UNL     1       0.108  11.556  -5.761  1.00  0.00     0.031 C 
ATOM     58  C   UNL     1      -0.748  10.709  -7.925  1.00  0.00     0.034 A 
BRANCH  45  59
ATOM     59  C   UNL     1      -1.427   5.551 -11.276  1.00  0.00     0.023 A 
ATOM     60  C   UNL     1      -2.493   4.639 -11.357  1.00  0.00     0.031 A 
ATOM     61  C   UNL     1      -0.752   5.890 -12.462  1.00  0.00     0.131 A 
ATOM     62  C   UNL     1      -2.825   4.064 -12.594  1.00  0.00     0.055 A 
ATOM     63  C   UNL     1      -1.126   5.360 -13.698  1.00  0.00     0.041 A 
ATOM     64  F   UNL     1       0.284   6.743 -12.438  1.00  0.00    -0.206 F 
ATOM     65  C   UNL     1      -2.163   4.434 -13.767  1.00  0.00     0.022 A 
BRANCH  62  66
ATOM     66  S   UNL     1      -4.077   2.752 -12.636  1.00  0.00     0.124 S 
ATOM     67  O   UNL     1      -3.470   1.735 -11.782  1.00  0.00    -0.237 OA
ATOM     68  O   UNL     1      -5.254   3.422 -12.095  1.00  0.00    -0.237 OA
ATOM     69  O   UNL     1      -4.157   2.400 -14.053  1.00  0.00    -0.744 OA
ENDBRANCH  62  66
ENDBRANCH  45  59
BRANCH  46  70
ATOM     70  C   UNL     1       1.849   9.344  -2.618  1.00  0.00     0.023 A 
ATOM     71  C   UNL     1       1.034  10.059  -1.727  1.00  0.00     0.031 A 
ATOM     72  C   UNL     1       3.228   9.277  -2.341  1.00  0.00     0.131 A 
ATOM     73  C   UNL     1       1.609  10.729  -0.636  1.00  0.00     0.055 A 
ATOM     74  C   UNL     1       3.788   9.901  -1.225  1.00  0.00     0.041 A 
ATOM     75  F   UNL     1       4.056   8.600  -3.153  1.00  0.00    -0.206 F 
ATOM     76  C   UNL     1       2.978  10.646  -0.373  1.00  0.00     0.022 A 
BRANCH  73  77
ATOM     77  S   UNL     1       0.556  11.804   0.377  1.00  0.00     0.124 S 
ATOM     78  O   UNL     1       0.003  12.706  -0.626  1.00  0.00    -0.237 OA
ATOM     79  O   UNL     1      -0.375  10.845   0.963  1.00  0.00    -0.237 OA
ATOM     80  O   UNL     1       1.496  12.412   1.315  1.00  0.00    -0.744 OA
ENDBRANCH  73  77
ENDBRANCH  46  70
BRANCH  58  81
ATOM     81  C   UNL     1      -1.108  12.130  -8.281  1.00  0.00     0.023 A 
ATOM     82  C   UNL     1      -0.120  13.103  -8.515  1.00  0.00     0.031 A 
ATOM     83  C   UNL     1      -2.456  12.520  -8.376  1.00  0.00     0.131 A 
ATOM     84  C   UNL     1      -0.493  14.429  -8.782  1.00  0.00     0.055 A 
ATOM     85  C   UNL     1      -2.822  13.828  -8.696  1.00  0.00     0.041 A 
ATOM     86  F   UNL     1      -3.440  11.632  -8.162  1.00  0.00    -0.206 F 
ATOM     87  C   UNL     1      -1.838  14.794  -8.889  1.00  0.00     0.022 A 
BRANCH  84  88
ATOM     88  S   UNL     1       0.803  15.691  -8.913  1.00  0.00     0.124 S 
ATOM     89  O   UNL     1       1.437  15.613  -7.601  1.00  0.00    -0.237 OA
ATOM     90  O   UNL     1       1.601  15.205 -10.035  1.00  0.00    -0.237 OA
ATOM     91  O   UNL     1       0.060  16.923  -9.171  1.00  0.00    -0.744 OA
ENDBRANCH  84  88
ENDBRANCH  58  81
ENDBRANCH  32  33
ENDBRANCH  25  27
ENDBRANCH  24  25
ENDBRANCH  23  24
ENDBRANCH  22  23
ENDBRANCH  21  22
ENDBRANCH   1  21
TORSDOF 23
