REMARK SMILES C=CCn1nc(C(=O)OCCOCCOCCOC(=O)c2ccc(-c3c4nc(c(-c5cc(S(=O)(=O)[O-])ccc5F)c5ccc([nH]5)c(-c5cc(S(=O)(=O)[O-])ccc5F)c5nc(c(-c6cc(S(=O)(=O)[O-])ccc6F)c6ccc3[nH]6)C=C5)C=C4)cc2)c2c1CC[C@@H]([NH+]1CCC(C(C)(C)O)CC1)C2
REMARK SMILES IDX 13 1 12 2 11 3 10 4 9 5 7 6 8 7 6 8 4 9 5 10 85 11 84 12
REMARK SMILES IDX 86 13 99 14 87 15 88 16 3 17 2 18 1 19 89 20 90 21 98 22
REMARK SMILES IDX 91 24 97 25 92 26 93 27 94 28 95 29 96 30 14 32 15 33 16 34
REMARK SMILES IDX 17 35 18 36 19 37 20 38 21 39 22 40 83 41 23 42 82 43 24 44
REMARK SMILES IDX 25 45 26 46 76 47 27 48 81 49 75 50 77 51 28 52 80 53 74 54
REMARK SMILES IDX 73 55 29 57 61 58 41 59 60 60 42 61 45 62 59 63 78 64 43 65
REMARK SMILES IDX 44 66 58 68 79 69 46 70 30 71 31 72 39 73 32 74 38 75 40 76
REMARK SMILES IDX 37 77 33 78 34 79 35 80 36 81 62 82 63 83 71 84 64 85 70 86
REMARK SMILES IDX 72 87 69 88 65 89 66 90 67 91 68 92 47 93 48 94 56 95 49 96
REMARK SMILES IDX 55 97 57 98 54 99 50 100 51 101 52 102 53 103
REMARK H PARENT 89 23 96 31 77 56 45 67
REMARK Flexibility Score: inf
ROOT
ATOM      1  C   UNL     1      -4.328   4.461  -4.746  1.00  0.00     0.188 C 
ENDROOT
BRANCH   1   2
ATOM      2  O   UNL     1      -5.500   5.255  -4.918  1.00  0.00    -0.376 OA
BRANCH   2   3
ATOM      3  C   UNL     1      -5.655   6.497  -4.249  1.00  0.00     0.202 C 
BRANCH   3   4
ATOM      4  C   UNL     1      -5.558   6.576  -2.716  1.00  0.00     0.261 C 
BRANCH   4   5
ATOM      5  O   UNL     1      -4.464   5.872  -2.129  1.00  0.00    -0.458 OA
BRANCH   5   6
ATOM      6  C   UNL     1      -4.736   4.630  -1.643  1.00  0.00     0.359 C 
ATOM      7  O   UNL     1      -5.871   4.158  -1.559  1.00  0.00    -0.244 OA
BRANCH   6   8
ATOM      8  C   UNL     1      -3.514   3.905  -1.261  1.00  0.00     0.174 A 
ATOM      9  N   UNL     1      -2.248   2.264  -0.713  1.00  0.00    -0.265 N 
ATOM     10  N   UNL     1      -3.499   2.562  -1.135  1.00  0.00    -0.165 NA
ATOM     11  C   UNL     1      -1.594   3.396  -0.317  1.00  0.00     0.043 A 
ATOM     12  C   UNL     1      -2.226   4.430  -0.975  1.00  0.00     0.014 A 
ATOM     13  C   UNL     1      -0.471   3.562   0.630  1.00  0.00     0.062 C 
ATOM     14  C   UNL     1      -1.658   5.807  -1.088  1.00  0.00     0.105 C 
ATOM     15  C   UNL     1      -0.040   5.047   0.681  1.00  0.00     0.072 C 
ATOM     16  C   UNL     1      -0.163   5.870  -0.630  1.00  0.00     0.189 C 
BRANCH   9  17
ATOM     17  C   UNL     1      -1.884   0.846  -0.662  1.00  0.00     0.171 C 
BRANCH  17  18
ATOM     18  C   UNL     1      -0.457   0.487  -0.970  1.00  0.00    -0.011 C 
ATOM     19  C   UNL     1       0.259  -0.384  -0.242  1.00  0.00     0.006 C 
ENDBRANCH  17  18
ENDBRANCH   9  17
BRANCH  16  20
ATOM     20  N   UNL     1       0.806   5.720  -1.740  1.00  0.00    -0.332 N 
ATOM     21  C   UNL     1       0.954   4.458  -2.440  1.00  0.00     0.262 C 
ATOM     22  C   UNL     1       2.123   6.320  -1.554  1.00  0.00     0.262 C 
ATOM     23  H   UNL     1       0.246   6.293  -2.372  1.00  0.00     0.348 HD
ATOM     24  C   UNL     1       1.890   3.450  -1.773  1.00  0.00     0.068 C 
ATOM     25  C   UNL     1       3.049   5.505  -0.664  1.00  0.00     0.068 C 
ATOM     26  C   UNL     1       3.099   3.987  -0.963  1.00  0.00     0.031 C 
BRANCH  26  27
ATOM     27  C   UNL     1       3.425   3.159   0.343  1.00  0.00     0.062 C 
ATOM     28  C   UNL     1       3.290   1.646   0.167  1.00  0.00     0.042 C 
ATOM     29  C   UNL     1       4.830   3.478   0.863  1.00  0.00     0.042 C 
BRANCH  27  30
ATOM     30  O   UNL     1       2.525   3.523   1.396  1.00  0.00    -0.390 OA
ATOM     31  H   UNL     1       1.613   3.342   1.119  1.00  0.00     0.211 HD
ENDBRANCH  27  30
ENDBRANCH  26  27
ENDBRANCH  16  20
ENDBRANCH   6   8
ENDBRANCH   5   6
ENDBRANCH   4   5
ENDBRANCH   3   4
ENDBRANCH   2   3
ENDBRANCH   1   2
BRANCH   1  32
ATOM     32  C   UNL     1      -2.936   5.101  -4.535  1.00  0.00     0.188 C 
BRANCH  32  33
ATOM     33  O   UNL     1      -2.964   6.499  -4.327  1.00  0.00    -0.376 OA
BRANCH  33  34
ATOM     34  C   UNL     1      -2.402   7.369  -5.296  1.00  0.00     0.202 C 
BRANCH  34  35
ATOM     35  C   UNL     1      -2.804   7.263  -6.766  1.00  0.00     0.261 C 
BRANCH  35  36
ATOM     36  O   UNL     1      -3.339   6.015  -7.152  1.00  0.00    -0.460 OA
BRANCH  36  37
ATOM     37  C   UNL     1      -2.419   5.100  -7.519  1.00  0.00     0.338 C 
ATOM     38  O   UNL     1      -1.218   5.149  -7.317  1.00  0.00    -0.246 OA
BRANCH  37  39
ATOM     39  C   UNL     1      -3.096   4.062  -8.298  1.00  0.00     0.060 A 
ATOM     40  C   UNL     1      -2.314   2.972  -8.674  1.00  0.00     0.016 A 
ATOM     41  C   UNL     1      -4.282   4.413  -8.960  1.00  0.00     0.016 A 
ATOM     42  C   UNL     1      -2.543   2.435  -9.915  1.00  0.00     0.010 A 
ATOM     43  C   UNL     1      -4.489   3.898 -10.209  1.00  0.00     0.010 A 
ATOM     44  C   UNL     1      -3.546   3.006 -10.707  1.00  0.00    -0.014 A 
BRANCH  44  45
ATOM     45  C   UNL     1      -3.652   2.580 -12.079  1.00  0.00     0.031 A 
ATOM     46  C   UNL     1      -4.277   1.250 -12.179  1.00  0.00     0.074 A 
ATOM     47  C   UNL     1      -3.308   3.373 -13.111  1.00  0.00     0.049 A 
ATOM     48  N   UNL     1      -3.689   0.134 -12.442  1.00  0.00    -0.248 NA
ATOM     49  C   UNL     1      -5.651   1.103 -11.670  1.00  0.00     0.031 C 
ATOM     50  C   UNL     1      -2.922   4.785 -13.099  1.00  0.00     0.029 A 
ATOM     51  N   UNL     1      -3.331   3.083 -14.435  1.00  0.00    -0.354 N 
ATOM     52  C   UNL     1      -4.698  -0.817 -12.403  1.00  0.00     0.074 A 
ATOM     53  C   UNL     1      -5.777  -0.223 -11.665  1.00  0.00     0.031 C 
ATOM     54  C   UNL     1      -2.993   5.275 -14.360  1.00  0.00     0.029 A 
ATOM     55  C   UNL     1      -3.312   4.190 -15.275  1.00  0.00     0.049 A 
ATOM     56  H   UNL     1      -3.359   2.159 -14.775  1.00  0.00     0.167 HD
ATOM     57  C   UNL     1      -4.683  -1.875 -13.255  1.00  0.00     0.034 A 
ATOM     58  C   UNL     1      -3.648   4.195 -16.597  1.00  0.00     0.034 A 
ATOM     59  C   UNL     1      -3.356  -2.084 -13.796  1.00  0.00     0.049 A 
ATOM     60  C   UNL     1      -3.502   2.785 -17.067  1.00  0.00     0.074 A 
ATOM     61  C   UNL     1      -2.113  -2.290 -13.222  1.00  0.00     0.029 A 
ATOM     62  N   UNL     1      -3.099  -1.662 -15.084  1.00  0.00    -0.354 N 
ATOM     63  N   UNL     1      -2.350   2.165 -17.105  1.00  0.00    -0.248 NA
ATOM     64  C   UNL     1      -4.665   1.911 -16.960  1.00  0.00     0.031 C 
ATOM     65  C   UNL     1      -1.217  -1.493 -13.993  1.00  0.00     0.029 A 
ATOM     66  C   UNL     1      -1.932  -0.933 -15.054  1.00  0.00     0.049 A 
ATOM     67  H   UNL     1      -3.649  -1.849 -15.878  1.00  0.00     0.167 HD
ATOM     68  C   UNL     1      -2.601   0.895 -16.602  1.00  0.00     0.074 A 
ATOM     69  C   UNL     1      -4.060   0.775 -16.592  1.00  0.00     0.031 C 
ATOM     70  C   UNL     1      -1.637   0.172 -15.953  1.00  0.00     0.034 A 
BRANCH  57  71
ATOM     71  C   UNL     1      -5.929  -2.449 -13.887  1.00  0.00     0.023 A 
ATOM     72  C   UNL     1      -5.761  -3.565 -14.723  1.00  0.00     0.031 A 
ATOM     73  C   UNL     1      -7.199  -1.823 -13.944  1.00  0.00     0.131 A 
ATOM     74  C   UNL     1      -6.772  -3.949 -15.619  1.00  0.00     0.055 A 
ATOM     75  C   UNL     1      -8.226  -2.256 -14.784  1.00  0.00     0.041 A 
ATOM     76  F   UNL     1      -7.499  -0.706 -13.275  1.00  0.00    -0.206 F 
ATOM     77  C   UNL     1      -8.005  -3.305 -15.653  1.00  0.00     0.022 A 
BRANCH  74  78
ATOM     78  S   UNL     1      -6.373  -5.196 -16.866  1.00  0.00     0.124 S 
ATOM     79  O   UNL     1      -5.190  -4.615 -17.493  1.00  0.00    -0.237 OA
ATOM     80  O   UNL     1      -6.152  -6.380 -16.044  1.00  0.00    -0.237 OA
ATOM     81  O   UNL     1      -7.571  -5.231 -17.702  1.00  0.00    -0.744 OA
ENDBRANCH  74  78
ENDBRANCH  57  71
BRANCH  58  82
ATOM     82  C   UNL     1      -4.478   5.232 -17.292  1.00  0.00     0.023 A 
ATOM     83  C   UNL     1      -4.566   5.355 -18.699  1.00  0.00     0.031 A 
ATOM     84  C   UNL     1      -5.397   6.008 -16.544  1.00  0.00     0.131 A 
ATOM     85  C   UNL     1      -5.522   6.226 -19.287  1.00  0.00     0.055 A 
ATOM     86  C   UNL     1      -6.331   6.866 -17.127  1.00  0.00     0.041 A 
ATOM     87  F   UNL     1      -5.479   5.899 -15.209  1.00  0.00    -0.206 F 
ATOM     88  C   UNL     1      -6.403   6.974 -18.503  1.00  0.00     0.022 A 
BRANCH  85  89
ATOM     89  S   UNL     1      -5.693   6.355 -21.101  1.00  0.00     0.124 S 
ATOM     90  O   UNL     1      -4.436   6.984 -21.489  1.00  0.00    -0.237 OA
ATOM     91  O   UNL     1      -5.875   4.965 -21.500  1.00  0.00    -0.237 OA
ATOM     92  O   UNL     1      -6.878   7.199 -21.275  1.00  0.00    -0.744 OA
ENDBRANCH  85  89
ENDBRANCH  58  82
BRANCH  70  93
ATOM     93  C   UNL     1      -0.194   0.649 -15.996  1.00  0.00     0.023 A 
ATOM     94  C   UNL     1       0.265   1.920 -15.572  1.00  0.00     0.031 A 
ATOM     95  C   UNL     1       0.779  -0.302 -16.356  1.00  0.00     0.131 A 
ATOM     96  C   UNL     1       1.651   2.191 -15.527  1.00  0.00     0.055 A 
ATOM     97  C   UNL     1       2.146  -0.038 -16.285  1.00  0.00     0.041 A 
ATOM     98  F   UNL     1       0.414  -1.534 -16.747  1.00  0.00    -0.206 F 
ATOM     99  C   UNL     1       2.588   1.213 -15.874  1.00  0.00     0.022 A 
BRANCH  96 100
ATOM    100  S   UNL     1       2.273   3.834 -15.032  1.00  0.00     0.124 S 
ATOM    101  O   UNL     1       1.451   4.756 -15.806  1.00  0.00    -0.237 OA
ATOM    102  O   UNL     1       2.052   3.834 -13.589  1.00  0.00    -0.237 OA
ATOM    103  O   UNL     1       3.683   3.797 -15.428  1.00  0.00    -0.744 OA
ENDBRANCH  96 100
ENDBRANCH  70  93
ENDBRANCH  44  45
ENDBRANCH  37  39
ENDBRANCH  36  37
ENDBRANCH  35  36
ENDBRANCH  34  35
ENDBRANCH  33  34
ENDBRANCH  32  33
ENDBRANCH   1  32
TORSDOF 25
