REMARK SMILES C/C(C(=O)OCCOCCOCCOC(=O)c1ccc(-c2c3nc(c(-c4cc(S(=O)(=O)[O-])ccc4F)c4ccc([nH]4)c(-c4cc(S(=O)(=O)[O-])ccc4F)c4nc(c(-c5cc(S(=O)(=O)[O-])ccc5F)c5ccc2[nH]5)C=C4)C=C3)cc1)=C1/CCCSC1
REMARK SMILES IDX 11 1 10 2 9 3 8 4 7 5 6 6 5 7 3 8 4 9 2 10 1 11 80 12 81 13
REMARK SMILES IDX 85 14 82 15 84 16 83 17 12 18 13 19 14 20 15 21 16 22 17 23
REMARK SMILES IDX 18 24 79 25 19 26 78 27 20 28 21 29 22 30 72 31 23 32 77 33
REMARK SMILES IDX 71 34 73 35 24 36 76 37 70 38 69 39 25 41 57 42 37 43 56 44
REMARK SMILES IDX 38 45 41 46 55 47 74 48 39 49 40 50 54 52 75 53 42 54 26 55
REMARK SMILES IDX 27 56 35 57 28 58 34 59 36 60 33 61 29 62 30 63 31 64 32 65
REMARK SMILES IDX 58 66 59 67 67 68 60 69 66 70 68 71 65 72 61 73 62 74 63 75
REMARK SMILES IDX 64 76 43 77 44 78 52 79 45 80 51 81 53 82 50 83 46 84 47 85
REMARK SMILES IDX 48 86 49 87
REMARK H PARENT 73 40 41 51
REMARK Flexibility Score: inf
ROOT
ATOM      1  O   UNL     1      -2.814  -0.061   0.919  1.00  0.00    -0.376 OA
ENDROOT
BRANCH   1   2
ATOM      2  C   UNL     1      -2.299  -1.274   0.397  1.00  0.00     0.188 C 
BRANCH   2   3
ATOM      3  C   UNL     1      -2.220  -2.532   1.288  1.00  0.00     0.188 C 
BRANCH   3   4
ATOM      4  O   UNL     1      -2.840  -2.450   2.553  1.00  0.00    -0.376 OA
BRANCH   4   5
ATOM      5  C   UNL     1      -2.159  -1.881   3.659  1.00  0.00     0.202 C 
BRANCH   5   6
ATOM      6  C   UNL     1      -0.743  -1.277   3.631  1.00  0.00     0.261 C 
BRANCH   6   7
ATOM      7  O   UNL     1      -0.179  -1.004   2.349  1.00  0.00    -0.460 OA
BRANCH   7   8
ATOM      8  C   UNL     1       0.928  -1.716   2.017  1.00  0.00     0.333 C 
ATOM      9  O   UNL     1       1.498  -2.534   2.720  1.00  0.00    -0.247 OA
BRANCH   8  10
ATOM     10  C   UNL     1       1.352  -1.370   0.630  1.00  0.00     0.034 C 
ATOM     11  C   UNL     1       1.462   0.101   0.338  1.00  0.00     0.052 C 
ATOM     12  C   UNL     1       1.617  -2.340  -0.283  1.00  0.00    -0.050 C 
ATOM     13  C   UNL     1       1.362  -3.826  -0.077  1.00  0.00     0.033 C 
ATOM     14  C   UNL     1       2.256  -2.033  -1.619  1.00  0.00     0.101 C 
ATOM     15  C   UNL     1       0.464  -4.425  -1.169  1.00  0.00     0.015 C 
ATOM     16  S   UNL     1       1.153  -2.487  -2.975  1.00  0.00    -0.158 SA
ATOM     17  C   UNL     1       1.012  -4.252  -2.579  1.00  0.00     0.070 C 
ENDBRANCH   8  10
ENDBRANCH   7   8
ENDBRANCH   6   7
ENDBRANCH   5   6
ENDBRANCH   4   5
ENDBRANCH   3   4
ENDBRANCH   2   3
ENDBRANCH   1   2
BRANCH   1  18
ATOM     18  C   UNL     1      -4.113  -0.044   1.492  1.00  0.00     0.202 C 
BRANCH  18  19
ATOM     19  C   UNL     1      -5.302  -0.831   0.907  1.00  0.00     0.261 C 
BRANCH  19  20
ATOM     20  O   UNL     1      -5.021  -2.130   0.371  1.00  0.00    -0.460 OA
BRANCH  20  21
ATOM     21  C   UNL     1      -5.160  -2.254  -0.973  1.00  0.00     0.338 C 
ATOM     22  O   UNL     1      -5.513  -1.385  -1.759  1.00  0.00    -0.246 OA
BRANCH  21  23
ATOM     23  C   UNL     1      -4.643  -3.570  -1.396  1.00  0.00     0.060 A 
ATOM     24  C   UNL     1      -3.471  -3.614  -2.162  1.00  0.00     0.016 A 
ATOM     25  C   UNL     1      -5.309  -4.749  -1.059  1.00  0.00     0.016 A 
ATOM     26  C   UNL     1      -2.950  -4.842  -2.571  1.00  0.00     0.010 A 
ATOM     27  C   UNL     1      -4.797  -5.979  -1.496  1.00  0.00     0.010 A 
ATOM     28  C   UNL     1      -3.611  -6.033  -2.250  1.00  0.00    -0.014 A 
BRANCH  28  29
ATOM     29  C   UNL     1      -3.121  -7.320  -2.804  1.00  0.00     0.031 A 
ATOM     30  C   UNL     1      -3.634  -7.780  -4.138  1.00  0.00     0.074 A 
ATOM     31  C   UNL     1      -2.204  -8.056  -2.148  1.00  0.00     0.049 A 
ATOM     32  N   UNL     1      -3.424  -8.909  -4.763  1.00  0.00    -0.248 NA
ATOM     33  C   UNL     1      -4.496  -6.835  -4.863  1.00  0.00     0.031 C 
ATOM     34  C   UNL     1      -1.564  -7.675  -0.891  1.00  0.00     0.029 A 
ATOM     35  N   UNL     1      -1.650  -9.278  -2.448  1.00  0.00    -0.354 N 
ATOM     36  C   UNL     1      -4.137  -8.819  -5.953  1.00  0.00     0.074 A 
ATOM     37  C   UNL     1      -4.789  -7.525  -5.954  1.00  0.00     0.031 C 
ATOM     38  C   UNL     1      -0.702  -8.642  -0.530  1.00  0.00     0.029 A 
ATOM     39  C   UNL     1      -0.783  -9.745  -1.486  1.00  0.00     0.049 A 
ATOM     40  H   UNL     1      -1.855  -9.773  -3.274  1.00  0.00     0.167 HD
ATOM     41  C   UNL     1      -4.246  -9.736  -6.944  1.00  0.00     0.034 A 
ATOM     42  C   UNL     1      -0.170 -10.943  -1.365  1.00  0.00     0.034 A 
ATOM     43  C   UNL     1      -3.618 -11.034  -6.914  1.00  0.00     0.049 A 
ATOM     44  C   UNL     1      -0.427 -12.005  -2.414  1.00  0.00     0.074 A 
ATOM     45  C   UNL     1      -3.685 -12.045  -7.857  1.00  0.00     0.029 A 
ATOM     46  N   UNL     1      -2.823 -11.512  -5.879  1.00  0.00    -0.354 N 
ATOM     47  N   UNL     1      -1.130 -11.924  -3.521  1.00  0.00    -0.248 NA
ATOM     48  C   UNL     1       0.178 -13.325  -2.187  1.00  0.00     0.031 C 
ATOM     49  C   UNL     1      -3.005 -13.160  -7.355  1.00  0.00     0.029 A 
ATOM     50  C   UNL     1      -2.435 -12.818  -6.140  1.00  0.00     0.049 A 
ATOM     51  H   UNL     1      -2.573 -10.998  -5.078  1.00  0.00     0.167 HD
ATOM     52  C   UNL     1      -1.033 -13.177  -4.127  1.00  0.00     0.074 A 
ATOM     53  C   UNL     1      -0.184 -13.984  -3.278  1.00  0.00     0.031 C 
ATOM     54  C   UNL     1      -1.599 -13.621  -5.278  1.00  0.00     0.034 A 
BRANCH  41  55
ATOM     55  C   UNL     1      -5.150  -9.395  -8.102  1.00  0.00     0.023 A 
ATOM     56  C   UNL     1      -4.862  -8.340  -8.984  1.00  0.00     0.031 A 
ATOM     57  C   UNL     1      -6.338 -10.120  -8.305  1.00  0.00     0.131 A 
ATOM     58  C   UNL     1      -5.783  -7.998  -9.986  1.00  0.00     0.055 A 
ATOM     59  C   UNL     1      -7.210  -9.826  -9.353  1.00  0.00     0.041 A 
ATOM     60  F   UNL     1      -6.678 -11.120  -7.476  1.00  0.00    -0.206 F 
ATOM     61  C   UNL     1      -6.942  -8.751 -10.193  1.00  0.00     0.022 A 
BRANCH  58  62
ATOM     62  S   UNL     1      -5.516  -6.468 -10.923  1.00  0.00     0.124 S 
ATOM     63  O   UNL     1      -5.489  -5.470  -9.857  1.00  0.00    -0.237 OA
ATOM     64  O   UNL     1      -4.246  -6.725 -11.591  1.00  0.00    -0.237 OA
ATOM     65  O   UNL     1      -6.681  -6.398 -11.803  1.00  0.00    -0.744 OA
ENDBRANCH  58  62
ENDBRANCH  41  55
BRANCH  42  66
ATOM     66  C   UNL     1       0.668 -11.263  -0.169  1.00  0.00     0.023 A 
ATOM     67  C   UNL     1       2.013 -11.648  -0.301  1.00  0.00     0.031 A 
ATOM     68  C   UNL     1       0.107 -11.285   1.122  1.00  0.00     0.131 A 
ATOM     69  C   UNL     1       2.731 -12.089   0.823  1.00  0.00     0.055 A 
ATOM     70  C   UNL     1       0.845 -11.659   2.246  1.00  0.00     0.041 A 
ATOM     71  F   UNL     1      -1.179 -10.948   1.310  1.00  0.00    -0.206 F 
ATOM     72  C   UNL     1       2.162 -12.079   2.098  1.00  0.00     0.022 A 
BRANCH  69  73
ATOM     73  S   UNL     1       4.388 -12.790   0.580  1.00  0.00     0.124 S 
ATOM     74  O   UNL     1       4.109 -13.894  -0.332  1.00  0.00    -0.237 OA
ATOM     75  O   UNL     1       5.115 -11.658   0.015  1.00  0.00    -0.237 OA
ATOM     76  O   UNL     1       4.794 -13.180   1.928  1.00  0.00    -0.744 OA
ENDBRANCH  69  73
ENDBRANCH  42  66
BRANCH  54  77
ATOM     77  C   UNL     1      -1.289 -15.039  -5.703  1.00  0.00     0.023 A 
ATOM     78  C   UNL     1      -1.729 -16.149  -4.959  1.00  0.00     0.031 A 
ATOM     79  C   UNL     1      -0.546 -15.283  -6.872  1.00  0.00     0.131 A 
ATOM     80  C   UNL     1      -1.380 -17.447  -5.365  1.00  0.00     0.055 A 
ATOM     81  C   UNL     1      -0.258 -16.578  -7.306  1.00  0.00     0.041 A 
ATOM     82  F   UNL     1      -0.095 -14.264  -7.621  1.00  0.00    -0.206 F 
ATOM     83  C   UNL     1      -0.665 -17.669  -6.544  1.00  0.00     0.022 A 
BRANCH  80  84
ATOM     84  S   UNL     1      -1.798 -18.842  -4.282  1.00  0.00     0.124 S 
ATOM     85  O   UNL     1      -1.098 -18.491  -3.051  1.00  0.00    -0.237 OA
ATOM     86  O   UNL     1      -3.255 -18.773  -4.230  1.00  0.00    -0.237 OA
ATOM     87  O   UNL     1      -1.259 -20.001  -4.992  1.00  0.00    -0.744 OA
ENDBRANCH  80  84
ENDBRANCH  54  77
ENDBRANCH  28  29
ENDBRANCH  21  23
ENDBRANCH  20  21
ENDBRANCH  19  20
ENDBRANCH  18  19
ENDBRANCH   1  18
TORSDOF 20
