REMARK SMILES Cn1cc(-c2cc(C(F)(F)F)c3c(C4CC4)nn(CC(=O)OCCOCCOCCOC(=O)c4ccc(-c5c6nc(c(-c7cc(S(=O)(=O)[O-])ccc7F)c7ccc([nH]7)c(-c7cc(S(=O)(=O)[O-])ccc7F)c7nc(c(-c8cc(S(=O)(=O)[O-])ccc8F)c8ccc5[nH]8)C=C7)C=C6)cc4)c3n2)cn1
REMARK SMILES IDX 27 1 26 2 25 3 24 4 23 5 22 6 20 7 21 8 19 9 18 10 5 11 6 12
REMARK SMILES IDX 98 13 7 14 97 15 12 16 13 17 17 18 4 19 1 20 2 21 3 22
REMARK SMILES IDX 100 23 99 24 8 25 9 26 10 27 11 28 14 29 15 30 16 31 28 32
REMARK SMILES IDX 29 33 30 34 31 35 32 36 33 37 34 38 35 39 96 40 36 41 95 42
REMARK SMILES IDX 37 43 38 44 39 45 89 46 40 47 94 48 88 49 90 50 41 51 93 52
REMARK SMILES IDX 87 53 86 54 42 56 74 57 54 58 73 59 55 60 58 61 72 62 91 63
REMARK SMILES IDX 56 64 57 65 71 67 92 68 59 69 43 70 44 71 52 72 45 73 51 74
REMARK SMILES IDX 53 75 50 76 46 77 47 78 48 79 49 80 75 81 76 82 84 83 77 84
REMARK SMILES IDX 83 85 85 86 82 87 78 88 79 89 80 90 81 91 60 92 61 93 69 94
REMARK SMILES IDX 62 95 68 96 70 97 67 98 63 99 64 100 65 101 66 102
REMARK H PARENT 90 55 58 66
REMARK Flexibility Score: inf
ROOT
ATOM      1  C   UNL     1      -4.963  -2.181   0.191  1.00  0.00     0.188 C 
ENDROOT
BRANCH   1   2
ATOM      2  C   UNL     1      -4.976  -0.677  -0.098  1.00  0.00     0.188 C 
BRANCH   2   3
ATOM      3  O   UNL     1      -5.980  -0.228  -1.013  1.00  0.00    -0.376 OA
BRANCH   3   4
ATOM      4  C   UNL     1      -6.188  -1.018  -2.182  1.00  0.00     0.202 C 
BRANCH   4   5
ATOM      5  C   UNL     1      -5.072  -0.988  -3.246  1.00  0.00     0.261 C 
BRANCH   5   6
ATOM      6  O   UNL     1      -3.738  -1.356  -2.817  1.00  0.00    -0.462 OA
BRANCH   6   7
ATOM      7  C   UNL     1      -2.905  -0.328  -2.546  1.00  0.00     0.327 C 
ATOM      8  O   UNL     1      -3.223   0.854  -2.698  1.00  0.00    -0.250 OA
BRANCH   7   9
ATOM      9  C   UNL     1      -1.506  -0.661  -2.148  1.00  0.00     0.269 C 
BRANCH   9  10
ATOM     10  N   UNL     1      -1.100  -1.938  -1.559  1.00  0.00    -0.236 N 
ATOM     11  C   UNL     1       2.108  -1.357  -0.558  1.00  0.00     0.077 A 
ATOM     12  C   UNL     1       2.518  -2.595  -0.069  1.00  0.00     0.043 A 
ATOM     13  N   UNL     1       1.232  -1.295  -1.595  1.00  0.00    -0.228 NA
ATOM     14  C   UNL     1       1.703  -3.716  -0.337  1.00  0.00     0.071 A 
ATOM     15  C   UNL     1       0.247  -2.194  -1.393  1.00  0.00     0.159 A 
ATOM     16  C   UNL     1       0.377  -3.352  -0.646  1.00  0.00     0.055 A 
ATOM     17  C   UNL     1      -0.898  -3.412  -0.019  1.00  0.00     0.076 A 
ATOM     18  N   UNL     1      -1.806  -2.604  -0.613  1.00  0.00    -0.174 NA
BRANCH  11  19
ATOM     19  C   UNL     1       1.784  -0.259   0.378  1.00  0.00     0.038 A 
ATOM     20  C   UNL     1      -1.353   0.886   1.590  1.00  0.00     0.173 C 
ATOM     21  N   UNL     1       0.066   0.765   1.320  1.00  0.00    -0.275 N 
ATOM     22  C   UNL     1       0.758  -0.417   1.303  1.00  0.00     0.118 A 
ATOM     23  N   UNL     1       0.739   1.764   0.719  1.00  0.00    -0.181 NA
ATOM     24  C   UNL     1       1.736   1.129   0.089  1.00  0.00     0.145 A 
ENDBRANCH  11  19
BRANCH  14  25
ATOM     25  C   UNL     1       2.259  -5.092  -0.560  1.00  0.00     0.417 C 
ATOM     26  F   UNL     1       1.874  -6.038   0.329  1.00  0.00    -0.166 F 
ATOM     27  F   UNL     1       1.906  -5.581  -1.786  1.00  0.00    -0.166 F 
ATOM     28  F   UNL     1       3.623  -5.117  -0.548  1.00  0.00    -0.166 F 
ENDBRANCH  14  25
BRANCH  17  29
ATOM     29  C   UNL     1      -1.254  -4.048   1.331  1.00  0.00     0.041 C 
ATOM     30  C   UNL     1      -0.453  -5.124   2.020  1.00  0.00     0.011 C 
ATOM     31  C   UNL     1      -0.458  -3.756   2.596  1.00  0.00     0.011 C 
ENDBRANCH  17  29
ENDBRANCH   9  10
ENDBRANCH   7   9
ENDBRANCH   6   7
ENDBRANCH   5   6
ENDBRANCH   4   5
ENDBRANCH   3   4
ENDBRANCH   2   3
ENDBRANCH   1   2
BRANCH   1  32
ATOM     32  O   UNL     1      -4.801  -2.941  -1.003  1.00  0.00    -0.376 OA
BRANCH  32  33
ATOM     33  C   UNL     1      -4.719  -4.359  -0.969  1.00  0.00     0.202 C 
BRANCH  33  34
ATOM     34  C   UNL     1      -5.851  -5.105  -0.263  1.00  0.00     0.261 C 
BRANCH  34  35
ATOM     35  O   UNL     1      -6.093  -4.595   1.035  1.00  0.00    -0.460 OA
BRANCH  35  36
ATOM     36  C   UNL     1      -5.047  -4.695   1.880  1.00  0.00     0.338 C 
ATOM     37  O   UNL     1      -4.050  -5.371   1.733  1.00  0.00    -0.246 OA
BRANCH  36  38
ATOM     38  C   UNL     1      -5.324  -3.837   3.041  1.00  0.00     0.060 A 
ATOM     39  C   UNL     1      -4.269  -3.628   3.931  1.00  0.00     0.016 A 
ATOM     40  C   UNL     1      -6.662  -3.721   3.414  1.00  0.00     0.016 A 
ATOM     41  C   UNL     1      -4.550  -3.735   5.267  1.00  0.00     0.010 A 
ATOM     42  C   UNL     1      -6.937  -3.901   4.735  1.00  0.00     0.010 A 
ATOM     43  C   UNL     1      -5.865  -4.033   5.615  1.00  0.00    -0.014 A 
BRANCH  43  44
ATOM     44  C   UNL     1      -6.125  -4.548   6.934  1.00  0.00     0.031 A 
ATOM     45  C   UNL     1      -6.461  -3.479   7.886  1.00  0.00     0.074 A 
ATOM     46  C   UNL     1      -6.185  -5.874   7.158  1.00  0.00     0.049 A 
ATOM     47  N   UNL     1      -5.683  -2.946   8.770  1.00  0.00    -0.248 NA
ATOM     48  C   UNL     1      -7.703  -2.727   7.636  1.00  0.00     0.031 C 
ATOM     49  C   UNL     1      -6.193  -6.968   6.179  1.00  0.00     0.029 A 
ATOM     50  N   UNL     1      -6.369  -6.523   8.332  1.00  0.00    -0.354 N 
ATOM     51  C   UNL     1      -6.461  -1.953   9.351  1.00  0.00     0.074 A 
ATOM     52  C   UNL     1      -7.510  -1.663   8.411  1.00  0.00     0.031 C 
ATOM     53  C   UNL     1      -6.619  -8.102   6.786  1.00  0.00     0.029 A 
ATOM     54  C   UNL     1      -6.784  -7.840   8.206  1.00  0.00     0.049 A 
ATOM     55  H   UNL     1      -6.221  -6.094   9.205  1.00  0.00     0.167 HD
ATOM     56  C   UNL     1      -6.417  -1.704  10.688  1.00  0.00     0.034 A 
ATOM     57  C   UNL     1      -7.334  -8.587   9.198  1.00  0.00     0.034 A 
ATOM     58  C   UNL     1      -5.277  -2.333  11.298  1.00  0.00     0.049 A 
ATOM     59  C   UNL     1      -7.038  -7.903  10.486  1.00  0.00     0.074 A 
ATOM     60  C   UNL     1      -3.911  -2.223  11.145  1.00  0.00     0.029 A 
ATOM     61  N   UNL     1      -5.502  -3.529  11.939  1.00  0.00    -0.354 N 
ATOM     62  N   UNL     1      -5.844  -7.800  10.999  1.00  0.00    -0.248 NA
ATOM     63  C   UNL     1      -8.007  -6.923  10.960  1.00  0.00     0.031 C 
ATOM     64  C   UNL     1      -3.408  -3.542  11.317  1.00  0.00     0.029 A 
ATOM     65  C   UNL     1      -4.479  -4.385  11.625  1.00  0.00     0.049 A 
ATOM     66  H   UNL     1      -6.267  -3.735  12.523  1.00  0.00     0.167 HD
ATOM     67  C   UNL     1      -5.790  -6.508  11.505  1.00  0.00     0.074 A 
ATOM     68  C   UNL     1      -7.176  -6.048  11.533  1.00  0.00     0.031 C 
ATOM     69  C   UNL     1      -4.609  -5.827  11.564  1.00  0.00     0.034 A 
BRANCH  56  70
ATOM     70  C   UNL     1      -7.620  -1.250  11.475  1.00  0.00     0.023 A 
ATOM     71  C   UNL     1      -8.940  -1.366  10.995  1.00  0.00     0.031 A 
ATOM     72  C   UNL     1      -7.490  -0.881  12.823  1.00  0.00     0.131 A 
ATOM     73  C   UNL     1     -10.050  -1.075  11.790  1.00  0.00     0.055 A 
ATOM     74  C   UNL     1      -8.602  -0.666  13.648  1.00  0.00     0.041 A 
ATOM     75  F   UNL     1      -6.280  -0.773  13.393  1.00  0.00    -0.206 F 
ATOM     76  C   UNL     1      -9.891  -0.753  13.131  1.00  0.00     0.022 A 
BRANCH  73  77
ATOM     77  S   UNL     1     -11.717  -1.133  11.076  1.00  0.00     0.124 S 
ATOM     78  O   UNL     1     -12.372  -2.121  11.925  1.00  0.00    -0.237 OA
ATOM     79  O   UNL     1     -12.159   0.248  11.248  1.00  0.00    -0.237 OA
ATOM     80  O   UNL     1     -11.483  -1.538   9.693  1.00  0.00    -0.744 OA
ENDBRANCH  73  77
ENDBRANCH  56  70
BRANCH  57  81
ATOM     81  C   UNL     1      -8.484  -9.517   9.071  1.00  0.00     0.023 A 
ATOM     82  C   UNL     1      -9.418  -9.347   8.032  1.00  0.00     0.031 A 
ATOM     83  C   UNL     1      -8.853 -10.357  10.136  1.00  0.00     0.131 A 
ATOM     84  C   UNL     1     -10.683  -9.945   8.104  1.00  0.00     0.055 A 
ATOM     85  C   UNL     1     -10.113 -10.966  10.201  1.00  0.00     0.041 A 
ATOM     86  F   UNL     1      -8.023 -10.543  11.175  1.00  0.00    -0.206 F 
ATOM     87  C   UNL     1     -11.042 -10.748   9.187  1.00  0.00     0.022 A 
BRANCH  84  88
ATOM     88  S   UNL     1     -11.912  -9.624   6.809  1.00  0.00     0.124 S 
ATOM     89  O   UNL     1     -12.508 -10.943   6.607  1.00  0.00    -0.237 OA
ATOM     90  O   UNL     1     -12.771  -8.636   7.452  1.00  0.00    -0.237 OA
ATOM     91  O   UNL     1     -11.107  -9.137   5.692  1.00  0.00    -0.744 OA
ENDBRANCH  84  88
ENDBRANCH  57  81
BRANCH  69  92
ATOM     92  C   UNL     1      -3.327  -6.588  11.321  1.00  0.00     0.023 A 
ATOM     93  C   UNL     1      -2.333  -6.475  12.305  1.00  0.00     0.031 A 
ATOM     94  C   UNL     1      -2.973  -7.183  10.095  1.00  0.00     0.131 A 
ATOM     95  C   UNL     1      -1.027  -6.892  12.037  1.00  0.00     0.055 A 
ATOM     96  C   UNL     1      -1.680  -7.662   9.856  1.00  0.00     0.041 A 
ATOM     97  F   UNL     1      -3.832  -7.236   9.070  1.00  0.00    -0.206 F 
ATOM     98  C   UNL     1      -0.694  -7.500  10.823  1.00  0.00     0.022 A 
BRANCH  95  99
ATOM     99  S   UNL     1       0.299  -6.516  13.209  1.00  0.00     0.124 S 
ATOM    100  O   UNL     1       0.819  -7.843  13.526  1.00  0.00    -0.237 OA
ATOM    101  O   UNL     1       1.183  -5.671  12.409  1.00  0.00    -0.237 OA
ATOM    102  O   UNL     1      -0.380  -5.835  14.307  1.00  0.00    -0.744 OA
ENDBRANCH  95  99
ENDBRANCH  69  92
ENDBRANCH  43  44
ENDBRANCH  36  38
ENDBRANCH  35  36
ENDBRANCH  34  35
ENDBRANCH  33  34
ENDBRANCH  32  33
ENDBRANCH   1  32
TORSDOF 24
