REMARK SMILES O=C(CCCCCc1cc2c(cc1Br)OCCCO2)OCCOCCOCCOC(=O)c1ccc(-c2c3nc(c(-c4cc(S(=O)(=O)[O-])ccc4F)c4ccc([nH]4)c(-c4cc(S(=O)(=O)[O-])ccc4F)c4nc(c(-c5cc(S(=O)(=O)[O-])ccc5F)c5ccc2[nH]5)C=C4)C=C3)cc1
REMARK SMILES IDX 22 1 21 2 20 3 2 4 1 5 3 6 4 7 5 8 6 9 7 10 8 11 9 12 13 13
REMARK SMILES IDX 10 14 12 15 14 16 11 17 19 18 18 19 17 20 15 22 16 23 23 25
REMARK SMILES IDX 24 26 25 27 26 28 27 29 28 30 29 31 30 32 31 33 32 34 33 35
REMARK SMILES IDX 94 36 34 37 93 38 35 39 36 40 37 41 87 42 38 43 92 44 86 45
REMARK SMILES IDX 88 46 39 47 91 48 85 49 84 50 40 52 72 53 52 54 71 55 53 56
REMARK SMILES IDX 56 57 70 58 89 59 54 60 55 61 69 63 90 64 57 65 41 66 42 67
REMARK SMILES IDX 50 68 43 69 49 70 51 71 48 72 44 73 45 74 46 75 47 76 73 77
REMARK SMILES IDX 74 78 82 79 75 80 81 81 83 82 80 83 76 84 77 85 78 86 79 87
REMARK SMILES IDX 58 88 59 89 67 90 60 91 66 92 68 93 65 94 61 95 62 96 63 97
REMARK SMILES IDX 64 98
REMARK H PARENT 88 51 56 62
REMARK Flexibility Score: 90.00
ROOT
ATOM      1  C   UNL     1       4.081   0.966   1.765  1.00  0.00     0.202 C 
ENDROOT
BRANCH   1   2
ATOM      2  C   UNL     1       3.715   1.734   0.505  1.00  0.00     0.261 C 
BRANCH   2   3
ATOM      3  O   UNL     1       2.383   1.456   0.045  1.00  0.00    -0.463 OA
BRANCH   3   4
ATOM      4  C   UNL     1       2.101   0.842  -1.131  1.00  0.00     0.305 C 
ATOM      5  O   UNL     1       1.125   1.210  -1.782  1.00  0.00    -0.252 OA
BRANCH   4   6
ATOM      6  C   UNL     1       2.863  -0.407  -1.525  1.00  0.00     0.123 C 
BRANCH   6   7
ATOM      7  C   UNL     1       3.875  -0.282  -2.655  1.00  0.00     0.012 C 
BRANCH   7   8
ATOM      8  C   UNL     1       5.262   0.232  -2.280  1.00  0.00     0.001 C 
BRANCH   8   9
ATOM      9  C   UNL     1       5.964  -0.492  -1.104  1.00  0.00     0.005 C 
BRANCH   9  10
ATOM     10  C   UNL     1       7.128  -1.425  -1.488  1.00  0.00     0.037 C 
BRANCH  10  11
ATOM     11  C   UNL     1       8.092  -0.775  -2.454  1.00  0.00    -0.030 A 
ATOM     12  C   UNL     1       8.467   0.560  -2.213  1.00  0.00     0.055 A 
ATOM     13  C   UNL     1       8.479  -1.377  -3.663  1.00  0.00     0.025 A 
ATOM     14  C   UNL     1       8.964   1.336  -3.250  1.00  0.00     0.161 A 
ATOM     15  C   UNL     1       9.076  -0.614  -4.669  1.00  0.00     0.066 A 
ATOM     16  Br  UNL     1       8.159  -3.210  -4.044  1.00  0.00    -0.050 Br
ATOM     17  C   UNL     1       9.248   0.754  -4.482  1.00  0.00     0.162 A 
BRANCH  14  18
ATOM     18  O   UNL     1       9.082   2.681  -3.026  1.00  0.00    -0.490 OA
BRANCH  18  19
ATOM     19  C   UNL     1       8.087   3.387  -3.778  1.00  0.00     0.233 C 
BRANCH  19  20
ATOM     20  C   UNL     1       8.551   3.645  -5.205  1.00  0.00     0.083 CG0
ATOM     21  G   UNL     1       8.646   2.356  -6.015  1.00  0.00     0.000 G0
ENDBRANCH  19  20
ENDBRANCH  18  19
ENDBRANCH  14  18
BRANCH  17  22
ATOM     22  O   UNL     1       9.692   1.499  -5.541  1.00  0.00    -0.490 OA
BRANCH  22  23
ATOM     23  C   UNL     1       8.646   2.356  -6.015  1.00  0.00     0.233 CG0
ATOM     24  G   UNL     1       8.551   3.645  -5.205  1.00  0.00     0.000 G0
ENDBRANCH  22  23
ENDBRANCH  17  22
ENDBRANCH  10  11
ENDBRANCH   9  10
ENDBRANCH   8   9
ENDBRANCH   7   8
ENDBRANCH   6   7
ENDBRANCH   4   6
ENDBRANCH   3   4
ENDBRANCH   2   3
ENDBRANCH   1   2
BRANCH   1  25
ATOM     25  O   UNL     1       4.046  -0.438   1.567  1.00  0.00    -0.376 OA
BRANCH  25  26
ATOM     26  C   UNL     1       2.807  -1.073   1.860  1.00  0.00     0.188 C 
BRANCH  26  27
ATOM     27  C   UNL     1       2.278  -0.943   3.291  1.00  0.00     0.188 C 
BRANCH  27  28
ATOM     28  O   UNL     1       3.189  -0.654   4.343  1.00  0.00    -0.376 OA
BRANCH  28  29
ATOM     29  C   UNL     1       4.454  -1.304   4.380  1.00  0.00     0.202 C 
BRANCH  29  30
ATOM     30  C   UNL     1       4.453  -2.813   4.609  1.00  0.00     0.261 C 
BRANCH  30  31
ATOM     31  O   UNL     1       4.119  -3.550   3.424  1.00  0.00    -0.460 OA
BRANCH  31  32
ATOM     32  C   UNL     1       2.941  -4.213   3.446  1.00  0.00     0.338 C 
ATOM     33  O   UNL     1       2.083  -4.174   4.317  1.00  0.00    -0.246 OA
BRANCH  32  34
ATOM     34  C   UNL     1       2.793  -4.946   2.180  1.00  0.00     0.060 A 
ATOM     35  C   UNL     1       3.740  -5.910   1.832  1.00  0.00     0.016 A 
ATOM     36  C   UNL     1       1.678  -4.708   1.367  1.00  0.00     0.016 A 
ATOM     37  C   UNL     1       3.559  -6.656   0.669  1.00  0.00     0.010 A 
ATOM     38  C   UNL     1       1.500  -5.457   0.201  1.00  0.00     0.010 A 
ATOM     39  C   UNL     1       2.429  -6.450  -0.143  1.00  0.00    -0.014 A 
BRANCH  39  40
ATOM     40  C   UNL     1       2.166  -7.389  -1.261  1.00  0.00     0.031 A 
ATOM     41  C   UNL     1       2.397  -6.995  -2.687  1.00  0.00     0.074 A 
ATOM     42  C   UNL     1       1.731  -8.628  -0.957  1.00  0.00     0.049 A 
ATOM     43  N   UNL     1       2.305  -7.735  -3.759  1.00  0.00    -0.248 NA
ATOM     44  C   UNL     1       2.781  -5.599  -2.948  1.00  0.00     0.031 C 
ATOM     45  C   UNL     1       1.443  -9.095   0.400  1.00  0.00     0.029 A 
ATOM     46  N   UNL     1       1.463  -9.716  -1.750  1.00  0.00    -0.354 N 
ATOM     47  C   UNL     1       2.634  -6.907  -4.824  1.00  0.00     0.074 A 
ATOM     48  C   UNL     1       2.889  -5.594  -4.272  1.00  0.00     0.031 C 
ATOM     49  C   UNL     1       1.056 -10.377   0.348  1.00  0.00     0.029 A 
ATOM     50  C   UNL     1       1.026 -10.816  -1.046  1.00  0.00     0.049 A 
ATOM     51  H   UNL     1       1.573  -9.711  -2.728  1.00  0.00     0.167 HD
ATOM     52  C   UNL     1       2.730  -7.232  -6.135  1.00  0.00     0.034 A 
ATOM     53  C   UNL     1       0.634 -12.036  -1.470  1.00  0.00     0.034 A 
ATOM     54  C   UNL     1       2.476  -8.552  -6.658  1.00  0.00     0.049 A 
ATOM     55  C   UNL     1       0.734 -12.360  -2.939  1.00  0.00     0.074 A 
ATOM     56  C   UNL     1       2.610  -8.985  -7.966  1.00  0.00     0.029 A 
ATOM     57  N   UNL     1       2.033  -9.641  -5.923  1.00  0.00    -0.354 N 
ATOM     58  N   UNL     1       1.168 -11.601  -3.918  1.00  0.00    -0.248 NA
ATOM     59  C   UNL     1       0.312 -13.700  -3.367  1.00  0.00     0.031 C 
ATOM     60  C   UNL     1       2.168 -10.304  -8.037  1.00  0.00     0.029 A 
ATOM     61  C   UNL     1       1.846 -10.730  -6.759  1.00  0.00     0.049 A 
ATOM     62  H   UNL     1       1.875  -9.641  -4.951  1.00  0.00     0.167 HD
ATOM     63  C   UNL     1       1.086 -12.376  -5.071  1.00  0.00     0.074 A 
ATOM     64  C   UNL     1       0.597 -13.675  -4.663  1.00  0.00     0.031 C 
ATOM     65  C   UNL     1       1.379 -12.034  -6.350  1.00  0.00     0.034 A 
BRANCH  52  66
ATOM     66  C   UNL     1       3.157  -6.182  -7.130  1.00  0.00     0.023 A 
ATOM     67  C   UNL     1       2.294  -5.827  -8.184  1.00  0.00     0.031 A 
ATOM     68  C   UNL     1       4.483  -5.717  -7.166  1.00  0.00     0.131 A 
ATOM     69  C   UNL     1       2.788  -5.093  -9.268  1.00  0.00     0.055 A 
ATOM     70  C   UNL     1       4.957  -4.945  -8.228  1.00  0.00     0.041 A 
ATOM     71  F   UNL     1       5.344  -6.034  -6.186  1.00  0.00    -0.206 F 
ATOM     72  C   UNL     1       4.114  -4.647  -9.295  1.00  0.00     0.022 A 
BRANCH  69  73
ATOM     73  S   UNL     1       1.760  -4.777 -10.730  1.00  0.00     0.124 S 
ATOM     74  O   UNL     1       1.831  -3.321 -10.837  1.00  0.00    -0.237 OA
ATOM     75  O   UNL     1       2.474  -5.513 -11.768  1.00  0.00    -0.237 OA
ATOM     76  O   UNL     1       0.453  -5.307 -10.360  1.00  0.00    -0.744 OA
ENDBRANCH  69  73
ENDBRANCH  52  66
BRANCH  53  77
ATOM     77  C   UNL     1       0.138 -13.028  -0.470  1.00  0.00     0.023 A 
ATOM     78  C   UNL     1      -0.977 -12.728   0.336  1.00  0.00     0.031 A 
ATOM     79  C   UNL     1       0.813 -14.236  -0.234  1.00  0.00     0.131 A 
ATOM     80  C   UNL     1      -1.338 -13.586   1.381  1.00  0.00     0.055 A 
ATOM     81  C   UNL     1       0.398 -15.130   0.757  1.00  0.00     0.041 A 
ATOM     82  F   UNL     1       1.892 -14.563  -0.961  1.00  0.00    -0.206 F 
ATOM     83  C   UNL     1      -0.671 -14.797   1.583  1.00  0.00     0.022 A 
BRANCH  80  84
ATOM     84  S   UNL     1      -2.584 -13.085   2.602  1.00  0.00     0.124 S 
ATOM     85  O   UNL     1      -3.616 -14.099   2.416  1.00  0.00    -0.237 OA
ATOM     86  O   UNL     1      -1.830 -13.172   3.851  1.00  0.00    -0.237 OA
ATOM     87  O   UNL     1      -2.943 -11.732   2.191  1.00  0.00    -0.744 OA
ENDBRANCH  80  84
ENDBRANCH  53  77
BRANCH  65  88
ATOM     88  C   UNL     1       1.185 -13.057  -7.446  1.00  0.00     0.023 A 
ATOM     89  C   UNL     1       2.281 -13.457  -8.236  1.00  0.00     0.031 A 
ATOM     90  C   UNL     1      -0.099 -13.478  -7.830  1.00  0.00     0.131 A 
ATOM     91  C   UNL     1       2.065 -14.195  -9.405  1.00  0.00     0.055 A 
ATOM     92  C   UNL     1      -0.303 -14.265  -8.964  1.00  0.00     0.041 A 
ATOM     93  F   UNL     1      -1.178 -13.116  -7.117  1.00  0.00    -0.206 F 
ATOM     94  C   UNL     1       0.780 -14.609  -9.769  1.00  0.00     0.022 A 
BRANCH  91  95
ATOM     95  S   UNL     1       3.425 -14.549 -10.554  1.00  0.00     0.124 S 
ATOM     96  O   UNL     1       3.397 -16.009 -10.615  1.00  0.00    -0.237 OA
ATOM     97  O   UNL     1       2.987 -13.866 -11.768  1.00  0.00    -0.237 OA
ATOM     98  O   UNL     1       4.597 -13.979  -9.899  1.00  0.00    -0.744 OA
ENDBRANCH  91  95
ENDBRANCH  65  88
ENDBRANCH  39  40
ENDBRANCH  32  34
ENDBRANCH  31  32
ENDBRANCH  30  31
ENDBRANCH  29  30
ENDBRANCH  28  29
ENDBRANCH  27  28
ENDBRANCH  26  27
ENDBRANCH  25  26
ENDBRANCH   1  25
TORSDOF 25
