REMARK SMILES C#CCN(CC(=O)OCCOCCOCCOC(=O)c1ccc(-c2c3nc(c(-c4cc(S(=O)(=O)[O-])ccc4F)c4ccc([nH]4)c(-c4cc(S(=O)(=O)[O-])ccc4F)c4nc(c(-c5cc(S(=O)(=O)[O-])ccc5F)c5ccc2[nH]5)C=C4)C=C3)cc1)C(=O)N1CCC[C@@H]1C1CCCC1
REMARK SMILES IDX 12 1 11 2 10 3 9 4 8 5 6 6 7 7 5 8 4 9 3 10 2 11 1 12 83 13
REMARK SMILES IDX 84 14 85 15 86 16 89 17 87 18 88 19 90 20 91 21 94 22 92 23
REMARK SMILES IDX 93 24 13 25 14 26 15 27 16 28 17 29 18 30 19 31 20 32 21 33
REMARK SMILES IDX 82 34 22 35 81 36 23 37 24 38 25 39 75 40 26 41 80 42 74 43
REMARK SMILES IDX 76 44 27 45 79 46 73 47 72 48 28 50 60 51 40 52 59 53 41 54
REMARK SMILES IDX 44 55 58 56 77 57 42 58 43 59 57 61 78 62 45 63 29 64 30 65
REMARK SMILES IDX 38 66 31 67 37 68 39 69 36 70 32 71 33 72 34 73 35 74 61 75
REMARK SMILES IDX 62 76 70 77 63 78 69 79 71 80 68 81 64 82 65 83 66 84 67 85
REMARK SMILES IDX 46 86 47 87 55 88 48 89 54 90 56 91 53 92 49 93 50 94 51 95
REMARK SMILES IDX 52 96
REMARK H PARENT 76 49 44 60
REMARK Flexibility Score: inf
ROOT
ATOM      1  C   UNL     1      -5.877  -1.433  -3.826  1.00  0.00     0.188 C 
ENDROOT
BRANCH   1   2
ATOM      2  O   UNL     1      -7.217  -1.230  -3.373  1.00  0.00    -0.376 OA
BRANCH   2   3
ATOM      3  C   UNL     1      -7.375  -0.484  -2.168  1.00  0.00     0.202 C 
BRANCH   3   4
ATOM      4  C   UNL     1      -6.860  -1.204  -0.920  1.00  0.00     0.261 C 
BRANCH   4   5
ATOM      5  O   UNL     1      -5.418  -1.171  -0.821  1.00  0.00    -0.462 OA
BRANCH   5   6
ATOM      6  C   UNL     1      -4.919  -2.006   0.133  1.00  0.00     0.325 C 
ATOM      7  O   UNL     1      -5.626  -2.698   0.863  1.00  0.00    -0.250 OA
BRANCH   6   8
ATOM      8  C   UNL     1      -3.386  -2.025   0.252  1.00  0.00     0.245 C 
BRANCH   8   9
ATOM      9  N   UNL     1      -2.571  -1.172  -0.622  1.00  0.00    -0.302 N 
BRANCH   9  10
ATOM     10  C   UNL     1      -1.908  -0.053  -0.013  1.00  0.00     0.211 C 
BRANCH  10  11
ATOM     11  C   UNL     1      -0.388  -0.053  -0.013  1.00  0.00    -0.085 C 
ATOM     12  C   UNL     1       0.916  -0.053  -0.013  1.00  0.00     0.006 C 
ENDBRANCH  10  11
ENDBRANCH   9  10
BRANCH   9  13
ATOM     13  C   UNL     1      -2.333  -1.271  -1.960  1.00  0.00     0.321 C 
ATOM     14  O   UNL     1      -1.915  -0.288  -2.585  1.00  0.00    -0.248 OA
BRANCH  13  15
ATOM     15  N   UNL     1      -2.444  -2.466  -2.595  1.00  0.00    -0.321 N 
ATOM     16  C   UNL     1      -3.062  -3.717  -2.206  1.00  0.00     0.122 C 
ATOM     17  C   UNL     1      -1.602  -2.653  -3.771  1.00  0.00     0.090 C 
ATOM     18  C   UNL     1      -3.027  -4.602  -3.432  1.00  0.00     0.024 C 
ATOM     19  C   UNL     1      -2.311  -3.783  -4.492  1.00  0.00     0.027 C 
BRANCH  17  20
ATOM     20  C   UNL     1      -0.128  -2.876  -3.328  1.00  0.00     0.012 C 
ATOM     21  C   UNL     1       0.261  -4.298  -2.911  1.00  0.00     0.006 C 
ATOM     22  C   UNL     1       0.946  -2.442  -4.342  1.00  0.00     0.006 C 
ATOM     23  C   UNL     1       1.764  -4.342  -3.132  1.00  0.00     0.000 C 
ATOM     24  C   UNL     1       1.921  -3.609  -4.453  1.00  0.00     0.000 C 
ENDBRANCH  17  20
ENDBRANCH  13  15
ENDBRANCH   9  13
ENDBRANCH   8   9
ENDBRANCH   6   8
ENDBRANCH   5   6
ENDBRANCH   4   5
ENDBRANCH   3   4
ENDBRANCH   2   3
ENDBRANCH   1   2
BRANCH   1  25
ATOM     25  C   UNL     1      -4.979  -0.194  -3.859  1.00  0.00     0.188 C 
BRANCH  25  26
ATOM     26  O   UNL     1      -5.652   0.887  -4.505  1.00  0.00    -0.376 OA
BRANCH  26  27
ATOM     27  C   UNL     1      -4.847   1.545  -5.483  1.00  0.00     0.202 C 
BRANCH  27  28
ATOM     28  C   UNL     1      -5.073   0.919  -6.860  1.00  0.00     0.261 C 
BRANCH  28  29
ATOM     29  O   UNL     1      -4.445  -0.370  -7.012  1.00  0.00    -0.460 OA
BRANCH  29  30
ATOM     30  C   UNL     1      -3.195  -0.342  -7.542  1.00  0.00     0.338 C 
ATOM     31  O   UNL     1      -2.541   0.648  -7.791  1.00  0.00    -0.246 OA
BRANCH  30  32
ATOM     32  C   UNL     1      -2.693  -1.730  -7.703  1.00  0.00     0.060 A 
ATOM     33  C   UNL     1      -1.390  -1.992  -7.296  1.00  0.00     0.016 A 
ATOM     34  C   UNL     1      -3.466  -2.765  -8.246  1.00  0.00     0.016 A 
ATOM     35  C   UNL     1      -0.896  -3.299  -7.351  1.00  0.00     0.010 A 
ATOM     36  C   UNL     1      -2.944  -4.071  -8.342  1.00  0.00     0.010 A 
ATOM     37  C   UNL     1      -1.658  -4.364  -7.865  1.00  0.00    -0.014 A 
BRANCH  37  38
ATOM     38  C   UNL     1      -1.044  -5.733  -7.915  1.00  0.00     0.031 A 
ATOM     39  C   UNL     1       0.244  -5.923  -8.681  1.00  0.00     0.074 A 
ATOM     40  C   UNL     1      -1.518  -6.767  -7.181  1.00  0.00     0.049 A 
ATOM     41  N   UNL     1       1.010  -6.981  -8.769  1.00  0.00    -0.248 NA
ATOM     42  C   UNL     1       0.760  -4.749  -9.403  1.00  0.00     0.031 C 
ATOM     43  C   UNL     1      -2.664  -6.709  -6.277  1.00  0.00     0.029 A 
ATOM     44  N   UNL     1      -1.069  -8.065  -7.044  1.00  0.00    -0.354 N 
ATOM     45  C   UNL     1       2.112  -6.585  -9.517  1.00  0.00     0.074 A 
ATOM     46  C   UNL     1       1.937  -5.182  -9.820  1.00  0.00     0.031 C 
ATOM     47  C   UNL     1      -2.801  -7.891  -5.650  1.00  0.00     0.029 A 
ATOM     48  C   UNL     1      -1.819  -8.836  -6.176  1.00  0.00     0.049 A 
ATOM     49  H   UNL     1      -0.282  -8.412  -7.523  1.00  0.00     0.167 HD
ATOM     50  C   UNL     1       3.151  -7.325  -9.974  1.00  0.00     0.034 A 
ATOM     51  C   UNL     1      -1.757 -10.156  -5.880  1.00  0.00     0.034 A 
ATOM     52  C   UNL     1       3.239  -8.753  -9.838  1.00  0.00     0.049 A 
ATOM     53  C   UNL     1      -0.724 -11.005  -6.595  1.00  0.00     0.074 A 
ATOM     54  C   UNL     1       4.132  -9.623 -10.436  1.00  0.00     0.029 A 
ATOM     55  N   UNL     1       2.365  -9.529  -9.090  1.00  0.00    -0.354 N 
ATOM     56  N   UNL     1       0.269 -10.625  -7.366  1.00  0.00    -0.248 NA
ATOM     57  C   UNL     1      -0.828 -12.464  -6.435  1.00  0.00     0.031 C 
ATOM     58  C   UNL     1       3.746 -10.931 -10.117  1.00  0.00     0.029 A 
ATOM     59  C   UNL     1       2.664 -10.872  -9.254  1.00  0.00     0.049 A 
ATOM     60  H   UNL     1       1.639  -9.178  -8.526  1.00  0.00     0.167 HD
ATOM     61  C   UNL     1       0.902 -11.797  -7.778  1.00  0.00     0.074 A 
ATOM     62  C   UNL     1       0.208 -12.893  -7.139  1.00  0.00     0.031 C 
ATOM     63  C   UNL     1       1.953 -11.957  -8.622  1.00  0.00     0.034 A 
BRANCH  50  64
ATOM     64  C   UNL     1       4.151  -6.594 -10.828  1.00  0.00     0.023 A 
ATOM     65  C   UNL     1       5.045  -5.658 -10.281  1.00  0.00     0.031 A 
ATOM     66  C   UNL     1       4.107  -6.739 -12.226  1.00  0.00     0.131 A 
ATOM     67  C   UNL     1       5.812  -4.853 -11.136  1.00  0.00     0.055 A 
ATOM     68  C   UNL     1       4.919  -5.980 -13.067  1.00  0.00     0.041 A 
ATOM     69  F   UNL     1       3.236  -7.587 -12.796  1.00  0.00    -0.206 F 
ATOM     70  C   UNL     1       5.768  -5.020 -12.524  1.00  0.00     0.022 A 
BRANCH  67  71
ATOM     71  S   UNL     1       6.755  -3.475 -10.425  1.00  0.00     0.124 S 
ATOM     72  O   UNL     1       5.692  -2.670  -9.826  1.00  0.00    -0.237 OA
ATOM     73  O   UNL     1       7.648  -4.151  -9.492  1.00  0.00    -0.237 OA
ATOM     74  O   UNL     1       7.406  -2.871 -11.585  1.00  0.00    -0.744 OA
ENDBRANCH  67  71
ENDBRANCH  50  64
BRANCH  51  75
ATOM     75  C   UNL     1      -2.768 -10.820  -4.985  1.00  0.00     0.023 A 
ATOM     76  C   UNL     1      -2.381 -11.620  -3.892  1.00  0.00     0.031 A 
ATOM     77  C   UNL     1      -4.141 -10.781  -5.298  1.00  0.00     0.131 A 
ATOM     78  C   UNL     1      -3.340 -12.386  -3.200  1.00  0.00     0.055 A 
ATOM     79  C   UNL     1      -5.097 -11.485  -4.562  1.00  0.00     0.041 A 
ATOM     80  F   UNL     1      -4.581 -10.069  -6.347  1.00  0.00    -0.206 F 
ATOM     81  C   UNL     1      -4.696 -12.309  -3.517  1.00  0.00     0.022 A 
BRANCH  78  82
ATOM     82  S   UNL     1      -2.779 -13.599  -1.968  1.00  0.00     0.124 S 
ATOM     83  O   UNL     1      -1.855 -14.412  -2.751  1.00  0.00    -0.237 OA
ATOM     84  O   UNL     1      -2.179 -12.742  -0.951  1.00  0.00    -0.237 OA
ATOM     85  O   UNL     1      -4.013 -14.271  -1.565  1.00  0.00    -0.744 OA
ENDBRANCH  78  82
ENDBRANCH  51  75
BRANCH  63  86
ATOM     86  C   UNL     1       2.420 -13.365  -8.896  1.00  0.00     0.023 A 
ATOM     87  C   UNL     1       1.630 -14.277  -9.619  1.00  0.00     0.031 A 
ATOM     88  C   UNL     1       3.684 -13.791  -8.451  1.00  0.00     0.131 A 
ATOM     89  C   UNL     1       2.096 -15.581  -9.844  1.00  0.00     0.055 A 
ATOM     90  C   UNL     1       4.164 -15.073  -8.723  1.00  0.00     0.041 A 
ATOM     91  F   UNL     1       4.480 -12.961  -7.758  1.00  0.00    -0.206 F 
ATOM     92  C   UNL     1       3.365 -15.979  -9.415  1.00  0.00     0.022 A 
BRANCH  89  93
ATOM     93  S   UNL     1       0.998 -16.774 -10.657  1.00  0.00     0.124 S 
ATOM     94  O   UNL     1      -0.138 -16.816  -9.742  1.00  0.00    -0.237 OA
ATOM     95  O   UNL     1       0.752 -16.144 -11.950  1.00  0.00    -0.237 OA
ATOM     96  O   UNL     1       1.798 -17.997 -10.708  1.00  0.00    -0.744 OA
ENDBRANCH  89  93
ENDBRANCH  63  86
ENDBRANCH  37  38
ENDBRANCH  30  32
ENDBRANCH  29  30
ENDBRANCH  28  29
ENDBRANCH  27  28
ENDBRANCH  26  27
ENDBRANCH  25  26
ENDBRANCH   1  25
TORSDOF 26
