REMARK SMILES O=C(OCCOCCOCCOC(=O)c1cccnc1Nc1cccc(C(F)(F)F)c1)c1ccc(-c2c3nc(c(-c4cc(S(=O)(=O)[O-])ccc4F)c4ccc([nH]4)c(-c4cc(S(=O)(=O)[O-])ccc4F)c4nc(c(-c5cc(S(=O)(=O)[O-])ccc5F)c5ccc2[nH]5)C=C4)C=C3)cc1
REMARK SMILES IDX 7 1 6 2 5 3 4 4 3 5 2 6 1 7 32 8 33 9 94 10 34 11 93 12
REMARK SMILES IDX 35 13 36 14 37 15 87 16 38 17 92 18 86 19 88 20 39 21 91 22
REMARK SMILES IDX 85 23 84 24 40 26 72 27 52 28 71 29 53 30 56 31 70 32 89 33
REMARK SMILES IDX 54 34 55 35 69 37 90 38 57 39 41 40 42 41 50 42 43 43 49 44
REMARK SMILES IDX 51 45 48 46 44 47 45 48 46 49 47 50 73 51 74 52 82 53 75 54
REMARK SMILES IDX 81 55 83 56 80 57 76 58 77 59 78 60 79 61 58 62 59 63 67 64
REMARK SMILES IDX 60 65 66 66 68 67 65 68 61 69 62 70 63 71 64 72 8 73 9 74
REMARK SMILES IDX 10 75 11 76 12 77 13 78 14 79 15 80 16 81 20 82 17 83 19 84
REMARK SMILES IDX 18 85 21 86 22 88 23 89 31 90 24 91 26 92 25 93 27 94 28 95
REMARK SMILES IDX 29 96 30 97
REMARK H PARENT 88 25 56 36 21 87
REMARK Flexibility Score: inf
ROOT
ATOM      1  C   UNL     1       3.284  -2.025  -0.409  1.00  0.00     0.188 C 
ENDROOT
BRANCH   1   2
ATOM      2  O   UNL     1       4.150  -2.428   0.664  1.00  0.00    -0.376 OA
BRANCH   2   3
ATOM      3  C   UNL     1       5.268  -1.550   0.842  1.00  0.00     0.202 C 
BRANCH   3   4
ATOM      4  C   UNL     1       4.950  -0.308   1.693  1.00  0.00     0.261 C 
BRANCH   4   5
ATOM      5  O   UNL     1       3.607   0.141   1.440  1.00  0.00    -0.460 OA
BRANCH   5   6
ATOM      6  C   UNL     1       3.306   1.434   1.204  1.00  0.00     0.338 C 
ATOM      7  O   UNL     1       2.569   2.060   1.954  1.00  0.00    -0.246 OA
BRANCH   6   8
ATOM      8  C   UNL     1       3.618   1.930  -0.171  1.00  0.00     0.060 A 
ATOM      9  C   UNL     1       4.654   1.436  -0.968  1.00  0.00     0.016 A 
ATOM     10  C   UNL     1       2.834   2.981  -0.667  1.00  0.00     0.016 A 
ATOM     11  C   UNL     1       4.973   2.034  -2.187  1.00  0.00     0.010 A 
ATOM     12  C   UNL     1       3.126   3.566  -1.901  1.00  0.00     0.010 A 
ATOM     13  C   UNL     1       4.245   3.138  -2.629  1.00  0.00    -0.014 A 
BRANCH  13  14
ATOM     14  C   UNL     1       4.836   4.026  -3.655  1.00  0.00     0.031 A 
ATOM     15  C   UNL     1       5.483   5.295  -3.177  1.00  0.00     0.074 A 
ATOM     16  C   UNL     1       4.875   3.691  -4.954  1.00  0.00     0.049 A 
ATOM     17  N   UNL     1       5.954   6.303  -3.860  1.00  0.00    -0.248 NA
ATOM     18  C   UNL     1       5.613   5.437  -1.718  1.00  0.00     0.031 C 
ATOM     19  C   UNL     1       4.404   2.427  -5.510  1.00  0.00     0.029 A 
ATOM     20  N   UNL     1       5.329   4.394  -6.040  1.00  0.00    -0.354 N 
ATOM     21  C   UNL     1       6.418   7.208  -2.912  1.00  0.00     0.074 A 
ATOM     22  C   UNL     1       6.125   6.649  -1.611  1.00  0.00     0.031 C 
ATOM     23  C   UNL     1       4.564   2.459  -6.844  1.00  0.00     0.029 A 
ATOM     24  C   UNL     1       5.076   3.766  -7.235  1.00  0.00     0.049 A 
ATOM     25  H   UNL     1       5.790   5.261  -5.971  1.00  0.00     0.167 HD
ATOM     26  C   UNL     1       7.045   8.393  -3.110  1.00  0.00     0.034 A 
ATOM     27  C   UNL     1       5.185   4.218  -8.500  1.00  0.00     0.034 A 
ATOM     28  C   UNL     1       7.304   8.933  -4.419  1.00  0.00     0.049 A 
ATOM     29  C   UNL     1       5.745   5.599  -8.718  1.00  0.00     0.074 A 
ATOM     30  C   UNL     1       7.883  10.139  -4.764  1.00  0.00     0.029 A 
ATOM     31  N   UNL     1       6.981   8.289  -5.610  1.00  0.00    -0.354 N 
ATOM     32  N   UNL     1       6.136   6.476  -7.822  1.00  0.00    -0.248 NA
ATOM     33  C   UNL     1       5.894   6.047 -10.107  1.00  0.00     0.031 C 
ATOM     34  C   UNL     1       7.859  10.248  -6.161  1.00  0.00     0.029 A 
ATOM     35  C   UNL     1       7.327   9.082  -6.690  1.00  0.00     0.049 A 
ATOM     36  H   UNL     1       6.565   7.399  -5.675  1.00  0.00     0.167 HD
ATOM     37  C   UNL     1       6.614   7.567  -8.539  1.00  0.00     0.074 A 
ATOM     38  C   UNL     1       6.450   7.240  -9.943  1.00  0.00     0.031 C 
ATOM     39  C   UNL     1       7.156   8.724  -8.080  1.00  0.00     0.034 A 
BRANCH  26  40
ATOM     40  C   UNL     1       7.391   9.181  -1.870  1.00  0.00     0.023 A 
ATOM     41  C   UNL     1       8.271   8.669  -0.897  1.00  0.00     0.031 A 
ATOM     42  C   UNL     1       6.717  10.380  -1.582  1.00  0.00     0.131 A 
ATOM     43  C   UNL     1       8.349   9.280   0.363  1.00  0.00     0.055 A 
ATOM     44  C   UNL     1       6.879  11.038  -0.361  1.00  0.00     0.041 A 
ATOM     45  F   UNL     1       5.848  10.903  -2.460  1.00  0.00    -0.206 F 
ATOM     46  C   UNL     1       7.676  10.473   0.631  1.00  0.00     0.022 A 
BRANCH  43  47
ATOM     47  S   UNL     1       9.153   8.367   1.712  1.00  0.00     0.124 S 
ATOM     48  O   UNL     1       8.396   7.116   1.717  1.00  0.00    -0.237 OA
ATOM     49  O   UNL     1      10.533   8.275   1.252  1.00  0.00    -0.237 OA
ATOM     50  O   UNL     1       8.937   9.219   2.880  1.00  0.00    -0.744 OA
ENDBRANCH  43  47
ENDBRANCH  26  40
BRANCH  27  51
ATOM     51  C   UNL     1       4.677   3.388  -9.629  1.00  0.00     0.023 A 
ATOM     52  C   UNL     1       5.539   2.827 -10.583  1.00  0.00     0.031 A 
ATOM     53  C   UNL     1       3.297   3.133  -9.756  1.00  0.00     0.131 A 
ATOM     54  C   UNL     1       5.010   2.055 -11.632  1.00  0.00     0.055 A 
ATOM     55  C   UNL     1       2.780   2.341 -10.782  1.00  0.00     0.041 A 
ATOM     56  F   UNL     1       2.430   3.626  -8.857  1.00  0.00    -0.206 F 
ATOM     57  C   UNL     1       3.639   1.802 -11.732  1.00  0.00     0.022 A 
BRANCH  54  58
ATOM     58  S   UNL     1       6.141   1.394 -12.887  1.00  0.00     0.124 S 
ATOM     59  O   UNL     1       6.729   2.613 -13.430  1.00  0.00    -0.237 OA
ATOM     60  O   UNL     1       7.024   0.556 -12.082  1.00  0.00    -0.237 OA
ATOM     61  O   UNL     1       5.256   0.668 -13.794  1.00  0.00    -0.744 OA
ENDBRANCH  54  58
ENDBRANCH  27  51
BRANCH  39  62
ATOM     62  C   UNL     1       7.679   9.689  -9.109  1.00  0.00     0.023 A 
ATOM     63  C   UNL     1       6.820  10.456  -9.912  1.00  0.00     0.031 A 
ATOM     64  C   UNL     1       9.067   9.865  -9.252  1.00  0.00     0.131 A 
ATOM     65  C   UNL     1       7.362  11.349 -10.847  1.00  0.00     0.055 A 
ATOM     66  C   UNL     1       9.598  10.788 -10.152  1.00  0.00     0.041 A 
ATOM     67  F   UNL     1       9.926   9.153  -8.505  1.00  0.00    -0.206 F 
ATOM     68  C   UNL     1       8.744  11.533 -10.960  1.00  0.00     0.022 A 
BRANCH  65  69
ATOM     69  S   UNL     1       6.236  12.248 -11.949  1.00  0.00     0.124 S 
ATOM     70  O   UNL     1       5.635  11.161 -12.716  1.00  0.00    -0.237 OA
ATOM     71  O   UNL     1       5.353  12.930 -11.009  1.00  0.00    -0.237 OA
ATOM     72  O   UNL     1       7.127  13.124 -12.707  1.00  0.00    -0.744 OA
ENDBRANCH  65  69
ENDBRANCH  39  62
ENDBRANCH  13  14
ENDBRANCH   6   8
ENDBRANCH   5   6
ENDBRANCH   4   5
ENDBRANCH   3   4
ENDBRANCH   2   3
ENDBRANCH   1   2
BRANCH   1  73
ATOM     73  C   UNL     1       2.293  -3.137  -0.753  1.00  0.00     0.188 C 
BRANCH  73  74
ATOM     74  O   UNL     1       2.801  -4.365  -1.273  1.00  0.00    -0.376 OA
BRANCH  74  75
ATOM     75  C   UNL     1       4.097  -4.362  -1.851  1.00  0.00     0.202 C 
BRANCH  75  76
ATOM     76  C   UNL     1       4.186  -3.934  -3.319  1.00  0.00     0.261 C 
BRANCH  76  77
ATOM     77  O   UNL     1       3.634  -2.647  -3.642  1.00  0.00    -0.460 OA
BRANCH  77  78
ATOM     78  C   UNL     1       2.379  -2.680  -4.150  1.00  0.00     0.341 C 
ATOM     79  O   UNL     1       1.581  -3.606  -4.103  1.00  0.00    -0.246 OA
BRANCH  78  80
ATOM     80  C   UNL     1       2.098  -1.454  -4.895  1.00  0.00     0.102 A 
ATOM     81  C   UNL     1       2.639  -1.337  -6.181  1.00  0.00     0.021 A 
ATOM     82  C   UNL     1       1.204  -0.492  -4.419  1.00  0.00     0.144 A 
ATOM     83  C   UNL     1       2.284  -0.248  -6.965  1.00  0.00     0.021 A 
ATOM     84  N   UNL     1       0.901   0.590  -5.178  1.00  0.00    -0.238 NA
ATOM     85  C   UNL     1       1.429   0.691  -6.419  1.00  0.00     0.113 A 
BRANCH  82  86
ATOM     86  N   UNL     1       0.670  -0.574  -3.114  1.00  0.00    -0.340 N 
ATOM     87  H   UNL     1       0.923  -1.359  -2.577  1.00  0.00     0.168 HD
BRANCH  86  88
ATOM     88  C   UNL     1      -0.190   0.363  -2.508  1.00  0.00     0.040 A 
ATOM     89  C   UNL     1       0.089   0.819  -1.217  1.00  0.00     0.026 A 
ATOM     90  C   UNL     1      -1.396   0.747  -3.106  1.00  0.00     0.039 A 
ATOM     91  C   UNL     1      -0.762   1.718  -0.573  1.00  0.00     0.003 A 
ATOM     92  C   UNL     1      -2.284   1.622  -2.458  1.00  0.00     0.058 A 
ATOM     93  C   UNL     1      -1.942   2.122  -1.193  1.00  0.00     0.013 A 
BRANCH  92  94
ATOM     94  C   UNL     1      -3.594   2.006  -3.093  1.00  0.00     0.416 C 
ATOM     95  F   UNL     1      -4.660   1.672  -2.306  1.00  0.00    -0.166 F 
ATOM     96  F   UNL     1      -3.709   3.345  -3.314  1.00  0.00    -0.166 F 
ATOM     97  F   UNL     1      -3.829   1.404  -4.292  1.00  0.00    -0.166 F 
ENDBRANCH  92  94
ENDBRANCH  86  88
ENDBRANCH  82  86
ENDBRANCH  78  80
ENDBRANCH  77  78
ENDBRANCH  76  77
ENDBRANCH  75  76
ENDBRANCH  74  75
ENDBRANCH  73  74
ENDBRANCH   1  73
TORSDOF 23
