REMARK SMILES COc1ccc(N2C(=O)/C(=C/c3c(C(=O)OCCOCCOCCOC(=O)c4ccc(-c5c6nc(c(-c7cc(S(=O)(=O)[O-])ccc7F)c7ccc([nH]7)c(-c7cc(S(=O)(=O)[O-])ccc7F)c7nc(c(-c8cc(S(=O)(=O)[O-])ccc8F)c8ccc5[nH]8)C=C7)C=C6)cc4)[nH]c4cc(OC)ccc34)SC2=S)cc1
REMARK SMILES IDX 20 1 19 2 18 3 17 4 16 5 14 6 15 7 13 8 12 9 99 10 91 11
REMARK SMILES IDX 92 12 98 13 93 15 97 16 94 17 11 18 7 19 8 20 101 21 9 22
REMARK SMILES IDX 10 23 100 24 102 25 6 26 3 27 4 28 104 29 5 30 103 31 2 32
REMARK SMILES IDX 1 33 95 34 96 35 21 36 22 37 23 38 24 39 25 40 26 41 27 42
REMARK SMILES IDX 28 43 29 44 90 45 30 46 89 47 31 48 32 49 33 50 83 51 34 52
REMARK SMILES IDX 88 53 82 54 84 55 35 56 87 57 81 58 80 59 36 61 68 62 48 63
REMARK SMILES IDX 67 64 49 65 52 66 66 67 85 68 50 69 51 70 65 72 86 73 53 74
REMARK SMILES IDX 37 75 38 76 46 77 39 78 45 79 47 80 44 81 40 82 41 83 42 84
REMARK SMILES IDX 43 85 69 86 70 87 78 88 71 89 77 90 79 91 76 92 72 93 73 94
REMARK SMILES IDX 74 95 75 96 54 97 55 98 63 99 56 100 62 101 64 102 61 103
REMARK SMILES IDX 57 104 58 105 59 106 60 107
REMARK H PARENT 91 14 84 60 52 71
REMARK Flexibility Score: inf
ROOT
ATOM      1  C   UNL     1       3.653   4.736 -10.212  1.00  0.00     0.188 C 
ENDROOT
BRANCH   1   2
ATOM      2  O   UNL     1       4.495   3.614  -9.982  1.00  0.00    -0.376 OA
BRANCH   2   3
ATOM      3  C   UNL     1       4.801   3.279  -8.632  1.00  0.00     0.202 C 
BRANCH   3   4
ATOM      4  C   UNL     1       5.434   4.393  -7.799  1.00  0.00     0.261 C 
BRANCH   4   5
ATOM      5  O   UNL     1       4.505   5.473  -7.589  1.00  0.00    -0.459 OA
BRANCH   5   6
ATOM      6  C   UNL     1       5.062   6.713  -7.679  1.00  0.00     0.355 C 
ATOM      7  O   UNL     1       6.265   6.941  -7.679  1.00  0.00    -0.244 OA
BRANCH   6   8
ATOM      8  C   UNL     1       4.063   7.704  -8.010  1.00  0.00     0.133 A 
ATOM      9  C   UNL     1       2.765   7.996  -7.593  1.00  0.00     0.016 A 
ATOM     10  C   UNL     1       2.277   9.070  -8.425  1.00  0.00     0.008 A 
ATOM     11  N   UNL     1       4.348   8.569  -9.046  1.00  0.00    -0.348 N 
ATOM     12  C   UNL     1       3.246   9.298  -9.399  1.00  0.00     0.050 A 
ATOM     13  C   UNL     1       1.081   9.823  -8.507  1.00  0.00     0.015 A 
ATOM     14  H   UNL     1       5.229   8.651  -9.476  1.00  0.00     0.167 HD
ATOM     15  C   UNL     1       3.045  10.119 -10.512  1.00  0.00     0.073 A 
ATOM     16  C   UNL     1       0.880  10.700  -9.591  1.00  0.00     0.047 A 
ATOM     17  C   UNL     1       1.839  10.812 -10.594  1.00  0.00     0.120 A 
BRANCH   9  18
ATOM     18  C   UNL     1       1.959   7.242  -6.667  1.00  0.00     0.032 C 
ATOM     19  N   UNL     1       2.229   4.703  -4.142  1.00  0.00    -0.261 N 
ATOM     20  C   UNL     1       1.440   5.592  -4.889  1.00  0.00     0.270 C 
ATOM     21  C   UNL     1       3.580   5.052  -4.090  1.00  0.00     0.152 C 
ATOM     22  O   UNL     1       0.224   5.601  -5.036  1.00  0.00    -0.268 OA
ATOM     23  C   UNL     1       2.311   6.625  -5.529  1.00  0.00     0.081 C 
ATOM     24  S   UNL     1       3.793   6.697  -4.687  1.00  0.00    -0.054 SA
ATOM     25  S   UNL     1       4.944   4.163  -3.690  1.00  0.00    -0.051 S 
BRANCH  19  26
ATOM     26  C   UNL     1       1.650   3.537  -3.507  1.00  0.00     0.051 A 
ATOM     27  C   UNL     1       0.516   1.249  -2.220  1.00  0.00     0.119 A 
ATOM     28  C   UNL     1      -0.102   1.828  -3.326  1.00  0.00     0.048 A 
ATOM     29  C   UNL     1       1.704   1.800  -1.763  1.00  0.00     0.048 A 
ATOM     30  C   UNL     1       0.456   2.953  -3.960  1.00  0.00     0.030 A 
ATOM     31  C   UNL     1       2.240   2.939  -2.381  1.00  0.00     0.030 A 
BRANCH  27  32
ATOM     32  O   UNL     1      -0.121   0.170  -1.676  1.00  0.00    -0.497 OA
ATOM     33  C   UNL     1       0.333  -0.245  -0.391  1.00  0.00     0.278 C 
ENDBRANCH  27  32
ENDBRANCH  19  26
ENDBRANCH   9  18
BRANCH  17  34
ATOM     34  O   UNL     1       1.612  11.491 -11.760  1.00  0.00    -0.497 OA
ATOM     35  C   UNL     1       1.412  12.886 -11.567  1.00  0.00     0.278 C 
ENDBRANCH  17  34
ENDBRANCH   6   8
ENDBRANCH   5   6
ENDBRANCH   4   5
ENDBRANCH   3   4
ENDBRANCH   2   3
ENDBRANCH   1   2
BRANCH   1  36
ATOM     36  C   UNL     1       2.245   4.742  -9.587  1.00  0.00     0.188 C 
BRANCH  36  37
ATOM     37  O   UNL     1       1.907   3.569  -8.853  1.00  0.00    -0.376 OA
BRANCH  37  38
ATOM     38  C   UNL     1       0.809   2.836  -9.389  1.00  0.00     0.202 C 
BRANCH  38  39
ATOM     39  C   UNL     1       1.205   1.891 -10.529  1.00  0.00     0.261 C 
BRANCH  39  40
ATOM     40  O   UNL     1       1.857   2.529 -11.637  1.00  0.00    -0.460 OA
BRANCH  40  41
ATOM     41  C   UNL     1       1.120   3.378 -12.390  1.00  0.00     0.338 C 
ATOM     42  O   UNL     1      -0.060   3.639 -12.240  1.00  0.00    -0.246 OA
BRANCH  41  43
ATOM     43  C   UNL     1       2.048   4.093 -13.301  1.00  0.00     0.060 A 
ATOM     44  C   UNL     1       1.924   5.482 -13.444  1.00  0.00     0.016 A 
ATOM     45  C   UNL     1       3.093   3.413 -13.938  1.00  0.00     0.016 A 
ATOM     46  C   UNL     1       2.845   6.190 -14.224  1.00  0.00     0.010 A 
ATOM     47  C   UNL     1       3.995   4.117 -14.739  1.00  0.00     0.010 A 
ATOM     48  C   UNL     1       3.867   5.506 -14.901  1.00  0.00    -0.014 A 
BRANCH  48  49
ATOM     49  C   UNL     1       4.672   6.184 -15.949  1.00  0.00     0.031 A 
ATOM     50  C   UNL     1       4.097   6.250 -17.337  1.00  0.00     0.074 A 
ATOM     51  C   UNL     1       5.902   6.672 -15.701  1.00  0.00     0.049 A 
ATOM     52  N   UNL     1       4.635   6.694 -18.442  1.00  0.00    -0.248 NA
ATOM     53  C   UNL     1       2.728   5.733 -17.495  1.00  0.00     0.031 C 
ATOM     54  C   UNL     1       6.561   6.688 -14.397  1.00  0.00     0.029 A 
ATOM     55  N   UNL     1       6.826   7.229 -16.552  1.00  0.00    -0.354 N 
ATOM     56  C   UNL     1       3.667   6.524 -19.425  1.00  0.00     0.074 A 
ATOM     57  C   UNL     1       2.522   5.908 -18.790  1.00  0.00     0.031 C 
ATOM     58  C   UNL     1       7.796   7.205 -14.540  1.00  0.00     0.029 A 
ATOM     59  C   UNL     1       8.027   7.524 -15.949  1.00  0.00     0.049 A 
ATOM     60  H   UNL     1       6.645   7.401 -17.504  1.00  0.00     0.167 HD
ATOM     61  C   UNL     1       3.724   6.847 -20.739  1.00  0.00     0.034 A 
ATOM     62  C   UNL     1       9.187   7.965 -16.483  1.00  0.00     0.034 A 
ATOM     63  C   UNL     1       4.888   7.399 -21.381  1.00  0.00     0.049 A 
ATOM     64  C   UNL     1       9.267   8.214 -17.973  1.00  0.00     0.074 A 
ATOM     65  C   UNL     1       5.059   7.748 -22.709  1.00  0.00     0.029 A 
ATOM     66  N   UNL     1       6.093   7.657 -20.743  1.00  0.00    -0.354 N 
ATOM     67  N   UNL     1       8.335   8.071 -18.888  1.00  0.00    -0.248 NA
ATOM     68  C   UNL     1      10.557   8.681 -18.503  1.00  0.00     0.031 C 
ATOM     69  C   UNL     1       6.385   8.159 -22.886  1.00  0.00     0.029 A 
ATOM     70  C   UNL     1       7.022   8.130 -21.655  1.00  0.00     0.049 A 
ATOM     71  H   UNL     1       6.263   7.524 -19.782  1.00  0.00     0.167 HD
ATOM     72  C   UNL     1       8.919   8.462 -20.091  1.00  0.00     0.074 A 
ATOM     73  C   UNL     1      10.281   8.847 -19.788  1.00  0.00     0.031 C 
ATOM     74  C   UNL     1       8.377   8.508 -21.335  1.00  0.00     0.034 A 
BRANCH  61  75
ATOM     75  C   UNL     1       2.502   6.539 -21.564  1.00  0.00     0.023 A 
ATOM     76  C   UNL     1       1.286   7.211 -21.348  1.00  0.00     0.031 A 
ATOM     77  C   UNL     1       2.534   5.518 -22.528  1.00  0.00     0.131 A 
ATOM     78  C   UNL     1       0.133   6.803 -22.034  1.00  0.00     0.055 A 
ATOM     79  C   UNL     1       1.399   5.166 -23.260  1.00  0.00     0.041 A 
ATOM     80  F   UNL     1       3.662   4.826 -22.754  1.00  0.00    -0.206 F 
ATOM     81  C   UNL     1       0.185   5.800 -23.004  1.00  0.00     0.022 A 
BRANCH  78  82
ATOM     82  S   UNL     1      -1.464   7.506 -21.539  1.00  0.00     0.124 S 
ATOM     83  O   UNL     1      -1.543   7.105 -20.137  1.00  0.00    -0.237 OA
ATOM     84  O   UNL     1      -1.273   8.931 -21.786  1.00  0.00    -0.237 OA
ATOM     85  O   UNL     1      -2.420   6.843 -22.424  1.00  0.00    -0.744 OA
ENDBRANCH  78  82
ENDBRANCH  61  75
BRANCH  62  86
ATOM     86  C   UNL     1      10.398   8.148 -15.631  1.00  0.00     0.023 A 
ATOM     87  C   UNL     1      10.972   9.416 -15.445  1.00  0.00     0.031 A 
ATOM     88  C   UNL     1      11.047   7.040 -15.057  1.00  0.00     0.131 A 
ATOM     89  C   UNL     1      12.183   9.541 -14.744  1.00  0.00     0.055 A 
ATOM     90  C   UNL     1      12.226   7.175 -14.321  1.00  0.00     0.041 A 
ATOM     91  F   UNL     1      10.544   5.805 -15.210  1.00  0.00    -0.206 F 
ATOM     92  C   UNL     1      12.808   8.430 -14.172  1.00  0.00     0.022 A 
BRANCH  89  93
ATOM     93  S   UNL     1      12.979  11.169 -14.662  1.00  0.00     0.124 S 
ATOM     94  O   UNL     1      13.176  11.475 -16.075  1.00  0.00    -0.237 OA
ATOM     95  O   UNL     1      11.971  11.964 -13.968  1.00  0.00    -0.237 OA
ATOM     96  O   UNL     1      14.200  10.914 -13.902  1.00  0.00    -0.744 OA
ENDBRANCH  89  93
ENDBRANCH  62  86
BRANCH  74  97
ATOM     97  C   UNL     1       9.239   9.048 -22.448  1.00  0.00     0.023 A 
ATOM     98  C   UNL     1      10.327   8.325 -22.965  1.00  0.00     0.031 A 
ATOM     99  C   UNL     1       8.946  10.303 -23.012  1.00  0.00     0.131 A 
ATOM    100  C   UNL     1      11.104   8.878 -23.994  1.00  0.00     0.055 A 
ATOM    101  C   UNL     1       9.695  10.828 -24.065  1.00  0.00     0.041 A 
ATOM    102  F   UNL     1       7.915  11.032 -22.555  1.00  0.00    -0.206 F 
ATOM    103  C   UNL     1      10.786  10.118 -24.557  1.00  0.00     0.022 A 
BRANCH 100 104
ATOM    104  S   UNL     1      12.573   7.977 -24.564  1.00  0.00     0.124 S 
ATOM    105  O   UNL     1      13.388   7.929 -23.355  1.00  0.00    -0.237 OA
ATOM    106  O   UNL     1      12.010   6.705 -25.004  1.00  0.00    -0.237 OA
ATOM    107  O   UNL     1      13.100   8.822 -25.634  1.00  0.00    -0.744 OA
ENDBRANCH 100 104
ENDBRANCH  74  97
ENDBRANCH  48  49
ENDBRANCH  41  43
ENDBRANCH  40  41
ENDBRANCH  39  40
ENDBRANCH  38  39
ENDBRANCH  37  38
ENDBRANCH  36  37
ENDBRANCH   1  36
TORSDOF 24
