REMARK SMILES CC(C)C[C@@H](C(=O)OCCOCCOCCOC(=O)c1ccc(-c2c3nc(c(-c4cc(S(=O)(=O)[O-])ccc4F)c4ccc([nH]4)c(-c4cc(S(=O)(=O)[O-])ccc4F)c4nc(c(-c5cc(S(=O)(=O)[O-])ccc5F)c5ccc2[nH]5)C=C4)C=C3)cc1)[C@@H]1CCC[C@@H](C)C1
REMARK SMILES IDX 13 1 12 2 11 3 10 4 9 5 8 6 6 7 7 8 5 9 4 10 2 11 1 12 3 13
REMARK SMILES IDX 83 14 84 15 89 16 85 17 87 18 86 19 88 20 14 21 15 22 16 23
REMARK SMILES IDX 17 24 18 25 19 26 20 27 21 28 82 29 22 30 81 31 23 32 24 33
REMARK SMILES IDX 25 34 75 35 26 36 80 37 74 38 76 39 27 40 79 41 73 42 72 43
REMARK SMILES IDX 28 45 60 46 40 47 59 48 41 49 44 50 58 51 77 52 42 53 43 54
REMARK SMILES IDX 57 56 78 57 45 58 29 59 30 60 38 61 31 62 37 63 39 64 36 65
REMARK SMILES IDX 32 66 33 67 34 68 35 69 61 70 62 71 70 72 63 73 69 74 71 75
REMARK SMILES IDX 68 76 64 77 65 78 66 79 67 80 46 81 47 82 55 83 48 84 54 85
REMARK SMILES IDX 56 86 53 87 49 88 50 89 51 90 52 91
REMARK H PARENT 76 44 44 55
REMARK Flexibility Score: inf
ROOT
ATOM      1  C   UNL     1       0.770   4.425   5.082  1.00  0.00     0.188 C 
ENDROOT
BRANCH   1   2
ATOM      2  C   UNL     1       2.237   4.024   5.186  1.00  0.00     0.188 C 
BRANCH   2   3
ATOM      3  O   UNL     1       3.190   4.797   4.462  1.00  0.00    -0.376 OA
BRANCH   3   4
ATOM      4  C   UNL     1       2.747   5.548   3.342  1.00  0.00     0.202 C 
BRANCH   4   5
ATOM      5  C   UNL     1       2.555   4.758   2.046  1.00  0.00     0.261 C 
BRANCH   5   6
ATOM      6  O   UNL     1       1.300   4.045   1.916  1.00  0.00    -0.463 OA
BRANCH   6   7
ATOM      7  C   UNL     1       1.381   2.699   2.057  1.00  0.00     0.309 C 
ATOM      8  O   UNL     1       2.291   2.136   2.656  1.00  0.00    -0.252 OA
BRANCH   7   9
ATOM      9  C   UNL     1       0.386   1.914   1.210  1.00  0.00     0.102 C 
BRANCH   9  10
ATOM     10  C   UNL     1       0.848   1.921  -0.275  1.00  0.00     0.018 C 
BRANCH  10  11
ATOM     11  C   UNL     1       0.285   2.955  -1.268  1.00  0.00    -0.017 C 
ATOM     12  C   UNL     1       0.701   4.397  -0.983  1.00  0.00     0.007 C 
ATOM     13  C   UNL     1       0.772   2.595  -2.679  1.00  0.00     0.007 C 
ENDBRANCH  10  11
ENDBRANCH   9  10
BRANCH   9  14
ATOM     14  C   UNL     1      -1.157   1.908   1.433  1.00  0.00     0.003 C 
ATOM     15  C   UNL     1      -1.959   3.208   1.288  1.00  0.00     0.004 C 
ATOM     16  C   UNL     1      -1.620   1.075   2.653  1.00  0.00     0.007 C 
ATOM     17  C   UNL     1      -2.251   3.965   2.572  1.00  0.00     0.001 C 
ATOM     18  C   UNL     1      -1.968   1.865   3.916  1.00  0.00    -0.014 C 
ATOM     19  C   UNL     1      -2.865   3.064   3.628  1.00  0.00     0.003 C 
ATOM     20  C   UNL     1      -2.645   0.947   4.940  1.00  0.00     0.007 C 
ENDBRANCH   9  14
ENDBRANCH   7   9
ENDBRANCH   6   7
ENDBRANCH   5   6
ENDBRANCH   4   5
ENDBRANCH   3   4
ENDBRANCH   2   3
ENDBRANCH   1   2
BRANCH   1  21
ATOM     21  O   UNL     1       0.552   5.754   5.555  1.00  0.00    -0.376 OA
BRANCH  21  22
ATOM     22  C   UNL     1      -0.740   5.911   6.143  1.00  0.00     0.202 C 
BRANCH  22  23
ATOM     23  C   UNL     1      -0.627   5.776   7.665  1.00  0.00     0.261 C 
BRANCH  23  24
ATOM     24  O   UNL     1      -0.101   4.500   8.088  1.00  0.00    -0.460 OA
BRANCH  24  25
ATOM     25  C   UNL     1      -0.944   3.455   7.945  1.00  0.00     0.338 C 
ATOM     26  O   UNL     1      -2.093   3.502   7.524  1.00  0.00    -0.246 OA
BRANCH  25  27
ATOM     27  C   UNL     1      -0.214   2.202   8.206  1.00  0.00     0.060 A 
ATOM     28  C   UNL     1      -0.009   1.316   7.145  1.00  0.00     0.016 A 
ATOM     29  C   UNL     1       0.194   1.856   9.490  1.00  0.00     0.016 A 
ATOM     30  C   UNL     1       0.536   0.055   7.361  1.00  0.00     0.010 A 
ATOM     31  C   UNL     1       0.767   0.598   9.706  1.00  0.00     0.010 A 
ATOM     32  C   UNL     1       0.913  -0.324   8.649  1.00  0.00    -0.014 A 
BRANCH  32  33
ATOM     33  C   UNL     1       1.333  -1.720   8.930  1.00  0.00     0.031 A 
ATOM     34  C   UNL     1       0.443  -2.580   9.782  1.00  0.00     0.074 A 
ATOM     35  C   UNL     1       2.472  -2.228   8.425  1.00  0.00     0.049 A 
ATOM     36  N   UNL     1       0.706  -3.702  10.396  1.00  0.00    -0.248 NA
ATOM     37  C   UNL     1      -0.931  -2.092   9.973  1.00  0.00     0.031 C 
ATOM     38  C   UNL     1       3.365  -1.546   7.488  1.00  0.00     0.029 A 
ATOM     39  N   UNL     1       3.083  -3.437   8.650  1.00  0.00    -0.354 N 
ATOM     40  C   UNL     1      -0.450  -4.027  11.098  1.00  0.00     0.074 A 
ATOM     41  C   UNL     1      -1.413  -2.979  10.830  1.00  0.00     0.031 C 
ATOM     42  C   UNL     1       4.416  -2.341   7.230  1.00  0.00     0.029 A 
ATOM     43  C   UNL     1       4.316  -3.545   8.050  1.00  0.00     0.049 A 
ATOM     44  H   UNL     1       2.678  -4.156   9.187  1.00  0.00     0.167 HD
ATOM     45  C   UNL     1      -0.674  -5.098  11.900  1.00  0.00     0.034 A 
ATOM     46  C   UNL     1       5.283  -4.472   8.200  1.00  0.00     0.034 A 
ATOM     47  C   UNL     1       0.299  -6.138  12.127  1.00  0.00     0.049 A 
ATOM     48  C   UNL     1       5.055  -5.610   9.164  1.00  0.00     0.074 A 
ATOM     49  C   UNL     1       0.201  -7.256  12.938  1.00  0.00     0.029 A 
ATOM     50  N   UNL     1       1.555  -6.192  11.532  1.00  0.00    -0.354 N 
ATOM     51  N   UNL     1       4.008  -5.859   9.917  1.00  0.00    -0.248 NA
ATOM     52  C   UNL     1       6.146  -6.582   9.309  1.00  0.00     0.031 C 
ATOM     53  C   UNL     1       1.414  -7.953  12.874  1.00  0.00     0.029 A 
ATOM     54  C   UNL     1       2.245  -7.311  11.970  1.00  0.00     0.049 A 
ATOM     55  H   UNL     1       1.903  -5.531  10.891  1.00  0.00     0.167 HD
ATOM     56  C   UNL     1       4.310  -7.025  10.615  1.00  0.00     0.074 A 
ATOM     57  C   UNL     1       5.629  -7.438  10.178  1.00  0.00     0.031 C 
ATOM     58  C   UNL     1       3.567  -7.696  11.533  1.00  0.00     0.034 A 
BRANCH  45  59
ATOM     59  C   UNL     1      -1.987  -5.137  12.645  1.00  0.00     0.023 A 
ATOM     60  C   UNL     1      -3.222  -5.239  11.982  1.00  0.00     0.031 A 
ATOM     61  C   UNL     1      -2.002  -5.004  14.046  1.00  0.00     0.131 A 
ATOM     62  C   UNL     1      -4.418  -5.125  12.709  1.00  0.00     0.055 A 
ATOM     63  C   UNL     1      -3.194  -4.975  14.772  1.00  0.00     0.041 A 
ATOM     64  F   UNL     1      -0.855  -4.876  14.732  1.00  0.00    -0.206 F 
ATOM     65  C   UNL     1      -4.412  -5.018  14.102  1.00  0.00     0.022 A 
BRANCH  62  66
ATOM     66  S   UNL     1      -5.976  -4.957  11.795  1.00  0.00     0.124 S 
ATOM     67  O   UNL     1      -5.721  -3.763  10.992  1.00  0.00    -0.237 OA
ATOM     68  O   UNL     1      -6.051  -6.216  11.064  1.00  0.00    -0.237 OA
ATOM     69  O   UNL     1      -6.975  -4.787  12.849  1.00  0.00    -0.744 OA
ENDBRANCH  62  66
ENDBRANCH  45  59
BRANCH  46  70
ATOM     70  C   UNL     1       6.592  -4.311   7.505  1.00  0.00     0.023 A 
ATOM     71  C   UNL     1       7.026  -5.235   6.542  1.00  0.00     0.031 A 
ATOM     72  C   UNL     1       7.448  -3.240   7.825  1.00  0.00     0.131 A 
ATOM     73  C   UNL     1       8.293  -5.087   5.954  1.00  0.00     0.055 A 
ATOM     74  C   UNL     1       8.683  -3.069   7.200  1.00  0.00     0.041 A 
ATOM     75  F   UNL     1       7.084  -2.332   8.745  1.00  0.00    -0.206 F 
ATOM     76  C   UNL     1       9.117  -4.002   6.265  1.00  0.00     0.022 A 
BRANCH  73  77
ATOM     77  S   UNL     1       8.883  -6.376   4.822  1.00  0.00     0.124 S 
ATOM     78  O   UNL     1       8.869  -7.555   5.680  1.00  0.00    -0.237 OA
ATOM     79  O   UNL     1       7.876  -6.338   3.767  1.00  0.00    -0.237 OA
ATOM     80  O   UNL     1      10.210  -5.905   4.430  1.00  0.00    -0.744 OA
ENDBRANCH  73  77
ENDBRANCH  46  70
BRANCH  58  81
ATOM     81  C   UNL     1       4.156  -8.970  12.084  1.00  0.00     0.023 A 
ATOM     82  C   UNL     1       5.274  -8.960  12.936  1.00  0.00     0.031 A 
ATOM     83  C   UNL     1       3.597 -10.212  11.736  1.00  0.00     0.131 A 
ATOM     84  C   UNL     1       5.830 -10.173  13.371  1.00  0.00     0.055 A 
ATOM     85  C   UNL     1       4.121 -11.413  12.215  1.00  0.00     0.041 A 
ATOM     86  F   UNL     1       2.529 -10.277  10.925  1.00  0.00    -0.206 F 
ATOM     87  C   UNL     1       5.252 -11.399  13.027  1.00  0.00     0.022 A 
BRANCH  84  88
ATOM     88  S   UNL     1       7.372 -10.135  14.326  1.00  0.00     0.124 S 
ATOM     89  O   UNL     1       8.282  -9.459  13.406  1.00  0.00    -0.237 OA
ATOM     90  O   UNL     1       6.986  -9.379  15.512  1.00  0.00    -0.237 OA
ATOM     91  O   UNL     1       7.665 -11.548  14.561  1.00  0.00    -0.744 OA
ENDBRANCH  84  88
ENDBRANCH  58  81
ENDBRANCH  32  33
ENDBRANCH  25  27
ENDBRANCH  24  25
ENDBRANCH  23  24
ENDBRANCH  22  23
ENDBRANCH  21  22
ENDBRANCH   1  21
TORSDOF 23
