REMARK SMILES CCn1ncc(CNc2ccccc2C(=O)OCCOCCOCCOC(=O)c2ccc(-c3c4nc(c(-c5cc(S(=O)(=O)[O-])ccc5F)c5ccc([nH]5)c(-c5cc(S(=O)(=O)[O-])ccc5F)c5nc(c(-c6cc(S(=O)(=O)[O-])ccc6F)c6ccc3[nH]6)C=C5)C=C4)cc2)c1C
REMARK SMILES IDX 21 1 20 2 19 3 18 4 17 5 15 6 16 7 14 8 9 9 10 10 11 11
REMARK SMILES IDX 13 12 12 13 8 14 7 16 6 17 3 18 4 19 92 20 5 21 93 22 2 23
REMARK SMILES IDX 1 24 22 25 23 26 24 27 25 28 26 29 27 30 28 31 29 32 30 33
REMARK SMILES IDX 91 34 31 35 90 36 32 37 33 38 34 39 84 40 35 41 89 42 83 43
REMARK SMILES IDX 85 44 36 45 88 46 82 47 81 48 37 50 69 51 49 52 68 53 50 54
REMARK SMILES IDX 53 55 67 56 86 57 51 58 52 59 66 61 87 62 54 63 38 64 39 65
REMARK SMILES IDX 47 66 40 67 46 68 48 69 45 70 41 71 42 72 43 73 44 74 70 75
REMARK SMILES IDX 71 76 79 77 72 78 78 79 80 80 77 81 73 82 74 83 75 84 76 85
REMARK SMILES IDX 55 86 56 87 64 88 57 89 63 90 65 91 62 92 58 93 59 94 60 95
REMARK SMILES IDX 61 96
REMARK H PARENT 8 15 85 49 53 60
REMARK Flexibility Score: inf
ROOT
ATOM      1  C   UNL     1       5.382   4.548   8.131  1.00  0.00     0.188 C 
ENDROOT
BRANCH   1   2
ATOM      2  O   UNL     1       6.152   5.446   7.335  1.00  0.00    -0.376 OA
BRANCH   2   3
ATOM      3  C   UNL     1       5.967   5.421   5.920  1.00  0.00     0.202 C 
BRANCH   3   4
ATOM      4  C   UNL     1       5.998   4.051   5.225  1.00  0.00     0.261 C 
BRANCH   4   5
ATOM      5  O   UNL     1       5.010   3.163   5.771  1.00  0.00    -0.460 OA
BRANCH   5   6
ATOM      6  C   UNL     1       5.264   1.839   5.723  1.00  0.00     0.340 C 
ATOM      7  O   UNL     1       6.191   1.304   5.136  1.00  0.00    -0.246 OA
BRANCH   6   8
ATOM      8  C   UNL     1       4.370   1.125   6.672  1.00  0.00     0.083 A 
ATOM      9  C   UNL     1       2.960   1.182   6.706  1.00  0.00     0.049 A 
ATOM     10  C   UNL     1       2.327   0.436   7.730  1.00  0.00     0.026 A 
ATOM     11  C   UNL     1       3.034  -0.294   8.689  1.00  0.00     0.002 A 
ATOM     12  C   UNL     1       5.080   0.389   7.649  1.00  0.00     0.018 A 
ATOM     13  C   UNL     1       4.417  -0.309   8.655  1.00  0.00     0.001 A 
BRANCH   9  14
ATOM     14  N   UNL     1       2.097   1.848   5.861  1.00  0.00    -0.380 N 
ATOM     15  H   UNL     1       1.151   1.816   6.131  1.00  0.00     0.160 HD
BRANCH  14  16
ATOM     16  C   UNL     1       2.353   2.587   4.640  1.00  0.00     0.152 C 
BRANCH  16  17
ATOM     17  C   UNL     1       1.519   2.127   3.493  1.00  0.00     0.012 A 
ATOM     18  N   UNL     1       0.580   0.911   1.926  1.00  0.00    -0.270 N 
ATOM     19  N   UNL     1       0.089   2.151   1.720  1.00  0.00    -0.181 NA
ATOM     20  C   UNL     1       1.444   0.839   2.986  1.00  0.00     0.040 A 
ATOM     21  C   UNL     1       0.664   2.886   2.672  1.00  0.00     0.141 A 
ATOM     22  C   UNL     1       2.132  -0.392   3.456  1.00  0.00     0.067 C 
BRANCH  18  23
ATOM     23  C   UNL     1       0.185  -0.152   1.022  1.00  0.00     0.141 C 
ATOM     24  C   UNL     1       0.989  -0.121  -0.265  1.00  0.00     0.029 C 
ENDBRANCH  18  23
ENDBRANCH  16  17
ENDBRANCH  14  16
ENDBRANCH   9  14
ENDBRANCH   6   8
ENDBRANCH   5   6
ENDBRANCH   4   5
ENDBRANCH   3   4
ENDBRANCH   2   3
ENDBRANCH   1   2
BRANCH   1  25
ATOM     25  C   UNL     1       3.846   4.501   7.960  1.00  0.00     0.188 C 
BRANCH  25  26
ATOM     26  O   UNL     1       3.340   5.153   6.798  1.00  0.00    -0.376 OA
BRANCH  26  27
ATOM     27  C   UNL     1       2.348   6.146   7.037  1.00  0.00     0.202 C 
BRANCH  27  28
ATOM     28  C   UNL     1       2.920   7.473   7.531  1.00  0.00     0.261 C 
BRANCH  28  29
ATOM     29  O   UNL     1       3.762   7.349   8.670  1.00  0.00    -0.460 OA
BRANCH  29  30
ATOM     30  C   UNL     1       3.163   6.954   9.814  1.00  0.00     0.338 C 
ATOM     31  O   UNL     1       2.015   6.572   9.945  1.00  0.00    -0.246 OA
BRANCH  30  32
ATOM     32  C   UNL     1       4.143   7.061  10.902  1.00  0.00     0.060 A 
ATOM     33  C   UNL     1       3.818   6.482  12.133  1.00  0.00     0.016 A 
ATOM     34  C   UNL     1       5.248   7.909  10.750  1.00  0.00     0.016 A 
ATOM     35  C   UNL     1       4.477   6.923  13.263  1.00  0.00     0.010 A 
ATOM     36  C   UNL     1       5.892   8.359  11.876  1.00  0.00     0.010 A 
ATOM     37  C   UNL     1       5.433   7.929  13.123  1.00  0.00    -0.014 A 
BRANCH  37  38
ATOM     38  C   UNL     1       5.873   8.644  14.306  1.00  0.00     0.031 A 
ATOM     39  C   UNL     1       6.993   8.049  15.059  1.00  0.00     0.074 A 
ATOM     40  C   UNL     1       5.387   9.878  14.551  1.00  0.00     0.049 A 
ATOM     41  N   UNL     1       7.061   7.836  16.329  1.00  0.00    -0.248 NA
ATOM     42  C   UNL     1       8.159   7.564  14.305  1.00  0.00     0.031 C 
ATOM     43  C   UNL     1       4.470  10.641  13.695  1.00  0.00     0.029 A 
ATOM     44  N   UNL     1       5.731  10.774  15.519  1.00  0.00    -0.354 N 
ATOM     45  C   UNL     1       8.354   7.390  16.569  1.00  0.00     0.074 A 
ATOM     46  C   UNL     1       8.930   7.096  15.285  1.00  0.00     0.031 C 
ATOM     47  C   UNL     1       4.525  11.942  14.043  1.00  0.00     0.029 A 
ATOM     48  C   UNL     1       5.406  12.087  15.190  1.00  0.00     0.049 A 
ATOM     49  H   UNL     1       6.166  10.519  16.364  1.00  0.00     0.167 HD
ATOM     50  C   UNL     1       8.926   7.506  17.796  1.00  0.00     0.034 A 
ATOM     51  C   UNL     1       5.905  13.222  15.742  1.00  0.00     0.034 A 
ATOM     52  C   UNL     1       7.934   7.662  18.832  1.00  0.00     0.049 A 
ATOM     53  C   UNL     1       6.437  12.867  17.081  1.00  0.00     0.074 A 
ATOM     54  C   UNL     1       6.841   6.914  19.231  1.00  0.00     0.029 A 
ATOM     55  N   UNL     1       7.775   8.895  19.422  1.00  0.00    -0.354 N 
ATOM     56  N   UNL     1       5.690  12.477  18.077  1.00  0.00    -0.248 NA
ATOM     57  C   UNL     1       7.848  12.530  17.206  1.00  0.00     0.031 C 
ATOM     58  C   UNL     1       5.862   7.866  19.630  1.00  0.00     0.029 A 
ATOM     59  C   UNL     1       6.424   9.137  19.501  1.00  0.00     0.049 A 
ATOM     60  H   UNL     1       8.494   9.492  19.729  1.00  0.00     0.167 HD
ATOM     61  C   UNL     1       6.426  11.490  18.713  1.00  0.00     0.074 A 
ATOM     62  C   UNL     1       7.789  11.663  18.221  1.00  0.00     0.031 C 
ATOM     63  C   UNL     1       5.813  10.444  19.344  1.00  0.00     0.034 A 
BRANCH  50  64
ATOM     64  C   UNL     1      10.392   7.780  18.017  1.00  0.00     0.023 A 
ATOM     65  C   UNL     1      10.862   7.773  19.342  1.00  0.00     0.031 A 
ATOM     66  C   UNL     1      11.275   8.312  17.050  1.00  0.00     0.131 A 
ATOM     67  C   UNL     1      12.104   8.341  19.667  1.00  0.00     0.055 A 
ATOM     68  C   UNL     1      12.545   8.800  17.367  1.00  0.00     0.041 A 
ATOM     69  F   UNL     1      10.925   8.484  15.769  1.00  0.00    -0.206 F 
ATOM     70  C   UNL     1      12.956   8.844  18.687  1.00  0.00     0.022 A 
BRANCH  67  71
ATOM     71  S   UNL     1      12.496   8.595  21.417  1.00  0.00     0.124 S 
ATOM     72  O   UNL     1      11.287   9.256  21.898  1.00  0.00    -0.237 OA
ATOM     73  O   UNL     1      12.709   7.226  21.876  1.00  0.00    -0.237 OA
ATOM     74  O   UNL     1      13.691   9.434  21.376  1.00  0.00    -0.744 OA
ENDBRANCH  67  71
ENDBRANCH  50  64
BRANCH  51  75
ATOM     75  C   UNL     1       6.140  14.523  15.059  1.00  0.00     0.023 A 
ATOM     76  C   UNL     1       6.355  15.717  15.774  1.00  0.00     0.031 A 
ATOM     77  C   UNL     1       6.357  14.581  13.661  1.00  0.00     0.131 A 
ATOM     78  C   UNL     1       6.739  16.895  15.094  1.00  0.00     0.055 A 
ATOM     79  C   UNL     1       6.699  15.756  12.989  1.00  0.00     0.041 A 
ATOM     80  F   UNL     1       6.330  13.476  12.900  1.00  0.00    -0.206 F 
ATOM     81  C   UNL     1       6.898  16.921  13.707  1.00  0.00     0.022 A 
BRANCH  78  82
ATOM     82  S   UNL     1       7.180  18.391  16.032  1.00  0.00     0.124 S 
ATOM     83  O   UNL     1       5.873  18.919  16.406  1.00  0.00    -0.237 OA
ATOM     84  O   UNL     1       7.998  17.855  17.114  1.00  0.00    -0.237 OA
ATOM     85  O   UNL     1       7.915  19.196  15.056  1.00  0.00    -0.744 OA
ENDBRANCH  78  82
ENDBRANCH  51  75
BRANCH  63  86
ATOM     86  C   UNL     1       4.330  10.544  19.645  1.00  0.00     0.023 A 
ATOM     87  C   UNL     1       3.334  10.783  18.672  1.00  0.00     0.031 A 
ATOM     88  C   UNL     1       3.902  10.246  20.951  1.00  0.00     0.131 A 
ATOM     89  C   UNL     1       1.973  10.735  19.025  1.00  0.00     0.055 A 
ATOM     90  C   UNL     1       2.551  10.177  21.294  1.00  0.00     0.041 A 
ATOM     91  F   UNL     1       4.797   9.973  21.916  1.00  0.00    -0.206 F 
ATOM     92  C   UNL     1       1.580  10.428  20.332  1.00  0.00     0.022 A 
BRANCH  89  93
ATOM     93  S   UNL     1       0.686  11.078  17.784  1.00  0.00     0.124 S 
ATOM     94  O   UNL     1       1.153  12.298  17.135  1.00  0.00    -0.237 OA
ATOM     95  O   UNL     1       0.707   9.868  16.966  1.00  0.00    -0.237 OA
ATOM     96  O   UNL     1      -0.525  11.245  18.589  1.00  0.00    -0.744 OA
ENDBRANCH  89  93
ENDBRANCH  63  86
ENDBRANCH  37  38
ENDBRANCH  30  32
ENDBRANCH  29  30
ENDBRANCH  28  29
ENDBRANCH  27  28
ENDBRANCH  26  27
ENDBRANCH  25  26
ENDBRANCH   1  25
TORSDOF 24
