REMARK SMILES N#CCc1nc(-c2ccccc2)c(CC(=O)OCCOCCOCCOC(=O)c2ccc(-c3c4nc(c(-c5cc(S(=O)(=O)[O-])ccc5F)c5ccc([nH]5)c(-c5cc(S(=O)(=O)[O-])ccc5F)c5nc(c(-c6cc(S(=O)(=O)[O-])ccc6F)c6ccc3[nH]6)C=C5)C=C4)cc2)s1
REMARK SMILES IDX 21 1 20 2 19 3 18 4 17 5 15 6 16 7 14 8 13 9 4 10 5 11 92 12
REMARK SMILES IDX 6 13 3 14 2 15 1 16 7 17 8 18 12 19 9 20 11 21 10 22 22 23
REMARK SMILES IDX 23 24 24 25 25 26 26 27 27 28 28 29 29 30 30 31 91 32 31 33
REMARK SMILES IDX 90 34 32 35 33 36 34 37 84 38 35 39 89 40 83 41 85 42 36 43
REMARK SMILES IDX 88 44 82 45 81 46 37 48 69 49 49 50 68 51 50 52 53 53 67 54
REMARK SMILES IDX 86 55 51 56 52 57 66 59 87 60 54 61 38 62 39 63 47 64 40 65
REMARK SMILES IDX 46 66 48 67 45 68 41 69 42 70 43 71 44 72 70 73 71 74 79 75
REMARK SMILES IDX 72 76 78 77 80 78 77 79 73 80 74 81 75 82 76 83 55 84 56 85
REMARK SMILES IDX 64 86 57 87 63 88 65 89 62 90 58 91 59 92 60 93 61 94
REMARK H PARENT 85 47 53 58
REMARK Flexibility Score: inf
ROOT
ATOM      1  C   UNL     1       1.436   6.071  -0.708  1.00  0.00     0.188 C 
ENDROOT
BRANCH   1   2
ATOM      2  O   UNL     1       0.744   6.827  -1.701  1.00  0.00    -0.376 OA
BRANCH   2   3
ATOM      3  C   UNL     1       0.660   6.297  -3.022  1.00  0.00     0.202 C 
BRANCH   3   4
ATOM      4  C   UNL     1       1.997   6.176  -3.761  1.00  0.00     0.261 C 
BRANCH   4   5
ATOM      5  O   UNL     1       2.900   5.263  -3.102  1.00  0.00    -0.463 OA
BRANCH   5   6
ATOM      6  C   UNL     1       4.219   5.586  -3.124  1.00  0.00     0.311 C 
ATOM      7  O   UNL     1       4.690   6.451  -3.855  1.00  0.00    -0.252 OA
BRANCH   6   8
ATOM      8  C   UNL     1       5.022   4.931  -2.008  1.00  0.00     0.171 C 
BRANCH   8   9
ATOM      9  C   UNL     1       4.860   3.438  -1.837  1.00  0.00     0.044 A 
ATOM     10  C   UNL     1       4.341   1.196  -0.945  1.00  0.00     0.108 A 
ATOM     11  N   UNL     1       4.805   1.105  -2.183  1.00  0.00    -0.240 NA
ATOM     12  S   UNL     1       4.409   2.793  -0.304  1.00  0.00    -0.121 S 
ATOM     13  C   UNL     1       5.182   2.369  -2.663  1.00  0.00     0.085 A 
BRANCH  10  14
ATOM     14  C   UNL     1       3.836   0.053  -0.065  1.00  0.00     0.187 C 
BRANCH  14  15
ATOM     15  C   UNL     1       2.316   0.053  -0.065  1.00  0.00     0.069 C 
ATOM     16  N   UNL     1       1.055   0.053  -0.065  1.00  0.00    -0.198 NA
ENDBRANCH  14  15
ENDBRANCH  10  14
BRANCH  13  17
ATOM     17  C   UNL     1       5.888   2.556  -3.926  1.00  0.00     0.001 A 
ATOM     18  C   UNL     1       7.101   3.268  -3.949  1.00  0.00     0.010 A 
ATOM     19  C   UNL     1       5.358   2.090  -5.131  1.00  0.00     0.010 A 
ATOM     20  C   UNL     1       7.728   3.581  -5.155  1.00  0.00     0.001 A 
ATOM     21  C   UNL     1       5.997   2.390  -6.341  1.00  0.00     0.001 A 
ATOM     22  C   UNL     1       7.169   3.150  -6.354  1.00  0.00     0.000 A 
ENDBRANCH  13  17
ENDBRANCH   8   9
ENDBRANCH   6   8
ENDBRANCH   5   6
ENDBRANCH   4   5
ENDBRANCH   3   4
ENDBRANCH   2   3
ENDBRANCH   1   2
BRANCH   1  23
ATOM     23  C   UNL     1       1.369   4.550  -0.795  1.00  0.00     0.188 C 
BRANCH  23  24
ATOM     24  O   UNL     1       0.086   4.134  -1.239  1.00  0.00    -0.376 OA
BRANCH  24  25
ATOM     25  C   UNL     1      -0.266   2.846  -0.768  1.00  0.00     0.202 C 
BRANCH  25  26
ATOM     26  C   UNL     1      -1.050   2.999   0.534  1.00  0.00     0.261 C 
BRANCH  26  27
ATOM     27  O   UNL     1      -0.367   3.785   1.537  1.00  0.00    -0.460 OA
BRANCH  27  28
ATOM     28  C   UNL     1       0.637   3.175   2.196  1.00  0.00     0.338 C 
ATOM     29  O   UNL     1       1.008   2.012   2.070  1.00  0.00    -0.246 OA
BRANCH  28  30
ATOM     30  C   UNL     1       1.407   4.162   2.969  1.00  0.00     0.060 A 
ATOM     31  C   UNL     1       2.802   4.147   2.843  1.00  0.00     0.016 A 
ATOM     32  C   UNL     1       0.789   5.035   3.865  1.00  0.00     0.016 A 
ATOM     33  C   UNL     1       3.594   4.960   3.643  1.00  0.00     0.010 A 
ATOM     34  C   UNL     1       1.584   5.834   4.691  1.00  0.00     0.010 A 
ATOM     35  C   UNL     1       2.988   5.762   4.614  1.00  0.00    -0.014 A 
BRANCH  35  36
ATOM     36  C   UNL     1       3.828   6.310   5.704  1.00  0.00     0.031 A 
ATOM     37  C   UNL     1       3.890   5.547   6.998  1.00  0.00     0.074 A 
ATOM     38  C   UNL     1       4.559   7.423   5.529  1.00  0.00     0.049 A 
ATOM     39  N   UNL     1       4.510   5.838   8.111  1.00  0.00    -0.248 NA
ATOM     40  C   UNL     1       3.139   4.283   7.037  1.00  0.00     0.031 C 
ATOM     41  C   UNL     1       4.618   8.209   4.298  1.00  0.00     0.029 A 
ATOM     42  N   UNL     1       5.383   8.089   6.399  1.00  0.00    -0.354 N 
ATOM     43  C   UNL     1       4.210   4.801   8.990  1.00  0.00     0.074 A 
ATOM     44  C   UNL     1       3.321   3.900   8.289  1.00  0.00     0.031 C 
ATOM     45  C   UNL     1       5.418   9.270   4.501  1.00  0.00     0.029 A 
ATOM     46  C   UNL     1       5.894   9.256   5.883  1.00  0.00     0.049 A 
ATOM     47  H   UNL     1       5.588   7.764   7.305  1.00  0.00     0.167 HD
ATOM     48  C   UNL     1       4.643   4.617  10.262  1.00  0.00     0.034 A 
ATOM     49  C   UNL     1       6.630  10.217   6.475  1.00  0.00     0.034 A 
ATOM     50  C   UNL     1       5.515   5.542  10.945  1.00  0.00     0.049 A 
ATOM     51  C   UNL     1       7.046  10.036   7.913  1.00  0.00     0.074 A 
ATOM     52  C   UNL     1       6.025   5.463  12.228  1.00  0.00     0.029 A 
ATOM     53  N   UNL     1       5.994   6.729  10.401  1.00  0.00    -0.354 N 
ATOM     54  N   UNL     1       6.764   9.053   8.739  1.00  0.00    -0.248 NA
ATOM     55  C   UNL     1       7.893  11.084   8.493  1.00  0.00     0.031 C 
ATOM     56  C   UNL     1       6.747   6.635  12.485  1.00  0.00     0.029 A 
ATOM     57  C   UNL     1       6.764   7.407  11.334  1.00  0.00     0.049 A 
ATOM     58  H   UNL     1       5.812   7.043   9.486  1.00  0.00     0.167 HD
ATOM     59  C   UNL     1       7.419   9.355   9.931  1.00  0.00     0.074 A 
ATOM     60  C   UNL     1       8.123  10.603   9.706  1.00  0.00     0.031 C 
ATOM     61  C   UNL     1       7.444   8.664  11.101  1.00  0.00     0.034 A 
BRANCH  48  62
ATOM     62  C   UNL     1       4.109   3.409  10.998  1.00  0.00     0.023 A 
ATOM     63  C   UNL     1       4.342   2.098  10.542  1.00  0.00     0.031 A 
ATOM     64  C   UNL     1       3.277   3.573  12.119  1.00  0.00     0.131 A 
ATOM     65  C   UNL     1       3.668   1.019  11.134  1.00  0.00     0.055 A 
ATOM     66  C   UNL     1       2.685   2.485  12.764  1.00  0.00     0.041 A 
ATOM     67  F   UNL     1       2.994   4.798  12.588  1.00  0.00    -0.206 F 
ATOM     68  C   UNL     1       2.861   1.200  12.259  1.00  0.00     0.022 A 
BRANCH  65  69
ATOM     69  S   UNL     1       3.704  -0.590  10.293  1.00  0.00     0.124 S 
ATOM     70  O   UNL     1       3.208  -0.239   8.963  1.00  0.00    -0.237 OA
ATOM     71  O   UNL     1       5.113  -0.955  10.372  1.00  0.00    -0.237 OA
ATOM     72  O   UNL     1       2.797  -1.414  11.089  1.00  0.00    -0.744 OA
ENDBRANCH  65  69
ENDBRANCH  48  62
BRANCH  49  73
ATOM     73  C   UNL     1       6.970  11.457   5.722  1.00  0.00     0.023 A 
ATOM     74  C   UNL     1       8.293  11.770   5.377  1.00  0.00     0.031 A 
ATOM     75  C   UNL     1       5.957  12.358   5.344  1.00  0.00     0.131 A 
ATOM     76  C   UNL     1       8.572  12.967   4.697  1.00  0.00     0.055 A 
ATOM     77  C   UNL     1       6.234  13.524   4.629  1.00  0.00     0.041 A 
ATOM     78  F   UNL     1       4.675  12.103   5.649  1.00  0.00    -0.206 F 
ATOM     79  C   UNL     1       7.550  13.838   4.309  1.00  0.00     0.022 A 
BRANCH  76  80
ATOM     80  S   UNL     1      10.302  13.397   4.362  1.00  0.00     0.124 S 
ATOM     81  O   UNL     1      10.853  13.486   5.710  1.00  0.00    -0.237 OA
ATOM     82  O   UNL     1      10.747  12.262   3.561  1.00  0.00    -0.237 OA
ATOM     83  O   UNL     1      10.205  14.665   3.641  1.00  0.00    -0.744 OA
ENDBRANCH  76  80
ENDBRANCH  49  73
BRANCH  61  84
ATOM     84  C   UNL     1       8.298   9.227  12.213  1.00  0.00     0.023 A 
ATOM     85  C   UNL     1       8.000  10.454  12.831  1.00  0.00     0.031 A 
ATOM     86  C   UNL     1       9.440   8.530  12.648  1.00  0.00     0.131 A 
ATOM     87  C   UNL     1       8.867  10.976  13.803  1.00  0.00     0.055 A 
ATOM     88  C   UNL     1      10.261   9.022  13.663  1.00  0.00     0.041 A 
ATOM     89  F   UNL     1       9.777   7.355  12.092  1.00  0.00    -0.206 F 
ATOM     90  C   UNL     1       9.986  10.260  14.235  1.00  0.00     0.022 A 
BRANCH  87  91
ATOM     91  S   UNL     1       8.578  12.660  14.415  1.00  0.00     0.124 S 
ATOM     92  O   UNL     1       8.585  13.436  13.180  1.00  0.00    -0.237 OA
ATOM     93  O   UNL     1       7.286  12.531  15.082  1.00  0.00    -0.237 OA
ATOM     94  O   UNL     1       9.713  12.901  15.304  1.00  0.00    -0.744 OA
ENDBRANCH  87  91
ENDBRANCH  61  84
ENDBRANCH  35  36
ENDBRANCH  28  30
ENDBRANCH  27  28
ENDBRANCH  26  27
ENDBRANCH  25  26
ENDBRANCH  24  25
ENDBRANCH  23  24
ENDBRANCH   1  23
TORSDOF 24
