REMARK SMILES C[C@H]1[C@@H]([NH2+]C[C@H]2CC[C@@H](C(=O)OCCOCCOCCOC(=O)c3ccc(-c4c5nc(c(-c6cc(S(=O)(=O)[O-])ccc6F)c6ccc([nH]6)c(-c6cc(S(=O)(=O)[O-])ccc6F)c6nc(c(-c7cc(S(=O)(=O)[O-])ccc7F)c7ccc4[nH]7)C=C6)C=C5)cc3)CC2)CCC[C@@H]1C
REMARK SMILES IDX 16 1 15 2 14 3 13 4 12 5 10 6 11 7 9 8 6 9 7 10 88 11 8 12
REMARK SMILES IDX 87 13 5 14 4 15 3 18 1 19 2 20 92 21 89 22 91 23 93 24 90 25
REMARK SMILES IDX 17 26 18 27 19 28 20 29 21 30 22 31 23 32 24 33 25 34 86 35
REMARK SMILES IDX 26 36 85 37 27 38 28 39 29 40 79 41 30 42 84 43 78 44 80 45
REMARK SMILES IDX 31 46 83 47 77 48 76 49 32 51 64 52 44 53 63 54 45 55 48 56
REMARK SMILES IDX 62 57 81 58 46 59 47 60 61 62 82 63 49 64 33 65 34 66 42 67
REMARK SMILES IDX 35 68 41 69 43 70 40 71 36 72 37 73 38 74 39 75 65 76 66 77
REMARK SMILES IDX 74 78 67 79 73 80 75 81 72 82 68 83 69 84 70 85 71 86 50 87
REMARK SMILES IDX 51 88 59 89 52 90 58 91 60 92 57 93 53 94 54 95 55 96 56 97
REMARK H PARENT 4 16 4 17 80 50 48 61
REMARK Flexibility Score: inf
ROOT
ATOM      1  C   UNL     1       1.758   7.713   3.927  1.00  0.00     0.188 C 
ENDROOT
BRANCH   1   2
ATOM      2  O   UNL     1       3.174   7.730   4.017  1.00  0.00    -0.376 OA
BRANCH   2   3
ATOM      3  C   UNL     1       3.877   6.738   3.277  1.00  0.00     0.202 C 
BRANCH   3   4
ATOM      4  C   UNL     1       3.594   5.264   3.610  1.00  0.00     0.261 C 
BRANCH   4   5
ATOM      5  O   UNL     1       2.199   4.912   3.709  1.00  0.00    -0.463 OA
BRANCH   5   6
ATOM      6  C   UNL     1       1.778   4.524   4.946  1.00  0.00     0.309 C 
ATOM      7  O   UNL     1       2.521   4.390   5.914  1.00  0.00    -0.252 OA
BRANCH   6   8
ATOM      8  C   UNL     1       0.271   4.271   5.055  1.00  0.00     0.099 C 
ATOM      9  C   UNL     1      -2.004   2.497   4.202  1.00  0.00     0.044 C 
ATOM     10  C   UNL     1      -1.342   2.330   5.580  1.00  0.00     0.010 C 
ATOM     11  C   UNL     1      -1.972   3.989   3.844  1.00  0.00     0.010 C 
ATOM     12  C   UNL     1       0.098   2.847   5.607  1.00  0.00     0.016 C 
ATOM     13  C   UNL     1      -0.555   4.558   3.792  1.00  0.00     0.016 C 
BRANCH   9  14
ATOM     14  C   UNL     1      -1.309   1.576   3.173  1.00  0.00     0.264 C 
BRANCH  14  15
ATOM     15  N   UNL     1      -1.608   1.897   1.791  1.00  0.00    -0.343 N 
ATOM     16  H   UNL     1      -2.610   1.768   1.653  1.00  0.00     0.346 HD
ATOM     17  H   UNL     1      -1.280   2.853   1.660  1.00  0.00     0.346 HD
BRANCH  15  18
ATOM     18  C   UNL     1      -0.911   1.104   0.767  1.00  0.00     0.185 C 
ATOM     19  C   UNL     1       1.032  -0.091   2.031  1.00  0.00     0.014 C 
ATOM     20  C   UNL     1       0.631   0.868   0.903  1.00  0.00     0.047 C 
ATOM     21  C   UNL     1       1.400   2.214   0.915  1.00  0.00    -0.006 C 
ATOM     22  C   UNL     1      -1.144   1.840  -0.572  1.00  0.00     0.065 C 
ATOM     23  C   UNL     1       1.115   2.991  -0.382  1.00  0.00     0.004 C 
ATOM     24  C   UNL     1       2.908   2.052   1.115  1.00  0.00     0.008 C 
ATOM     25  C   UNL     1      -0.381   3.167  -0.646  1.00  0.00     0.006 C 
ENDBRANCH  15  18
ENDBRANCH  14  15
ENDBRANCH   9  14
ENDBRANCH   6   8
ENDBRANCH   5   6
ENDBRANCH   4   5
ENDBRANCH   3   4
ENDBRANCH   2   3
ENDBRANCH   1   2
BRANCH   1  26
ATOM     26  C   UNL     1       1.132   7.853   2.538  1.00  0.00     0.188 C 
BRANCH  26  27
ATOM     27  O   UNL     1       1.821   7.279   1.436  1.00  0.00    -0.376 OA
BRANCH  27  28
ATOM     28  C   UNL     1       1.213   7.538   0.163  1.00  0.00     0.202 C 
BRANCH  28  29
ATOM     29  C   UNL     1       1.154   9.027  -0.251  1.00  0.00     0.261 C 
BRANCH  29  30
ATOM     30  O   UNL     1       0.355   9.893   0.591  1.00  0.00    -0.460 OA
BRANCH  30  31
ATOM     31  C   UNL     1      -0.918   9.514   0.862  1.00  0.00     0.338 C 
ATOM     32  O   UNL     1      -1.549   8.655   0.268  1.00  0.00    -0.246 OA
BRANCH  31  33
ATOM     33  C   UNL     1      -1.329  10.102   2.172  1.00  0.00     0.060 A 
ATOM     34  C   UNL     1      -2.040   9.292   3.073  1.00  0.00     0.016 A 
ATOM     35  C   UNL     1      -0.964  11.396   2.557  1.00  0.00     0.016 A 
ATOM     36  C   UNL     1      -2.417   9.781   4.331  1.00  0.00     0.010 A 
ATOM     37  C   UNL     1      -1.357  11.890   3.810  1.00  0.00     0.010 A 
ATOM     38  C   UNL     1      -2.111  11.098   4.697  1.00  0.00    -0.014 A 
BRANCH  38  39
ATOM     39  C   UNL     1      -2.739  11.725   5.897  1.00  0.00     0.031 A 
ATOM     40  C   UNL     1      -3.968  12.574   5.692  1.00  0.00     0.074 A 
ATOM     41  C   UNL     1      -2.247  11.568   7.141  1.00  0.00     0.049 A 
ATOM     42  N   UNL     1      -4.616  13.327   6.542  1.00  0.00    -0.248 NA
ATOM     43  C   UNL     1      -4.534  12.571   4.335  1.00  0.00     0.031 C 
ATOM     44  C   UNL     1      -1.112  10.724   7.505  1.00  0.00     0.029 A 
ATOM     45  N   UNL     1      -2.640  12.133   8.334  1.00  0.00    -0.354 N 
ATOM     46  C   UNL     1      -5.661  13.898   5.822  1.00  0.00     0.074 A 
ATOM     47  C   UNL     1      -5.538  13.424   4.460  1.00  0.00     0.031 C 
ATOM     48  C   UNL     1      -0.887  10.843   8.827  1.00  0.00     0.029 A 
ATOM     49  C   UNL     1      -1.826  11.809   9.398  1.00  0.00     0.049 A 
ATOM     50  H   UNL     1      -3.430  12.714   8.419  1.00  0.00     0.167 HD
ATOM     51  C   UNL     1      -6.634  14.738   6.254  1.00  0.00     0.034 A 
ATOM     52  C   UNL     1      -1.812  12.270  10.668  1.00  0.00     0.034 A 
ATOM     53  C   UNL     1      -6.746  15.220   7.608  1.00  0.00     0.049 A 
ATOM     54  C   UNL     1      -2.828  13.309  11.097  1.00  0.00     0.074 A 
ATOM     55  C   UNL     1      -7.707  16.059   8.146  1.00  0.00     0.029 A 
ATOM     56  N   UNL     1      -5.861  14.925   8.635  1.00  0.00    -0.354 N 
ATOM     57  N   UNL     1      -3.808  13.845  10.407  1.00  0.00    -0.248 NA
ATOM     58  C   UNL     1      -2.727  13.813  12.476  1.00  0.00     0.031 C 
ATOM     59  C   UNL     1      -7.357  16.337   9.471  1.00  0.00     0.029 A 
ATOM     60  C   UNL     1      -6.226  15.603   9.789  1.00  0.00     0.049 A 
ATOM     61  H   UNL     1      -5.086  14.322   8.557  1.00  0.00     0.167 HD
ATOM     62  C   UNL     1      -4.453  14.724  11.277  1.00  0.00     0.074 A 
ATOM     63  C   UNL     1      -3.761  14.639  12.545  1.00  0.00     0.031 C 
ATOM     64  C   UNL     1      -5.524  15.526  11.049  1.00  0.00     0.034 A 
BRANCH  51  65
ATOM     65  C   UNL     1      -7.620  15.238   5.226  1.00  0.00     0.023 A 
ATOM     66  C   UNL     1      -8.508  14.371   4.566  1.00  0.00     0.031 A 
ATOM     67  C   UNL     1      -7.651  16.601   4.881  1.00  0.00     0.131 A 
ATOM     68  C   UNL     1      -9.338  14.863   3.548  1.00  0.00     0.055 A 
ATOM     69  C   UNL     1      -8.537  17.099   3.925  1.00  0.00     0.041 A 
ATOM     70  F   UNL     1      -6.810  17.472   5.461  1.00  0.00    -0.206 F 
ATOM     71  C   UNL     1      -9.377  16.225   3.240  1.00  0.00     0.022 A 
BRANCH  68  72
ATOM     72  S   UNL     1     -10.257  13.676   2.530  1.00  0.00     0.124 S 
ATOM     73  O   UNL     1      -9.179  12.844   2.000  1.00  0.00    -0.237 OA
ATOM     74  O   UNL     1     -11.135  13.040   3.504  1.00  0.00    -0.237 OA
ATOM     75  O   UNL     1     -10.926  14.519   1.541  1.00  0.00    -0.744 OA
ENDBRANCH  68  72
ENDBRANCH  51  65
BRANCH  52  76
ATOM     76  C   UNL     1      -0.759  11.822  11.631  1.00  0.00     0.023 A 
ATOM     77  C   UNL     1      -1.091  11.151  12.819  1.00  0.00     0.031 A 
ATOM     78  C   UNL     1       0.595  12.140  11.414  1.00  0.00     0.131 A 
ATOM     79  C   UNL     1      -0.093  10.861  13.764  1.00  0.00     0.055 A 
ATOM     80  C   UNL     1       1.592  11.797  12.329  1.00  0.00     0.041 A 
ATOM     81  F   UNL     1       0.969  12.797  10.305  1.00  0.00    -0.206 F 
ATOM     82  C   UNL     1       1.248  11.165  13.520  1.00  0.00     0.022 A 
BRANCH  79  83
ATOM     83  S   UNL     1      -0.584  10.166  15.367  1.00  0.00     0.124 S 
ATOM     84  O   UNL     1      -1.478  11.200  15.877  1.00  0.00    -0.237 OA
ATOM     85  O   UNL     1      -1.214   8.910  14.974  1.00  0.00    -0.237 OA
ATOM     86  O   UNL     1       0.683  10.028  16.082  1.00  0.00    -0.744 OA
ENDBRANCH  79  83
ENDBRANCH  52  76
BRANCH  64  87
ATOM     87  C   UNL     1      -6.045  16.349  12.206  1.00  0.00     0.023 A 
ATOM     88  C   UNL     1      -5.305  17.411  12.755  1.00  0.00     0.031 A 
ATOM     89  C   UNL     1      -7.310  16.074  12.756  1.00  0.00     0.131 A 
ATOM     90  C   UNL     1      -5.819  18.134  13.844  1.00  0.00     0.055 A 
ATOM     91  C   UNL     1      -7.840  16.832  13.802  1.00  0.00     0.041 A 
ATOM     92  F   UNL     1      -8.061  15.070  12.274  1.00  0.00    -0.206 F 
ATOM     93  C   UNL     1      -7.090  17.862  14.359  1.00  0.00     0.022 A 
BRANCH  90  94
ATOM     94  S   UNL     1      -4.777  19.395  14.630  1.00  0.00     0.124 S 
ATOM     95  O   UNL     1      -3.630  18.608  15.072  1.00  0.00    -0.237 OA
ATOM     96  O   UNL     1      -4.528  20.324  13.533  1.00  0.00    -0.237 OA
ATOM     97  O   UNL     1      -5.621  19.918  15.703  1.00  0.00    -0.744 OA
ENDBRANCH  90  94
ENDBRANCH  64  87
ENDBRANCH  38  39
ENDBRANCH  31  33
ENDBRANCH  30  31
ENDBRANCH  29  30
ENDBRANCH  28  29
ENDBRANCH  27  28
ENDBRANCH  26  27
ENDBRANCH   1  26
TORSDOF 23
