REMARK SMILES C[C@H]1CCCN(C(=O)NC[C@H]2CC[C@H](C(=O)OCCOCCOCCOC(=O)c3ccc(-c4c5nc(c(-c6cc(S(=O)(=O)[O-])ccc6F)c6ccc([nH]6)c(-c6cc(S(=O)(=O)[O-])ccc6F)c6nc(c(-c7cc(S(=O)(=O)[O-])ccc7F)c7ccc4[nH]7)C=C6)C=C5)cc3)O2)CC1
REMARK SMILES IDX 20 1 19 2 18 3 17 4 15 5 16 6 14 7 11 8 12 9 92 10 13 11
REMARK SMILES IDX 10 12 9 13 7 14 8 15 6 17 93 18 94 19 2 20 1 21 5 23 4 24
REMARK SMILES IDX 3 25 21 27 22 28 23 29 24 30 25 31 26 32 27 33 28 34 29 35
REMARK SMILES IDX 30 36 91 37 31 38 90 39 32 40 33 41 34 42 84 43 35 44 89 45
REMARK SMILES IDX 83 46 85 47 36 48 88 49 82 50 81 51 37 53 69 54 49 55 68 56
REMARK SMILES IDX 50 57 53 58 67 59 86 60 51 61 52 62 66 64 87 65 54 66 38 67
REMARK SMILES IDX 39 68 47 69 40 70 46 71 48 72 45 73 41 74 42 75 43 76 44 77
REMARK SMILES IDX 70 78 71 79 79 80 72 81 78 82 80 83 77 84 73 85 74 86 75 87
REMARK SMILES IDX 76 88 55 89 56 90 64 91 57 92 63 93 65 94 62 95 58 96 59 97
REMARK SMILES IDX 60 98 61 99
REMARK H PARENT 9 16 85 52 53 63
REMARK Flexibility Score: 90.00
ROOT
ATOM      1  O   UNL     1       2.242  10.969   0.015  1.00  0.00    -0.376 OA
ENDROOT
BRANCH   1   2
ATOM      2  C   UNL     1       2.777   9.806   0.650  1.00  0.00     0.202 C 
BRANCH   2   3
ATOM      3  C   UNL     1       2.344   8.437   0.107  1.00  0.00     0.261 C 
BRANCH   3   4
ATOM      4  O   UNL     1       2.726   8.231  -1.267  1.00  0.00    -0.461 OA
BRANCH   4   5
ATOM      5  C   UNL     1       1.780   7.668  -2.065  1.00  0.00     0.335 C 
ATOM      6  O   UNL     1       0.716   7.221  -1.649  1.00  0.00    -0.249 OA
BRANCH   5   7
ATOM      7  C   UNL     1       2.146   7.727  -3.558  1.00  0.00     0.228 C 
ATOM      8  C   UNL     1       2.651   5.599  -4.378  1.00  0.00     0.138 C 
ATOM      9  C   UNL     1       3.960   6.269  -3.994  1.00  0.00     0.037 C 
ATOM     10  O   UNL     1       1.598   6.564  -4.195  1.00  0.00    -0.361 OA
ATOM     11  C   UNL     1       3.614   7.732  -3.945  1.00  0.00     0.047 C 
BRANCH   8  12
ATOM     12  C   UNL     1       2.559   5.081  -5.815  1.00  0.00     0.149 C 
BRANCH  12  13
ATOM     13  N   UNL     1       2.614   6.155  -6.799  1.00  0.00    -0.335 N 
ATOM     14  C   UNL     1       3.421   6.693  -7.718  1.00  0.00     0.317 C 
ATOM     15  O   UNL     1       2.911   7.634  -8.338  1.00  0.00    -0.249 OA
ATOM     16  H   UNL     1       1.766   6.656  -6.779  1.00  0.00     0.165 HD
BRANCH  14  17
ATOM     17  N   UNL     1       4.698   6.279  -7.980  1.00  0.00    -0.325 N 
BRANCH  17  18
ATOM     18  C   UNL     1       5.405   7.013  -9.037  1.00  0.00     0.121 C 
BRANCH  18  19
ATOM     19  C   UNL     1       5.167   6.379 -10.409  1.00  0.00     0.025 C 
BRANCH  19  20
ATOM     20  C   UNL     1       5.915   5.060 -10.666  1.00  0.00    -0.012 CG0
ATOM     21  C   UNL     1       7.393   5.312 -10.989  1.00  0.00     0.008 C 
ATOM     22  G   UNL     1       5.737   4.011  -9.554  1.00  0.00     0.000 G0
ENDBRANCH  19  20
ENDBRANCH  18  19
ENDBRANCH  17  18
BRANCH  17  23
ATOM     23  C   UNL     1       5.464   5.238  -7.317  1.00  0.00     0.121 C 
BRANCH  23  24
ATOM     24  C   UNL     1       6.364   4.385  -8.211  1.00  0.00     0.022 C 
BRANCH  24  25
ATOM     25  C   UNL     1       5.737   4.011  -9.554  1.00  0.00     0.005 CG0
ATOM     26  G   UNL     1       5.915   5.060 -10.666  1.00  0.00     0.000 G0
ENDBRANCH  24  25
ENDBRANCH  23  24
ENDBRANCH  17  23
ENDBRANCH  14  17
ENDBRANCH  12  13
ENDBRANCH   8  12
ENDBRANCH   5   7
ENDBRANCH   4   5
ENDBRANCH   3   4
ENDBRANCH   2   3
ENDBRANCH   1   2
BRANCH   1  27
ATOM     27  C   UNL     1       2.269  11.023  -1.406  1.00  0.00     0.188 C 
BRANCH  27  28
ATOM     28  C   UNL     1       3.627  10.850  -2.101  1.00  0.00     0.188 C 
BRANCH  28  29
ATOM     29  O   UNL     1       4.651  10.339  -1.268  1.00  0.00    -0.376 OA
BRANCH  29  30
ATOM     30  C   UNL     1       5.935  10.947  -1.352  1.00  0.00     0.202 C 
BRANCH  30  31
ATOM     31  C   UNL     1       6.007  12.427  -0.925  1.00  0.00     0.261 C 
BRANCH  31  32
ATOM     32  O   UNL     1       5.252  13.352  -1.733  1.00  0.00    -0.460 OA
BRANCH  32  33
ATOM     33  C   UNL     1       5.542  13.403  -3.059  1.00  0.00     0.338 C 
ATOM     34  O   UNL     1       6.487  12.867  -3.611  1.00  0.00    -0.246 OA
BRANCH  33  35
ATOM     35  C   UNL     1       4.347  13.953  -3.755  1.00  0.00     0.060 A 
ATOM     36  C   UNL     1       3.782  13.215  -4.807  1.00  0.00     0.016 A 
ATOM     37  C   UNL     1       3.721  15.119  -3.307  1.00  0.00     0.016 A 
ATOM     38  C   UNL     1       2.599  13.647  -5.418  1.00  0.00     0.010 A 
ATOM     39  C   UNL     1       2.552  15.562  -3.936  1.00  0.00     0.010 A 
ATOM     40  C   UNL     1       1.990  14.839  -5.005  1.00  0.00    -0.014 A 
BRANCH  40  41
ATOM     41  C   UNL     1       0.874  15.435  -5.788  1.00  0.00     0.031 A 
ATOM     42  C   UNL     1       1.207  16.502  -6.797  1.00  0.00     0.074 A 
ATOM     43  C   UNL     1      -0.407  15.063  -5.603  1.00  0.00     0.049 A 
ATOM     44  N   UNL     1       0.409  17.253  -7.510  1.00  0.00    -0.248 NA
ATOM     45  C   UNL     1       2.638  16.757  -7.021  1.00  0.00     0.031 C 
ATOM     46  C   UNL     1      -0.860  14.009  -4.697  1.00  0.00     0.029 A 
ATOM     47  N   UNL     1      -1.568  15.550  -6.157  1.00  0.00    -0.354 N 
ATOM     48  C   UNL     1       1.239  18.080  -8.260  1.00  0.00     0.074 A 
ATOM     49  C   UNL     1       2.601  17.752  -7.895  1.00  0.00     0.031 C 
ATOM     50  C   UNL     1      -2.203  13.944  -4.741  1.00  0.00     0.029 A 
ATOM     51  C   UNL     1      -2.711  14.982  -5.639  1.00  0.00     0.049 A 
ATOM     52  H   UNL     1      -1.581  16.239  -6.859  1.00  0.00     0.167 HD
ATOM     53  C   UNL     1       0.897  19.025  -9.168  1.00  0.00     0.034 A 
ATOM     54  C   UNL     1      -4.011  15.292  -5.834  1.00  0.00     0.034 A 
ATOM     55  C   UNL     1      -0.464  19.351  -9.517  1.00  0.00     0.049 A 
ATOM     56  C   UNL     1      -4.368  16.421  -6.778  1.00  0.00     0.074 A 
ATOM     57  C   UNL     1      -0.914  20.270 -10.449  1.00  0.00     0.029 A 
ATOM     58  N   UNL     1      -1.593  18.787  -8.939  1.00  0.00    -0.354 N 
ATOM     59  N   UNL     1      -3.575  17.184  -7.495  1.00  0.00    -0.248 NA
ATOM     60  C   UNL     1      -5.797  16.730  -6.939  1.00  0.00     0.031 C 
ATOM     61  C   UNL     1      -2.310  20.323 -10.373  1.00  0.00     0.029 A 
ATOM     62  C   UNL     1      -2.737  19.374  -9.458  1.00  0.00     0.049 A 
ATOM     63  H   UNL     1      -1.583  18.075  -8.259  1.00  0.00     0.167 HD
ATOM     64  C   UNL     1      -4.412  18.041  -8.210  1.00  0.00     0.074 A 
ATOM     65  C   UNL     1      -5.769  17.689  -7.852  1.00  0.00     0.031 C 
ATOM     66  C   UNL     1      -4.088  19.026  -9.086  1.00  0.00     0.034 A 
BRANCH  53  67
ATOM     67  C   UNL     1       2.013  19.820  -9.800  1.00  0.00     0.023 A 
ATOM     68  C   UNL     1       2.964  19.227 -10.647  1.00  0.00     0.031 A 
ATOM     69  C   UNL     1       2.127  21.198  -9.539  1.00  0.00     0.131 A 
ATOM     70  C   UNL     1       4.020  19.998 -11.158  1.00  0.00     0.055 A 
ATOM     71  C   UNL     1       3.135  21.974 -10.112  1.00  0.00     0.041 A 
ATOM     72  F   UNL     1       1.262  21.811  -8.716  1.00  0.00    -0.206 F 
ATOM     73  C   UNL     1       4.096  21.372 -10.918  1.00  0.00     0.022 A 
BRANCH  70  74
ATOM     74  S   UNL     1       5.363  19.157 -12.040  1.00  0.00     0.124 S 
ATOM     75  O   UNL     1       5.844  18.222 -11.026  1.00  0.00    -0.237 OA
ATOM     76  O   UNL     1       4.671  18.564 -13.179  1.00  0.00    -0.237 OA
ATOM     77  O   UNL     1       6.289  20.239 -12.368  1.00  0.00    -0.744 OA
ENDBRANCH  70  74
ENDBRANCH  53  67
BRANCH  54  78
ATOM     78  C   UNL     1      -5.088  14.587  -5.072  1.00  0.00     0.023 A 
ATOM     79  C   UNL     1      -6.096  13.861  -5.728  1.00  0.00     0.031 A 
ATOM     80  C   UNL     1      -5.174  14.709  -3.672  1.00  0.00     0.131 A 
ATOM     81  C   UNL     1      -7.171  13.332  -4.994  1.00  0.00     0.055 A 
ATOM     82  C   UNL     1      -6.212  14.127  -2.941  1.00  0.00     0.041 A 
ATOM     83  F   UNL     1      -4.249  15.404  -2.992  1.00  0.00    -0.206 F 
ATOM     84  C   UNL     1      -7.227  13.447  -3.603  1.00  0.00     0.022 A 
BRANCH  81  85
ATOM     85  S   UNL     1      -8.560  12.589  -5.896  1.00  0.00     0.124 S 
ATOM     86  O   UNL     1      -8.981  13.692  -6.753  1.00  0.00    -0.237 OA
ATOM     87  O   UNL     1      -7.920  11.463  -6.566  1.00  0.00    -0.237 OA
ATOM     88  O   UNL     1      -9.500  12.228  -4.836  1.00  0.00    -0.744 OA
ENDBRANCH  81  85
ENDBRANCH  54  78
BRANCH  66  89
ATOM     89  C   UNL     1      -5.225  19.768  -9.751  1.00  0.00     0.023 A 
ATOM     90  C   UNL     1      -6.095  20.601  -9.025  1.00  0.00     0.031 A 
ATOM     91  C   UNL     1      -5.436  19.643 -11.136  1.00  0.00     0.131 A 
ATOM     92  C   UNL     1      -7.163  21.236  -9.678  1.00  0.00     0.055 A 
ATOM     93  C   UNL     1      -6.463  20.326 -11.790  1.00  0.00     0.041 A 
ATOM     94  F   UNL     1      -4.639  18.860 -11.881  1.00  0.00    -0.206 F 
ATOM     95  C   UNL     1      -7.341  21.119 -11.059  1.00  0.00     0.022 A 
BRANCH  92  96
ATOM     96  S   UNL     1      -8.372  22.156  -8.685  1.00  0.00     0.124 S 
ATOM     97  O   UNL     1      -8.873  21.123  -7.784  1.00  0.00    -0.237 OA
ATOM     98  O   UNL     1      -7.550  23.193  -8.072  1.00  0.00    -0.237 OA
ATOM     99  O   UNL     1      -9.336  22.635  -9.675  1.00  0.00    -0.744 OA
ENDBRANCH  92  96
ENDBRANCH  66  89
ENDBRANCH  40  41
ENDBRANCH  33  35
ENDBRANCH  32  33
ENDBRANCH  31  32
ENDBRANCH  30  31
ENDBRANCH  29  30
ENDBRANCH  28  29
ENDBRANCH  27  28
ENDBRANCH   1  27
TORSDOF 23
