REMARK SMILES Cc1c(CC(=O)OCCOCCOCCOC(=O)c2ccc(-c3c4nc(c(-c5cc(S(=O)(=O)[O-])ccc5F)c5ccc([nH]5)c(-c5cc(S(=O)(=O)[O-])ccc5F)c5nc(c(-c6cc(S(=O)(=O)[O-])ccc6F)c6ccc3[nH]6)C=C5)C=C4)cc2)cc(-c2ccccc2)cc1-c1ccccc1
REMARK SMILES IDX 12 1 11 2 10 3 9 4 8 5 7 6 5 7 6 8 4 9 3 10 1 11 2 12 91 13
REMARK SMILES IDX 82 14 90 15 83 16 92 17 93 18 97 19 94 20 96 21 95 22 84 23
REMARK SMILES IDX 85 24 89 25 86 26 88 27 87 28 13 29 14 30 15 31 16 32 17 33
REMARK SMILES IDX 18 34 19 35 20 36 81 37 21 38 80 39 22 40 23 41 24 42 74 43
REMARK SMILES IDX 25 44 79 45 73 46 75 47 26 48 78 49 72 50 71 51 27 53 59 54
REMARK SMILES IDX 39 55 58 56 40 57 43 58 57 59 76 60 41 61 42 62 56 64 77 65
REMARK SMILES IDX 44 66 28 67 29 68 37 69 30 70 36 71 38 72 35 73 31 74 32 75
REMARK SMILES IDX 33 76 34 77 60 78 61 79 69 80 62 81 68 82 70 83 67 84 63 85
REMARK SMILES IDX 64 86 65 87 66 88 45 89 46 90 54 91 47 92 53 93 55 94 52 95
REMARK SMILES IDX 48 96 49 97 50 98 51 99
REMARK H PARENT 75 52 43 63
REMARK Flexibility Score: inf
ROOT
ATOM      1  C   UNL     1      -2.910  -2.611   4.345  1.00  0.00     0.188 C 
ENDROOT
BRANCH   1   2
ATOM      2  C   UNL     1      -1.715  -3.314   4.981  1.00  0.00     0.188 C 
BRANCH   2   3
ATOM      3  O   UNL     1      -0.520  -2.978   4.264  1.00  0.00    -0.376 OA
BRANCH   3   4
ATOM      4  C   UNL     1       0.270  -1.818   4.521  1.00  0.00     0.202 C 
BRANCH   4   5
ATOM      5  C   UNL     1       0.461  -0.621   3.388  1.00  0.00     0.261 C 
BRANCH   5   6
ATOM      6  O   UNL     1       0.569  -0.702   1.745  1.00  0.00    -0.463 OA
BRANCH   6   7
ATOM      7  C   UNL     1       1.196  -1.285   0.630  1.00  0.00     0.310 C 
ATOM      8  O   UNL     1       2.162  -2.040   0.545  1.00  0.00    -0.252 OA
BRANCH   7   9
ATOM      9  C   UNL     1       0.636  -0.982  -0.712  1.00  0.00     0.158 C 
BRANCH   9  10
ATOM     10  C   UNL     1       0.082   0.380  -0.752  1.00  0.00    -0.033 A 
ATOM     11  C   UNL     1       2.380   1.397  -0.398  1.00  0.00     0.045 C 
ATOM     12  C   UNL     1       0.868   1.517  -0.513  1.00  0.00    -0.039 A 
ATOM     13  C   UNL     1       0.200   2.749  -0.395  1.00  0.00    -0.015 A 
ATOM     14  C   UNL     1      -1.296   0.441  -0.870  1.00  0.00     0.013 A 
ATOM     15  C   UNL     1      -1.220   2.781  -0.428  1.00  0.00     0.017 A 
ATOM     16  C   UNL     1      -1.973   1.626  -0.666  1.00  0.00    -0.017 A 
BRANCH  13  17
ATOM     17  C   UNL     1       0.974   3.983  -0.245  1.00  0.00    -0.018 A 
ATOM     18  C   UNL     1       0.979   4.698   0.958  1.00  0.00     0.009 A 
ATOM     19  C   UNL     1       1.823   4.398  -1.287  1.00  0.00     0.009 A 
ATOM     20  C   UNL     1       1.811   5.807   1.111  1.00  0.00     0.001 A 
ATOM     21  C   UNL     1       2.664   5.495  -1.128  1.00  0.00     0.001 A 
ATOM     22  C   UNL     1       2.652   6.203   0.071  1.00  0.00     0.000 A 
ENDBRANCH  13  17
BRANCH  16  23
ATOM     23  C   UNL     1      -3.427   1.517  -0.669  1.00  0.00    -0.018 A 
ATOM     24  C   UNL     1      -4.123   1.362   0.538  1.00  0.00     0.009 A 
ATOM     25  C   UNL     1      -4.096   1.252  -1.876  1.00  0.00     0.009 A 
ATOM     26  C   UNL     1      -5.455   0.947   0.537  1.00  0.00     0.001 A 
ATOM     27  C   UNL     1      -5.427   0.839  -1.876  1.00  0.00     0.001 A 
ATOM     28  C   UNL     1      -6.104   0.684  -0.669  1.00  0.00     0.000 A 
ENDBRANCH  16  23
ENDBRANCH   9  10
ENDBRANCH   7   9
ENDBRANCH   6   7
ENDBRANCH   5   6
ENDBRANCH   4   5
ENDBRANCH   3   4
ENDBRANCH   2   3
ENDBRANCH   1   2
BRANCH   1  29
ATOM     29  O   UNL     1      -4.171  -2.760   4.987  1.00  0.00    -0.376 OA
BRANCH  29  30
ATOM     30  C   UNL     1      -5.225  -2.139   4.211  1.00  0.00     0.202 C 
BRANCH  30  31
ATOM     31  C   UNL     1      -5.613  -2.861   2.884  1.00  0.00     0.261 C 
BRANCH  31  32
ATOM     32  O   UNL     1      -4.732  -2.418   1.825  1.00  0.00    -0.460 OA
BRANCH  32  33
ATOM     33  C   UNL     1      -4.484  -3.248   0.755  1.00  0.00     0.338 C 
ATOM     34  O   UNL     1      -5.339  -3.768   0.059  1.00  0.00    -0.246 OA
BRANCH  33  35
ATOM     35  C   UNL     1      -2.985  -3.319   0.588  1.00  0.00     0.060 A 
ATOM     36  C   UNL     1      -2.219  -4.422   0.196  1.00  0.00     0.016 A 
ATOM     37  C   UNL     1      -2.283  -2.296   1.143  1.00  0.00     0.016 A 
ATOM     38  C   UNL     1      -0.806  -4.553   0.557  1.00  0.00     0.010 A 
ATOM     39  C   UNL     1      -1.028  -2.602   1.671  1.00  0.00     0.010 A 
ATOM     40  C   UNL     1      -0.154  -3.665   1.432  1.00  0.00    -0.014 A 
BRANCH  40  41
ATOM     41  C   UNL     1       1.155  -3.957   2.336  1.00  0.00     0.031 A 
ATOM     42  C   UNL     1       2.572  -3.207   2.719  1.00  0.00     0.074 A 
ATOM     43  C   UNL     1       1.010  -5.087   3.065  1.00  0.00     0.049 A 
ATOM     44  N   UNL     1       3.677  -3.858   3.062  1.00  0.00    -0.248 NA
ATOM     45  C   UNL     1       2.953  -1.756   2.724  1.00  0.00     0.031 C 
ATOM     46  C   UNL     1       1.822  -5.591   4.165  1.00  0.00     0.029 A 
ATOM     47  N   UNL     1       0.114  -6.117   2.819  1.00  0.00    -0.354 N 
ATOM     48  C   UNL     1       4.650  -2.921   3.425  1.00  0.00     0.074 A 
ATOM     49  C   UNL     1       4.271  -1.732   2.807  1.00  0.00     0.031 C 
ATOM     50  C   UNL     1       1.600  -6.907   4.291  1.00  0.00     0.029 A 
ATOM     51  C   UNL     1       0.718  -7.314   3.215  1.00  0.00     0.049 A 
ATOM     52  H   UNL     1      -0.787  -6.022   2.435  1.00  0.00     0.167 HD
ATOM     53  C   UNL     1       5.628  -3.074   4.360  1.00  0.00     0.034 A 
ATOM     54  C   UNL     1       0.976  -8.241   2.245  1.00  0.00     0.034 A 
ATOM     55  C   UNL     1       5.820  -4.479   4.615  1.00  0.00     0.049 A 
ATOM     56  C   UNL     1       2.473  -8.368   1.960  1.00  0.00     0.074 A 
ATOM     57  C   UNL     1       5.463  -5.370   5.603  1.00  0.00     0.029 A 
ATOM     58  N   UNL     1       6.172  -5.239   3.520  1.00  0.00    -0.354 N 
ATOM     59  N   UNL     1       3.430  -7.897   2.723  1.00  0.00    -0.248 NA
ATOM     60  C   UNL     1       3.005  -8.969   0.736  1.00  0.00     0.031 C 
ATOM     61  C   UNL     1       5.388  -6.665   4.981  1.00  0.00     0.029 A 
ATOM     62  C   UNL     1       5.778  -6.551   3.655  1.00  0.00     0.049 A 
ATOM     63  H   UNL     1       6.648  -4.886   2.734  1.00  0.00     0.167 HD
ATOM     64  C   UNL     1       4.623  -7.957   2.044  1.00  0.00     0.074 A 
ATOM     65  C   UNL     1       4.308  -8.666   0.817  1.00  0.00     0.031 C 
ATOM     66  C   UNL     1       5.792  -7.379   2.455  1.00  0.00     0.034 A 
BRANCH  53  67
ATOM     67  C   UNL     1       6.374  -1.902   5.037  1.00  0.00     0.023 A 
ATOM     68  C   UNL     1       7.466  -2.168   5.885  1.00  0.00     0.031 A 
ATOM     69  C   UNL     1       6.016  -0.520   4.981  1.00  0.00     0.131 A 
ATOM     70  C   UNL     1       8.144  -1.124   6.569  1.00  0.00     0.055 A 
ATOM     71  C   UNL     1       6.756   0.518   5.566  1.00  0.00     0.041 A 
ATOM     72  F   UNL     1       4.869  -0.078   4.447  1.00  0.00    -0.206 F 
ATOM     73  C   UNL     1       7.827   0.219   6.375  1.00  0.00     0.022 A 
BRANCH  70  74
ATOM     74  S   UNL     1       9.380  -1.531   7.834  1.00  0.00     0.124 S 
ATOM     75  O   UNL     1       8.591  -2.300   8.790  1.00  0.00    -0.237 OA
ATOM     76  O   UNL     1      10.377  -2.268   7.068  1.00  0.00    -0.237 OA
ATOM     77  O   UNL     1       9.819  -0.221   8.319  1.00  0.00    -0.744 OA
ENDBRANCH  70  74
ENDBRANCH  53  67
BRANCH  54  78
ATOM     78  C   UNL     1      -0.191  -8.389   1.295  1.00  0.00     0.023 A 
ATOM     79  C   UNL     1      -1.474  -8.498   1.899  1.00  0.00     0.031 A 
ATOM     80  C   UNL     1      -0.175  -8.130  -0.084  1.00  0.00     0.131 A 
ATOM     81  C   UNL     1      -2.642  -8.182   1.193  1.00  0.00     0.055 A 
ATOM     82  C   UNL     1      -1.360  -7.940  -0.818  1.00  0.00     0.041 A 
ATOM     83  F   UNL     1       0.971  -7.906  -0.740  1.00  0.00    -0.206 F 
ATOM     84  C   UNL     1      -2.598  -7.931  -0.176  1.00  0.00     0.022 A 
BRANCH  81  85
ATOM     85  S   UNL     1      -4.168  -7.781   2.106  1.00  0.00     0.124 S 
ATOM     86  O   UNL     1      -5.072  -8.841   1.675  1.00  0.00    -0.237 OA
ATOM     87  O   UNL     1      -3.757  -7.827   3.506  1.00  0.00    -0.237 OA
ATOM     88  O   UNL     1      -4.477  -6.441   1.614  1.00  0.00    -0.744 OA
ENDBRANCH  81  85
ENDBRANCH  54  78
BRANCH  66  89
ATOM     89  C   UNL     1       7.058  -7.553   1.648  1.00  0.00     0.023 A 
ATOM     90  C   UNL     1       7.446  -8.838   1.239  1.00  0.00     0.031 A 
ATOM     91  C   UNL     1       7.944  -6.500   1.329  1.00  0.00     0.131 A 
ATOM     92  C   UNL     1       8.629  -9.032   0.511  1.00  0.00     0.055 A 
ATOM     93  C   UNL     1       9.177  -6.713   0.708  1.00  0.00     0.041 A 
ATOM     94  F   UNL     1       7.630  -5.217   1.563  1.00  0.00    -0.206 F 
ATOM     95  C   UNL     1       9.525  -7.988   0.288  1.00  0.00     0.022 A 
BRANCH  92  96
ATOM     96  S   UNL     1       8.926 -10.656  -0.225  1.00  0.00     0.124 S 
ATOM     97  O   UNL     1       8.682 -11.567   0.888  1.00  0.00    -0.237 OA
ATOM     98  O   UNL     1       7.928 -10.676  -1.292  1.00  0.00    -0.237 OA
ATOM     99  O   UNL     1      10.314 -10.580  -0.675  1.00  0.00    -0.744 OA
ENDBRANCH  92  96
ENDBRANCH  66  89
ENDBRANCH  40  41
ENDBRANCH  33  35
ENDBRANCH  32  33
ENDBRANCH  31  32
ENDBRANCH  30  31
ENDBRANCH  29  30
ENDBRANCH   1  29
TORSDOF 23
