REMARK SMILES COc1ccc(CCC(=O)Nc2ccc(N3CCCC3)cc2C(=O)OCCOCCOCCOC(=O)c2ccc(-c3c4nc(c(-c5cc(S(=O)(=O)[O-])ccc5F)c5ccc([nH]5)c(-c5cc(S(=O)(=O)[O-])ccc5F)c5nc(c(-c6cc(S(=O)(=O)[O-])ccc6F)c6ccc3[nH]6)C=C5)C=C4)cc2)cc1
REMARK SMILES IDX 29 1 28 2 27 3 26 4 25 5 23 6 24 7 22 8 12 9 13 10 14 11
REMARK SMILES IDX 21 12 15 13 11 14 9 15 10 16 8 18 7 19 6 20 3 21 4 22 101 23
REMARK SMILES IDX 5 24 100 25 2 26 1 27 16 28 17 29 20 30 18 31 19 32 30 33
REMARK SMILES IDX 31 34 32 35 33 36 34 37 35 38 36 39 37 40 38 41 99 42 39 43
REMARK SMILES IDX 98 44 40 45 41 46 42 47 92 48 43 49 97 50 91 51 93 52 44 53
REMARK SMILES IDX 96 54 90 55 89 56 45 58 77 59 57 60 76 61 58 62 61 63 75 64
REMARK SMILES IDX 94 65 59 66 60 67 74 69 95 70 62 71 46 72 47 73 55 74 48 75
REMARK SMILES IDX 54 76 56 77 53 78 49 79 50 80 51 81 52 82 78 83 79 84 87 85
REMARK SMILES IDX 80 86 86 87 88 88 85 89 81 90 82 91 83 92 84 93 63 94 64 95
REMARK SMILES IDX 72 96 65 97 71 98 73 99 70 100 66 101 67 102 68 103 69 104
REMARK H PARENT 11 17 93 57 61 68
REMARK Flexibility Score: inf
ROOT
ATOM      1  C   UNL     1      -0.164  -6.721   1.015  1.00  0.00     0.188 C 
ENDROOT
BRANCH   1   2
ATOM      2  O   UNL     1      -0.304  -7.840   1.870  1.00  0.00    -0.376 OA
BRANCH   2   3
ATOM      3  C   UNL     1       0.283  -7.693   3.156  1.00  0.00     0.202 C 
BRANCH   3   4
ATOM      4  C   UNL     1      -0.451  -6.744   4.157  1.00  0.00     0.261 C 
BRANCH   4   5
ATOM      5  O   UNL     1      -0.343  -5.266   4.051  1.00  0.00    -0.460 OA
BRANCH   5   6
ATOM      6  C   UNL     1       0.926  -4.768   4.103  1.00  0.00     0.340 C 
ATOM      7  O   UNL     1       1.827  -5.592   4.136  1.00  0.00    -0.246 OA
BRANCH   6   8
ATOM      8  C   UNL     1       1.091  -3.156   4.189  1.00  0.00     0.085 A 
ATOM      9  C   UNL     1       0.802  -2.755   5.442  1.00  0.00     0.055 A 
ATOM     10  C   UNL     1       0.510  -1.404   5.701  1.00  0.00     0.029 A 
ATOM     11  C   UNL     1       1.070  -0.407   4.874  1.00  0.00     0.028 A 
ATOM     12  C   UNL     1       1.964  -2.161   3.629  1.00  0.00     0.043 A 
ATOM     13  C   UNL     1       1.988  -0.777   3.914  1.00  0.00     0.038 A 
BRANCH   9  14
ATOM     14  N   UNL     1       1.424  -3.556   6.421  1.00  0.00    -0.325 N 
ATOM     15  C   UNL     1       2.531  -4.410   6.211  1.00  0.00     0.224 C 
ATOM     16  O   UNL     1       2.702  -5.258   7.102  1.00  0.00    -0.275 OA
ATOM     17  H   UNL     1       1.054  -3.518   7.333  1.00  0.00     0.169 HD
BRANCH  15  18
ATOM     18  C   UNL     1       3.695  -4.252   4.950  1.00  0.00     0.105 C 
BRANCH  18  19
ATOM     19  C   UNL     1       3.930  -4.627   3.243  1.00  0.00     0.045 C 
BRANCH  19  20
ATOM     20  C   UNL     1       3.295  -4.080   1.869  1.00  0.00    -0.047 A 
ATOM     21  C   UNL     1       1.825  -2.276   0.144  1.00  0.00     0.118 A 
ATOM     22  C   UNL     1       1.201  -3.272   0.847  1.00  0.00     0.046 A 
ATOM     23  C   UNL     1       3.210  -2.360   0.060  1.00  0.00     0.046 A 
ATOM     24  C   UNL     1       1.945  -4.220   1.563  1.00  0.00     0.007 A 
ATOM     25  C   UNL     1       3.945  -3.237   0.950  1.00  0.00     0.007 A 
BRANCH  21  26
ATOM     26  O   UNL     1       0.956  -1.280  -0.183  1.00  0.00    -0.497 OA
ATOM     27  C   UNL     1       1.047  -0.479  -1.346  1.00  0.00     0.278 C 
ENDBRANCH  21  26
ENDBRANCH  19  20
ENDBRANCH  18  19
ENDBRANCH  15  18
ENDBRANCH   9  14
BRANCH  13  28
ATOM     28  N   UNL     1       2.891   0.119   3.360  1.00  0.00    -0.372 N 
ATOM     29  C   UNL     1       2.878   0.479   1.938  1.00  0.00     0.116 C 
ATOM     30  C   UNL     1       4.261   0.313   3.878  1.00  0.00     0.116 C 
ATOM     31  C   UNL     1       4.343   0.449   1.496  1.00  0.00     0.023 C 
ATOM     32  C   UNL     1       5.045   0.979   2.725  1.00  0.00     0.023 C 
ENDBRANCH  13  28
ENDBRANCH   6   8
ENDBRANCH   5   6
ENDBRANCH   4   5
ENDBRANCH   3   4
ENDBRANCH   2   3
ENDBRANCH   1   2
BRANCH   1  33
ATOM     33  C   UNL     1      -1.278  -5.675   1.202  1.00  0.00     0.188 C 
BRANCH  33  34
ATOM     34  O   UNL     1      -2.575  -6.157   1.540  1.00  0.00    -0.376 OA
BRANCH  34  35
ATOM     35  C   UNL     1      -2.981  -7.379   0.944  1.00  0.00     0.202 C 
BRANCH  35  36
ATOM     36  C   UNL     1      -3.088  -7.420  -0.590  1.00  0.00     0.261 C 
BRANCH  36  37
ATOM     37  O   UNL     1      -1.933  -6.967  -1.333  1.00  0.00    -0.460 OA
BRANCH  37  38
ATOM     38  C   UNL     1      -2.072  -5.783  -1.992  1.00  0.00     0.338 C 
ATOM     39  O   UNL     1      -3.063  -5.086  -2.013  1.00  0.00    -0.246 OA
BRANCH  38  40
ATOM     40  C   UNL     1      -0.781  -5.345  -2.589  1.00  0.00     0.060 A 
ATOM     41  C   UNL     1      -0.190  -4.180  -2.100  1.00  0.00     0.016 A 
ATOM     42  C   UNL     1      -0.235  -5.957  -3.719  1.00  0.00     0.016 A 
ATOM     43  C   UNL     1       0.942  -3.645  -2.724  1.00  0.00     0.010 A 
ATOM     44  C   UNL     1       0.874  -5.375  -4.371  1.00  0.00     0.010 A 
ATOM     45  C   UNL     1       1.466  -4.200  -3.886  1.00  0.00    -0.014 A 
BRANCH  45  46
ATOM     46  C   UNL     1       2.449  -3.413  -4.687  1.00  0.00     0.031 A 
ATOM     47  C   UNL     1       1.924  -2.571  -5.820  1.00  0.00     0.074 A 
ATOM     48  C   UNL     1       3.766  -3.364  -4.400  1.00  0.00     0.049 A 
ATOM     49  N   UNL     1       2.567  -1.997  -6.803  1.00  0.00    -0.248 NA
ATOM     50  C   UNL     1       0.471  -2.342  -5.832  1.00  0.00     0.031 C 
ATOM     51  C   UNL     1       4.405  -3.957  -3.228  1.00  0.00     0.029 A 
ATOM     52  N   UNL     1       4.811  -2.797  -5.098  1.00  0.00    -0.354 N 
ATOM     53  C   UNL     1       1.592  -1.383  -7.584  1.00  0.00     0.074 A 
ATOM     54  C   UNL     1       0.318  -1.644  -6.947  1.00  0.00     0.031 C 
ATOM     55  C   UNL     1       5.735  -3.770  -3.315  1.00  0.00     0.029 A 
ATOM     56  C   UNL     1       6.051  -3.107  -4.582  1.00  0.00     0.049 A 
ATOM     57  H   UNL     1       4.683  -2.226  -5.890  1.00  0.00     0.167 HD
ATOM     58  C   UNL     1       1.746  -0.685  -8.737  1.00  0.00     0.034 A 
ATOM     59  C   UNL     1       7.287  -2.940  -5.103  1.00  0.00     0.034 A 
ATOM     60  C   UNL     1       3.022  -0.439  -9.362  1.00  0.00     0.049 A 
ATOM     61  C   UNL     1       7.433  -2.310  -6.476  1.00  0.00     0.074 A 
ATOM     62  C   UNL     1       3.287   0.219 -10.550  1.00  0.00     0.029 A 
ATOM     63  N   UNL     1       4.248  -0.845  -8.852  1.00  0.00    -0.354 N 
ATOM     64  N   UNL     1       6.505  -1.819  -7.266  1.00  0.00    -0.248 NA
ATOM     65  C   UNL     1       8.792  -2.222  -7.032  1.00  0.00     0.031 C 
ATOM     66  C   UNL     1       4.661   0.141 -10.798  1.00  0.00     0.029 A 
ATOM     67  C   UNL     1       5.266  -0.480  -9.718  1.00  0.00     0.049 A 
ATOM     68  H   UNL     1       4.375  -1.322  -8.001  1.00  0.00     0.167 HD
ATOM     69  C   UNL     1       7.176  -1.329  -8.387  1.00  0.00     0.074 A 
ATOM     70  C   UNL     1       8.584  -1.578  -8.171  1.00  0.00     0.031 C 
ATOM     71  C   UNL     1       6.672  -0.719  -9.491  1.00  0.00     0.034 A 
BRANCH  58  72
ATOM     72  C   UNL     1       0.493  -0.227  -9.441  1.00  0.00     0.023 A 
ATOM     73  C   UNL     1      -0.377   0.720  -8.875  1.00  0.00     0.031 A 
ATOM     74  C   UNL     1       0.146  -0.779 -10.688  1.00  0.00     0.131 A 
ATOM     75  C   UNL     1      -1.583   1.031  -9.520  1.00  0.00     0.055 A 
ATOM     76  C   UNL     1      -1.014  -0.401 -11.365  1.00  0.00     0.041 A 
ATOM     77  F   UNL     1       0.925  -1.708 -11.265  1.00  0.00    -0.206 F 
ATOM     78  C   UNL     1      -1.895   0.498 -10.773  1.00  0.00     0.022 A 
BRANCH  75  79
ATOM     79  S   UNL     1      -2.809   2.024  -8.626  1.00  0.00     0.124 S 
ATOM     80  O   UNL     1      -3.032   1.211  -7.432  1.00  0.00    -0.237 OA
ATOM     81  O   UNL     1      -2.103   3.283  -8.416  1.00  0.00    -0.237 OA
ATOM     82  O   UNL     1      -3.939   2.087  -9.549  1.00  0.00    -0.744 OA
ENDBRANCH  75  79
ENDBRANCH  58  72
BRANCH  59  83
ATOM     83  C   UNL     1       8.500  -3.461  -4.396  1.00  0.00     0.023 A 
ATOM     84  C   UNL     1       9.556  -2.607  -4.036  1.00  0.00     0.031 A 
ATOM     85  C   UNL     1       8.668  -4.839  -4.165  1.00  0.00     0.131 A 
ATOM     86  C   UNL     1      10.748  -3.143  -3.517  1.00  0.00     0.055 A 
ATOM     87  C   UNL     1       9.829  -5.360  -3.588  1.00  0.00     0.041 A 
ATOM     88  F   UNL     1       7.704  -5.709  -4.508  1.00  0.00    -0.206 F 
ATOM     89  C   UNL     1      10.884  -4.511  -3.275  1.00  0.00     0.022 A 
BRANCH  86  90
ATOM     90  S   UNL     1      12.164  -2.035  -3.268  1.00  0.00     0.124 S 
ATOM     91  O   UNL     1      12.368  -1.512  -4.614  1.00  0.00    -0.237 OA
ATOM     92  O   UNL     1      11.641  -1.093  -2.285  1.00  0.00    -0.237 OA
ATOM     93  O   UNL     1      13.213  -2.927  -2.778  1.00  0.00    -0.744 OA
ENDBRANCH  86  90
ENDBRANCH  59  83
BRANCH  71  94
ATOM     94  C   UNL     1       7.651  -0.197 -10.519  1.00  0.00     0.023 A 
ATOM     95  C   UNL     1       8.446  -1.051 -11.303  1.00  0.00     0.031 A 
ATOM     96  C   UNL     1       7.763   1.190 -10.733  1.00  0.00     0.131 A 
ATOM     97  C   UNL     1       9.345  -0.507 -12.236  1.00  0.00     0.055 A 
ATOM     98  C   UNL     1       8.613   1.721 -11.704  1.00  0.00     0.041 A 
ATOM     99  F   UNL     1       7.032   2.054 -10.010  1.00  0.00    -0.206 F 
ATOM    100  C   UNL     1       9.418   0.871 -12.455  1.00  0.00     0.022 A 
BRANCH  97 101
ATOM    101  S   UNL     1      10.478  -1.621 -13.112  1.00  0.00     0.124 S 
ATOM    102  O   UNL     1      11.206  -2.242 -12.011  1.00  0.00    -0.237 OA
ATOM    103  O   UNL     1       9.561  -2.491 -13.841  1.00  0.00    -0.237 OA
ATOM    104  O   UNL     1      11.269  -0.719 -13.947  1.00  0.00    -0.744 OA
ENDBRANCH  97 101
ENDBRANCH  71  94
ENDBRANCH  45  46
ENDBRANCH  38  40
ENDBRANCH  37  38
ENDBRANCH  36  37
ENDBRANCH  35  36
ENDBRANCH  34  35
ENDBRANCH  33  34
ENDBRANCH   1  33
TORSDOF 26
