REMARK SMILES O=Cc1ccc2c(c1)C=C(C(=O)OCCOCCOCCOC(=O)c1ccc(-c3c4nc(c(-c5cc(S(=O)(=O)[O-])ccc5F)c5ccc([nH]5)c(-c5cc(S(=O)(=O)[O-])ccc5F)c5nc(c(-c6cc(S(=O)(=O)[O-])ccc6F)c6ccc3[nH]6)C=C5)C=C4)cc1)[C@H](C(F)(F)F)O2
REMARK SMILES IDX 18 1 17 2 16 3 15 4 14 5 13 6 11 7 12 8 10 9 3 10 4 11 8 12
REMARK SMILES IDX 5 13 7 14 6 15 9 16 93 17 88 18 2 19 1 20 89 21 90 22 91 23
REMARK SMILES IDX 92 24 19 25 20 26 21 27 22 28 23 29 24 30 25 31 26 32 87 33
REMARK SMILES IDX 27 34 86 35 28 36 29 37 30 38 80 39 31 40 85 41 79 42 81 43
REMARK SMILES IDX 32 44 84 45 78 46 77 47 33 49 65 50 45 51 64 52 46 53 49 54
REMARK SMILES IDX 63 55 82 56 47 57 48 58 62 60 83 61 50 62 34 63 35 64 43 65
REMARK SMILES IDX 36 66 42 67 44 68 41 69 37 70 38 71 39 72 40 73 66 74 67 75
REMARK SMILES IDX 75 76 68 77 74 78 76 79 73 80 69 81 70 82 71 83 72 84 51 85
REMARK SMILES IDX 52 86 60 87 53 88 59 89 61 90 58 91 54 92 55 93 56 94 57 95
REMARK H PARENT 81 48 49 59
REMARK Flexibility Score: inf
ROOT
ATOM      1  C   UNL     1       7.194   5.630   2.720  1.00  0.00     0.188 C 
ENDROOT
BRANCH   1   2
ATOM      2  C   UNL     1       8.399   5.609   3.683  1.00  0.00     0.188 C 
BRANCH   2   3
ATOM      3  O   UNL     1       9.643   5.833   3.035  1.00  0.00    -0.376 OA
BRANCH   3   4
ATOM      4  C   UNL     1      10.550   4.742   3.030  1.00  0.00     0.202 C 
BRANCH   4   5
ATOM      5  C   UNL     1      10.192   3.649   2.021  1.00  0.00     0.261 C 
BRANCH   5   6
ATOM      6  O   UNL     1       8.867   3.114   2.180  1.00  0.00    -0.460 OA
BRANCH   6   7
ATOM      7  C   UNL     1       8.679   2.209   3.166  1.00  0.00     0.338 C 
ATOM      8  O   UNL     1       9.534   1.793   3.927  1.00  0.00    -0.246 OA
BRANCH   7   9
ATOM      9  C   UNL     1       7.248   1.843   3.225  1.00  0.00     0.087 C 
ATOM     10  C   UNL     1       3.139   0.412   1.157  1.00  0.00     0.015 A 
ATOM     11  C   UNL     1       2.617   0.093   2.415  1.00  0.00     0.015 A 
ATOM     12  C   UNL     1       4.439   0.918   1.032  1.00  0.00     0.023 A 
ATOM     13  C   UNL     1       3.395   0.289   3.556  1.00  0.00     0.048 A 
ATOM     14  C   UNL     1       5.222   1.100   2.176  1.00  0.00     0.018 A 
ATOM     15  C   UNL     1       4.686   0.801   3.435  1.00  0.00     0.128 A 
ATOM     16  C   UNL     1       6.623   1.504   2.084  1.00  0.00     0.027 C 
ATOM     17  O   UNL     1       5.416   0.922   4.587  1.00  0.00    -0.475 OA
ATOM     18  C   UNL     1       6.492   1.901   4.535  1.00  0.00     0.316 C 
BRANCH  10  19
ATOM     19  C   UNL     1       2.331   0.187  -0.060  1.00  0.00     0.260 C 
ATOM     20  O   UNL     1       1.225  -0.338  -0.027  1.00  0.00    -0.298 OA
ENDBRANCH  10  19
BRANCH  18  21
ATOM     21  C   UNL     1       7.310   1.799   5.833  1.00  0.00     0.430 C 
ATOM     22  F   UNL     1       8.165   2.846   5.943  1.00  0.00    -0.167 F 
ATOM     23  F   UNL     1       6.494   1.866   6.913  1.00  0.00    -0.167 F 
ATOM     24  F   UNL     1       8.012   0.653   5.918  1.00  0.00    -0.167 F 
ENDBRANCH  18  21
ENDBRANCH   7   9
ENDBRANCH   6   7
ENDBRANCH   5   6
ENDBRANCH   4   5
ENDBRANCH   3   4
ENDBRANCH   2   3
ENDBRANCH   1   2
BRANCH   1  25
ATOM     25  O   UNL     1       7.295   6.279   1.458  1.00  0.00    -0.376 OA
BRANCH  25  26
ATOM     26  C   UNL     1       8.038   7.485   1.353  1.00  0.00     0.202 C 
BRANCH  26  27
ATOM     27  C   UNL     1       7.549   8.711   2.132  1.00  0.00     0.261 C 
BRANCH  27  28
ATOM     28  O   UNL     1       7.335   8.483   3.534  1.00  0.00    -0.460 OA
BRANCH  28  29
ATOM     29  C   UNL     1       6.034   8.473   3.919  1.00  0.00     0.338 C 
ATOM     30  O   UNL     1       5.059   8.648   3.208  1.00  0.00    -0.246 OA
BRANCH  29  31
ATOM     31  C   UNL     1       5.925   8.038   5.327  1.00  0.00     0.060 A 
ATOM     32  C   UNL     1       5.077   6.960   5.615  1.00  0.00     0.016 A 
ATOM     33  C   UNL     1       6.578   8.718   6.358  1.00  0.00     0.016 A 
ATOM     34  C   UNL     1       4.854   6.576   6.937  1.00  0.00     0.010 A 
ATOM     35  C   UNL     1       6.334   8.347   7.686  1.00  0.00     0.010 A 
ATOM     36  C   UNL     1       5.448   7.295   7.982  1.00  0.00    -0.014 A 
BRANCH  36  37
ATOM     37  C   UNL     1       4.995   7.064   9.377  1.00  0.00     0.031 A 
ATOM     38  C   UNL     1       3.900   7.937   9.931  1.00  0.00     0.074 A 
ATOM     39  C   UNL     1       5.524   6.083  10.130  1.00  0.00     0.049 A 
ATOM     40  N   UNL     1       3.370   7.950  11.126  1.00  0.00    -0.248 NA
ATOM     41  C   UNL     1       3.329   8.928   9.006  1.00  0.00     0.031 C 
ATOM     42  C   UNL     1       6.548   5.139   9.688  1.00  0.00     0.029 A 
ATOM     43  N   UNL     1       5.272   5.724  11.431  1.00  0.00    -0.354 N 
ATOM     44  C   UNL     1       2.399   8.946  11.098  1.00  0.00     0.074 A 
ATOM     45  C   UNL     1       2.442   9.537   9.777  1.00  0.00     0.031 C 
ATOM     46  C   UNL     1       6.852   4.319  10.710  1.00  0.00     0.029 A 
ATOM     47  C   UNL     1       6.069   4.700  11.885  1.00  0.00     0.049 A 
ATOM     48  H   UNL     1       4.586   6.160  11.986  1.00  0.00     0.167 HD
ATOM     49  C   UNL     1       1.546   9.329  12.081  1.00  0.00     0.034 A 
ATOM     50  C   UNL     1       6.172   4.154  13.114  1.00  0.00     0.034 A 
ATOM     51  C   UNL     1       1.531   8.752  13.402  1.00  0.00     0.049 A 
ATOM     52  C   UNL     1       5.286   4.668  14.225  1.00  0.00     0.074 A 
ATOM     53  C   UNL     1       0.711   9.066  14.473  1.00  0.00     0.029 A 
ATOM     54  N   UNL     1       2.389   7.752  13.842  1.00  0.00    -0.354 N 
ATOM     55  N   UNL     1       4.369   5.608  14.185  1.00  0.00    -0.248 NA
ATOM     56  C   UNL     1       5.445   4.041  15.544  1.00  0.00     0.031 C 
ATOM     57  C   UNL     1       1.117   8.305  15.575  1.00  0.00     0.029 A 
ATOM     58  C   UNL     1       2.141   7.462  15.175  1.00  0.00     0.049 A 
ATOM     59  H   UNL     1       3.074   7.313  13.288  1.00  0.00     0.167 HD
ATOM     60  C   UNL     1       3.822   5.659  15.466  1.00  0.00     0.074 A 
ATOM     61  C   UNL     1       4.505   4.652  16.250  1.00  0.00     0.031 C 
ATOM     62  C   UNL     1       2.838   6.461  15.949  1.00  0.00     0.034 A 
BRANCH  49  63
ATOM     63  C   UNL     1       0.603  10.464  11.767  1.00  0.00     0.023 A 
ATOM     64  C   UNL     1      -0.402  10.341  10.791  1.00  0.00     0.031 A 
ATOM     65  C   UNL     1       0.738  11.700  12.422  1.00  0.00     0.131 A 
ATOM     66  C   UNL     1      -1.184  11.455  10.449  1.00  0.00     0.055 A 
ATOM     67  C   UNL     1      -0.094  12.783  12.130  1.00  0.00     0.041 A 
ATOM     68  F   UNL     1       1.696  11.883  13.345  1.00  0.00    -0.206 F 
ATOM     69  C   UNL     1      -1.052  12.668  11.128  1.00  0.00     0.022 A 
BRANCH  66  70
ATOM     70  S   UNL     1      -2.277  11.336   9.005  1.00  0.00     0.124 S 
ATOM     71  O   UNL     1      -1.329  11.007   7.944  1.00  0.00    -0.237 OA
ATOM     72  O   UNL     1      -3.197  10.274   9.393  1.00  0.00    -0.237 OA
ATOM     73  O   UNL     1      -2.866  12.671   8.912  1.00  0.00    -0.744 OA
ENDBRANCH  66  70
ENDBRANCH  49  63
BRANCH  50  74
ATOM     74  C   UNL     1       7.184   3.094  13.389  1.00  0.00     0.023 A 
ATOM     75  C   UNL     1       6.798   1.799  13.771  1.00  0.00     0.031 A 
ATOM     76  C   UNL     1       8.560   3.385  13.339  1.00  0.00     0.131 A 
ATOM     77  C   UNL     1       7.774   0.857  14.134  1.00  0.00     0.055 A 
ATOM     78  C   UNL     1       9.528   2.429  13.652  1.00  0.00     0.041 A 
ATOM     79  F   UNL     1       8.982   4.609  12.986  1.00  0.00    -0.206 F 
ATOM     80  C   UNL     1       9.136   1.160  14.065  1.00  0.00     0.022 A 
BRANCH  77  81
ATOM     81  S   UNL     1       7.235  -0.747  14.787  1.00  0.00     0.124 S 
ATOM     82  O   UNL     1       6.448  -0.346  15.947  1.00  0.00    -0.237 OA
ATOM     83  O   UNL     1       6.485  -1.296  13.662  1.00  0.00    -0.237 OA
ATOM     84  O   UNL     1       8.490  -1.431  15.090  1.00  0.00    -0.744 OA
ENDBRANCH  77  81
ENDBRANCH  50  74
BRANCH  62  85
ATOM     85  C   UNL     1       2.409   6.240  17.380  1.00  0.00     0.023 A 
ATOM     86  C   UNL     1       3.255   6.536  18.463  1.00  0.00     0.031 A 
ATOM     87  C   UNL     1       1.134   5.717  17.660  1.00  0.00     0.131 A 
ATOM     88  C   UNL     1       2.835   6.261  19.774  1.00  0.00     0.055 A 
ATOM     89  C   UNL     1       0.700   5.497  18.968  1.00  0.00     0.041 A 
ATOM     90  F   UNL     1       0.285   5.416  16.664  1.00  0.00    -0.206 F 
ATOM     91  C   UNL     1       1.557   5.757  20.034  1.00  0.00     0.022 A 
BRANCH  88  92
ATOM     92  S   UNL     1       4.011   6.492  21.136  1.00  0.00     0.124 S 
ATOM     93  O   UNL     1       5.104   5.606  20.748  1.00  0.00    -0.237 OA
ATOM     94  O   UNL     1       4.293   7.922  21.065  1.00  0.00    -0.237 OA
ATOM     95  O   UNL     1       3.258   6.068  22.315  1.00  0.00    -0.744 OA
ENDBRANCH  88  92
ENDBRANCH  62  85
ENDBRANCH  36  37
ENDBRANCH  29  31
ENDBRANCH  28  29
ENDBRANCH  27  28
ENDBRANCH  26  27
ENDBRANCH  25  26
ENDBRANCH   1  25
TORSDOF 22
