REMARK SMILES CCn1ncc(NC(=O)[C@@H]2CCCC[C@@H]2C(=O)OCCOCCOCCOC(=O)c2ccc(-c3c4nc(c(-c5cc(S(=O)(=O)[O-])ccc5F)c5ccc([nH]5)c(-c5cc(S(=O)(=O)[O-])ccc5F)c5nc(c(-c6cc(S(=O)(=O)[O-])ccc6F)c6ccc3[nH]6)C=C5)C=C4)cc2)c1C(=O)Nc1cnn(C)c1C
REMARK SMILES IDX 22 1 21 2 20 3 19 4 18 5 16 6 17 7 15 8 10 9 11 10 12 11
REMARK SMILES IDX 14 12 13 13 8 14 7 15 9 17 6 18 3 19 4 20 93 21 5 22 2 23
REMARK SMILES IDX 1 24 94 25 95 26 96 27 97 29 98 30 102 31 99 32 100 33
REMARK SMILES IDX 103 34 101 35 23 36 24 37 25 38 26 39 27 40 28 41 29 42
REMARK SMILES IDX 30 43 31 44 92 45 32 46 91 47 33 48 34 49 35 50 85 51 36 52
REMARK SMILES IDX 90 53 84 54 86 55 37 56 89 57 83 58 82 59 38 61 70 62 50 63
REMARK SMILES IDX 69 64 51 65 54 66 68 67 87 68 52 69 53 70 67 72 88 73 55 74
REMARK SMILES IDX 39 75 40 76 48 77 41 78 47 79 49 80 46 81 42 82 43 83 44 84
REMARK SMILES IDX 45 85 71 86 72 87 80 88 73 89 79 90 81 91 78 92 74 93 75 94
REMARK SMILES IDX 76 95 77 96 56 97 57 98 65 99 58 100 64 101 66 102 63 103
REMARK SMILES IDX 59 104 60 105 61 106 62 107
REMARK H PARENT 7 16 96 28 86 60 54 71
REMARK Flexibility Score: inf
ROOT
ATOM      1  C   UNL     1       0.268  -0.631  -7.691  1.00  0.00     0.188 C 
ENDROOT
BRANCH   1   2
ATOM      2  O   UNL     1       0.441   0.288  -8.767  1.00  0.00    -0.376 OA
BRANCH   2   3
ATOM      3  C   UNL     1       1.784   0.570  -9.146  1.00  0.00     0.202 C 
BRANCH   3   4
ATOM      4  C   UNL     1       2.652   1.346  -8.138  1.00  0.00     0.261 C 
BRANCH   4   5
ATOM      5  O   UNL     1       2.700   0.804  -6.801  1.00  0.00    -0.463 OA
BRANCH   5   6
ATOM      6  C   UNL     1       1.992   1.469  -5.858  1.00  0.00     0.309 C 
ATOM      7  O   UNL     1       1.331   2.483  -6.062  1.00  0.00    -0.252 OA
BRANCH   6   8
ATOM      8  C   UNL     1       2.109   0.861  -4.460  1.00  0.00     0.111 C 
ATOM      9  C   UNL     1       3.344   1.383  -3.732  1.00  0.00     0.093 C 
ATOM     10  C   UNL     1       4.615   0.662  -4.167  1.00  0.00     0.014 C 
ATOM     11  C   UNL     1       4.495  -0.788  -3.706  1.00  0.00     0.001 C 
ATOM     12  C   UNL     1       1.975  -0.659  -4.334  1.00  0.00     0.016 C 
ATOM     13  C   UNL     1       3.272  -1.468  -4.308  1.00  0.00     0.001 C 
BRANCH   9  14
ATOM     14  C   UNL     1       3.403   2.881  -3.777  1.00  0.00     0.228 C 
ATOM     15  N   UNL     1       2.519   3.617  -3.045  1.00  0.00    -0.322 N 
ATOM     16  H   UNL     1       2.470   4.549  -3.360  1.00  0.00     0.170 HD
ATOM     17  O   UNL     1       4.165   3.468  -4.549  1.00  0.00    -0.274 OA
BRANCH  15  18
ATOM     18  C   UNL     1       1.665   3.390  -1.965  1.00  0.00     0.092 A 
ATOM     19  N   UNL     1       0.624   2.961  -0.071  1.00  0.00    -0.258 N 
ATOM     20  N   UNL     1       0.068   4.115  -0.485  1.00  0.00    -0.178 NA
ATOM     21  C   UNL     1       1.468   2.387  -1.006  1.00  0.00     0.150 A 
ATOM     22  C   UNL     1       0.729   4.393  -1.600  1.00  0.00     0.162 A 
BRANCH  19  23
ATOM     23  C   UNL     1       0.350   2.573   1.305  1.00  0.00     0.142 C 
ATOM     24  C   UNL     1       1.528   2.048   2.113  1.00  0.00     0.029 C 
ENDBRANCH  19  23
BRANCH  21  25
ATOM     25  C   UNL     1       2.122   1.125  -0.765  1.00  0.00     0.276 C 
ATOM     26  O   UNL     1       3.303   1.041  -0.430  1.00  0.00    -0.267 OA
ATOM     27  N   UNL     1       1.409  -0.036  -1.049  1.00  0.00    -0.318 N 
ATOM     28  H   UNL     1       1.393  -0.409  -1.960  1.00  0.00     0.170 HD
BRANCH  27  29
ATOM     29  C   UNL     1       0.719  -0.655  -0.012  1.00  0.00     0.082 A 
ATOM     30  C   UNL     1      -0.646  -0.621   0.318  1.00  0.00     0.161 A 
ATOM     31  C   UNL     1       1.305  -1.458   0.947  1.00  0.00     0.059 A 
ATOM     32  N   UNL     1      -0.879  -1.177   1.510  1.00  0.00    -0.179 NA
ATOM     33  N   UNL     1       0.332  -1.621   1.904  1.00  0.00    -0.271 N 
ATOM     34  C   UNL     1       2.701  -1.942   1.103  1.00  0.00     0.068 C 
ATOM     35  C   UNL     1       0.530  -1.952   3.297  1.00  0.00     0.174 C 
ENDBRANCH  27  29
ENDBRANCH  21  25
ENDBRANCH  15  18
ENDBRANCH   9  14
ENDBRANCH   6   8
ENDBRANCH   5   6
ENDBRANCH   4   5
ENDBRANCH   3   4
ENDBRANCH   2   3
ENDBRANCH   1   2
BRANCH   1  36
ATOM     36  C   UNL     1       1.109  -1.917  -7.744  1.00  0.00     0.188 C 
BRANCH  36  37
ATOM     37  O   UNL     1       2.515  -1.694  -7.800  1.00  0.00    -0.376 OA
BRANCH  37  38
ATOM     38  C   UNL     1       3.418  -2.800  -7.786  1.00  0.00     0.202 C 
BRANCH  38  39
ATOM     39  C   UNL     1       3.138  -4.005  -8.675  1.00  0.00     0.261 C 
BRANCH  39  40
ATOM     40  O   UNL     1       1.864  -4.600  -8.491  1.00  0.00    -0.460 OA
BRANCH  40  41
ATOM     41  C   UNL     1       1.378  -4.827  -7.251  1.00  0.00     0.338 C 
ATOM     42  O   UNL     1       1.952  -4.740  -6.188  1.00  0.00    -0.246 OA
BRANCH  41  43
ATOM     43  C   UNL     1      -0.045  -5.149  -7.460  1.00  0.00     0.060 A 
ATOM     44  C   UNL     1      -0.698  -5.876  -6.473  1.00  0.00     0.016 A 
ATOM     45  C   UNL     1      -0.639  -4.892  -8.714  1.00  0.00     0.016 A 
ATOM     46  C   UNL     1      -1.809  -6.595  -6.853  1.00  0.00     0.010 A 
ATOM     47  C   UNL     1      -1.733  -5.616  -9.095  1.00  0.00     0.010 A 
ATOM     48  C   UNL     1      -2.223  -6.542  -8.191  1.00  0.00    -0.014 A 
BRANCH  48  49
ATOM     49  C   UNL     1      -3.176  -7.518  -8.648  1.00  0.00     0.031 A 
ATOM     50  C   UNL     1      -4.562  -7.185  -8.313  1.00  0.00     0.074 A 
ATOM     51  C   UNL     1      -2.813  -8.613  -9.340  1.00  0.00     0.049 A 
ATOM     52  N   UNL     1      -5.243  -7.657  -7.327  1.00  0.00    -0.248 NA
ATOM     53  C   UNL     1      -5.197  -6.063  -9.013  1.00  0.00     0.031 C 
ATOM     54  C   UNL     1      -1.523  -8.916  -9.963  1.00  0.00     0.029 A 
ATOM     55  N   UNL     1      -3.587  -9.671  -9.692  1.00  0.00    -0.354 N 
ATOM     56  C   UNL     1      -6.496  -7.081  -7.443  1.00  0.00     0.074 A 
ATOM     57  C   UNL     1      -6.334  -5.955  -8.325  1.00  0.00     0.031 C 
ATOM     58  C   UNL     1      -1.669  -9.983 -10.784  1.00  0.00     0.029 A 
ATOM     59  C   UNL     1      -3.017 -10.513 -10.635  1.00  0.00     0.049 A 
ATOM     60  H   UNL     1      -4.480  -9.828  -9.309  1.00  0.00     0.167 HD
ATOM     61  C   UNL     1      -7.602  -7.747  -7.020  1.00  0.00     0.034 A 
ATOM     62  C   UNL     1      -3.643 -11.527 -11.288  1.00  0.00     0.034 A 
ATOM     63  C   UNL     1      -7.245  -8.856  -6.159  1.00  0.00     0.049 A 
ATOM     64  C   UNL     1      -4.788 -11.945 -10.436  1.00  0.00     0.074 A 
ATOM     65  C   UNL     1      -6.544  -8.970  -4.971  1.00  0.00     0.029 A 
ATOM     66  N   UNL     1      -7.279 -10.128  -6.689  1.00  0.00    -0.354 N 
ATOM     67  N   UNL     1      -4.643 -12.499  -9.262  1.00  0.00    -0.248 NA
ATOM     68  C   UNL     1      -6.083 -11.316 -10.659  1.00  0.00     0.031 C 
ATOM     69  C   UNL     1      -5.793 -10.175  -5.096  1.00  0.00     0.029 A 
ATOM     70  C   UNL     1      -6.125 -10.772  -6.314  1.00  0.00     0.049 A 
ATOM     71  H   UNL     1      -8.003 -10.507  -7.240  1.00  0.00     0.167 HD
ATOM     72  C   UNL     1      -5.620 -11.922  -8.464  1.00  0.00     0.074 A 
ATOM     73  C   UNL     1      -6.540 -11.283  -9.403  1.00  0.00     0.031 C 
ATOM     74  C   UNL     1      -5.444 -11.775  -7.117  1.00  0.00     0.034 A 
BRANCH  61  75
ATOM     75  C   UNL     1      -8.957  -7.633  -7.669  1.00  0.00     0.023 A 
ATOM     76  C   UNL     1     -10.009  -8.350  -7.074  1.00  0.00     0.031 A 
ATOM     77  C   UNL     1      -9.219  -7.108  -8.957  1.00  0.00     0.131 A 
ATOM     78  C   UNL     1     -11.196  -8.603  -7.778  1.00  0.00     0.055 A 
ATOM     79  C   UNL     1     -10.433  -7.296  -9.621  1.00  0.00     0.041 A 
ATOM     80  F   UNL     1      -8.296  -6.475  -9.689  1.00  0.00    -0.206 F 
ATOM     81  C   UNL     1     -11.419  -8.075  -9.047  1.00  0.00     0.022 A 
BRANCH  78  82
ATOM     82  S   UNL     1     -12.364  -9.790  -7.075  1.00  0.00     0.124 S 
ATOM     83  O   UNL     1     -11.518 -10.966  -6.904  1.00  0.00    -0.237 OA
ATOM     84  O   UNL     1     -12.782  -9.112  -5.852  1.00  0.00    -0.237 OA
ATOM     85  O   UNL     1     -13.392  -9.905  -8.107  1.00  0.00    -0.744 OA
ENDBRANCH  78  82
ENDBRANCH  61  75
BRANCH  62  86
ATOM     86  C   UNL     1      -3.504 -11.875 -12.728  1.00  0.00     0.023 A 
ATOM     87  C   UNL     1      -3.948 -13.103 -13.259  1.00  0.00     0.031 A 
ATOM     88  C   UNL     1      -3.142 -10.876 -13.662  1.00  0.00     0.131 A 
ATOM     89  C   UNL     1      -4.017 -13.290 -14.661  1.00  0.00     0.055 A 
ATOM     90  C   UNL     1      -3.204 -11.069 -15.043  1.00  0.00     0.041 A 
ATOM     91  F   UNL     1      -2.796  -9.641 -13.265  1.00  0.00    -0.206 F 
ATOM     92  C   UNL     1      -3.652 -12.277 -15.550  1.00  0.00     0.022 A 
BRANCH  89  93
ATOM     93  S   UNL     1      -4.684 -14.838 -15.353  1.00  0.00     0.124 S 
ATOM     94  O   UNL     1      -3.644 -15.803 -15.014  1.00  0.00    -0.237 OA
ATOM     95  O   UNL     1      -5.953 -14.975 -14.647  1.00  0.00    -0.237 OA
ATOM     96  O   UNL     1      -4.809 -14.546 -16.782  1.00  0.00    -0.744 OA
ENDBRANCH  89  93
ENDBRANCH  62  86
BRANCH  74  97
ATOM     97  C   UNL     1      -4.327 -12.550  -6.443  1.00  0.00     0.023 A 
ATOM     98  C   UNL     1      -2.958 -12.468  -6.785  1.00  0.00     0.031 A 
ATOM     99  C   UNL     1      -4.670 -13.323  -5.318  1.00  0.00     0.131 A 
ATOM    100  C   UNL     1      -1.996 -13.154  -6.015  1.00  0.00     0.055 A 
ATOM    101  C   UNL     1      -3.713 -13.982  -4.546  1.00  0.00     0.041 A 
ATOM    102  F   UNL     1      -5.951 -13.422  -4.925  1.00  0.00    -0.206 F 
ATOM    103  C   UNL     1      -2.371 -13.904  -4.896  1.00  0.00     0.022 A 
BRANCH 100 104
ATOM    104  S   UNL     1      -0.229 -13.094  -6.461  1.00  0.00     0.124 S 
ATOM    105  O   UNL     1      -0.229 -13.362  -7.894  1.00  0.00    -0.237 OA
ATOM    106  O   UNL     1       0.150 -11.740  -6.063  1.00  0.00    -0.237 OA
ATOM    107  O   UNL     1       0.364 -14.153  -5.644  1.00  0.00    -0.744 OA
ENDBRANCH 100 104
ENDBRANCH  74  97
ENDBRANCH  48  49
ENDBRANCH  41  43
ENDBRANCH  40  41
ENDBRANCH  39  40
ENDBRANCH  38  39
ENDBRANCH  37  38
ENDBRANCH  36  37
ENDBRANCH   1  36
TORSDOF 25
