REMARK SMILES CC(=O)N[C@@H](Cc1c(OCC(C)C)ccc2ccccc12)C(=O)OCCOCCOCCOC(=O)c1ccc(-c2c3nc(c(-c4cc(S(=O)(=O)[O-])ccc4F)c4ccc([nH]4)c(-c4cc(S(=O)(=O)[O-])ccc4F)c4nc(c(-c5cc(S(=O)(=O)[O-])ccc5F)c5ccc2[nH]5)C=C4)C=C3)cc1
REMARK SMILES IDX 28 1 27 2 26 3 25 4 24 5 22 6 23 7 5 8 4 9 1 10 2 11 3 12
REMARK SMILES IDX 6 14 7 15 8 16 21 17 14 18 16 19 20 20 15 21 17 22 19 23
REMARK SMILES IDX 18 24 9 25 10 26 11 27 12 28 13 29 29 30 30 31 31 32 32 33
REMARK SMILES IDX 33 34 34 35 35 36 36 37 37 38 98 39 38 40 97 41 39 42 40 43
REMARK SMILES IDX 41 44 91 45 42 46 96 47 90 48 92 49 43 50 95 51 89 52 88 53
REMARK SMILES IDX 44 55 76 56 56 57 75 58 57 59 60 60 74 61 93 62 58 63 59 64
REMARK SMILES IDX 73 66 94 67 61 68 45 69 46 70 54 71 47 72 53 73 55 74 52 75
REMARK SMILES IDX 48 76 49 77 50 78 51 79 77 80 78 81 86 82 79 83 85 84 87 85
REMARK SMILES IDX 84 86 80 87 81 88 82 89 83 90 62 91 63 92 71 93 64 94 70 95
REMARK SMILES IDX 72 96 69 97 65 98 66 99 67 100 68 101
REMARK H PARENT 4 13 92 54 60 65
REMARK Flexibility Score: inf
ROOT
ATOM      1  C   UNL     1      -1.191   1.232  -3.473  1.00  0.00     0.188 C 
ENDROOT
BRANCH   1   2
ATOM      2  O   UNL     1      -1.607   1.671  -4.758  1.00  0.00    -0.376 OA
BRANCH   2   3
ATOM      3  C   UNL     1      -1.359   0.796  -5.843  1.00  0.00     0.202 C 
BRANCH   3   4
ATOM      4  C   UNL     1       0.048   0.208  -5.973  1.00  0.00     0.261 C 
BRANCH   4   5
ATOM      5  O   UNL     1       0.593  -0.471  -4.814  1.00  0.00    -0.462 OA
BRANCH   5   6
ATOM      6  C   UNL     1       1.848  -0.098  -4.423  1.00  0.00     0.329 C 
ATOM      7  O   UNL     1       2.522   0.742  -5.014  1.00  0.00    -0.250 OA
BRANCH   6   8
ATOM      8  C   UNL     1       2.401  -0.854  -3.184  1.00  0.00     0.196 C 
BRANCH   8   9
ATOM      9  N   UNL     1       1.476  -1.638  -2.350  1.00  0.00    -0.343 N 
ATOM     10  C   UNL     1       1.600  -0.259  -0.296  1.00  0.00     0.114 C 
ATOM     11  C   UNL     1       1.105  -1.463  -1.048  1.00  0.00     0.217 C 
ATOM     12  O   UNL     1       0.348  -2.279  -0.525  1.00  0.00    -0.275 OA
ATOM     13  H   UNL     1       1.060  -2.408  -2.801  1.00  0.00     0.164 HD
ENDBRANCH   8   9
BRANCH   8  14
ATOM     14  C   UNL     1       3.620  -1.719  -3.603  1.00  0.00     0.077 C 
BRANCH  14  15
ATOM     15  C   UNL     1       3.248  -3.111  -4.122  1.00  0.00     0.005 A 
ATOM     16  C   UNL     1       2.648  -3.216  -5.397  1.00  0.00     0.123 A 
ATOM     17  C   UNL     1       3.440  -4.296  -3.338  1.00  0.00    -0.011 A 
ATOM     18  C   UNL     1       2.035  -4.402  -5.780  1.00  0.00     0.047 A 
ATOM     19  C   UNL     1       2.949  -5.527  -3.844  1.00  0.00    -0.018 A 
ATOM     20  C   UNL     1       4.120  -4.353  -2.096  1.00  0.00     0.009 A 
ATOM     21  C   UNL     1       2.195  -5.551  -5.016  1.00  0.00     0.012 A 
ATOM     22  C   UNL     1       3.217  -6.737  -3.185  1.00  0.00     0.009 A 
ATOM     23  C   UNL     1       4.384  -5.565  -1.449  1.00  0.00     0.001 A 
ATOM     24  C   UNL     1       3.954  -6.760  -2.006  1.00  0.00     0.001 A 
BRANCH  16  25
ATOM     25  O   UNL     1       2.817  -2.146  -6.234  1.00  0.00    -0.493 OA
BRANCH  25  26
ATOM     26  C   UNL     1       1.994  -2.007  -7.386  1.00  0.00     0.232 C 
BRANCH  26  27
ATOM     27  C   UNL     1       2.651  -2.379  -8.720  1.00  0.00     0.020 C 
ATOM     28  C   UNL     1       3.081  -3.836  -8.820  1.00  0.00     0.011 C 
ATOM     29  C   UNL     1       1.670  -2.045  -9.849  1.00  0.00     0.011 C 
ENDBRANCH  26  27
ENDBRANCH  25  26
ENDBRANCH  16  25
ENDBRANCH  14  15
ENDBRANCH   8  14
ENDBRANCH   6   8
ENDBRANCH   5   6
ENDBRANCH   4   5
ENDBRANCH   3   4
ENDBRANCH   2   3
ENDBRANCH   1   2
BRANCH   1  30
ATOM     30  C   UNL     1      -1.574  -0.191  -3.011  1.00  0.00     0.188 C 
BRANCH  30  31
ATOM     31  O   UNL     1      -2.252  -0.993  -3.967  1.00  0.00    -0.376 OA
BRANCH  31  32
ATOM     32  C   UNL     1      -3.561  -1.391  -3.578  1.00  0.00     0.202 C 
BRANCH  32  33
ATOM     33  C   UNL     1      -4.597  -0.258  -3.639  1.00  0.00     0.261 C 
BRANCH  33  34
ATOM     34  O   UNL     1      -4.255   0.918  -2.882  1.00  0.00    -0.460 OA
BRANCH  34  35
ATOM     35  C   UNL     1      -4.256   0.791  -1.533  1.00  0.00     0.338 C 
ATOM     36  O   UNL     1      -4.607  -0.192  -0.905  1.00  0.00    -0.246 OA
BRANCH  35  37
ATOM     37  C   UNL     1      -3.512   1.942  -0.961  1.00  0.00     0.060 A 
ATOM     38  C   UNL     1      -2.443   1.679  -0.090  1.00  0.00     0.016 A 
ATOM     39  C   UNL     1      -3.810   3.259  -1.326  1.00  0.00     0.016 A 
ATOM     40  C   UNL     1      -1.700   2.731   0.450  1.00  0.00     0.010 A 
ATOM     41  C   UNL     1      -3.087   4.316  -0.757  1.00  0.00     0.010 A 
ATOM     42  C   UNL     1      -2.058   4.057   0.168  1.00  0.00    -0.014 A 
BRANCH  42  43
ATOM     43  C   UNL     1      -1.587   5.128   1.087  1.00  0.00     0.031 A 
ATOM     44  C   UNL     1      -2.459   5.436   2.279  1.00  0.00     0.074 A 
ATOM     45  C   UNL     1      -0.414   5.767   0.926  1.00  0.00     0.049 A 
ATOM     46  N   UNL     1      -2.286   6.299   3.245  1.00  0.00    -0.248 NA
ATOM     47  C   UNL     1      -3.702   4.653   2.387  1.00  0.00     0.031 C 
ATOM     48  C   UNL     1       0.541   5.532  -0.155  1.00  0.00     0.029 A 
ATOM     49  N   UNL     1       0.175   6.748   1.687  1.00  0.00    -0.354 N 
ATOM     50  C   UNL     1      -3.392   6.158   4.077  1.00  0.00     0.074 A 
ATOM     51  C   UNL     1      -4.251   5.163   3.475  1.00  0.00     0.031 C 
ATOM     52  C   UNL     1       1.596   6.352   0.011  1.00  0.00     0.029 A 
ATOM     53  C   UNL     1       1.382   7.187   1.194  1.00  0.00     0.049 A 
ATOM     54  H   UNL     1      -0.230   7.104   2.511  1.00  0.00     0.167 HD
ATOM     55  C   UNL     1      -3.667   6.788   5.245  1.00  0.00     0.034 A 
ATOM     56  C   UNL     1       2.206   8.160   1.639  1.00  0.00     0.034 A 
ATOM     57  C   UNL     1      -2.821   7.800   5.824  1.00  0.00     0.049 A 
ATOM     58  C   UNL     1       1.838   8.915   2.899  1.00  0.00     0.074 A 
ATOM     59  C   UNL     1      -3.008   8.516   6.993  1.00  0.00     0.029 A 
ATOM     60  N   UNL     1      -1.630   8.252   5.268  1.00  0.00    -0.354 N 
ATOM     61  N   UNL     1       0.792   8.768   3.682  1.00  0.00    -0.248 NA
ATOM     62  C   UNL     1       2.774   9.957   3.342  1.00  0.00     0.031 C 
ATOM     63  C   UNL     1      -1.971   9.450   7.106  1.00  0.00     0.029 A 
ATOM     64  C   UNL     1      -1.088   9.257   6.055  1.00  0.00     0.049 A 
ATOM     65  H   UNL     1      -1.230   7.910   4.436  1.00  0.00     0.167 HD
ATOM     66  C   UNL     1       0.968   9.675   4.728  1.00  0.00     0.074 A 
ATOM     67  C   UNL     1       2.227  10.346   4.484  1.00  0.00     0.031 C 
ATOM     68  C   UNL     1       0.166   9.928   5.796  1.00  0.00     0.034 A 
BRANCH  55  69
ATOM     69  C   UNL     1      -4.969   6.434   5.923  1.00  0.00     0.023 A 
ATOM     70  C   UNL     1      -5.226   5.136   6.402  1.00  0.00     0.031 A 
ATOM     71  C   UNL     1      -5.992   7.391   6.034  1.00  0.00     0.131 A 
ATOM     72  C   UNL     1      -6.500   4.811   6.892  1.00  0.00     0.055 A 
ATOM     73  C   UNL     1      -7.229   7.083   6.603  1.00  0.00     0.041 A 
ATOM     74  F   UNL     1      -5.816   8.637   5.568  1.00  0.00    -0.206 F 
ATOM     75  C   UNL     1      -7.495   5.783   7.020  1.00  0.00     0.022 A 
BRANCH  72  76
ATOM     76  S   UNL     1      -6.891   3.067   7.207  1.00  0.00     0.124 S 
ATOM     77  O   UNL     1      -6.664   2.473   5.892  1.00  0.00    -0.237 OA
ATOM     78  O   UNL     1      -5.930   2.711   8.245  1.00  0.00    -0.237 OA
ATOM     79  O   UNL     1      -8.288   3.101   7.634  1.00  0.00    -0.744 OA
ENDBRANCH  72  76
ENDBRANCH  55  69
BRANCH  56  80
ATOM     80  C   UNL     1       3.446   8.518   0.887  1.00  0.00     0.023 A 
ATOM     81  C   UNL     1       4.721   8.381   1.464  1.00  0.00     0.031 A 
ATOM     82  C   UNL     1       3.366   9.085  -0.398  1.00  0.00     0.131 A 
ATOM     83  C   UNL     1       5.855   8.852   0.781  1.00  0.00     0.055 A 
ATOM     84  C   UNL     1       4.502   9.502  -1.095  1.00  0.00     0.041 A 
ATOM     85  F   UNL     1       2.175   9.248  -0.995  1.00  0.00    -0.206 F 
ATOM     86  C   UNL     1       5.755   9.399  -0.499  1.00  0.00     0.022 A 
BRANCH  83  87
ATOM     87  S   UNL     1       7.460   8.823   1.630  1.00  0.00     0.124 S 
ATOM     88  O   UNL     1       7.192   9.650   2.800  1.00  0.00    -0.237 OA
ATOM     89  O   UNL     1       7.644   7.397   1.879  1.00  0.00    -0.237 OA
ATOM     90  O   UNL     1       8.374   9.405   0.649  1.00  0.00    -0.744 OA
ENDBRANCH  83  87
ENDBRANCH  56  80
BRANCH  68  91
ATOM     91  C   UNL     1       0.661  10.937   6.807  1.00  0.00     0.023 A 
ATOM     92  C   UNL     1       0.857  12.290   6.476  1.00  0.00     0.031 A 
ATOM     93  C   UNL     1       0.973  10.530   8.118  1.00  0.00     0.131 A 
ATOM     94  C   UNL     1       1.424  13.166   7.414  1.00  0.00     0.055 A 
ATOM     95  C   UNL     1       1.467  11.423   9.070  1.00  0.00     0.041 A 
ATOM     96  F   UNL     1       0.807   9.252   8.495  1.00  0.00    -0.206 F 
ATOM     97  C   UNL     1       1.714  12.745   8.714  1.00  0.00     0.022 A 
BRANCH  94  98
ATOM     98  S   UNL     1       1.905  14.829   6.872  1.00  0.00     0.124 S 
ATOM     99  O   UNL     1       2.767  14.539   5.730  1.00  0.00    -0.237 OA
ATOM    100  O   UNL     1       0.617  15.440   6.560  1.00  0.00    -0.237 OA
ATOM    101  O   UNL     1       2.589  15.386   8.038  1.00  0.00    -0.744 OA
ENDBRANCH  94  98
ENDBRANCH  68  91
ENDBRANCH  42  43
ENDBRANCH  35  37
ENDBRANCH  34  35
ENDBRANCH  33  34
ENDBRANCH  32  33
ENDBRANCH  31  32
ENDBRANCH  30  31
ENDBRANCH   1  30
TORSDOF 26
