REMARK SMILES [NH3+]Cc1c(-c2ccccc2)c(C(=O)OCCOCCOCCOC(=O)c2ccc(-c3c4nc(c(-c5cc(S(=O)(=O)[O-])ccc5F)c5ccc([nH]5)c(-c5cc(S(=O)(=O)[O-])ccc5F)c5nc(c(-c6cc(S(=O)(=O)[O-])ccc6F)c6ccc3[nH]6)C=C5)C=C4)cc2)c2ccccn12
REMARK SMILES IDX 19 1 18 2 17 3 16 4 15 5 14 6 12 7 13 8 11 9 3 10 4 11 94 12
REMARK SMILES IDX 89 13 93 14 90 15 92 16 91 17 2 18 1 19 5 23 6 24 10 25 7 26
REMARK SMILES IDX 9 27 8 28 20 29 21 30 22 31 23 32 24 33 25 34 26 35 27 36
REMARK SMILES IDX 88 37 28 38 87 39 29 40 30 41 31 42 81 43 32 44 86 45 80 46
REMARK SMILES IDX 82 47 33 48 85 49 79 50 78 51 34 53 66 54 46 55 65 56 47 57
REMARK SMILES IDX 50 58 64 59 83 60 48 61 49 62 63 64 84 65 51 66 35 67 36 68
REMARK SMILES IDX 44 69 37 70 43 71 45 72 42 73 38 74 39 75 40 76 41 77 67 78
REMARK SMILES IDX 68 79 76 80 69 81 75 82 77 83 74 84 70 85 71 86 72 87 73 88
REMARK SMILES IDX 52 89 53 90 61 91 54 92 60 93 62 94 59 95 55 96 56 97 57 98
REMARK SMILES IDX 58 99
REMARK H PARENT 1 20 1 21 1 22 82 52 50 63
REMARK Flexibility Score: inf
ROOT
ATOM      1  C   UNL     1       4.423   5.454   2.014  1.00  0.00     0.188 C 
ENDROOT
BRANCH   1   2
ATOM      2  C   UNL     1       5.452   5.439   0.872  1.00  0.00     0.188 C 
BRANCH   2   3
ATOM      3  O   UNL     1       5.617   6.711   0.247  1.00  0.00    -0.376 OA
BRANCH   3   4
ATOM      4  C   UNL     1       5.276   6.742  -1.136  1.00  0.00     0.202 C 
BRANCH   4   5
ATOM      5  C   UNL     1       3.830   7.197  -1.329  1.00  0.00     0.261 C 
BRANCH   5   6
ATOM      6  O   UNL     1       2.872   6.333  -0.701  1.00  0.00    -0.460 OA
BRANCH   6   7
ATOM      7  C   UNL     1       2.622   5.144  -1.316  1.00  0.00     0.341 C 
ATOM      8  O   UNL     1       3.146   4.813  -2.374  1.00  0.00    -0.246 OA
BRANCH   7   9
ATOM      9  C   UNL     1       1.719   4.293  -0.541  1.00  0.00     0.093 A 
ATOM     10  C   UNL     1       0.789   2.438   0.460  1.00  0.00     0.086 A 
ATOM     11  C   UNL     1       1.784   2.865  -0.416  1.00  0.00     0.024 A 
ATOM     12  N   UNL     1       0.074   3.576   0.837  1.00  0.00    -0.314 N 
ATOM     13  C   UNL     1       0.679   4.703   0.275  1.00  0.00     0.061 A 
ATOM     14  C   UNL     1      -1.052   3.682   1.667  1.00  0.00     0.092 A 
ATOM     15  C   UNL     1       0.149   5.983   0.628  1.00  0.00     0.027 A 
ATOM     16  C   UNL     1      -1.563   4.888   1.964  1.00  0.00     0.018 A 
ATOM     17  C   UNL     1      -0.919   6.072   1.439  1.00  0.00     0.004 A 
BRANCH  10  18
ATOM     18  C   UNL     1       0.494   1.098   1.067  1.00  0.00     0.315 C 
BRANCH  18  19
ATOM     19  N   UNL     1       0.656  -0.007   0.143  1.00  0.00    -0.353 N 
ATOM     20  H   UNL     1       0.440  -0.883   0.620  1.00  0.00     0.344 HD
ATOM     21  H   UNL     1       1.619  -0.032  -0.193  1.00  0.00     0.344 HD
ATOM     22  H   UNL     1       0.022   0.114  -0.647  1.00  0.00     0.344 HD
ENDBRANCH  18  19
ENDBRANCH  10  18
BRANCH  11  23
ATOM     23  C   UNL     1       2.861   2.045  -0.936  1.00  0.00    -0.015 A 
ATOM     24  C   UNL     1       4.117   2.151  -0.334  1.00  0.00     0.009 A 
ATOM     25  C   UNL     1       2.717   1.325  -2.124  1.00  0.00     0.009 A 
ATOM     26  C   UNL     1       5.239   1.648  -0.978  1.00  0.00     0.001 A 
ATOM     27  C   UNL     1       3.836   0.741  -2.720  1.00  0.00     0.001 A 
ATOM     28  C   UNL     1       5.100   0.933  -2.164  1.00  0.00     0.000 A 
ENDBRANCH  11  23
ENDBRANCH   7   9
ENDBRANCH   6   7
ENDBRANCH   5   6
ENDBRANCH   4   5
ENDBRANCH   3   4
ENDBRANCH   2   3
ENDBRANCH   1   2
BRANCH   1  29
ATOM     29  O   UNL     1       4.428   6.522   2.960  1.00  0.00    -0.376 OA
BRANCH  29  30
ATOM     30  C   UNL     1       5.638   7.220   3.202  1.00  0.00     0.202 C 
BRANCH  30  31
ATOM     31  C   UNL     1       6.673   6.516   4.083  1.00  0.00     0.261 C 
BRANCH  31  32
ATOM     32  O   UNL     1       7.003   5.188   3.650  1.00  0.00    -0.460 OA
BRANCH  32  33
ATOM     33  C   UNL     1       6.414   4.199   4.369  1.00  0.00     0.338 C 
ATOM     34  O   UNL     1       5.655   4.336   5.314  1.00  0.00    -0.246 OA
BRANCH  33  35
ATOM     35  C   UNL     1       6.727   2.879   3.780  1.00  0.00     0.060 A 
ATOM     36  C   UNL     1       5.683   1.955   3.657  1.00  0.00     0.016 A 
ATOM     37  C   UNL     1       8.033   2.516   3.435  1.00  0.00     0.016 A 
ATOM     38  C   UNL     1       5.947   0.654   3.226  1.00  0.00     0.010 A 
ATOM     39  C   UNL     1       8.299   1.203   3.023  1.00  0.00     0.010 A 
ATOM     40  C   UNL     1       7.263   0.257   2.946  1.00  0.00    -0.014 A 
BRANCH  40  41
ATOM     41  C   UNL     1       7.559  -1.181   2.714  1.00  0.00     0.031 A 
ATOM     42  C   UNL     1       7.869  -2.059   3.888  1.00  0.00     0.074 A 
ATOM     43  C   UNL     1       7.525  -1.710   1.479  1.00  0.00     0.049 A 
ATOM     44  N   UNL     1       8.145  -3.336   3.912  1.00  0.00    -0.248 NA
ATOM     45  C   UNL     1       7.886  -1.405   5.203  1.00  0.00     0.031 C 
ATOM     46  C   UNL     1       7.241  -0.949   0.274  1.00  0.00     0.029 A 
ATOM     47  N   UNL     1       7.716  -2.989   1.025  1.00  0.00    -0.354 N 
ATOM     48  C   UNL     1       8.375  -3.645   5.245  1.00  0.00     0.074 A 
ATOM     49  C   UNL     1       8.228  -2.412   5.993  1.00  0.00     0.031 C 
ATOM     50  C   UNL     1       7.231  -1.773  -0.783  1.00  0.00     0.029 A 
ATOM     51  C   UNL     1       7.568  -3.120  -0.338  1.00  0.00     0.049 A 
ATOM     52  H   UNL     1       7.938  -3.744   1.617  1.00  0.00     0.167 HD
ATOM     53  C   UNL     1       8.688  -4.846   5.792  1.00  0.00     0.034 A 
ATOM     54  C   UNL     1       7.710  -4.193  -1.141  1.00  0.00     0.034 A 
ATOM     55  C   UNL     1       8.873  -6.055   5.026  1.00  0.00     0.049 A 
ATOM     56  C   UNL     1       8.104  -5.505  -0.517  1.00  0.00     0.074 A 
ATOM     57  C   UNL     1       9.207  -7.320   5.477  1.00  0.00     0.029 A 
ATOM     58  N   UNL     1       8.758  -6.147   3.643  1.00  0.00    -0.354 N 
ATOM     59  N   UNL     1       8.320  -5.783   0.749  1.00  0.00    -0.248 NA
ATOM     60  C   UNL     1       8.287  -6.644  -1.425  1.00  0.00     0.031 C 
ATOM     61  C   UNL     1       9.356  -8.159   4.365  1.00  0.00     0.029 A 
ATOM     62  C   UNL     1       9.045  -7.438   3.223  1.00  0.00     0.049 A 
ATOM     63  H   UNL     1       8.508  -5.404   3.048  1.00  0.00     0.167 HD
ATOM     64  C   UNL     1       8.661  -7.130   0.787  1.00  0.00     0.074 A 
ATOM     65  C   UNL     1       8.592  -7.615  -0.577  1.00  0.00     0.031 C 
ATOM     66  C   UNL     1       9.003  -7.897   1.854  1.00  0.00     0.034 A 
BRANCH  53  67
ATOM     67  C   UNL     1       8.921  -4.868   7.280  1.00  0.00     0.023 A 
ATOM     68  C   UNL     1       7.889  -4.586   8.193  1.00  0.00     0.031 A 
ATOM     69  C   UNL     1      10.211  -5.097   7.790  1.00  0.00     0.131 A 
ATOM     70  C   UNL     1       8.182  -4.459   9.559  1.00  0.00     0.055 A 
ATOM     71  C   UNL     1      10.479  -5.048   9.159  1.00  0.00     0.041 A 
ATOM     72  F   UNL     1      11.239  -5.343   6.963  1.00  0.00    -0.206 F 
ATOM     73  C   UNL     1       9.465  -4.710  10.051  1.00  0.00     0.022 A 
BRANCH  70  74
ATOM     74  S   UNL     1       6.899  -3.806  10.663  1.00  0.00     0.124 S 
ATOM     75  O   UNL     1       6.628  -2.502  10.062  1.00  0.00    -0.237 OA
ATOM     76  O   UNL     1       5.839  -4.801  10.538  1.00  0.00    -0.237 OA
ATOM     77  O   UNL     1       7.559  -3.758  11.966  1.00  0.00    -0.744 OA
ENDBRANCH  70  74
ENDBRANCH  53  67
BRANCH  54  78
ATOM     78  C   UNL     1       7.533  -4.070  -2.618  1.00  0.00     0.023 A 
ATOM     79  C   UNL     1       6.513  -4.763  -3.290  1.00  0.00     0.031 A 
ATOM     80  C   UNL     1       8.412  -3.285  -3.387  1.00  0.00     0.131 A 
ATOM     81  C   UNL     1       6.419  -4.686  -4.690  1.00  0.00     0.055 A 
ATOM     82  C   UNL     1       8.283  -3.171  -4.772  1.00  0.00     0.041 A 
ATOM     83  F   UNL     1       9.405  -2.602  -2.797  1.00  0.00    -0.206 F 
ATOM     84  C   UNL     1       7.289  -3.884  -5.433  1.00  0.00     0.022 A 
BRANCH  81  85
ATOM     85  S   UNL     1       5.187  -5.711  -5.541  1.00  0.00     0.124 S 
ATOM     86  O   UNL     1       5.575  -7.053  -5.122  1.00  0.00    -0.237 OA
ATOM     87  O   UNL     1       3.936  -5.201  -4.989  1.00  0.00    -0.237 OA
ATOM     88  O   UNL     1       5.410  -5.409  -6.953  1.00  0.00    -0.744 OA
ENDBRANCH  81  85
ENDBRANCH  54  78
BRANCH  66  89
ATOM     89  C   UNL     1       9.311  -9.346   1.572  1.00  0.00     0.023 A 
ATOM     90  C   UNL     1      10.453  -9.730   0.847  1.00  0.00     0.031 A 
ATOM     91  C   UNL     1       8.435 -10.354   2.012  1.00  0.00     0.131 A 
ATOM     92  C   UNL     1      10.662 -11.082   0.536  1.00  0.00     0.055 A 
ATOM     93  C   UNL     1       8.676 -11.702   1.747  1.00  0.00     0.041 A 
ATOM     94  F   UNL     1       7.328 -10.042   2.705  1.00  0.00    -0.206 F 
ATOM     95  C   UNL     1       9.788 -12.072   0.995  1.00  0.00     0.022 A 
BRANCH  92  96
ATOM     96  S   UNL     1      12.047 -11.525  -0.548  1.00  0.00     0.124 S 
ATOM     97  O   UNL     1      11.733 -10.779  -1.762  1.00  0.00    -0.237 OA
ATOM     98  O   UNL     1      13.201 -11.052   0.210  1.00  0.00    -0.237 OA
ATOM     99  O   UNL     1      11.938 -12.978  -0.667  1.00  0.00    -0.744 OA
ENDBRANCH  92  96
ENDBRANCH  66  89
ENDBRANCH  40  41
ENDBRANCH  33  35
ENDBRANCH  32  33
ENDBRANCH  31  32
ENDBRANCH  30  31
ENDBRANCH  29  30
ENDBRANCH   1  29
TORSDOF 23
