REMARK SMILES CCCc1cc(OCC(=O)OCCOCCOCCOC(=O)c2ccc(-c3c4nc(c(-c5cc(S(=O)(=O)[O-])ccc5F)c5ccc([nH]5)c(-c5cc(S(=O)(=O)[O-])ccc5F)c5nc(c(-c6cc(S(=O)(=O)[O-])ccc6F)c6ccc3[nH]6)C=C5)C=C4)cc2)nc(Nc2ccc(C#N)cc2)n1
REMARK SMILES IDX 15 1 14 2 13 3 12 4 11 5 9 6 10 7 8 8 7 9 6 10 4 11 5 12
REMARK SMILES IDX 97 13 87 14 86 15 3 16 2 17 1 18 88 19 89 21 90 22 96 23
REMARK SMILES IDX 91 24 95 25 92 26 93 27 94 28 16 29 17 30 18 31 19 32 20 33
REMARK SMILES IDX 21 34 22 35 23 36 24 37 85 38 25 39 84 40 26 41 27 42 28 43
REMARK SMILES IDX 78 44 29 45 83 46 77 47 79 48 30 49 82 50 76 51 75 52 31 54
REMARK SMILES IDX 63 55 43 56 62 57 44 58 47 59 61 60 80 61 45 62 46 63 60 65
REMARK SMILES IDX 81 66 48 67 32 68 33 69 41 70 34 71 40 72 42 73 39 74 35 75
REMARK SMILES IDX 36 76 37 77 38 78 64 79 65 80 73 81 66 82 72 83 74 84 71 85
REMARK SMILES IDX 67 86 68 87 69 88 70 89 49 90 50 91 58 92 51 93 57 94 59 95
REMARK SMILES IDX 56 96 52 97 53 98 54 99 55 100
REMARK H PARENT 88 20 79 53 47 64
REMARK Flexibility Score: inf
ROOT
ATOM      1  C   UNL     1      -1.943  -4.452   1.769  1.00  0.00     0.188 C 
ENDROOT
BRANCH   1   2
ATOM      2  O   UNL     1      -2.781  -5.389   1.119  1.00  0.00    -0.376 OA
BRANCH   2   3
ATOM      3  C   UNL     1      -3.989  -5.692   1.787  1.00  0.00     0.202 C 
BRANCH   3   4
ATOM      4  C   UNL     1      -3.857  -6.113   3.268  1.00  0.00     0.261 C 
BRANCH   4   5
ATOM      5  O   UNL     1      -2.985  -5.255   4.073  1.00  0.00    -0.461 OA
BRANCH   5   6
ATOM      6  C   UNL     1      -1.832  -5.791   4.581  1.00  0.00     0.344 C 
ATOM      7  O   UNL     1      -1.655  -7.003   4.680  1.00  0.00    -0.248 OA
BRANCH   6   8
ATOM      8  C   UNL     1      -0.653  -4.748   4.856  1.00  0.00     0.353 C 
BRANCH   8   9
ATOM      9  O   UNL     1      -0.847  -3.340   4.956  1.00  0.00    -0.466 OA
BRANCH   9  10
ATOM     10  C   UNL     1      -0.043  -2.357   4.403  1.00  0.00     0.218 A 
ATOM     11  C   UNL     1       1.292  -1.313   2.727  1.00  0.00     0.050 A 
ATOM     12  C   UNL     1       0.833  -2.492   3.325  1.00  0.00     0.092 A 
ATOM     13  N   UNL     1       0.961  -0.137   3.229  1.00  0.00    -0.218 NA
ATOM     14  C   UNL     1       0.159  -0.056   4.281  1.00  0.00     0.230 A 
ATOM     15  N   UNL     1      -0.342  -1.131   4.911  1.00  0.00    -0.177 NA
BRANCH  11  16
ATOM     16  C   UNL     1       2.119  -1.126   1.473  1.00  0.00     0.056 C 
BRANCH  16  17
ATOM     17  C   UNL     1       1.438  -0.264   0.365  1.00  0.00     0.003 C 
ATOM     18  C   UNL     1       2.090   1.064   0.050  1.00  0.00     0.004 C 
ENDBRANCH  16  17
ENDBRANCH  11  16
BRANCH  14  19
ATOM     19  N   UNL     1      -0.128   1.265   4.666  1.00  0.00    -0.324 N 
ATOM     20  H   UNL     1      -0.551   1.443   5.537  1.00  0.00     0.170 HD
BRANCH  19  21
ATOM     21  C   UNL     1       0.191   2.342   3.798  1.00  0.00     0.041 A 
ATOM     22  C   UNL     1       1.425   3.006   3.872  1.00  0.00     0.027 A 
ATOM     23  C   UNL     1      -0.598   2.538   2.650  1.00  0.00     0.027 A 
ATOM     24  C   UNL     1       1.849   3.852   2.831  1.00  0.00     0.021 A 
ATOM     25  C   UNL     1      -0.189   3.393   1.621  1.00  0.00     0.021 A 
ATOM     26  C   UNL     1       1.042   4.048   1.705  1.00  0.00     0.052 A 
BRANCH  26  27
ATOM     27  C   UNL     1       1.489   4.851   0.597  1.00  0.00     0.099 C 
ATOM     28  N   UNL     1       1.791   5.493  -0.316  1.00  0.00    -0.192 NA
ENDBRANCH  26  27
ENDBRANCH  19  21
ENDBRANCH  14  19
ENDBRANCH   9  10
ENDBRANCH   8   9
ENDBRANCH   6   8
ENDBRANCH   5   6
ENDBRANCH   4   5
ENDBRANCH   3   4
ENDBRANCH   2   3
ENDBRANCH   1   2
BRANCH   1  29
ATOM     29  C   UNL     1      -2.521  -3.122   2.284  1.00  0.00     0.188 C 
BRANCH  29  30
ATOM     30  O   UNL     1      -3.772  -2.854   1.710  1.00  0.00    -0.376 OA
BRANCH  30  31
ATOM     31  C   UNL     1      -3.844  -2.048   0.562  1.00  0.00     0.202 C 
BRANCH  31  32
ATOM     32  C   UNL     1      -2.737  -1.866  -0.508  1.00  0.00     0.261 C 
BRANCH  32  33
ATOM     33  O   UNL     1      -1.864  -2.939  -0.953  1.00  0.00    -0.460 OA
BRANCH  33  34
ATOM     34  C   UNL     1      -0.626  -2.809  -0.415  1.00  0.00     0.338 C 
ATOM     35  O   UNL     1      -0.433  -2.100   0.563  1.00  0.00    -0.246 OA
BRANCH  34  36
ATOM     36  C   UNL     1       0.554  -3.609  -0.834  1.00  0.00     0.060 A 
ATOM     37  C   UNL     1       1.215  -4.285   0.209  1.00  0.00     0.016 A 
ATOM     38  C   UNL     1       1.317  -3.155  -1.912  1.00  0.00     0.016 A 
ATOM     39  C   UNL     1       2.604  -4.309   0.278  1.00  0.00     0.010 A 
ATOM     40  C   UNL     1       2.722  -3.305  -1.900  1.00  0.00     0.010 A 
ATOM     41  C   UNL     1       3.385  -3.852  -0.790  1.00  0.00    -0.014 A 
BRANCH  41  42
ATOM     42  C   UNL     1       4.845  -4.143  -0.777  1.00  0.00     0.031 A 
ATOM     43  C   UNL     1       5.922  -3.093  -0.891  1.00  0.00     0.074 A 
ATOM     44  C   UNL     1       5.182  -5.446  -0.671  1.00  0.00     0.049 A 
ATOM     45  N   UNL     1       7.199  -3.257  -1.139  1.00  0.00    -0.248 NA
ATOM     46  C   UNL     1       5.534  -1.689  -0.690  1.00  0.00     0.031 C 
ATOM     47  C   UNL     1       4.231  -6.548  -0.463  1.00  0.00     0.029 A 
ATOM     48  N   UNL     1       6.395  -6.076  -0.740  1.00  0.00    -0.354 N 
ATOM     49  C   UNL     1       7.767  -1.984  -1.164  1.00  0.00     0.074 A 
ATOM     50  C   UNL     1       6.688  -1.054  -0.887  1.00  0.00     0.031 C 
ATOM     51  C   UNL     1       4.890  -7.703  -0.401  1.00  0.00     0.029 A 
ATOM     52  C   UNL     1       6.273  -7.446  -0.745  1.00  0.00     0.049 A 
ATOM     53  H   UNL     1       7.257  -5.603  -0.781  1.00  0.00     0.167 HD
ATOM     54  C   UNL     1       9.060  -1.644  -1.419  1.00  0.00     0.034 A 
ATOM     55  C   UNL     1       7.131  -8.411  -1.106  1.00  0.00     0.034 A 
ATOM     56  C   UNL     1      10.099  -2.616  -1.705  1.00  0.00     0.049 A 
ATOM     57  C   UNL     1       8.503  -8.009  -1.531  1.00  0.00     0.074 A 
ATOM     58  C   UNL     1      11.440  -2.396  -1.982  1.00  0.00     0.029 A 
ATOM     59  N   UNL     1       9.914  -3.994  -1.766  1.00  0.00    -0.354 N 
ATOM     60  N   UNL     1       9.012  -6.803  -1.619  1.00  0.00    -0.248 NA
ATOM     61  C   UNL     1       9.415  -9.092  -1.894  1.00  0.00     0.031 C 
ATOM     62  C   UNL     1      12.035  -3.621  -2.304  1.00  0.00     0.029 A 
ATOM     63  C   UNL     1      11.098  -4.625  -2.124  1.00  0.00     0.049 A 
ATOM     64  H   UNL     1       9.064  -4.455  -1.582  1.00  0.00     0.167 HD
ATOM     65  C   UNL     1      10.327  -6.986  -2.021  1.00  0.00     0.074 A 
ATOM     66  C   UNL     1      10.528  -8.418  -2.136  1.00  0.00     0.031 C 
ATOM     67  C   UNL     1      11.281  -6.052  -2.263  1.00  0.00     0.034 A 
BRANCH  54  68
ATOM     68  C   UNL     1       9.427  -0.172  -1.490  1.00  0.00     0.023 A 
ATOM     69  C   UNL     1       9.345   0.684  -0.378  1.00  0.00     0.031 A 
ATOM     70  C   UNL     1       9.907   0.378  -2.697  1.00  0.00     0.131 A 
ATOM     71  C   UNL     1       9.685   2.044  -0.508  1.00  0.00     0.055 A 
ATOM     72  C   UNL     1      10.316   1.711  -2.800  1.00  0.00     0.041 A 
ATOM     73  F   UNL     1       9.996  -0.377  -3.803  1.00  0.00    -0.206 F 
ATOM     74  C   UNL     1      10.194   2.557  -1.704  1.00  0.00     0.022 A 
BRANCH  71  75
ATOM     75  S   UNL     1       9.333   3.168   0.873  1.00  0.00     0.124 S 
ATOM     76  O   UNL     1       7.903   2.947   1.079  1.00  0.00    -0.237 OA
ATOM     77  O   UNL     1      10.213   2.666   1.922  1.00  0.00    -0.237 OA
ATOM     78  O   UNL     1       9.681   4.485   0.344  1.00  0.00    -0.744 OA
ENDBRANCH  71  75
ENDBRANCH  54  68
BRANCH  55  79
ATOM     79  C   UNL     1       6.667  -9.821  -1.144  1.00  0.00     0.023 A 
ATOM     80  C   UNL     1       7.223 -10.767  -0.279  1.00  0.00     0.031 A 
ATOM     81  C   UNL     1       5.635 -10.235  -2.011  1.00  0.00     0.131 A 
ATOM     82  C   UNL     1       6.773 -12.092  -0.322  1.00  0.00     0.055 A 
ATOM     83  C   UNL     1       5.138 -11.537  -1.995  1.00  0.00     0.041 A 
ATOM     84  F   UNL     1       5.056  -9.359  -2.849  1.00  0.00    -0.206 F 
ATOM     85  C   UNL     1       5.720 -12.480  -1.154  1.00  0.00     0.022 A 
BRANCH  82  86
ATOM     86  S   UNL     1       7.660 -13.320   0.667  1.00  0.00     0.124 S 
ATOM     87  O   UNL     1       9.027 -13.151   0.189  1.00  0.00    -0.237 OA
ATOM     88  O   UNL     1       7.394 -12.861   2.027  1.00  0.00    -0.237 OA
ATOM     89  O   UNL     1       7.018 -14.579   0.297  1.00  0.00    -0.744 OA
ENDBRANCH  82  86
ENDBRANCH  55  79
BRANCH  67  90
ATOM     90  C   UNL     1      12.645  -6.579  -2.631  1.00  0.00     0.023 A 
ATOM     91  C   UNL     1      12.859  -7.307  -3.815  1.00  0.00     0.031 A 
ATOM     92  C   UNL     1      13.730  -6.403  -1.755  1.00  0.00     0.131 A 
ATOM     93  C   UNL     1      14.106  -7.901  -4.051  1.00  0.00     0.055 A 
ATOM     94  C   UNL     1      14.992  -6.927  -2.037  1.00  0.00     0.041 A 
ATOM     95  F   UNL     1      13.578  -5.731  -0.603  1.00  0.00    -0.206 F 
ATOM     96  C   UNL     1      15.180  -7.696  -3.182  1.00  0.00     0.022 A 
BRANCH  93  97
ATOM     97  S   UNL     1      14.263  -9.059  -5.437  1.00  0.00     0.124 S 
ATOM     98  O   UNL     1      13.258 -10.064  -5.104  1.00  0.00    -0.237 OA
ATOM     99  O   UNL     1      13.962  -8.213  -6.587  1.00  0.00    -0.237 OA
ATOM    100  O   UNL     1      15.649  -9.514  -5.347  1.00  0.00    -0.744 OA
ENDBRANCH  93  97
ENDBRANCH  67  90
ENDBRANCH  41  42
ENDBRANCH  34  36
ENDBRANCH  33  34
ENDBRANCH  32  33
ENDBRANCH  31  32
ENDBRANCH  30  31
ENDBRANCH  29  30
ENDBRANCH   1  29
TORSDOF 27
