REMARK SMILES CCC[C@H](CNC(=O)N1C[C@H]2CCC[N@H+]2C[C@@H]1C)C(=O)OCCOCCOCCOC(=O)c1ccc(-c2c3nc(c(-c4cc(S(=O)(=O)[O-])ccc4F)c4ccc([nH]4)c(-c4cc(S(=O)(=O)[O-])ccc4F)c4nc(c(-c5cc(S(=O)(=O)[O-])ccc5F)c5ccc2[nH]5)C=C4)C=C3)cc1
REMARK SMILES IDX 25 1 24 2 23 3 22 4 21 5 19 6 20 7 4 8 3 9 2 10 1 11 5 12
REMARK SMILES IDX 6 13 7 14 8 16 9 17 10 18 17 19 11 20 16 21 18 22 12 23
REMARK SMILES IDX 15 24 13 25 14 26 26 28 27 29 28 30 29 31 30 32 31 33 32 34
REMARK SMILES IDX 33 35 34 36 95 37 35 38 94 39 36 40 37 41 38 42 88 43 39 44
REMARK SMILES IDX 93 45 87 46 89 47 40 48 92 49 86 50 85 51 41 53 73 54 53 55
REMARK SMILES IDX 72 56 54 57 57 58 71 59 90 60 55 61 56 62 70 64 91 65 58 66
REMARK SMILES IDX 42 67 43 68 51 69 44 70 50 71 52 72 49 73 45 74 46 75 47 76
REMARK SMILES IDX 48 77 74 78 75 79 83 80 76 81 82 82 84 83 81 84 77 85 78 86
REMARK SMILES IDX 79 87 80 88 59 89 60 90 68 91 61 92 67 93 69 94 66 95 62 96
REMARK SMILES IDX 63 97 64 98 65 99
REMARK H PARENT 6 15 15 27 89 52 57 63
REMARK Flexibility Score: inf
ROOT
ATOM      1  C   UNL     1       3.303  -4.872  -1.050  1.00  0.00     0.188 C 
ENDROOT
BRANCH   1   2
ATOM      2  O   UNL     1       3.227  -6.225  -1.473  1.00  0.00    -0.376 OA
BRANCH   2   3
ATOM      3  C   UNL     1       2.333  -6.609  -2.509  1.00  0.00     0.202 C 
BRANCH   3   4
ATOM      4  C   UNL     1       0.841  -6.225  -2.460  1.00  0.00     0.261 C 
BRANCH   4   5
ATOM      5  O   UNL     1       0.520  -4.821  -2.329  1.00  0.00    -0.463 OA
BRANCH   5   6
ATOM      6  C   UNL     1       0.088  -4.439  -1.102  1.00  0.00     0.310 C 
ATOM      7  O   UNL     1      -0.007  -5.229  -0.167  1.00  0.00    -0.252 OA
BRANCH   6   8
ATOM      8  C   UNL     1      -0.229  -2.940  -0.939  1.00  0.00     0.118 C 
BRANCH   8   9
ATOM      9  C   UNL     1      -1.709  -2.730  -0.563  1.00  0.00     0.017 C 
BRANCH   9  10
ATOM     10  C   UNL     1      -2.260  -3.592   0.584  1.00  0.00    -0.002 C 
ATOM     11  C   UNL     1      -1.485  -3.483   1.891  1.00  0.00     0.004 C 
ENDBRANCH   9  10
ENDBRANCH   8   9
BRANCH   8  12
ATOM     12  C   UNL     1       0.280  -1.996  -2.070  1.00  0.00     0.133 C 
BRANCH  12  13
ATOM     13  N   UNL     1      -0.665  -1.025  -2.593  1.00  0.00    -0.337 N 
ATOM     14  C   UNL     1      -0.953   0.251  -2.262  1.00  0.00     0.318 C 
ATOM     15  H   UNL     1      -1.204  -1.367  -3.342  1.00  0.00     0.165 HD
ATOM     16  O   UNL     1      -2.063   0.661  -2.612  1.00  0.00    -0.249 OA
BRANCH  14  17
ATOM     17  N   UNL     1      -0.100   1.014  -1.519  1.00  0.00    -0.311 N 
ATOM     18  C   UNL     1      -0.713   1.989  -0.621  1.00  0.00     0.186 C 
ATOM     19  C   UNL     1       1.374   1.164  -1.684  1.00  0.00     0.139 C 
ATOM     20  C   UNL     1      -0.376   3.428  -1.027  1.00  0.00     0.204 C 
ATOM     21  C   UNL     1       1.907   2.505  -1.042  1.00  0.00     0.287 C 
ATOM     22  C   UNL     1       1.858   1.077  -3.137  1.00  0.00     0.037 C 
ATOM     23  C   UNL     1      -0.810   4.432   0.039  1.00  0.00     0.073 C 
ATOM     24  N   UNL     1       1.060   3.692  -1.284  1.00  0.00    -0.329 N 
ATOM     25  C   UNL     1       0.170   5.571  -0.134  1.00  0.00     0.068 C 
ATOM     26  C   UNL     1       1.464   4.846  -0.464  1.00  0.00     0.262 C 
ATOM     27  H   UNL     1       1.195   3.909  -2.272  1.00  0.00     0.348 HD
ENDBRANCH  14  17
ENDBRANCH  12  13
ENDBRANCH   8  12
ENDBRANCH   6   8
ENDBRANCH   5   6
ENDBRANCH   4   5
ENDBRANCH   3   4
ENDBRANCH   2   3
ENDBRANCH   1   2
BRANCH   1  28
ATOM     28  C   UNL     1       3.222  -3.746  -2.088  1.00  0.00     0.188 C 
BRANCH  28  29
ATOM     29  O   UNL     1       3.023  -4.164  -3.416  1.00  0.00    -0.376 OA
BRANCH  29  30
ATOM     30  C   UNL     1       4.103  -4.041  -4.327  1.00  0.00     0.202 C 
BRANCH  30  31
ATOM     31  C   UNL     1       5.537  -4.443  -3.923  1.00  0.00     0.261 C 
BRANCH  31  32
ATOM     32  O   UNL     1       5.973  -4.112  -2.594  1.00  0.00    -0.460 OA
BRANCH  32  33
ATOM     33  C   UNL     1       6.281  -2.817  -2.349  1.00  0.00     0.338 C 
ATOM     34  O   UNL     1       6.229  -1.896  -3.154  1.00  0.00    -0.246 OA
BRANCH  33  35
ATOM     35  C   UNL     1       6.428  -2.652  -0.883  1.00  0.00     0.060 A 
ATOM     36  C   UNL     1       5.561  -1.776  -0.210  1.00  0.00     0.016 A 
ATOM     37  C   UNL     1       7.395  -3.364  -0.172  1.00  0.00     0.016 A 
ATOM     38  C   UNL     1       5.683  -1.585   1.168  1.00  0.00     0.010 A 
ATOM     39  C   UNL     1       7.535  -3.150   1.205  1.00  0.00     0.010 A 
ATOM     40  C   UNL     1       6.704  -2.233   1.875  1.00  0.00    -0.014 A 
BRANCH  40  41
ATOM     41  C   UNL     1       7.044  -1.780   3.251  1.00  0.00     0.031 A 
ATOM     42  C   UNL     1       8.193  -0.819   3.413  1.00  0.00     0.074 A 
ATOM     43  C   UNL     1       6.341  -2.180   4.326  1.00  0.00     0.049 A 
ATOM     44  N   UNL     1       8.721  -0.327   4.503  1.00  0.00    -0.248 NA
ATOM     45  C   UNL     1       8.834  -0.357   2.171  1.00  0.00     0.031 C 
ATOM     46  C   UNL     1       5.177  -3.064   4.296  1.00  0.00     0.029 A 
ATOM     47  N   UNL     1       6.513  -1.898   5.660  1.00  0.00    -0.354 N 
ATOM     48  C   UNL     1       9.766   0.490   4.081  1.00  0.00     0.074 A 
ATOM     49  C   UNL     1       9.813   0.401   2.638  1.00  0.00     0.031 C 
ATOM     50  C   UNL     1       4.750  -3.264   5.556  1.00  0.00     0.029 A 
ATOM     51  C   UNL     1       5.632  -2.560   6.485  1.00  0.00     0.049 A 
ATOM     52  H   UNL     1       7.203  -1.280   5.995  1.00  0.00     0.167 HD
ATOM     53  C   UNL     1      10.606   1.247   4.828  1.00  0.00     0.034 A 
ATOM     54  C   UNL     1       5.568  -2.615   7.833  1.00  0.00     0.034 A 
ATOM     55  C   UNL     1      10.552   1.320   6.268  1.00  0.00     0.049 A 
ATOM     56  C   UNL     1       6.567  -1.823   8.649  1.00  0.00     0.074 A 
ATOM     57  C   UNL     1      11.344   2.070   7.120  1.00  0.00     0.029 A 
ATOM     58  N   UNL     1       9.669   0.610   7.070  1.00  0.00    -0.354 N 
ATOM     59  N   UNL     1       7.544  -1.046   8.238  1.00  0.00    -0.248 NA
ATOM     60  C   UNL     1       6.443  -1.905  10.110  1.00  0.00     0.031 C 
ATOM     61  C   UNL     1      10.999   1.748   8.436  1.00  0.00     0.029 A 
ATOM     62  C   UNL     1       9.922   0.876   8.408  1.00  0.00     0.049 A 
ATOM     63  H   UNL     1       8.966   0.005   6.738  1.00  0.00     0.167 HD
ATOM     64  C   UNL     1       8.121  -0.517   9.392  1.00  0.00     0.074 A 
ATOM     65  C   UNL     1       7.372  -1.050  10.510  1.00  0.00     0.031 C 
ATOM     66  C   UNL     1       9.171   0.336   9.518  1.00  0.00     0.034 A 
BRANCH  53  67
ATOM     67  C   UNL     1      11.694   2.004   4.104  1.00  0.00     0.023 A 
ATOM     68  C   UNL     1      11.406   3.030   3.187  1.00  0.00     0.031 A 
ATOM     69  C   UNL     1      13.044   1.679   4.325  1.00  0.00     0.131 A 
ATOM     70  C   UNL     1      12.449   3.650   2.482  1.00  0.00     0.055 A 
ATOM     71  C   UNL     1      14.081   2.357   3.682  1.00  0.00     0.041 A 
ATOM     72  F   UNL     1      13.379   0.689   5.167  1.00  0.00    -0.206 F 
ATOM     73  C   UNL     1      13.786   3.341   2.744  1.00  0.00     0.022 A 
BRANCH  70  74
ATOM     74  S   UNL     1      12.029   4.768   1.117  1.00  0.00     0.124 S 
ATOM     75  O   UNL     1      11.248   3.891   0.247  1.00  0.00    -0.237 OA
ATOM     76  O   UNL     1      11.284   5.825   1.792  1.00  0.00    -0.237 OA
ATOM     77  O   UNL     1      13.331   5.164   0.584  1.00  0.00    -0.744 OA
ENDBRANCH  70  74
ENDBRANCH  53  67
BRANCH  54  78
ATOM     78  C   UNL     1       4.562  -3.486   8.514  1.00  0.00     0.023 A 
ATOM     79  C   UNL     1       3.599  -2.950   9.384  1.00  0.00     0.031 A 
ATOM     80  C   UNL     1       4.606  -4.885   8.368  1.00  0.00     0.131 A 
ATOM     81  C   UNL     1       2.762  -3.806  10.118  1.00  0.00     0.055 A 
ATOM     82  C   UNL     1       3.728  -5.729   9.050  1.00  0.00     0.041 A 
ATOM     83  F   UNL     1       5.512  -5.455   7.558  1.00  0.00    -0.206 F 
ATOM     84  C   UNL     1       2.808  -5.191   9.944  1.00  0.00     0.022 A 
BRANCH  81  85
ATOM     85  S   UNL     1       1.685  -3.089  11.391  1.00  0.00     0.124 S 
ATOM     86  O   UNL     1       2.651  -2.410  12.246  1.00  0.00    -0.237 OA
ATOM     87  O   UNL     1       0.812  -2.229  10.599  1.00  0.00    -0.237 OA
ATOM     88  O   UNL     1       1.036  -4.256  11.984  1.00  0.00    -0.744 OA
ENDBRANCH  81  85
ENDBRANCH  54  78
BRANCH  66  89
ATOM     89  C   UNL     1       9.526   0.799  10.914  1.00  0.00     0.023 A 
ATOM     90  C   UNL     1       9.973  -0.091  11.906  1.00  0.00     0.031 A 
ATOM     91  C   UNL     1       9.390   2.156  11.263  1.00  0.00     0.131 A 
ATOM     92  C   UNL     1      10.191   0.370  13.214  1.00  0.00     0.055 A 
ATOM     93  C   UNL     1       9.684   2.622  12.545  1.00  0.00     0.041 A 
ATOM     94  F   UNL     1       8.965   3.055  10.360  1.00  0.00    -0.206 F 
ATOM     95  C   UNL     1      10.069   1.724  13.535  1.00  0.00     0.022 A 
BRANCH  92  96
ATOM     96  S   UNL     1      10.507  -0.845  14.524  1.00  0.00     0.124 S 
ATOM     97  O   UNL     1       9.348  -1.724  14.408  1.00  0.00    -0.237 OA
ATOM     98  O   UNL     1      11.785  -1.419  14.115  1.00  0.00    -0.237 OA
ATOM     99  O   UNL     1      10.552  -0.035  15.740  1.00  0.00    -0.744 OA
ENDBRANCH  92  96
ENDBRANCH  66  89
ENDBRANCH  40  41
ENDBRANCH  33  35
ENDBRANCH  32  33
ENDBRANCH  31  32
ENDBRANCH  30  31
ENDBRANCH  29  30
ENDBRANCH  28  29
ENDBRANCH   1  28
TORSDOF 25
