REMARK SMILES Cc1nsc(NC(=O)[C@]2([NH3+])CCC[C@@H](C)C2)c1C(=O)OCCOCCOCCOC(=O)c1ccc(-c2c3nc(c(-c4cc(S(=O)(=O)[O-])ccc4F)c4ccc([nH]4)c(-c4cc(S(=O)(=O)[O-])ccc4F)c4nc(c(-c5cc(S(=O)(=O)[O-])ccc5F)c5ccc2[nH]5)C=C4)C=C3)cc1
REMARK SMILES IDX 24 1 23 2 22 3 21 4 20 5 18 6 19 7 17 8 1 9 2 10 3 11 4 12
REMARK SMILES IDX 5 13 6 14 7 15 8 17 9 18 11 19 16 20 12 21 14 22 13 23 15 24
REMARK SMILES IDX 10 25 25 29 26 30 27 31 28 32 29 33 30 34 31 35 32 36 33 37
REMARK SMILES IDX 94 38 34 39 93 40 35 41 36 42 37 43 87 44 38 45 92 46 86 47
REMARK SMILES IDX 88 48 39 49 91 50 85 51 84 52 40 54 72 55 52 56 71 57 53 58
REMARK SMILES IDX 56 59 70 60 89 61 54 62 55 63 69 65 90 66 57 67 41 68 42 69
REMARK SMILES IDX 50 70 43 71 49 72 51 73 48 74 44 75 45 76 46 77 47 78 73 79
REMARK SMILES IDX 74 80 82 81 75 82 81 83 83 84 80 85 76 86 77 87 78 88 79 89
REMARK SMILES IDX 58 90 59 91 67 92 60 93 66 94 68 95 65 96 61 97 62 98 63 99
REMARK SMILES IDX 64 100
REMARK H PARENT 6 16 10 26 10 27 10 28 88 53 56 64
REMARK Flexibility Score: inf
ROOT
ATOM      1  C   UNL     1      -4.603   9.721  -2.445  1.00  0.00     0.188 C 
ENDROOT
BRANCH   1   2
ATOM      2  O   UNL     1      -5.826   9.876  -1.742  1.00  0.00    -0.376 OA
BRANCH   2   3
ATOM      3  C   UNL     1      -5.937  10.778  -0.652  1.00  0.00     0.202 C 
BRANCH   3   4
ATOM      4  C   UNL     1      -4.918  10.780   0.507  1.00  0.00     0.261 C 
BRANCH   4   5
ATOM      5  O   UNL     1      -3.532  10.799   0.138  1.00  0.00    -0.460 OA
BRANCH   5   6
ATOM      6  C   UNL     1      -2.866   9.608   0.230  1.00  0.00     0.343 C 
ATOM      7  O   UNL     1      -3.318   8.601   0.718  1.00  0.00    -0.246 OA
BRANCH   6   8
ATOM      8  C   UNL     1      -1.595   9.630  -0.493  1.00  0.00     0.117 A 
ATOM      9  C   UNL     1      -0.902  12.165  -0.258  1.00  0.00     0.069 C 
ATOM     10  C   UNL     1      -0.699  10.752  -0.682  1.00  0.00     0.068 A 
ATOM     11  N   UNL     1       0.412  10.493  -1.367  1.00  0.00    -0.195 NA
ATOM     12  S   UNL     1       0.330   8.967  -1.939  1.00  0.00    -0.017 S 
ATOM     13  C   UNL     1      -1.164   8.546  -1.263  1.00  0.00     0.131 A 
BRANCH  13  14
ATOM     14  N   UNL     1      -1.873   7.381  -1.544  1.00  0.00    -0.310 N 
ATOM     15  C   UNL     1      -1.675   6.251  -2.299  1.00  0.00     0.286 C 
ATOM     16  H   UNL     1      -2.742   7.363  -1.081  1.00  0.00     0.171 HD
ATOM     17  O   UNL     1      -2.673   5.534  -2.456  1.00  0.00    -0.267 OA
BRANCH  15  18
ATOM     18  C   UNL     1      -0.303   5.828  -2.898  1.00  0.00     0.174 C 
ATOM     19  C   UNL     1      -0.070   6.571  -4.232  1.00  0.00     0.079 C 
ATOM     20  C   UNL     1      -0.250   4.316  -3.246  1.00  0.00     0.082 C 
ATOM     21  C   UNL     1       1.295   6.259  -4.836  1.00  0.00     0.007 C 
ATOM     22  C   UNL     1       1.081   3.870  -3.913  1.00  0.00    -0.008 C 
ATOM     23  C   UNL     1       1.446   4.764  -5.111  1.00  0.00     0.004 C 
ATOM     24  C   UNL     1       2.257   3.769  -2.932  1.00  0.00     0.008 C 
BRANCH  18  25
ATOM     25  N   UNL     1       0.725   6.013  -1.851  1.00  0.00    -0.345 N 
ATOM     26  H   UNL     1       1.637   5.742  -2.219  1.00  0.00     0.345 HD
ATOM     27  H   UNL     1       0.498   5.432  -1.045  1.00  0.00     0.345 HD
ATOM     28  H   UNL     1       0.750   6.993  -1.569  1.00  0.00     0.345 HD
ENDBRANCH  18  25
ENDBRANCH  15  18
ENDBRANCH  13  14
ENDBRANCH   6   8
ENDBRANCH   5   6
ENDBRANCH   4   5
ENDBRANCH   3   4
ENDBRANCH   2   3
ENDBRANCH   1   2
BRANCH   1  29
ATOM     29  C   UNL     1      -3.727  10.937  -2.819  1.00  0.00     0.188 C 
BRANCH  29  30
ATOM     30  O   UNL     1      -4.050  12.128  -2.135  1.00  0.00    -0.376 OA
BRANCH  30  31
ATOM     31  C   UNL     1      -4.722  13.190  -2.796  1.00  0.00     0.202 C 
BRANCH  31  32
ATOM     32  C   UNL     1      -5.828  12.975  -3.831  1.00  0.00     0.261 C 
BRANCH  32  33
ATOM     33  O   UNL     1      -5.944  11.665  -4.338  1.00  0.00    -0.460 OA
BRANCH  33  34
ATOM     34  C   UNL     1      -5.162  11.416  -5.409  1.00  0.00     0.338 C 
ATOM     35  O   UNL     1      -4.260  12.116  -5.834  1.00  0.00    -0.246 OA
BRANCH  34  36
ATOM     36  C   UNL     1      -5.578  10.136  -5.982  1.00  0.00     0.060 A 
ATOM     37  C   UNL     1      -4.738   9.573  -6.944  1.00  0.00     0.016 A 
ATOM     38  C   UNL     1      -6.913   9.744  -5.813  1.00  0.00     0.016 A 
ATOM     39  C   UNL     1      -5.331   8.862  -7.957  1.00  0.00     0.010 A 
ATOM     40  C   UNL     1      -7.502   9.046  -6.827  1.00  0.00     0.010 A 
ATOM     41  C   UNL     1      -6.723   8.748  -7.941  1.00  0.00    -0.014 A 
BRANCH  41  42
ATOM     42  C   UNL     1      -7.396   8.338  -9.147  1.00  0.00     0.031 A 
ATOM     43  C   UNL     1      -7.346   6.880  -9.344  1.00  0.00     0.074 A 
ATOM     44  C   UNL     1      -8.079   9.227  -9.896  1.00  0.00     0.049 A 
ATOM     45  N   UNL     1      -6.651   6.231 -10.214  1.00  0.00    -0.248 NA
ATOM     46  C   UNL     1      -7.952   6.033  -8.302  1.00  0.00     0.031 C 
ATOM     47  C   UNL     1      -8.358  10.640  -9.618  1.00  0.00     0.029 A 
ATOM     48  N   UNL     1      -8.766   9.014 -11.045  1.00  0.00    -0.354 N 
ATOM     49  C   UNL     1      -6.958   4.897  -9.991  1.00  0.00     0.074 A 
ATOM     50  C   UNL     1      -7.519   4.829  -8.671  1.00  0.00     0.031 C 
ATOM     51  C   UNL     1      -9.346  11.073 -10.438  1.00  0.00     0.029 A 
ATOM     52  C   UNL     1      -9.673  10.014 -11.379  1.00  0.00     0.049 A 
ATOM     53  H   UNL     1      -8.633   8.212 -11.601  1.00  0.00     0.167 HD
ATOM     54  C   UNL     1      -7.026   4.019 -11.025  1.00  0.00     0.034 A 
ATOM     55  C   UNL     1     -10.669   9.926 -12.306  1.00  0.00     0.034 A 
ATOM     56  C   UNL     1      -6.346   4.535 -12.192  1.00  0.00     0.049 A 
ATOM     57  C   UNL     1     -10.285   8.813 -13.220  1.00  0.00     0.074 A 
ATOM     58  C   UNL     1      -5.049   4.937 -12.451  1.00  0.00     0.029 A 
ATOM     59  N   UNL     1      -7.113   5.093 -13.191  1.00  0.00    -0.354 N 
ATOM     60  N   UNL     1      -9.227   8.864 -13.988  1.00  0.00    -0.248 NA
ATOM     61  C   UNL     1     -10.734   7.466 -12.887  1.00  0.00     0.031 C 
ATOM     62  C   UNL     1      -5.181   6.098 -13.270  1.00  0.00     0.029 A 
ATOM     63  C   UNL     1      -6.538   6.295 -13.537  1.00  0.00     0.049 A 
ATOM     64  H   UNL     1      -7.926   4.703 -13.586  1.00  0.00     0.167 HD
ATOM     65  C   UNL     1      -8.632   7.614 -13.875  1.00  0.00     0.074 A 
ATOM     66  C   UNL     1      -9.652   6.768 -13.251  1.00  0.00     0.031 C 
ATOM     67  C   UNL     1      -7.280   7.453 -14.009  1.00  0.00     0.034 A 
BRANCH  54  68
ATOM     68  C   UNL     1      -8.034   2.898 -11.097  1.00  0.00     0.023 A 
ATOM     69  C   UNL     1      -7.931   2.016 -12.185  1.00  0.00     0.031 A 
ATOM     70  C   UNL     1      -9.230   2.813 -10.343  1.00  0.00     0.131 A 
ATOM     71  C   UNL     1      -9.004   1.179 -12.532  1.00  0.00     0.055 A 
ATOM     72  C   UNL     1     -10.262   1.926 -10.649  1.00  0.00     0.041 A 
ATOM     73  F   UNL     1      -9.522   3.644  -9.336  1.00  0.00    -0.206 F 
ATOM     74  C   UNL     1     -10.167   1.124 -11.769  1.00  0.00     0.022 A 
BRANCH  71  75
ATOM     75  S   UNL     1      -8.922   0.297 -14.108  1.00  0.00     0.124 S 
ATOM     76  O   UNL     1      -8.632   1.381 -15.040  1.00  0.00    -0.237 OA
ATOM     77  O   UNL     1      -7.840  -0.651 -13.864  1.00  0.00    -0.237 OA
ATOM     78  O   UNL     1     -10.253  -0.293 -14.234  1.00  0.00    -0.744 OA
ENDBRANCH  71  75
ENDBRANCH  54  68
BRANCH  55  79
ATOM     79  C   UNL     1     -12.069  10.424 -12.127  1.00  0.00     0.023 A 
ATOM     80  C   UNL     1     -12.958  10.702 -13.192  1.00  0.00     0.031 A 
ATOM     81  C   UNL     1     -12.630  10.432 -10.827  1.00  0.00     0.131 A 
ATOM     82  C   UNL     1     -14.325  10.986 -12.928  1.00  0.00     0.055 A 
ATOM     83  C   UNL     1     -13.973  10.716 -10.574  1.00  0.00     0.041 A 
ATOM     84  F   UNL     1     -11.900  10.085  -9.755  1.00  0.00    -0.206 F 
ATOM     85  C   UNL     1     -14.829  10.991 -11.625  1.00  0.00     0.022 A 
BRANCH  82  86
ATOM     86  S   UNL     1     -15.501  11.314 -14.287  1.00  0.00     0.124 S 
ATOM     87  O   UNL     1     -14.930  12.497 -14.920  1.00  0.00    -0.237 OA
ATOM     88  O   UNL     1     -15.443  10.075 -15.055  1.00  0.00    -0.237 OA
ATOM     89  O   UNL     1     -16.771  11.544 -13.596  1.00  0.00    -0.744 OA
ENDBRANCH  82  86
ENDBRANCH  55  79
BRANCH  67  90
ATOM     90  C   UNL     1      -6.462   8.636 -14.499  1.00  0.00     0.023 A 
ATOM     91  C   UNL     1      -6.353   9.881 -13.831  1.00  0.00     0.031 A 
ATOM     92  C   UNL     1      -5.651   8.434 -15.628  1.00  0.00     0.131 A 
ATOM     93  C   UNL     1      -5.462  10.866 -14.310  1.00  0.00     0.055 A 
ATOM     94  C   UNL     1      -4.756   9.402 -16.085  1.00  0.00     0.041 A 
ATOM     95  F   UNL     1      -5.684   7.264 -16.288  1.00  0.00    -0.206 F 
ATOM     96  C   UNL     1      -4.661  10.624 -15.430  1.00  0.00     0.022 A 
BRANCH  93  97
ATOM     97  S   UNL     1      -5.332  12.489 -13.486  1.00  0.00     0.124 S 
ATOM     98  O   UNL     1      -6.717  12.936 -13.398  1.00  0.00    -0.237 OA
ATOM     99  O   UNL     1      -4.685  12.153 -12.221  1.00  0.00    -0.237 OA
ATOM    100  O   UNL     1      -4.499  13.271 -14.403  1.00  0.00    -0.744 OA
ENDBRANCH  93  97
ENDBRANCH  67  90
ENDBRANCH  41  42
ENDBRANCH  34  36
ENDBRANCH  33  34
ENDBRANCH  32  33
ENDBRANCH  31  32
ENDBRANCH  30  31
ENDBRANCH  29  30
ENDBRANCH   1  29
TORSDOF 23
