REMARK SMILES C[N@@H+]1CCN(C(=O)c2cnn3c2CCCC3)C[C@@H]1C(=O)OCCOCCOCCOC(=O)c1ccc(-c2c3nc(c(-c4cc(S(=O)(=O)[O-])ccc4F)c4ccc([nH]4)c(-c4cc(S(=O)(=O)[O-])ccc4F)c4nc(c(-c5cc(S(=O)(=O)[O-])ccc5F)c5ccc2[nH]5)C=C4)C=C3)cc1
REMARK SMILES IDX 26 1 25 2 24 3 23 4 22 5 21 6 19 7 20 8 18 9 1 10 2 11 3 12
REMARK SMILES IDX 4 14 17 15 5 16 6 17 7 18 8 19 9 20 12 21 10 22 11 23 13 24
REMARK SMILES IDX 16 25 14 26 15 27 27 28 28 29 29 30 30 31 31 32 32 33 33 34
REMARK SMILES IDX 34 35 95 36 35 37 94 38 36 39 37 40 38 41 88 42 39 43 93 44
REMARK SMILES IDX 87 45 89 46 40 47 92 48 86 49 85 50 41 52 73 53 53 54 72 55
REMARK SMILES IDX 54 56 57 57 71 58 90 59 55 60 56 61 70 63 91 64 58 65 42 66
REMARK SMILES IDX 43 67 51 68 44 69 50 70 52 71 49 72 45 73 46 74 47 75 48 76
REMARK SMILES IDX 74 77 75 78 83 79 76 80 82 81 84 82 81 83 77 84 78 85 79 86
REMARK SMILES IDX 80 87 59 88 60 89 68 90 61 91 67 92 69 93 66 94 62 95 63 96
REMARK SMILES IDX 64 97 65 98
REMARK H PARENT 2 13 89 51 57 62
REMARK Flexibility Score: inf
ROOT
ATOM      1  C   UNL     1       1.445   1.123   3.376  1.00  0.00     0.188 C 
ENDROOT
BRANCH   1   2
ATOM      2  C   UNL     1       0.039   0.506   3.292  1.00  0.00     0.188 C 
BRANCH   2   3
ATOM      3  O   UNL     1      -0.369  -0.369   4.333  1.00  0.00    -0.376 OA
BRANCH   3   4
ATOM      4  C   UNL     1       0.576  -1.365   4.697  1.00  0.00     0.202 C 
BRANCH   4   5
ATOM      5  C   UNL     1       1.041  -2.354   3.605  1.00  0.00     0.261 C 
BRANCH   5   6
ATOM      6  O   UNL     1       1.075  -1.847   2.246  1.00  0.00    -0.459 OA
BRANCH   6   7
ATOM      7  C   UNL     1       0.210  -2.420   1.373  1.00  0.00     0.366 C 
ATOM      8  O   UNL     1      -0.486  -3.390   1.681  1.00  0.00    -0.245 OA
BRANCH   7   9
ATOM      9  C   UNL     1       0.163  -1.864  -0.065  1.00  0.00     0.314 C 
ATOM     10  C   UNL     1       2.345  -0.620  -0.238  1.00  0.00     0.333 C 
ATOM     11  N   UNL     1       0.915  -0.647  -0.463  1.00  0.00    -0.323 N 
ATOM     12  C   UNL     1       0.261   0.660  -0.374  1.00  0.00     0.284 C 
ATOM     13  H   UNL     1       0.844  -0.837  -1.463  1.00  0.00     0.348 HD
ATOM     14  C   UNL     1      -1.238   0.663  -0.707  1.00  0.00     0.181 C 
ATOM     15  C   UNL     1      -1.337  -1.767  -0.469  1.00  0.00     0.197 C 
ATOM     16  N   UNL     1      -1.923  -0.471  -0.103  1.00  0.00    -0.326 N 
BRANCH  16  17
ATOM     17  C   UNL     1      -3.065  -0.249   0.657  1.00  0.00     0.257 C 
ATOM     18  O   UNL     1      -3.469   0.880   0.923  1.00  0.00    -0.269 OA
BRANCH  17  19
ATOM     19  C   UNL     1      -3.843  -1.405   1.044  1.00  0.00     0.081 A 
ATOM     20  C   UNL     1      -3.602  -2.387   2.032  1.00  0.00     0.149 A 
ATOM     21  C   UNL     1      -5.081  -1.742   0.529  1.00  0.00     0.051 A 
ATOM     22  N   UNL     1      -4.564  -3.318   2.079  1.00  0.00    -0.180 NA
ATOM     23  N   UNL     1      -5.447  -2.896   1.161  1.00  0.00    -0.269 N 
ATOM     24  C   UNL     1      -5.963  -1.074  -0.467  1.00  0.00     0.057 C 
ATOM     25  C   UNL     1      -6.619  -3.685   0.836  1.00  0.00     0.144 C 
ATOM     26  C   UNL     1      -7.011  -2.036  -1.032  1.00  0.00     0.008 C 
ATOM     27  C   UNL     1      -7.663  -2.863   0.080  1.00  0.00     0.024 C 
ENDBRANCH  17  19
ENDBRANCH  16  17
ENDBRANCH   7   9
ENDBRANCH   6   7
ENDBRANCH   5   6
ENDBRANCH   4   5
ENDBRANCH   3   4
ENDBRANCH   2   3
ENDBRANCH   1   2
BRANCH   1  28
ATOM     28  O   UNL     1       2.531   0.258   3.710  1.00  0.00    -0.376 OA
BRANCH  28  29
ATOM     29  C   UNL     1       3.851   0.795   3.534  1.00  0.00     0.202 C 
BRANCH  29  30
ATOM     30  C   UNL     1       4.174   2.110   4.256  1.00  0.00     0.261 C 
BRANCH  30  31
ATOM     31  O   UNL     1       3.360   3.214   3.872  1.00  0.00    -0.460 OA
BRANCH  31  32
ATOM     32  C   UNL     1       3.147   3.460   2.561  1.00  0.00     0.338 C 
ATOM     33  O   UNL     1       3.729   2.979   1.607  1.00  0.00    -0.246 OA
BRANCH  32  34
ATOM     34  C   UNL     1       1.984   4.360   2.495  1.00  0.00     0.060 A 
ATOM     35  C   UNL     1       1.801   5.095   1.325  1.00  0.00     0.016 A 
ATOM     36  C   UNL     1       1.206   4.594   3.648  1.00  0.00     0.016 A 
ATOM     37  C   UNL     1       1.072   6.259   1.413  1.00  0.00     0.010 A 
ATOM     38  C   UNL     1       0.471   5.744   3.733  1.00  0.00     0.010 A 
ATOM     39  C   UNL     1       0.550   6.619   2.659  1.00  0.00    -0.014 A 
BRANCH  39  40
ATOM     40  C   UNL     1       0.399   8.031   2.930  1.00  0.00     0.031 A 
ATOM     41  C   UNL     1      -0.931   8.605   2.700  1.00  0.00     0.074 A 
ATOM     42  C   UNL     1       1.419   8.707   3.496  1.00  0.00     0.049 A 
ATOM     43  N   UNL     1      -1.265   9.489   1.824  1.00  0.00    -0.248 NA
ATOM     44  C   UNL     1      -2.057   8.038   3.452  1.00  0.00     0.031 C 
ATOM     45  C   UNL     1       2.644   8.155   4.090  1.00  0.00     0.029 A 
ATOM     46  N   UNL     1       1.506  10.030   3.784  1.00  0.00    -0.354 N 
ATOM     47  C   UNL     1      -2.611   9.745   2.047  1.00  0.00     0.074 A 
ATOM     48  C   UNL     1      -3.080   8.688   2.901  1.00  0.00     0.031 C 
ATOM     49  C   UNL     1       3.222   9.098   4.865  1.00  0.00     0.029 A 
ATOM     50  C   UNL     1       2.477  10.338   4.725  1.00  0.00     0.049 A 
ATOM     51  H   UNL     1       0.932  10.710   3.362  1.00  0.00     0.167 HD
ATOM     52  C   UNL     1      -3.175  10.930   1.690  1.00  0.00     0.034 A 
ATOM     53  C   UNL     1       2.575  11.494   5.429  1.00  0.00     0.034 A 
ATOM     54  C   UNL     1      -2.333  11.647   0.757  1.00  0.00     0.049 A 
ATOM     55  C   UNL     1       1.814  12.528   4.676  1.00  0.00     0.074 A 
ATOM     56  C   UNL     1      -1.818  11.352  -0.492  1.00  0.00     0.029 A 
ATOM     57  N   UNL     1      -1.589  12.710   1.220  1.00  0.00    -0.354 N 
ATOM     58  N   UNL     1       2.154  12.956   3.488  1.00  0.00    -0.248 NA
ATOM     59  C   UNL     1       0.415  12.740   5.024  1.00  0.00     0.031 C 
ATOM     60  C   UNL     1      -0.507  11.913  -0.495  1.00  0.00     0.029 A 
ATOM     61  C   UNL     1      -0.315  12.563   0.725  1.00  0.00     0.049 A 
ATOM     62  H   UNL     1      -1.911  13.440   1.798  1.00  0.00     0.167 HD
ATOM     63  C   UNL     1       0.959  13.096   2.794  1.00  0.00     0.074 A 
ATOM     64  C   UNL     1      -0.079  13.052   3.821  1.00  0.00     0.031 C 
ATOM     65  C   UNL     1       0.894  12.944   1.436  1.00  0.00     0.034 A 
BRANCH  52  66
ATOM     66  C   UNL     1      -4.334  11.581   2.407  1.00  0.00     0.023 A 
ATOM     67  C   UNL     1      -4.805  12.800   1.886  1.00  0.00     0.031 A 
ATOM     68  C   UNL     1      -4.834  11.229   3.683  1.00  0.00     0.131 A 
ATOM     69  C   UNL     1      -5.643  13.636   2.642  1.00  0.00     0.055 A 
ATOM     70  C   UNL     1      -5.734  12.026   4.396  1.00  0.00     0.041 A 
ATOM     71  F   UNL     1      -4.416  10.154   4.360  1.00  0.00    -0.206 F 
ATOM     72  C   UNL     1      -6.119  13.253   3.892  1.00  0.00     0.022 A 
BRANCH  69  73
ATOM     73  S   UNL     1      -5.939  15.317   2.042  1.00  0.00     0.124 S 
ATOM     74  O   UNL     1      -4.584  15.769   1.743  1.00  0.00    -0.237 OA
ATOM     75  O   UNL     1      -6.806  15.075   0.894  1.00  0.00    -0.237 OA
ATOM     76  O   UNL     1      -6.576  15.974   3.181  1.00  0.00    -0.744 OA
ENDBRANCH  69  73
ENDBRANCH  52  66
BRANCH  53  77
ATOM     77  C   UNL     1       2.954  11.590   6.865  1.00  0.00     0.023 A 
ATOM     78  C   UNL     1       3.420  12.780   7.452  1.00  0.00     0.031 A 
ATOM     79  C   UNL     1       2.674  10.517   7.747  1.00  0.00     0.131 A 
ATOM     80  C   UNL     1       3.612  12.852   8.852  1.00  0.00     0.055 A 
ATOM     81  C   UNL     1       2.889  10.585   9.124  1.00  0.00     0.041 A 
ATOM     82  F   UNL     1       2.103   9.383   7.309  1.00  0.00    -0.206 F 
ATOM     83  C   UNL     1       3.357  11.759   9.685  1.00  0.00     0.022 A 
BRANCH  80  84
ATOM     84  S   UNL     1       4.106  14.423   9.629  1.00  0.00     0.124 S 
ATOM     85  O   UNL     1       5.481  14.575   9.169  1.00  0.00    -0.237 OA
ATOM     86  O   UNL     1       3.131  15.360   9.082  1.00  0.00    -0.237 OA
ATOM     87  O   UNL     1       3.961  14.156  11.060  1.00  0.00    -0.744 OA
ENDBRANCH  80  84
ENDBRANCH  53  77
BRANCH  65  88
ATOM     88  C   UNL     1       2.185  12.905   0.639  1.00  0.00     0.023 A 
ATOM     89  C   UNL     1       3.217  11.962   0.841  1.00  0.00     0.031 A 
ATOM     90  C   UNL     1       2.291  13.757  -0.476  1.00  0.00     0.131 A 
ATOM     91  C   UNL     1       4.302  11.900  -0.056  1.00  0.00     0.055 A 
ATOM     92  C   UNL     1       3.358  13.681  -1.371  1.00  0.00     0.041 A 
ATOM     93  F   UNL     1       1.325  14.651  -0.744  1.00  0.00    -0.206 F 
ATOM     94  C   UNL     1       4.371  12.753  -1.162  1.00  0.00     0.022 A 
BRANCH  91  95
ATOM     95  S   UNL     1       5.645  10.695   0.199  1.00  0.00     0.124 S 
ATOM     96  O   UNL     1       5.980  10.850   1.609  1.00  0.00    -0.237 OA
ATOM     97  O   UNL     1       5.011   9.433  -0.175  1.00  0.00    -0.237 OA
ATOM     98  O   UNL     1       6.686  11.147  -0.727  1.00  0.00    -0.744 OA
ENDBRANCH  91  95
ENDBRANCH  65  88
ENDBRANCH  39  40
ENDBRANCH  32  34
ENDBRANCH  31  32
ENDBRANCH  30  31
ENDBRANCH  29  30
ENDBRANCH  28  29
ENDBRANCH   1  28
TORSDOF 22
