REMARK SMILES C[NH2+][C@]1(C(=O)OCCOCCOCCOC(=O)c2ccc(-c3c4nc(c(-c5cc(S(=O)(=O)[O-])ccc5F)c5ccc([nH]5)c(-c5cc(S(=O)(=O)[O-])ccc5F)c5nc(c(-c6cc(S(=O)(=O)[O-])ccc6F)c6ccc3[nH]6)C=C5)C=C4)cc2)CCC[C@H](Sc2n[nH]c(=O)n2C)C1
REMARK SMILES IDX 11 1 10 2 9 3 8 4 7 5 6 6 4 7 5 8 3 9 81 10 93 11 82 12
REMARK SMILES IDX 84 13 83 14 2 15 1 16 85 19 86 20 87 21 91 22 88 23 89 24
REMARK SMILES IDX 92 25 90 27 12 28 13 29 14 30 15 31 16 32 17 33 18 34 19 35
REMARK SMILES IDX 80 36 20 37 79 38 21 39 22 40 23 41 73 42 24 43 78 44 72 45
REMARK SMILES IDX 74 46 25 47 77 48 71 49 70 50 26 52 58 53 38 54 57 55 39 56
REMARK SMILES IDX 42 57 56 58 75 59 40 60 41 61 55 63 76 64 43 65 27 66 28 67
REMARK SMILES IDX 36 68 29 69 35 70 37 71 34 72 30 73 31 74 32 75 33 76 59 77
REMARK SMILES IDX 60 78 68 79 61 80 67 81 69 82 66 83 62 84 63 85 64 86 65 87
REMARK SMILES IDX 44 88 45 89 53 90 46 91 52 92 54 93 51 94 47 95 48 96 49 97
REMARK SMILES IDX 50 98
REMARK H PARENT 2 17 2 18 88 26 74 51 42 62
REMARK Flexibility Score: inf
ROOT
ATOM      1  C   UNL     1       1.253  -0.702  -0.761  1.00  0.00     0.188 C 
ENDROOT
BRANCH   1   2
ATOM      2  C   UNL     1       2.062   0.411  -1.437  1.00  0.00     0.188 C 
BRANCH   2   3
ATOM      3  O   UNL     1       3.407   0.613  -1.023  1.00  0.00    -0.376 OA
BRANCH   3   4
ATOM      4  C   UNL     1       3.663   0.809   0.365  1.00  0.00     0.202 C 
BRANCH   4   5
ATOM      5  C   UNL     1       2.736   1.692   1.228  1.00  0.00     0.261 C 
BRANCH   5   6
ATOM      6  O   UNL     1       1.334   1.363   1.171  1.00  0.00    -0.459 OA
BRANCH   6   7
ATOM      7  C   UNL     1       0.475   2.403   0.975  1.00  0.00     0.368 C 
ATOM      8  O   UNL     1       0.830   3.579   0.956  1.00  0.00    -0.245 OA
BRANCH   7   9
ATOM      9  C   UNL     1      -1.001   1.959   0.686  1.00  0.00     0.195 C 
ATOM     10  C   UNL     1      -1.380   0.642   1.428  1.00  0.00     0.081 C 
ATOM     11  C   UNL     1      -1.927   3.069   1.275  1.00  0.00     0.096 C 
ATOM     12  C   UNL     1      -2.867   0.287   1.326  1.00  0.00     0.008 C 
ATOM     13  C   UNL     1      -3.442   2.778   1.251  1.00  0.00     0.061 C 
ATOM     14  C   UNL     1      -3.732   1.410   1.881  1.00  0.00     0.015 C 
BRANCH   9  15
ATOM     15  N   UNL     1      -1.179   1.738  -0.786  1.00  0.00    -0.335 N 
ATOM     16  C   UNL     1      -0.813   2.866  -1.647  1.00  0.00     0.331 C 
ATOM     17  H   UNL     1      -0.605   0.939  -1.054  1.00  0.00     0.347 HD
ATOM     18  H   UNL     1      -2.179   1.594  -0.926  1.00  0.00     0.347 HD
ENDBRANCH   9  15
BRANCH  13  19
ATOM     19  S   UNL     1      -4.040   2.943  -0.461  1.00  0.00    -0.082 SA
BRANCH  19  20
ATOM     20  C   UNL     1      -5.748   2.873  -0.343  1.00  0.00     0.191 A 
ATOM     21  N   UNL     1      -6.427   2.859   0.765  1.00  0.00    -0.146 NA
ATOM     22  N   UNL     1      -6.485   2.822  -1.477  1.00  0.00    -0.273 N 
ATOM     23  N   UNL     1      -7.723   2.782   0.338  1.00  0.00    -0.226 N 
ATOM     24  C   UNL     1      -7.780   2.761  -1.049  1.00  0.00     0.343 A 
ATOM     25  C   UNL     1      -6.100   2.842  -2.874  1.00  0.00     0.157 C 
ATOM     26  H   UNL     1      -8.507   2.747   0.932  1.00  0.00     0.195 HD
ATOM     27  O   UNL     1      -8.801   2.697  -1.719  1.00  0.00    -0.246 OA
ENDBRANCH  19  20
ENDBRANCH  13  19
ENDBRANCH   7   9
ENDBRANCH   6   7
ENDBRANCH   5   6
ENDBRANCH   4   5
ENDBRANCH   3   4
ENDBRANCH   2   3
ENDBRANCH   1   2
BRANCH   1  28
ATOM     28  O   UNL     1       1.871  -1.293   0.356  1.00  0.00    -0.376 OA
BRANCH  28  29
ATOM     29  C   UNL     1       2.497  -2.553   0.192  1.00  0.00     0.202 C 
BRANCH  29  30
ATOM     30  C   UNL     1       3.131  -3.035  -1.133  1.00  0.00     0.261 C 
BRANCH  30  31
ATOM     31  O   UNL     1       2.636  -2.506  -2.371  1.00  0.00    -0.460 OA
BRANCH  31  32
ATOM     32  C   UNL     1       1.523  -3.083  -2.892  1.00  0.00     0.338 C 
ATOM     33  O   UNL     1       0.901  -4.016  -2.417  1.00  0.00    -0.246 OA
BRANCH  32  34
ATOM     34  C   UNL     1       1.053  -2.229  -4.011  1.00  0.00     0.060 A 
ATOM     35  C   UNL     1      -0.177  -1.563  -3.897  1.00  0.00     0.016 A 
ATOM     36  C   UNL     1       1.828  -2.076  -5.161  1.00  0.00     0.016 A 
ATOM     37  C   UNL     1      -0.645  -0.761  -4.941  1.00  0.00     0.010 A 
ATOM     38  C   UNL     1       1.345  -1.294  -6.217  1.00  0.00     0.010 A 
ATOM     39  C   UNL     1       0.094  -0.654  -6.125  1.00  0.00    -0.014 A 
BRANCH  39  40
ATOM     40  C   UNL     1      -0.517  -0.048  -7.338  1.00  0.00     0.031 A 
ATOM     41  C   UNL     1      -1.082  -0.970  -8.385  1.00  0.00     0.074 A 
ATOM     42  C   UNL     1      -0.578   1.285  -7.511  1.00  0.00     0.049 A 
ATOM     43  N   UNL     1      -1.562  -0.694  -9.570  1.00  0.00    -0.248 NA
ATOM     44  C   UNL     1      -1.099  -2.401  -8.045  1.00  0.00     0.031 C 
ATOM     45  C   UNL     1      -0.123   2.285  -6.548  1.00  0.00     0.029 A 
ATOM     46  N   UNL     1      -1.036   2.026  -8.575  1.00  0.00    -0.354 N 
ATOM     47  C   UNL     1      -1.927  -1.917 -10.123  1.00  0.00     0.074 A 
ATOM     48  C   UNL     1      -1.577  -2.936  -9.157  1.00  0.00     0.031 C 
ATOM     49  C   UNL     1      -0.306   3.510  -7.074  1.00  0.00     0.029 A 
ATOM     50  C   UNL     1      -0.845   3.381  -8.428  1.00  0.00     0.049 A 
ATOM     51  H   UNL     1      -1.462   1.625  -9.367  1.00  0.00     0.167 HD
ATOM     52  C   UNL     1      -2.508  -2.166 -11.323  1.00  0.00     0.034 A 
ATOM     53  C   UNL     1      -1.044   4.392  -9.299  1.00  0.00     0.034 A 
ATOM     54  C   UNL     1      -2.835  -1.140 -12.284  1.00  0.00     0.049 A 
ATOM     55  C   UNL     1      -1.590   4.083 -10.676  1.00  0.00     0.074 A 
ATOM     56  C   UNL     1      -3.428  -1.282 -13.527  1.00  0.00     0.029 A 
ATOM     57  N   UNL     1      -2.584   0.216 -12.119  1.00  0.00    -0.354 N 
ATOM     58  N   UNL     1      -1.929   2.923 -11.192  1.00  0.00    -0.248 NA
ATOM     59  C   UNL     1      -1.784   5.221 -11.586  1.00  0.00     0.031 C 
ATOM     60  C   UNL     1      -3.457  -0.028 -14.145  1.00  0.00     0.029 A 
ATOM     61  C   UNL     1      -2.975   0.915 -13.251  1.00  0.00     0.049 A 
ATOM     62  H   UNL     1      -2.186   0.622 -11.315  1.00  0.00     0.167 HD
ATOM     63  C   UNL     1      -2.411   3.201 -12.471  1.00  0.00     0.074 A 
ATOM     64  C   UNL     1      -2.330   4.636 -12.642  1.00  0.00     0.031 C 
ATOM     65  C   UNL     1      -2.885   2.348 -13.416  1.00  0.00     0.034 A 
BRANCH  52  66
ATOM     66  C   UNL     1      -2.768  -3.610 -11.681  1.00  0.00     0.023 A 
ATOM     67  C   UNL     1      -3.647  -4.413 -10.933  1.00  0.00     0.031 A 
ATOM     68  C   UNL     1      -2.101  -4.203 -12.768  1.00  0.00     0.131 A 
ATOM     69  C   UNL     1      -3.777  -5.777 -11.233  1.00  0.00     0.055 A 
ATOM     70  C   UNL     1      -2.302  -5.540 -13.116  1.00  0.00     0.041 A 
ATOM     71  F   UNL     1      -1.229  -3.496 -13.504  1.00  0.00    -0.206 F 
ATOM     72  C   UNL     1      -3.132  -6.340 -12.337  1.00  0.00     0.022 A 
BRANCH  69  73
ATOM     73  S   UNL     1      -4.674  -6.838 -10.068  1.00  0.00     0.124 S 
ATOM     74  O   UNL     1      -3.925  -6.618  -8.832  1.00  0.00    -0.237 OA
ATOM     75  O   UNL     1      -6.021  -6.281 -10.106  1.00  0.00    -0.237 OA
ATOM     76  O   UNL     1      -4.534  -8.174 -10.642  1.00  0.00    -0.744 OA
ENDBRANCH  69  73
ENDBRANCH  52  66
BRANCH  53  77
ATOM     77  C   UNL     1      -0.681   5.793  -8.931  1.00  0.00     0.023 A 
ATOM     78  C   UNL     1      -1.648   6.810  -8.883  1.00  0.00     0.031 A 
ATOM     79  C   UNL     1       0.658   6.151  -8.686  1.00  0.00     0.131 A 
ATOM     80  C   UNL     1      -1.259   8.138  -8.647  1.00  0.00     0.055 A 
ATOM     81  C   UNL     1       1.032   7.463  -8.391  1.00  0.00     0.041 A 
ATOM     82  F   UNL     1       1.628   5.223  -8.729  1.00  0.00    -0.206 F 
ATOM     83  C   UNL     1       0.072   8.469  -8.384  1.00  0.00     0.022 A 
BRANCH  80  84
ATOM     84  S   UNL     1      -2.507   9.447  -8.787  1.00  0.00     0.124 S 
ATOM     85  O   UNL     1      -2.966   9.273 -10.160  1.00  0.00    -0.237 OA
ATOM     86  O   UNL     1      -3.454   9.075  -7.741  1.00  0.00    -0.237 OA
ATOM     87  O   UNL     1      -1.748  10.670  -8.531  1.00  0.00    -0.744 OA
ENDBRANCH  80  84
ENDBRANCH  53  77
BRANCH  65  88
ATOM     88  C   UNL     1      -3.410   2.950 -14.700  1.00  0.00     0.023 A 
ATOM     89  C   UNL     1      -2.576   3.632 -15.603  1.00  0.00     0.031 A 
ATOM     90  C   UNL     1      -4.776   2.840 -15.022  1.00  0.00     0.131 A 
ATOM     91  C   UNL     1      -3.123   4.224 -16.753  1.00  0.00     0.055 A 
ATOM     92  C   UNL     1      -5.302   3.370 -16.201  1.00  0.00     0.041 A 
ATOM     93  F   UNL     1      -5.624   2.205 -14.197  1.00  0.00    -0.206 F 
ATOM     94  C   UNL     1      -4.477   4.080 -17.067  1.00  0.00     0.022 A 
BRANCH  91  95
ATOM     95  S   UNL     1      -2.063   5.277 -17.781  1.00  0.00     0.124 S 
ATOM     96  O   UNL     1      -1.613   6.282 -16.823  1.00  0.00    -0.237 OA
ATOM     97  O   UNL     1      -1.047   4.339 -18.246  1.00  0.00    -0.237 OA
ATOM     98  O   UNL     1      -2.970   5.770 -18.817  1.00  0.00    -0.744 OA
ENDBRANCH  91  95
ENDBRANCH  65  88
ENDBRANCH  39  40
ENDBRANCH  32  34
ENDBRANCH  31  32
ENDBRANCH  30  31
ENDBRANCH  29  30
ENDBRANCH  28  29
ENDBRANCH   1  28
TORSDOF 23
