REMARK SMILES CC1(C)O[C@@H]2C[C@@H]3[C@H]4CCC5=CC(=O)C=C[C@@]5(C)[C@]4(F)[C@H](O)C[C@]3(C)[C@]2(C(=O)OCCOCCOCCOC(=O)c2ccc(-c3c4nc(c(-c5cc(S(=O)(=O)[O-])ccc5F)c5ccc([nH]5)c(-c5cc(S(=O)(=O)[O-])ccc5F)c5nc(c(-c6cc(S(=O)(=O)[O-])ccc6F)c6ccc3[nH]6)C=C5)C=C4)cc2)O1
REMARK SMILES IDX 34 1 33 2 32 3 31 4 30 5 29 6 27 7 28 8 26 9 1 10 2 11 4 12
REMARK SMILES IDX 104 13 3 14 5 15 6 16 24 17 7 18 23 19 25 20 8 21 21 22 9 23
REMARK SMILES IDX 19 24 10 25 17 26 20 27 11 28 16 29 18 30 12 31 15 32 13 33
REMARK SMILES IDX 14 34 22 35 35 37 36 38 37 39 38 40 39 41 40 42 41 43 42 44
REMARK SMILES IDX 103 45 43 46 102 47 44 48 45 49 46 50 96 51 47 52 101 53
REMARK SMILES IDX 95 54 97 55 48 56 100 57 94 58 93 59 49 61 81 62 61 63 80 64
REMARK SMILES IDX 62 65 65 66 79 67 98 68 63 69 64 70 78 72 99 73 66 74 50 75
REMARK SMILES IDX 51 76 59 77 52 78 58 79 60 80 57 81 53 82 54 83 55 84 56 85
REMARK SMILES IDX 82 86 83 87 91 88 84 89 90 90 92 91 89 92 85 93 86 94 87 95
REMARK SMILES IDX 88 96 67 97 68 98 76 99 69 100 75 101 77 102 74 103 70 104
REMARK SMILES IDX 71 105 72 106 73 107
REMARK H PARENT 22 36 97 60 65 71
REMARK Flexibility Score: inf
ROOT
ATOM      1  C   UNL     1       0.149   1.848   3.370  1.00  0.00     0.188 C 
ENDROOT
BRANCH   1   2
ATOM      2  C   UNL     1      -1.163   2.495   2.901  1.00  0.00     0.188 C 
BRANCH   2   3
ATOM      3  O   UNL     1      -2.034   2.778   3.992  1.00  0.00    -0.376 OA
BRANCH   3   4
ATOM      4  C   UNL     1      -3.162   1.930   4.107  1.00  0.00     0.202 C 
BRANCH   4   5
ATOM      5  C   UNL     1      -2.873   0.609   4.844  1.00  0.00     0.261 C 
BRANCH   5   6
ATOM      6  O   UNL     1      -1.899  -0.310   4.294  1.00  0.00    -0.461 OA
BRANCH   6   7
ATOM      7  C   UNL     1      -2.071  -0.644   3.000  1.00  0.00     0.341 C 
ATOM      8  O   UNL     1      -2.905  -0.113   2.268  1.00  0.00    -0.249 OA
BRANCH   7   9
ATOM      9  C   UNL     1      -1.277  -1.843   2.514  1.00  0.00     0.200 C 
ATOM     10  C   UNL     1       1.252  -0.338   0.627  1.00  0.00     0.075 C 
ATOM     11  C   UNL     1       0.570  -1.626   1.024  1.00  0.00     0.165 C 
ATOM     12  O   UNL     1       1.108  -2.012   2.287  1.00  0.00    -0.344 OA
ATOM     13  O   UNL     1      -0.866  -1.444   1.152  1.00  0.00    -0.329 OA
ATOM     14  C   UNL     1       0.918  -2.627  -0.099  1.00  0.00     0.075 C 
ATOM     15  C   UNL     1       0.018  -2.482   3.085  1.00  0.00     0.166 C 
ATOM     16  C   UNL     1      -0.106  -4.060   2.816  1.00  0.00     0.040 C 
ATOM     17  C   UNL     1      -2.288  -3.084   2.588  1.00  0.00     0.016 C 
ATOM     18  C   UNL     1      -1.355  -4.110   1.917  1.00  0.00     0.008 C 
ATOM     19  C   UNL     1      -3.693  -3.027   1.961  1.00  0.00     0.046 C 
ATOM     20  C   UNL     1      -2.571  -3.396   4.101  1.00  0.00     0.015 C 
ATOM     21  C   UNL     1      -1.716  -4.848   0.607  1.00  0.00     0.035 C 
ATOM     22  C   UNL     1      -3.777  -3.366   0.488  1.00  0.00     0.154 C 
ATOM     23  C   UNL     1      -1.067  -6.204   0.398  1.00  0.00     0.012 C 
ATOM     24  C   UNL     1      -3.204  -4.792   0.224  1.00  0.00     0.152 C 
ATOM     25  C   UNL     1      -1.136  -6.525  -1.099  1.00  0.00     0.032 C 
ATOM     26  C   UNL     1      -3.441  -5.290  -1.267  1.00  0.00     0.044 C 
ATOM     27  F   UNL     1      -3.832  -5.663   1.087  1.00  0.00    -0.239 F 
ATOM     28  C   UNL     1      -2.554  -6.501  -1.615  1.00  0.00    -0.053 C 
ATOM     29  C   UNL     1      -4.921  -5.698  -1.447  1.00  0.00    -0.009 C 
ATOM     30  C   UNL     1      -3.148  -4.185  -2.320  1.00  0.00     0.024 C 
ATOM     31  C   UNL     1      -2.998  -7.484  -2.420  1.00  0.00     0.052 C 
ATOM     32  C   UNL     1      -5.304  -6.387  -2.542  1.00  0.00     0.048 C 
ATOM     33  C   UNL     1      -4.359  -7.449  -3.011  1.00  0.00     0.178 C 
ATOM     34  O   UNL     1      -4.696  -8.271  -3.854  1.00  0.00    -0.290 OA
BRANCH  22  35
ATOM     35  O   UNL     1      -3.131  -2.348  -0.268  1.00  0.00    -0.390 OA
ATOM     36  H   UNL     1      -2.199  -2.292  -0.005  1.00  0.00     0.211 HD
ENDBRANCH  22  35
ENDBRANCH   7   9
ENDBRANCH   6   7
ENDBRANCH   5   6
ENDBRANCH   4   5
ENDBRANCH   3   4
ENDBRANCH   2   3
ENDBRANCH   1   2
BRANCH   1  37
ATOM     37  O   UNL     1       0.606   2.192   4.673  1.00  0.00    -0.376 OA
BRANCH  37  38
ATOM     38  C   UNL     1       0.681   3.588   4.951  1.00  0.00     0.202 C 
BRANCH  38  39
ATOM     39  C   UNL     1       1.618   4.391   4.039  1.00  0.00     0.261 C 
BRANCH  39  40
ATOM     40  O   UNL     1       1.121   4.480   2.683  1.00  0.00    -0.460 OA
BRANCH  40  41
ATOM     41  C   UNL     1       2.068   4.415   1.715  1.00  0.00     0.338 C 
ATOM     42  O   UNL     1       3.274   4.380   1.883  1.00  0.00    -0.246 OA
BRANCH  41  43
ATOM     43  C   UNL     1       1.456   4.295   0.372  1.00  0.00     0.060 A 
ATOM     44  C   UNL     1       1.083   3.033  -0.090  1.00  0.00     0.016 A 
ATOM     45  C   UNL     1       1.470   5.365  -0.516  1.00  0.00     0.016 A 
ATOM     46  C   UNL     1       0.789   2.806  -1.437  1.00  0.00     0.010 A 
ATOM     47  C   UNL     1       1.148   5.149  -1.866  1.00  0.00     0.010 A 
ATOM     48  C   UNL     1       0.851   3.858  -2.350  1.00  0.00    -0.014 A 
BRANCH  48  49
ATOM     49  C   UNL     1       0.813   3.588  -3.816  1.00  0.00     0.031 A 
ATOM     50  C   UNL     1       2.073   3.805  -4.614  1.00  0.00     0.074 A 
ATOM     51  C   UNL     1      -0.276   3.096  -4.439  1.00  0.00     0.049 A 
ATOM     52  N   UNL     1       2.237   3.918  -5.905  1.00  0.00    -0.248 NA
ATOM     53  C   UNL     1       3.318   3.906  -3.836  1.00  0.00     0.031 C 
ATOM     54  C   UNL     1      -1.510   2.664  -3.784  1.00  0.00     0.029 A 
ATOM     55  N   UNL     1      -0.518   2.882  -5.776  1.00  0.00    -0.354 N 
ATOM     56  C   UNL     1       3.595   4.160  -6.094  1.00  0.00     0.074 A 
ATOM     57  C   UNL     1       4.206   4.173  -4.781  1.00  0.00     0.031 C 
ATOM     58  C   UNL     1      -2.380   2.249  -4.720  1.00  0.00     0.029 A 
ATOM     59  C   UNL     1      -1.806   2.474  -6.044  1.00  0.00     0.049 A 
ATOM     60  H   UNL     1       0.164   3.008  -6.475  1.00  0.00     0.167 HD
ATOM     61  C   UNL     1       4.263   4.365  -7.256  1.00  0.00     0.034 A 
ATOM     62  C   UNL     1      -2.466   2.366  -7.217  1.00  0.00     0.034 A 
ATOM     63  C   UNL     1       3.637   4.325  -8.554  1.00  0.00     0.049 A 
ATOM     64  C   UNL     1      -1.748   2.739  -8.495  1.00  0.00     0.074 A 
ATOM     65  C   UNL     1       4.193   4.584  -9.795  1.00  0.00     0.029 A 
ATOM     66  N   UNL     1       2.308   3.988  -8.779  1.00  0.00    -0.354 N 
ATOM     67  N   UNL     1      -0.502   3.119  -8.664  1.00  0.00    -0.248 NA
ATOM     68  C   UNL     1      -2.532   2.690  -9.739  1.00  0.00     0.031 C 
ATOM     69  C   UNL     1       3.189   4.456 -10.762  1.00  0.00     0.029 A 
ATOM     70  C   UNL     1       2.023   4.049 -10.133  1.00  0.00     0.049 A 
ATOM     71  H   UNL     1       1.663   3.741  -8.077  1.00  0.00     0.167 HD
ATOM     72  C   UNL     1      -0.350   3.328 -10.033  1.00  0.00     0.074 A 
ATOM     73  C   UNL     1      -1.625   3.022 -10.646  1.00  0.00     0.031 C 
ATOM     74  C   UNL     1       0.745   3.736 -10.724  1.00  0.00     0.034 A 
BRANCH  61  75
ATOM     75  C   UNL     1       5.721   4.740  -7.155  1.00  0.00     0.023 A 
ATOM     76  C   UNL     1       6.691   3.847  -6.668  1.00  0.00     0.031 A 
ATOM     77  C   UNL     1       6.136   6.038  -7.504  1.00  0.00     0.131 A 
ATOM     78  C   UNL     1       8.010   4.287  -6.475  1.00  0.00     0.055 A 
ATOM     79  C   UNL     1       7.465   6.446  -7.383  1.00  0.00     0.041 A 
ATOM     80  F   UNL     1       5.248   6.941  -7.951  1.00  0.00    -0.206 F 
ATOM     81  C   UNL     1       8.409   5.573  -6.851  1.00  0.00     0.022 A 
BRANCH  78  82
ATOM     82  S   UNL     1       9.165   3.205  -5.589  1.00  0.00     0.124 S 
ATOM     83  O   UNL     1       8.484   3.033  -4.308  1.00  0.00    -0.237 OA
ATOM     84  O   UNL     1       9.219   2.029  -6.448  1.00  0.00    -0.237 OA
ATOM     85  O   UNL     1      10.396   3.992  -5.530  1.00  0.00    -0.744 OA
ENDBRANCH  78  82
ENDBRANCH  61  75
BRANCH  62  86
ATOM     86  C   UNL     1      -3.915   1.998  -7.249  1.00  0.00     0.023 A 
ATOM     87  C   UNL     1      -4.365   0.866  -7.948  1.00  0.00     0.031 A 
ATOM     88  C   UNL     1      -4.883   2.824  -6.648  1.00  0.00     0.131 A 
ATOM     89  C   UNL     1      -5.743   0.618  -8.068  1.00  0.00     0.055 A 
ATOM     90  C   UNL     1      -6.248   2.539  -6.716  1.00  0.00     0.041 A 
ATOM     91  F   UNL     1      -4.515   3.931  -5.982  1.00  0.00    -0.206 F 
ATOM     92  C   UNL     1      -6.686   1.437  -7.442  1.00  0.00     0.022 A 
BRANCH  89  93
ATOM     93  S   UNL     1      -6.295  -0.733  -9.146  1.00  0.00     0.124 S 
ATOM     94  O   UNL     1      -5.692  -0.360 -10.420  1.00  0.00    -0.237 OA
ATOM     95  O   UNL     1      -5.725  -1.900  -8.482  1.00  0.00    -0.237 OA
ATOM     96  O   UNL     1      -7.753  -0.637  -9.093  1.00  0.00    -0.744 OA
ENDBRANCH  89  93
ENDBRANCH  62  86
BRANCH  74  97
ATOM     97  C   UNL     1       0.624   3.809 -12.226  1.00  0.00     0.023 A 
ATOM     98  C   UNL     1      -0.151   4.794 -12.860  1.00  0.00     0.031 A 
ATOM     99  C   UNL     1       1.306   2.879 -13.030  1.00  0.00     0.131 A 
ATOM    100  C   UNL     1      -0.258   4.802 -14.260  1.00  0.00     0.055 A 
ATOM    101  C   UNL     1       1.235   2.921 -14.422  1.00  0.00     0.041 A 
ATOM    102  F   UNL     1       2.061   1.919 -12.472  1.00  0.00    -0.206 F 
ATOM    103  C   UNL     1       0.442   3.881 -15.045  1.00  0.00     0.022 A 
BRANCH 100 104
ATOM    104  S   UNL     1      -1.373   5.999 -15.045  1.00  0.00     0.124 S 
ATOM    105  O   UNL     1      -2.666   5.624 -14.483  1.00  0.00    -0.237 OA
ATOM    106  O   UNL     1      -0.828   7.276 -14.596  1.00  0.00    -0.237 OA
ATOM    107  O   UNL     1      -1.215   5.729 -16.473  1.00  0.00    -0.744 OA
ENDBRANCH 100 104
ENDBRANCH  74  97
ENDBRANCH  48  49
ENDBRANCH  41  43
ENDBRANCH  40  41
ENDBRANCH  39  40
ENDBRANCH  38  39
ENDBRANCH  37  38
ENDBRANCH   1  37
TORSDOF 21
