REMARK SMILES C[C@@H](NC(=O)/C(=C/c1ccc(Cl)cc1)NC(=O)c1ccc(C(C)(C)C)cc1)C(=O)OCCOCCOCCOC(=O)c1ccc(-c2c3nc(c(-c4cc(S(=O)(=O)[O-])ccc4F)c4ccc([nH]4)c(-c4cc(S(=O)(=O)[O-])ccc4F)c4nc(c(-c5cc(S(=O)(=O)[O-])ccc5F)c5ccc2[nH]5)C=C4)C=C3)cc1
REMARK SMILES IDX 34 1 33 2 32 3 31 4 30 5 28 6 29 7 2 8 1 9 3 10 4 11 5 13
REMARK SMILES IDX 6 14 7 15 15 16 16 17 17 19 18 20 19 21 27 22 20 23 26 24
REMARK SMILES IDX 21 25 22 26 23 27 24 28 25 29 8 30 9 31 14 32 10 33 13 34
REMARK SMILES IDX 11 35 12 36 35 37 36 38 37 39 38 40 39 41 40 42 41 43 42 44
REMARK SMILES IDX 43 45 104 46 44 47 103 48 45 49 46 50 47 51 97 52 48 53
REMARK SMILES IDX 102 54 96 55 98 56 49 57 101 58 95 59 94 60 50 62 82 63
REMARK SMILES IDX 62 64 81 65 63 66 66 67 80 68 99 69 64 70 65 71 79 73 100 74
REMARK SMILES IDX 67 75 51 76 52 77 60 78 53 79 59 80 61 81 58 82 54 83 55 84
REMARK SMILES IDX 56 85 57 86 83 87 84 88 92 89 85 90 91 91 93 92 90 93 86 94
REMARK SMILES IDX 87 95 88 96 89 97 68 98 69 99 77 100 70 101 76 102 78 103
REMARK SMILES IDX 75 104 71 105 72 106 73 107 74 108
REMARK H PARENT 3 12 15 18 98 61 66 72
REMARK Flexibility Score: inf
ROOT
ATOM      1  C   UNL     1      -2.679   1.732   0.112  1.00  0.00     0.188 C 
ENDROOT
BRANCH   1   2
ATOM      2  O   UNL     1      -3.681   0.839   0.567  1.00  0.00    -0.376 OA
BRANCH   2   3
ATOM      3  C   UNL     1      -3.739  -0.369  -0.164  1.00  0.00     0.202 C 
BRANCH   3   4
ATOM      4  C   UNL     1      -2.659  -1.430   0.062  1.00  0.00     0.261 C 
BRANCH   4   5
ATOM      5  O   UNL     1      -1.302  -1.327  -0.420  1.00  0.00    -0.462 OA
BRANCH   5   6
ATOM      6  C   UNL     1      -0.836  -0.553  -1.420  1.00  0.00     0.328 C 
ATOM      7  O   UNL     1      -1.439   0.327  -2.013  1.00  0.00    -0.250 OA
BRANCH   6   8
ATOM      8  C   UNL     1       0.550  -0.986  -1.850  1.00  0.00     0.189 C 
ATOM      9  C   UNL     1       1.458  -1.156  -0.625  1.00  0.00     0.043 C 
BRANCH   8  10
ATOM     10  N   UNL     1       0.452  -2.186  -2.691  1.00  0.00    -0.338 N 
ATOM     11  C   UNL     1      -0.305  -2.254  -3.848  1.00  0.00     0.268 C 
ATOM     12  H   UNL     1       0.953  -2.988  -2.416  1.00  0.00     0.164 HD
ATOM     13  O   UNL     1       0.247  -2.322  -4.941  1.00  0.00    -0.268 OA
BRANCH  11  14
ATOM     14  C   UNL     1      -1.806  -2.468  -3.715  1.00  0.00     0.107 C 
ATOM     15  C   UNL     1      -2.596  -1.375  -3.809  1.00  0.00     0.040 C 
BRANCH  14  16
ATOM     16  N   UNL     1      -2.355  -3.727  -3.617  1.00  0.00    -0.317 N 
ATOM     17  C   UNL     1      -1.856  -4.998  -3.557  1.00  0.00     0.255 C 
ATOM     18  H   UNL     1      -3.339  -3.707  -3.583  1.00  0.00     0.170 HD
ATOM     19  O   UNL     1      -2.624  -5.957  -3.518  1.00  0.00    -0.269 OA
BRANCH  17  20
ATOM     20  C   UNL     1      -0.421  -5.250  -3.593  1.00  0.00     0.040 A 
ATOM     21  C   UNL     1       0.159  -5.559  -4.818  1.00  0.00     0.014 A 
ATOM     22  C   UNL     1       0.339  -5.179  -2.429  1.00  0.00     0.014 A 
ATOM     23  C   UNL     1       1.539  -5.713  -4.891  1.00  0.00     0.005 A 
ATOM     24  C   UNL     1       1.725  -5.319  -2.516  1.00  0.00     0.005 A 
ATOM     25  C   UNL     1       2.356  -5.555  -3.752  1.00  0.00    -0.043 A 
BRANCH  25  26
ATOM     26  C   UNL     1       3.882  -5.661  -3.895  1.00  0.00    -0.013 C 
ATOM     27  C   UNL     1       4.239  -7.134  -4.165  1.00  0.00     0.016 C 
ATOM     28  C   UNL     1       4.381  -4.784  -5.067  1.00  0.00     0.016 C 
ATOM     29  C   UNL     1       4.651  -5.197  -2.639  1.00  0.00     0.016 C 
ENDBRANCH  25  26
ENDBRANCH  17  20
ENDBRANCH  14  16
BRANCH  15  30
ATOM     30  C   UNL     1      -4.045  -1.150  -3.510  1.00  0.00    -0.023 A 
ATOM     31  C   UNL     1      -4.885  -2.055  -2.832  1.00  0.00     0.010 A 
ATOM     32  C   UNL     1      -4.547   0.156  -3.701  1.00  0.00     0.010 A 
ATOM     33  C   UNL     1      -6.168  -1.688  -2.393  1.00  0.00     0.021 A 
ATOM     34  C   UNL     1      -5.814   0.538  -3.228  1.00  0.00     0.021 A 
ATOM     35  C   UNL     1      -6.621  -0.389  -2.579  1.00  0.00     0.041 A 
ATOM     36  Cl  UNL     1      -8.144   0.082  -1.934  1.00  0.00    -0.084 Cl
ENDBRANCH  15  30
ENDBRANCH  11  14
ENDBRANCH   8  10
ENDBRANCH   6   8
ENDBRANCH   5   6
ENDBRANCH   4   5
ENDBRANCH   3   4
ENDBRANCH   2   3
ENDBRANCH   1   2
BRANCH   1  37
ATOM     37  C   UNL     1      -1.361   1.506   0.855  1.00  0.00     0.188 C 
BRANCH  37  38
ATOM     38  O   UNL     1      -1.382   0.758   2.056  1.00  0.00    -0.376 OA
BRANCH  38  39
ATOM     39  C   UNL     1      -2.401   0.999   3.014  1.00  0.00     0.202 C 
BRANCH  39  40
ATOM     40  C   UNL     1      -3.110   2.362   3.215  1.00  0.00     0.261 C 
BRANCH  40  41
ATOM     41  O   UNL     1      -2.803   3.471   2.359  1.00  0.00    -0.460 OA
BRANCH  41  42
ATOM     42  C   UNL     1      -1.619   4.101   2.517  1.00  0.00     0.338 C 
ATOM     43  O   UNL     1      -0.784   3.862   3.378  1.00  0.00    -0.246 OA
BRANCH  42  44
ATOM     44  C   UNL     1      -1.391   4.939   1.304  1.00  0.00     0.060 A 
ATOM     45  C   UNL     1      -0.234   4.734   0.528  1.00  0.00     0.016 A 
ATOM     46  C   UNL     1      -2.332   5.889   0.904  1.00  0.00     0.016 A 
ATOM     47  C   UNL     1      -0.000   5.486  -0.625  1.00  0.00     0.010 A 
ATOM     48  C   UNL     1      -2.070   6.684  -0.216  1.00  0.00     0.010 A 
ATOM     49  C   UNL     1      -0.884   6.514  -0.958  1.00  0.00    -0.014 A 
BRANCH  49  50
ATOM     50  C   UNL     1      -0.436   7.619  -1.842  1.00  0.00     0.031 A 
ATOM     51  C   UNL     1       0.129   8.838  -1.166  1.00  0.00     0.074 A 
ATOM     52  C   UNL     1      -0.551   7.575  -3.179  1.00  0.00     0.049 A 
ATOM     53  N   UNL     1       0.377  10.025  -1.649  1.00  0.00    -0.248 NA
ATOM     54  C   UNL     1       0.427   8.692   0.268  1.00  0.00     0.031 C 
ATOM     55  C   UNL     1      -0.997   6.422  -3.955  1.00  0.00     0.029 A 
ATOM     56  N   UNL     1      -0.331   8.554  -4.117  1.00  0.00    -0.354 N 
ATOM     57  C   UNL     1       0.823  10.780  -0.569  1.00  0.00     0.074 A 
ATOM     58  C   UNL     1       0.785   9.921   0.594  1.00  0.00     0.031 C 
ATOM     59  C   UNL     1      -1.060   6.773  -5.252  1.00  0.00     0.029 A 
ATOM     60  C   UNL     1      -0.717   8.190  -5.386  1.00  0.00     0.049 A 
ATOM     61  H   UNL     1       0.065   9.429  -3.903  1.00  0.00     0.167 HD
ATOM     62  C   UNL     1       1.221  12.076  -0.550  1.00  0.00     0.034 A 
ATOM     63  C   UNL     1      -0.836   8.931  -6.507  1.00  0.00     0.034 A 
ATOM     64  C   UNL     1       1.228  12.915  -1.722  1.00  0.00     0.049 A 
ATOM     65  C   UNL     1      -0.490  10.402  -6.457  1.00  0.00     0.074 A 
ATOM     66  C   UNL     1       1.617  14.237  -1.833  1.00  0.00     0.029 A 
ATOM     67  N   UNL     1       0.808  12.515  -2.986  1.00  0.00    -0.354 N 
ATOM     68  N   UNL     1      -0.091  11.124  -5.433  1.00  0.00    -0.248 NA
ATOM     69  C   UNL     1      -0.609  11.159  -7.710  1.00  0.00     0.031 C 
ATOM     70  C   UNL     1       1.346  14.662  -3.138  1.00  0.00     0.029 A 
ATOM     71  C   UNL     1       0.890  13.577  -3.872  1.00  0.00     0.049 A 
ATOM     72  H   UNL     1       0.497  11.611  -3.217  1.00  0.00     0.167 HD
ATOM     73  C   UNL     1       0.126  12.409  -5.930  1.00  0.00     0.074 A 
ATOM     74  C   UNL     1      -0.192  12.363  -7.342  1.00  0.00     0.031 C 
ATOM     75  C   UNL     1       0.566  13.518  -5.281  1.00  0.00     0.034 A 
BRANCH  62  76
ATOM     76  C   UNL     1       1.586  12.665   0.793  1.00  0.00     0.023 A 
ATOM     77  C   UNL     1       2.630  12.142   1.577  1.00  0.00     0.031 A 
ATOM     78  C   UNL     1       0.822  13.713   1.336  1.00  0.00     0.131 A 
ATOM     79  C   UNL     1       2.809  12.591   2.894  1.00  0.00     0.055 A 
ATOM     80  C   UNL     1       1.074  14.227   2.609  1.00  0.00     0.041 A 
ATOM     81  F   UNL     1      -0.208  14.236   0.651  1.00  0.00    -0.206 F 
ATOM     82  C   UNL     1       2.058  13.650   3.406  1.00  0.00     0.022 A 
BRANCH  79  83
ATOM     83  S   UNL     1       3.894  11.635   3.991  1.00  0.00     0.124 S 
ATOM     84  O   UNL     1       3.303  10.301   3.901  1.00  0.00    -0.237 OA
ATOM     85  O   UNL     1       5.200  11.798   3.363  1.00  0.00    -0.237 OA
ATOM     86  O   UNL     1       3.735  12.291   5.287  1.00  0.00    -0.744 OA
ENDBRANCH  79  83
ENDBRANCH  62  76
BRANCH  63  87
ATOM     87  C   UNL     1      -1.366   8.310  -7.755  1.00  0.00     0.023 A 
ATOM     88  C   UNL     1      -0.566   8.175  -8.900  1.00  0.00     0.031 A 
ATOM     89  C   UNL     1      -2.694   7.849  -7.821  1.00  0.00     0.131 A 
ATOM     90  C   UNL     1      -1.107   7.613 -10.069  1.00  0.00     0.055 A 
ATOM     91  C   UNL     1      -3.212   7.245  -8.967  1.00  0.00     0.041 A 
ATOM     92  F   UNL     1      -3.504   7.959  -6.755  1.00  0.00    -0.206 F 
ATOM     93  C   UNL     1      -2.418   7.131 -10.104  1.00  0.00     0.022 A 
BRANCH  90  94
ATOM     94  S   UNL     1      -0.087   7.571 -11.568  1.00  0.00     0.124 S 
ATOM     95  O   UNL     1       0.161   8.989 -11.797  1.00  0.00    -0.237 OA
ATOM     96  O   UNL     1       1.059   6.780 -11.133  1.00  0.00    -0.237 OA
ATOM     97  O   UNL     1      -0.953   6.921 -12.550  1.00  0.00    -0.744 OA
ENDBRANCH  90  94
ENDBRANCH  63  87
BRANCH  75  98
ATOM     98  C   UNL     1       0.810  14.763  -6.102  1.00  0.00     0.023 A 
ATOM     99  C   UNL     1      -0.233  15.486  -6.705  1.00  0.00     0.031 A 
ATOM    100  C   UNL     1       2.122  15.252  -6.248  1.00  0.00     0.131 A 
ATOM    101  C   UNL     1       0.058  16.638  -7.454  1.00  0.00     0.055 A 
ATOM    102  C   UNL     1       2.399  16.431  -6.940  1.00  0.00     0.041 A 
ATOM    103  F   UNL     1       3.159  14.599  -5.698  1.00  0.00    -0.206 F 
ATOM    104  C   UNL     1       1.364  17.127  -7.556  1.00  0.00     0.022 A 
BRANCH 101 105
ATOM    105  S   UNL     1      -1.282  17.455  -8.364  1.00  0.00     0.124 S 
ATOM    106  O   UNL     1      -1.753  16.383  -9.235  1.00  0.00    -0.237 OA
ATOM    107  O   UNL     1      -2.190  17.854  -7.294  1.00  0.00    -0.237 OA
ATOM    108  O   UNL     1      -0.610  18.558  -9.049  1.00  0.00    -0.744 OA
ENDBRANCH 101 105
ENDBRANCH  75  98
ENDBRANCH  49  50
ENDBRANCH  42  44
ENDBRANCH  41  42
ENDBRANCH  40  41
ENDBRANCH  39  40
ENDBRANCH  38  39
ENDBRANCH  37  38
ENDBRANCH   1  37
TORSDOF 26
