REMARK SMILES [NH3+][C@@]1(C(=O)OCCOCCOCCOC(=O)c2ccc(-c3c4nc(c(-c5cc(S(=O)(=O)[O-])ccc5F)c5ccc([nH]5)c(-c5cc(S(=O)(=O)[O-])ccc5F)c5nc(c(-c6cc(S(=O)(=O)[O-])ccc6F)c6ccc3[nH]6)C=C5)C=C4)cc2)CCC[C@@H](Oc2ccccc2[N+](=O)[O-])C1
REMARK SMILES IDX 9 1 8 2 7 3 6 4 5 5 3 6 4 7 2 8 80 9 94 10 81 11 83 12 82 13
REMARK SMILES IDX 1 14 84 18 85 19 86 20 90 21 87 22 89 23 88 24 91 25 92 26
REMARK SMILES IDX 93 27 10 28 11 29 12 30 13 31 14 32 15 33 16 34 17 35 18 36
REMARK SMILES IDX 79 37 19 38 78 39 20 40 21 41 22 42 72 43 23 44 77 45 71 46
REMARK SMILES IDX 73 47 24 48 76 49 70 50 69 51 25 53 57 54 37 55 56 56 38 57
REMARK SMILES IDX 41 58 55 59 74 60 39 61 40 62 54 64 75 65 42 66 26 67 27 68
REMARK SMILES IDX 35 69 28 70 34 71 36 72 33 73 29 74 30 75 31 76 32 77 58 78
REMARK SMILES IDX 59 79 67 80 60 81 66 82 68 83 65 84 61 85 62 86 63 87 64 88
REMARK SMILES IDX 43 89 44 90 52 91 45 92 51 93 53 94 50 95 46 96 47 97 48 98
REMARK SMILES IDX 49 99
REMARK H PARENT 1 15 1 16 1 17 73 52 41 63
REMARK Flexibility Score: inf
ROOT
ATOM      1  C   UNL     1      -3.528  -1.643   1.849  1.00  0.00     0.188 C 
ENDROOT
BRANCH   1   2
ATOM      2  O   UNL     1      -4.671  -0.836   2.104  1.00  0.00    -0.376 OA
BRANCH   2   3
ATOM      3  C   UNL     1      -5.335  -0.191   1.035  1.00  0.00     0.202 C 
BRANCH   3   4
ATOM      4  C   UNL     1      -4.568   0.886   0.264  1.00  0.00     0.261 C 
BRANCH   4   5
ATOM      5  O   UNL     1      -3.245   0.513  -0.136  1.00  0.00    -0.459 OA
BRANCH   5   6
ATOM      6  C   UNL     1      -2.193   0.953   0.629  1.00  0.00     0.368 C 
ATOM      7  O   UNL     1      -2.301   1.616   1.649  1.00  0.00    -0.245 OA
BRANCH   6   8
ATOM      8  C   UNL     1      -0.839   0.481  -0.003  1.00  0.00     0.196 C 
ATOM      9  C   UNL     1      -0.056  -0.509   0.876  1.00  0.00     0.081 C 
ATOM     10  C   UNL     1       0.012   1.746  -0.210  1.00  0.00     0.126 C 
ATOM     11  C   UNL     1       1.298  -0.883   0.251  1.00  0.00     0.011 C 
ATOM     12  C   UNL     1       1.431   1.514  -0.748  1.00  0.00     0.180 C 
ATOM     13  C   UNL     1       2.163   0.335  -0.080  1.00  0.00     0.046 C 
BRANCH   8  14
ATOM     14  N   UNL     1      -1.121  -0.199  -1.287  1.00  0.00    -0.343 N 
ATOM     15  H   UNL     1      -0.244  -0.509  -1.706  1.00  0.00     0.345 HD
ATOM     16  H   UNL     1      -1.589   0.450  -1.919  1.00  0.00     0.345 HD
ATOM     17  H   UNL     1      -1.722  -1.005  -1.119  1.00  0.00     0.345 HD
ENDBRANCH   8  14
BRANCH  12  18
ATOM     18  O   UNL     1       1.593   1.664  -2.179  1.00  0.00    -0.483 OA
BRANCH  18  19
ATOM     19  C   UNL     1       1.016   0.752  -3.010  1.00  0.00     0.197 A 
ATOM     20  C   UNL     1       1.723  -0.420  -3.292  1.00  0.00     0.054 A 
ATOM     21  C   UNL     1      -0.212   0.960  -3.656  1.00  0.00     0.310 A 
ATOM     22  C   UNL     1       1.157  -1.422  -4.088  1.00  0.00     0.004 A 
ATOM     23  C   UNL     1      -0.793  -0.050  -4.447  1.00  0.00     0.090 A 
ATOM     24  C   UNL     1      -0.111  -1.250  -4.642  1.00  0.00     0.007 A 
BRANCH  21  25
ATOM     25  N   UNL     1      -0.996   2.171  -3.434  1.00  0.00     0.066 N 
ATOM     26  O   UNL     1      -2.229   2.042  -3.337  1.00  0.00    -0.258 OA
ATOM     27  O   UNL     1      -0.404   3.258  -3.408  1.00  0.00    -0.258 OA
ENDBRANCH  21  25
ENDBRANCH  18  19
ENDBRANCH  12  18
ENDBRANCH   6   8
ENDBRANCH   5   6
ENDBRANCH   4   5
ENDBRANCH   3   4
ENDBRANCH   2   3
ENDBRANCH   1   2
BRANCH   1  28
ATOM     28  C   UNL     1      -3.367  -2.374   0.502  1.00  0.00     0.188 C 
BRANCH  28  29
ATOM     29  O   UNL     1      -4.596  -2.758  -0.090  1.00  0.00    -0.376 OA
BRANCH  29  30
ATOM     30  C   UNL     1      -4.792  -4.160  -0.188  1.00  0.00     0.202 C 
BRANCH  30  31
ATOM     31  C   UNL     1      -5.142  -4.819   1.152  1.00  0.00     0.261 C 
BRANCH  31  32
ATOM     32  O   UNL     1      -4.198  -4.623   2.229  1.00  0.00    -0.460 OA
BRANCH  32  33
ATOM     33  C   UNL     1      -2.972  -5.186   2.118  1.00  0.00     0.338 C 
ATOM     34  O   UNL     1      -2.587  -5.877   1.188  1.00  0.00    -0.246 OA
BRANCH  33  35
ATOM     35  C   UNL     1      -2.090  -4.647   3.192  1.00  0.00     0.060 A 
ATOM     36  C   UNL     1      -0.864  -4.069   2.835  1.00  0.00     0.016 A 
ATOM     37  C   UNL     1      -2.464  -4.682   4.540  1.00  0.00     0.016 A 
ATOM     38  C   UNL     1      -0.004  -3.554   3.818  1.00  0.00     0.010 A 
ATOM     39  C   UNL     1      -1.592  -4.181   5.524  1.00  0.00     0.010 A 
ATOM     40  C   UNL     1      -0.342  -3.635   5.177  1.00  0.00    -0.014 A 
BRANCH  40  41
ATOM     41  C   UNL     1       0.671  -3.298   6.226  1.00  0.00     0.031 A 
ATOM     42  C   UNL     1       1.429  -4.420   6.897  1.00  0.00     0.074 A 
ATOM     43  C   UNL     1       0.959  -2.025   6.564  1.00  0.00     0.049 A 
ATOM     44  N   UNL     1       2.343  -4.370   7.833  1.00  0.00    -0.248 NA
ATOM     45  C   UNL     1       1.105  -5.781   6.445  1.00  0.00     0.031 C 
ATOM     46  C   UNL     1       0.343  -0.835   5.981  1.00  0.00     0.029 A 
ATOM     47  N   UNL     1       1.847  -1.521   7.488  1.00  0.00    -0.354 N 
ATOM     48  C   UNL     1       2.707  -5.690   8.084  1.00  0.00     0.074 A 
ATOM     49  C   UNL     1       1.881  -6.516   7.227  1.00  0.00     0.031 C 
ATOM     50  C   UNL     1       0.870   0.259   6.561  1.00  0.00     0.029 A 
ATOM     51  C   UNL     1       1.834  -0.147   7.584  1.00  0.00     0.049 A 
ATOM     52  H   UNL     1       2.438  -2.091   8.031  1.00  0.00     0.167 HD
ATOM     53  C   UNL     1       3.647  -6.175   8.937  1.00  0.00     0.034 A 
ATOM     54  C   UNL     1       2.502   0.688   8.411  1.00  0.00     0.034 A 
ATOM     55  C   UNL     1       4.457  -5.355   9.807  1.00  0.00     0.049 A 
ATOM     56  C   UNL     1       3.475   0.119   9.422  1.00  0.00     0.074 A 
ATOM     57  C   UNL     1       5.442  -5.756  10.696  1.00  0.00     0.029 A 
ATOM     58  N   UNL     1       4.371  -3.974   9.918  1.00  0.00    -0.354 N 
ATOM     59  N   UNL     1       3.820  -1.131   9.632  1.00  0.00    -0.248 NA
ATOM     60  C   UNL     1       4.157   1.082  10.299  1.00  0.00     0.031 C 
ATOM     61  C   UNL     1       5.888  -4.632  11.400  1.00  0.00     0.029 A 
ATOM     62  C   UNL     1       5.254  -3.513  10.886  1.00  0.00     0.049 A 
ATOM     63  H   UNL     1       3.770  -3.403   9.386  1.00  0.00     0.167 HD
ATOM     64  C   UNL     1       4.782  -1.096  10.644  1.00  0.00     0.074 A 
ATOM     65  C   UNL     1       4.980   0.298  10.978  1.00  0.00     0.031 C 
ATOM     66  C   UNL     1       5.441  -2.124  11.240  1.00  0.00     0.034 A 
BRANCH  53  67
ATOM     67  C   UNL     1       3.808  -7.677   9.007  1.00  0.00     0.023 A 
ATOM     68  C   UNL     1       4.239  -8.430   7.900  1.00  0.00     0.031 A 
ATOM     69  C   UNL     1       3.504  -8.369  10.193  1.00  0.00     0.131 A 
ATOM     70  C   UNL     1       4.281  -9.831   7.979  1.00  0.00     0.055 A 
ATOM     71  C   UNL     1       3.631  -9.756  10.292  1.00  0.00     0.041 A 
ATOM     72  F   UNL     1       3.066  -7.708  11.277  1.00  0.00    -0.206 F 
ATOM     73  C   UNL     1       4.006 -10.497   9.176  1.00  0.00     0.022 A 
BRANCH  70  74
ATOM     74  S   UNL     1       4.550 -10.777   6.455  1.00  0.00     0.124 S 
ATOM     75  O   UNL     1       3.453 -10.303   5.615  1.00  0.00    -0.237 OA
ATOM     76  O   UNL     1       5.888 -10.358   6.056  1.00  0.00    -0.237 OA
ATOM     77  O   UNL     1       4.434 -12.168   6.890  1.00  0.00    -0.744 OA
ENDBRANCH  70  74
ENDBRANCH  53  67
BRANCH  54  78
ATOM     78  C   UNL     1       2.255   2.163   8.371  1.00  0.00     0.023 A 
ATOM     79  C   UNL     1       3.284   3.072   8.068  1.00  0.00     0.031 A 
ATOM     80  C   UNL     1       0.999   2.690   8.725  1.00  0.00     0.131 A 
ATOM     81  C   UNL     1       3.054   4.454   8.175  1.00  0.00     0.055 A 
ATOM     82  C   UNL     1       0.759   4.065   8.769  1.00  0.00     0.041 A 
ATOM     83  F   UNL     1      -0.016   1.870   9.040  1.00  0.00    -0.206 F 
ATOM     84  C   UNL     1       1.794   4.956   8.507  1.00  0.00     0.022 A 
BRANCH  81  85
ATOM     85  S   UNL     1       4.455   5.590   7.971  1.00  0.00     0.124 S 
ATOM     86  O   UNL     1       5.357   5.141   9.026  1.00  0.00    -0.237 OA
ATOM     87  O   UNL     1       4.878   5.308   6.604  1.00  0.00    -0.237 OA
ATOM     88  O   UNL     1       3.859   6.908   8.178  1.00  0.00    -0.744 OA
ENDBRANCH  81  85
ENDBRANCH  54  78
BRANCH  66  89
ATOM     89  C   UNL     1       6.474  -1.769  12.290  1.00  0.00     0.023 A 
ATOM     90  C   UNL     1       6.127  -1.103  13.480  1.00  0.00     0.031 A 
ATOM     91  C   UNL     1       7.835  -2.057  12.076  1.00  0.00     0.131 A 
ATOM     92  C   UNL     1       7.130  -0.672  14.364  1.00  0.00     0.055 A 
ATOM     93  C   UNL     1       8.821  -1.695  12.998  1.00  0.00     0.041 A 
ATOM     94  F   UNL     1       8.235  -2.687  10.960  1.00  0.00    -0.206 F 
ATOM     95  C   UNL     1       8.473  -0.979  14.139  1.00  0.00     0.022 A 
BRANCH  92  96
ATOM     96  S   UNL     1       6.669   0.424  15.735  1.00  0.00     0.124 S 
ATOM     97  O   UNL     1       5.993   1.513  15.038  1.00  0.00    -0.237 OA
ATOM     98  O   UNL     1       5.819  -0.437  16.550  1.00  0.00    -0.237 OA
ATOM     99  O   UNL     1       7.954   0.777  16.339  1.00  0.00    -0.744 OA
ENDBRANCH  92  96
ENDBRANCH  66  89
ENDBRANCH  40  41
ENDBRANCH  33  35
ENDBRANCH  32  33
ENDBRANCH  31  32
ENDBRANCH  30  31
ENDBRANCH  29  30
ENDBRANCH  28  29
ENDBRANCH   1  28
TORSDOF 24
