REMARK SMILES Cc1ccc(NC(=O)c2cnn3c2NC2=C(C(=O)CCC2)[C@H]3c2ccc(C(=O)OCCOCCOCCOC(=O)c3ccc(-c4c5nc(c(-c6cc(S(=O)(=O)[O-])ccc6F)c6ccc([nH]6)c(-c6cc(S(=O)(=O)[O-])ccc6F)c6nc(c(-c7cc(S(=O)(=O)[O-])ccc7F)c7ccc4[nH]7)C=C6)C=C5)cc3)cc2)cc1
REMARK SMILES IDX 33 1 32 2 31 3 30 4 29 5 27 6 28 7 26 8 23 9 24 10 105 11
REMARK SMILES IDX 25 12 104 13 22 14 9 15 10 16 13 17 11 18 12 19 14 20 15 21
REMARK SMILES IDX 16 23 21 24 17 25 20 26 18 27 19 28 7 29 6 30 8 32 5 33 1 34
REMARK SMILES IDX 2 35 3 36 107 37 4 38 106 39 34 40 35 41 36 42 37 43 38 44
REMARK SMILES IDX 39 45 40 46 41 47 42 48 103 49 43 50 102 51 44 52 45 53
REMARK SMILES IDX 46 54 96 55 47 56 101 57 95 58 97 59 48 60 100 61 94 62
REMARK SMILES IDX 93 63 49 65 81 66 61 67 80 68 62 69 65 70 79 71 98 72 63 73
REMARK SMILES IDX 64 74 78 76 99 77 66 78 50 79 51 80 59 81 52 82 58 83 60 84
REMARK SMILES IDX 57 85 53 86 54 87 55 88 56 89 82 90 83 91 91 92 84 93 90 94
REMARK SMILES IDX 92 95 89 96 85 97 86 98 87 99 88 100 67 101 68 102 76 103
REMARK SMILES IDX 69 104 75 105 77 106 74 107 70 108 71 109 72 110 73 111
REMARK H PARENT 14 22 6 31 97 64 65 75
REMARK Flexibility Score: inf
ROOT
ATOM      1  C   UNL     1       0.707  -4.677  -9.881  1.00  0.00     0.188 C 
ENDROOT
BRANCH   1   2
ATOM      2  O   UNL     1      -0.248  -3.809  -9.212  1.00  0.00    -0.376 OA
BRANCH   2   3
ATOM      3  C   UNL     1       0.211  -2.454  -9.076  1.00  0.00     0.202 C 
BRANCH   3   4
ATOM      4  C   UNL     1      -0.625  -1.455  -8.170  1.00  0.00     0.261 C 
BRANCH   4   5
ATOM      5  O   UNL     1      -0.849  -1.507  -6.664  1.00  0.00    -0.460 OA
BRANCH   5   6
ATOM      6  C   UNL     1      -0.522  -2.599  -5.915  1.00  0.00     0.338 C 
ATOM      7  O   UNL     1       0.202  -3.446  -6.413  1.00  0.00    -0.246 OA
BRANCH   6   8
ATOM      8  C   UNL     1      -1.133  -2.870  -4.458  1.00  0.00     0.060 A 
ATOM      9  C   UNL     1      -1.720  -4.726  -2.141  1.00  0.00    -0.019 A 
ATOM     10  C   UNL     1      -2.491  -4.667  -3.283  1.00  0.00     0.007 A 
ATOM     11  C   UNL     1      -0.595  -3.867  -2.204  1.00  0.00     0.007 A 
ATOM     12  C   UNL     1      -2.263  -3.699  -4.302  1.00  0.00     0.016 A 
ATOM     13  C   UNL     1      -0.294  -2.986  -3.344  1.00  0.00     0.016 A 
BRANCH   9  14
ATOM     14  C   UNL     1      -2.276  -5.467  -0.842  1.00  0.00     0.175 C 
ATOM     15  C   UNL     1      -3.796  -2.486   0.096  1.00  0.00     0.102 A 
ATOM     16  C   UNL     1      -2.924  -2.728   1.202  1.00  0.00     0.151 A 
ATOM     17  C   UNL     1      -3.986  -3.742  -0.433  1.00  0.00     0.142 A 
ATOM     18  N   UNL     1      -2.308  -3.915   1.123  1.00  0.00    -0.178 NA
ATOM     19  N   UNL     1      -2.836  -4.396  -0.014  1.00  0.00    -0.237 N 
ATOM     20  N   UNL     1      -4.809  -4.411  -1.304  1.00  0.00    -0.343 N 
ATOM     21  C   UNL     1      -4.674  -5.806  -1.443  1.00  0.00     0.026 C 
ATOM     22  H   UNL     1      -5.485  -3.921  -1.826  1.00  0.00     0.168 HD
ATOM     23  C   UNL     1      -3.516  -6.373  -1.010  1.00  0.00     0.044 C 
ATOM     24  C   UNL     1      -5.873  -6.680  -1.716  1.00  0.00     0.055 C 
ATOM     25  C   UNL     1      -3.861  -7.304   0.135  1.00  0.00     0.163 C 
ATOM     26  C   UNL     1      -6.335  -7.375  -0.438  1.00  0.00     0.014 C 
ATOM     27  O   UNL     1      -2.982  -7.934   0.718  1.00  0.00    -0.294 OA
ATOM     28  C   UNL     1      -5.303  -7.242   0.680  1.00  0.00     0.081 C 
BRANCH  15  29
ATOM     29  C   UNL     1      -4.312  -1.227  -0.373  1.00  0.00     0.261 C 
ATOM     30  N   UNL     1      -3.461  -0.128  -0.414  1.00  0.00    -0.322 N 
ATOM     31  H   UNL     1      -3.929   0.732  -0.516  1.00  0.00     0.170 HD
ATOM     32  O   UNL     1      -5.491  -1.088  -0.696  1.00  0.00    -0.269 OA
BRANCH  30  33
ATOM     33  C   UNL     1      -2.050  -0.005  -0.337  1.00  0.00     0.041 A 
ATOM     34  C   UNL     1       2.251   0.466   0.062  1.00  0.00     0.044 C 
ATOM     35  C   UNL     1       0.766   0.336  -0.091  1.00  0.00    -0.051 A 
ATOM     36  C   UNL     1       0.222  -0.909  -0.377  1.00  0.00     0.005 A 
ATOM     37  C   UNL     1      -0.106   1.419   0.046  1.00  0.00     0.005 A 
ATOM     38  C   UNL     1      -1.161  -1.056  -0.529  1.00  0.00     0.026 A 
ATOM     39  C   UNL     1      -1.498   1.251  -0.083  1.00  0.00     0.026 A 
ENDBRANCH  30  33
ENDBRANCH  15  29
ENDBRANCH   9  14
ENDBRANCH   6   8
ENDBRANCH   5   6
ENDBRANCH   4   5
ENDBRANCH   3   4
ENDBRANCH   2   3
ENDBRANCH   1   2
BRANCH   1  40
ATOM     40  C   UNL     1       1.758  -5.272  -8.931  1.00  0.00     0.188 C 
BRANCH  40  41
ATOM     41  O   UNL     1       2.304  -4.246  -8.116  1.00  0.00    -0.376 OA
BRANCH  41  42
ATOM     42  C   UNL     1       3.707  -4.166  -7.993  1.00  0.00     0.202 C 
BRANCH  42  43
ATOM     43  C   UNL     1       4.350  -5.361  -7.283  1.00  0.00     0.261 C 
BRANCH  43  44
ATOM     44  O   UNL     1       3.549  -5.729  -6.145  1.00  0.00    -0.460 OA
BRANCH  44  45
ATOM     45  C   UNL     1       3.172  -7.053  -6.104  1.00  0.00     0.338 C 
ATOM     46  O   UNL     1       3.885  -7.976  -6.350  1.00  0.00    -0.246 OA
BRANCH  45  47
ATOM     47  C   UNL     1       1.681  -7.095  -5.878  1.00  0.00     0.060 A 
ATOM     48  C   UNL     1       0.857  -8.017  -6.507  1.00  0.00     0.016 A 
ATOM     49  C   UNL     1       1.036  -6.072  -5.237  1.00  0.00     0.016 A 
ATOM     50  C   UNL     1      -0.531  -7.713  -6.737  1.00  0.00     0.010 A 
ATOM     51  C   UNL     1      -0.341  -5.844  -5.499  1.00  0.00     0.010 A 
ATOM     52  C   UNL     1      -1.148  -6.493  -6.418  1.00  0.00    -0.014 A 
BRANCH  52  53
ATOM     53  C   UNL     1      -2.364  -5.865  -7.234  1.00  0.00     0.031 A 
ATOM     54  C   UNL     1      -3.420  -4.733  -6.985  1.00  0.00     0.074 A 
ATOM     55  C   UNL     1      -2.446  -6.196  -8.544  1.00  0.00     0.049 A 
ATOM     56  N   UNL     1      -4.687  -4.718  -6.620  1.00  0.00    -0.248 NA
ATOM     57  C   UNL     1      -3.007  -3.365  -7.309  1.00  0.00     0.031 C 
ATOM     58  C   UNL     1      -3.287  -5.598  -9.580  1.00  0.00     0.029 A 
ATOM     59  N   UNL     1      -1.920  -7.320  -9.156  1.00  0.00    -0.354 N 
ATOM     60  C   UNL     1      -5.140  -3.351  -6.665  1.00  0.00     0.074 A 
ATOM     61  C   UNL     1      -3.943  -2.560  -6.802  1.00  0.00     0.031 C 
ATOM     62  C   UNL     1      -3.458  -6.501 -10.556  1.00  0.00     0.029 A 
ATOM     63  C   UNL     1      -2.837  -7.736 -10.120  1.00  0.00     0.049 A 
ATOM     64  H   UNL     1      -1.058  -7.748  -8.950  1.00  0.00     0.167 HD
ATOM     65  C   UNL     1      -6.258  -2.834  -7.295  1.00  0.00     0.034 A 
ATOM     66  C   UNL     1      -3.447  -8.948  -9.973  1.00  0.00     0.034 A 
ATOM     67  C   UNL     1      -6.638  -3.692  -8.381  1.00  0.00     0.049 A 
ATOM     68  C   UNL     1      -4.946  -8.854  -9.822  1.00  0.00     0.074 A 
ATOM     69  C   UNL     1      -6.447  -3.595  -9.749  1.00  0.00     0.029 A 
ATOM     70  N   UNL     1      -7.101  -4.948  -8.115  1.00  0.00    -0.354 N 
ATOM     71  N   UNL     1      -5.595  -7.731  -9.688  1.00  0.00    -0.248 NA
ATOM     72  C   UNL     1      -5.842 -10.004  -9.804  1.00  0.00     0.031 C 
ATOM     73  C   UNL     1      -6.803  -4.839 -10.316  1.00  0.00     0.029 A 
ATOM     74  C   UNL     1      -7.235  -5.652  -9.285  1.00  0.00     0.049 A 
ATOM     75  H   UNL     1      -7.308  -5.297  -7.218  1.00  0.00     0.167 HD
ATOM     76  C   UNL     1      -6.931  -7.981  -9.499  1.00  0.00     0.074 A 
ATOM     77  C   UNL     1      -7.041  -9.417  -9.633  1.00  0.00     0.031 C 
ATOM     78  C   UNL     1      -7.803  -6.973  -9.200  1.00  0.00     0.034 A 
BRANCH  65  79
ATOM     79  C   UNL     1      -6.666  -1.333  -7.329  1.00  0.00     0.023 A 
ATOM     80  C   UNL     1      -7.452  -0.799  -8.387  1.00  0.00     0.031 A 
ATOM     81  C   UNL     1      -6.333  -0.406  -6.319  1.00  0.00     0.131 A 
ATOM     82  C   UNL     1      -7.746   0.583  -8.484  1.00  0.00     0.055 A 
ATOM     83  C   UNL     1      -6.608   0.973  -6.424  1.00  0.00     0.041 A 
ATOM     84  F   UNL     1      -5.719  -0.808  -5.195  1.00  0.00    -0.206 F 
ATOM     85  C   UNL     1      -7.293   1.479  -7.522  1.00  0.00     0.022 A 
BRANCH  82  86
ATOM     86  S   UNL     1      -8.755   1.204  -9.871  1.00  0.00     0.124 S 
ATOM     87  O   UNL     1      -7.887   0.958 -11.019  1.00  0.00    -0.237 OA
ATOM     88  O   UNL     1      -9.957   0.383  -9.780  1.00  0.00    -0.237 OA
ATOM     89  O   UNL     1      -8.954   2.617  -9.545  1.00  0.00    -0.744 OA
ENDBRANCH  82  86
ENDBRANCH  65  79
BRANCH  66  90
ATOM     90  C   UNL     1      -2.527  -9.991  -9.417  1.00  0.00     0.023 A 
ATOM     91  C   UNL     1      -1.319 -10.172 -10.133  1.00  0.00     0.031 A 
ATOM     92  C   UNL     1      -2.570 -10.456  -8.094  1.00  0.00     0.131 A 
ATOM     93  C   UNL     1      -0.161 -10.619  -9.486  1.00  0.00     0.055 A 
ATOM     94  C   UNL     1      -1.427 -11.000  -7.475  1.00  0.00     0.041 A 
ATOM     95  F   UNL     1      -3.648 -10.239  -7.327  1.00  0.00    -0.206 F 
ATOM     96  C   UNL     1      -0.206 -11.043  -8.158  1.00  0.00     0.022 A 
BRANCH  93  97
ATOM     97  S   UNL     1       1.446 -10.299 -10.285  1.00  0.00     0.124 S 
ATOM     98  O   UNL     1       1.685 -11.550 -10.995  1.00  0.00    -0.237 OA
ATOM     99  O   UNL     1       1.170  -9.131 -11.121  1.00  0.00    -0.237 OA
ATOM    100  O   UNL     1       2.328 -10.029  -9.154  1.00  0.00    -0.744 OA
ENDBRANCH  93  97
ENDBRANCH  66  90
BRANCH  78 101
ATOM    101  C   UNL     1      -9.235  -7.073  -8.719  1.00  0.00     0.023 A 
ATOM    102  C   UNL     1      -9.798  -8.260  -8.254  1.00  0.00     0.031 A 
ATOM    103  C   UNL     1     -10.052  -5.912  -8.584  1.00  0.00     0.131 A 
ATOM    104  C   UNL     1     -11.101  -8.286  -7.730  1.00  0.00     0.055 A 
ATOM    105  C   UNL     1     -11.307  -5.923  -7.972  1.00  0.00     0.041 A 
ATOM    106  F   UNL     1      -9.656  -4.708  -9.026  1.00  0.00    -0.206 F 
ATOM    107  C   UNL     1     -11.848  -7.123  -7.549  1.00  0.00     0.022 A 
BRANCH 104 108
ATOM    108  S   UNL     1     -11.824  -9.902  -7.371  1.00  0.00     0.124 S 
ATOM    109  O   UNL     1     -11.719 -10.570  -8.666  1.00  0.00    -0.237 OA
ATOM    110  O   UNL     1     -10.943 -10.409  -6.324  1.00  0.00    -0.237 OA
ATOM    111  O   UNL     1     -13.185  -9.586  -6.945  1.00  0.00    -0.744 OA
ENDBRANCH 104 108
ENDBRANCH  78 101
ENDBRANCH  52  53
ENDBRANCH  45  47
ENDBRANCH  44  45
ENDBRANCH  43  44
ENDBRANCH  42  43
ENDBRANCH  41  42
ENDBRANCH  40  41
ENDBRANCH   1  40
TORSDOF 23
