REMARK SMILES CSc1cccc(N2C[C@@H](C(=O)OCCOCCOCCOC(=O)c3ccc(-c4c5nc(c(-c6cc(S(=O)(=O)[O-])ccc6F)c6ccc([nH]6)c(-c6cc(S(=O)(=O)[O-])ccc6F)c6nc(c(-c7cc(S(=O)(=O)[O-])ccc7F)c7ccc4[nH]7)C=C6)C=C5)cc3)CC2=O)c1
REMARK SMILES IDX 18 1 17 2 16 3 15 4 14 5 13 6 11 7 12 8 10 9 8 10 9 11 89 12
REMARK SMILES IDX 88 13 90 14 7 15 3 16 4 17 91 18 5 19 6 20 2 21 1 22 19 23
REMARK SMILES IDX 20 24 21 25 22 26 23 27 24 28 25 29 26 30 87 31 27 32 86 33
REMARK SMILES IDX 28 34 29 35 30 36 80 37 31 38 85 39 79 40 81 41 32 42 84 43
REMARK SMILES IDX 78 44 77 45 33 47 65 48 45 49 64 50 46 51 49 52 63 53 82 54
REMARK SMILES IDX 47 55 48 56 62 58 83 59 50 60 34 61 35 62 43 63 36 64 42 65
REMARK SMILES IDX 44 66 41 67 37 68 38 69 39 70 40 71 66 72 67 73 75 74 68 75
REMARK SMILES IDX 74 76 76 77 73 78 69 79 70 80 71 81 72 82 51 83 52 84 60 85
REMARK SMILES IDX 53 86 59 87 61 88 58 89 54 90 55 91 56 92 57 93
REMARK H PARENT 81 46 49 57
REMARK Flexibility Score: inf
ROOT
ATOM      1  C   UNL     1      -0.040  11.463  -0.029  1.00  0.00     0.188 C 
ENDROOT
BRANCH   1   2
ATOM      2  C   UNL     1       0.727  12.216   1.068  1.00  0.00     0.188 C 
BRANCH   2   3
ATOM      3  O   UNL     1       1.864  12.995   0.711  1.00  0.00    -0.376 OA
BRANCH   3   4
ATOM      4  C   UNL     1       2.775  12.498  -0.264  1.00  0.00     0.202 C 
BRANCH   4   5
ATOM      5  C   UNL     1       3.364  11.090  -0.075  1.00  0.00     0.261 C 
BRANCH   5   6
ATOM      6  O   UNL     1       2.383  10.050   0.116  1.00  0.00    -0.463 OA
BRANCH   6   7
ATOM      7  C   UNL     1       2.523   9.273   1.216  1.00  0.00     0.311 C 
ATOM      8  O   UNL     1       3.485   9.320   1.976  1.00  0.00    -0.252 OA
BRANCH   7   9
ATOM      9  C   UNL     1       1.338   8.368   1.492  1.00  0.00     0.128 C 
ATOM     10  N   UNL     1       0.905   6.059   1.379  1.00  0.00    -0.311 N 
ATOM     11  C   UNL     1       1.895   7.000   1.829  1.00  0.00     0.141 C 
ATOM     12  C   UNL     1       0.009   6.628   0.486  1.00  0.00     0.227 C 
ATOM     13  C   UNL     1       0.320   8.089   0.389  1.00  0.00     0.117 C 
ATOM     14  O   UNL     1      -0.910   6.102  -0.124  1.00  0.00    -0.274 OA
BRANCH  10  15
ATOM     15  C   UNL     1       1.002   4.684   1.665  1.00  0.00     0.045 A 
ATOM     16  C   UNL     1       0.779   2.363   0.947  1.00  0.00     0.009 A 
ATOM     17  C   UNL     1       1.255   1.951   2.193  1.00  0.00     0.015 A 
ATOM     18  C   UNL     1       0.633   3.733   0.707  1.00  0.00     0.041 A 
ATOM     19  C   UNL     1       1.602   2.889   3.168  1.00  0.00     0.003 A 
ATOM     20  C   UNL     1       1.494   4.250   2.898  1.00  0.00     0.026 A 
BRANCH  16  21
ATOM     21  S   UNL     1       0.332   1.274  -0.400  1.00  0.00    -0.130 SA
ATOM     22  C   UNL     1       0.998  -0.318   0.131  1.00  0.00     0.091 C 
ENDBRANCH  16  21
ENDBRANCH  10  15
ENDBRANCH   7   9
ENDBRANCH   6   7
ENDBRANCH   5   6
ENDBRANCH   4   5
ENDBRANCH   3   4
ENDBRANCH   2   3
ENDBRANCH   1   2
BRANCH   1  23
ATOM     23  O   UNL     1       0.449  11.651  -1.337  1.00  0.00    -0.376 OA
BRANCH  23  24
ATOM     24  C   UNL     1      -0.423  12.250  -2.276  1.00  0.00     0.202 C 
BRANCH  24  25
ATOM     25  C   UNL     1      -1.042  13.614  -1.926  1.00  0.00     0.261 C 
BRANCH  25  26
ATOM     26  O   UNL     1      -1.568  13.770  -0.595  1.00  0.00    -0.460 OA
BRANCH  26  27
ATOM     27  C   UNL     1      -2.750  13.168  -0.322  1.00  0.00     0.338 C 
ATOM     28  O   UNL     1      -3.422  12.510  -1.104  1.00  0.00    -0.246 OA
BRANCH  27  29
ATOM     29  C   UNL     1      -2.971  13.227   1.144  1.00  0.00     0.060 A 
ATOM     30  C   UNL     1      -3.067  12.031   1.873  1.00  0.00     0.016 A 
ATOM     31  C   UNL     1      -3.071  14.454   1.802  1.00  0.00     0.016 A 
ATOM     32  C   UNL     1      -3.290  12.061   3.254  1.00  0.00     0.010 A 
ATOM     33  C   UNL     1      -3.320  14.482   3.180  1.00  0.00     0.010 A 
ATOM     34  C   UNL     1      -3.461  13.287   3.911  1.00  0.00    -0.014 A 
BRANCH  34  35
ATOM     35  C   UNL     1      -3.981  13.324   5.305  1.00  0.00     0.031 A 
ATOM     36  C   UNL     1      -5.449  13.594   5.511  1.00  0.00     0.074 A 
ATOM     37  C   UNL     1      -3.183  13.116   6.369  1.00  0.00     0.049 A 
ATOM     38  N   UNL     1      -6.120  13.764   6.620  1.00  0.00    -0.248 NA
ATOM     39  C   UNL     1      -6.266  13.693   4.291  1.00  0.00     0.031 C 
ATOM     40  C   UNL     1      -1.760  12.790   6.309  1.00  0.00     0.029 A 
ATOM     41  N   UNL     1      -3.460  13.159   7.715  1.00  0.00    -0.354 N 
ATOM     42  C   UNL     1      -7.436  14.000   6.235  1.00  0.00     0.074 A 
ATOM     43  C   UNL     1      -7.457  13.989   4.787  1.00  0.00     0.031 C 
ATOM     44  C   UNL     1      -1.286  12.675   7.562  1.00  0.00     0.029 A 
ATOM     45  C   UNL     1      -2.357  12.964   8.515  1.00  0.00     0.049 A 
ATOM     46  H   UNL     1      -4.364  13.315   8.074  1.00  0.00     0.167 HD
ATOM     47  C   UNL     1      -8.527  14.200   7.014  1.00  0.00     0.034 A 
ATOM     48  C   UNL     1      -2.221  13.042   9.857  1.00  0.00     0.034 A 
ATOM     49  C   UNL     1      -8.492  14.221   8.456  1.00  0.00     0.049 A 
ATOM     50  C   UNL     1      -3.433  13.370  10.703  1.00  0.00     0.074 A 
ATOM     51  C   UNL     1      -9.541  14.404   9.340  1.00  0.00     0.029 A 
ATOM     52  N   UNL     1      -7.347  14.070   9.229  1.00  0.00    -0.354 N 
ATOM     53  N   UNL     1      -4.672  13.590  10.327  1.00  0.00    -0.248 NA
ATOM     54  C   UNL     1      -3.225  13.454  12.156  1.00  0.00     0.031 C 
ATOM     55  C   UNL     1      -9.021  14.450  10.637  1.00  0.00     0.029 A 
ATOM     56  C   UNL     1      -7.660  14.196  10.574  1.00  0.00     0.049 A 
ATOM     57  H   UNL     1      -6.446  13.898   8.873  1.00  0.00     0.167 HD
ATOM     58  C   UNL     1      -5.395  13.798  11.502  1.00  0.00     0.074 A 
ATOM     59  C   UNL     1      -4.457  13.665  12.595  1.00  0.00     0.031 C 
ATOM     60  C   UNL     1      -6.717  14.068  11.662  1.00  0.00     0.034 A 
BRANCH  47  61
ATOM     61  C   UNL     1      -9.840  14.470   6.316  1.00  0.00     0.023 A 
ATOM     62  C   UNL     1     -10.448  13.516   5.482  1.00  0.00     0.031 A 
ATOM     63  C   UNL     1     -10.480  15.713   6.469  1.00  0.00     0.131 A 
ATOM     64  C   UNL     1     -11.617  13.845   4.778  1.00  0.00     0.055 A 
ATOM     65  C   UNL     1     -11.689  16.003   5.834  1.00  0.00     0.041 A 
ATOM     66  F   UNL     1      -9.934  16.674   7.230  1.00  0.00    -0.206 F 
ATOM     67  C   UNL     1     -12.257  15.071   4.970  1.00  0.00     0.022 A 
BRANCH  64  68
ATOM     68  S   UNL     1     -12.204  12.707   3.493  1.00  0.00     0.124 S 
ATOM     69  O   UNL     1     -11.040  12.632   2.613  1.00  0.00    -0.237 OA
ATOM     70  O   UNL     1     -12.508  11.502   4.255  1.00  0.00    -0.237 OA
ATOM     71  O   UNL     1     -13.361  13.398   2.927  1.00  0.00    -0.744 OA
ENDBRANCH  64  68
ENDBRANCH  47  61
BRANCH  48  72
ATOM     72  C   UNL     1      -0.885  12.857  10.499  1.00  0.00     0.023 A 
ATOM     73  C   UNL     1      -0.658  11.824  11.423  1.00  0.00     0.031 A 
ATOM     74  C   UNL     1       0.166  13.759  10.254  1.00  0.00     0.131 A 
ATOM     75  C   UNL     1       0.568  11.749  12.105  1.00  0.00     0.055 A 
ATOM     76  C   UNL     1       1.404  13.644  10.888  1.00  0.00     0.041 A 
ATOM     77  F   UNL     1       0.002  14.773   9.389  1.00  0.00    -0.206 F 
ATOM     78  C   UNL     1       1.606  12.642  11.831  1.00  0.00     0.022 A 
BRANCH  75  79
ATOM     79  S   UNL     1       0.751  10.529  13.436  1.00  0.00     0.124 S 
ATOM     80  O   UNL     1      -0.331  10.909  14.336  1.00  0.00    -0.237 OA
ATOM     81  O   UNL     1       0.577   9.270  12.718  1.00  0.00    -0.237 OA
ATOM     82  O   UNL     1       2.100  10.775  13.940  1.00  0.00    -0.744 OA
ENDBRANCH  75  79
ENDBRANCH  48  72
BRANCH  60  83
ATOM     83  C   UNL     1      -7.240  14.177  13.077  1.00  0.00     0.023 A 
ATOM     84  C   UNL     1      -6.824  15.196  13.952  1.00  0.00     0.031 A 
ATOM     85  C   UNL     1      -8.168  13.235  13.560  1.00  0.00     0.131 A 
ATOM     86  C   UNL     1      -7.286  15.214  15.278  1.00  0.00     0.055 A 
ATOM     87  C   UNL     1      -8.679  13.300  14.857  1.00  0.00     0.041 A 
ATOM     88  F   UNL     1      -8.600  12.236  12.774  1.00  0.00    -0.206 F 
ATOM     89  C   UNL     1      -8.226  14.285  15.729  1.00  0.00     0.022 A 
BRANCH  86  90
ATOM     90  S   UNL     1      -6.558  16.402  16.439  1.00  0.00     0.124 S 
ATOM     91  O   UNL     1      -5.139  16.070  16.363  1.00  0.00    -0.237 OA
ATOM     92  O   UNL     1      -6.945  17.684  15.859  1.00  0.00    -0.237 OA
ATOM     93  O   UNL     1      -7.203  16.078  17.711  1.00  0.00    -0.744 OA
ENDBRANCH  86  90
ENDBRANCH  60  83
ENDBRANCH  34  35
ENDBRANCH  27  29
ENDBRANCH  26  27
ENDBRANCH  25  26
ENDBRANCH  24  25
ENDBRANCH  23  24
ENDBRANCH   1  23
TORSDOF 22
