REMARK SMILES Cn1c(SCC(=O)Nc2cccc(C(=O)OCCOCCOCCOC(=O)c3ccc(-c4c5nc(c(-c6cc(S(=O)(=O)[O-])ccc6F)c6ccc([nH]6)c(-c6cc(S(=O)(=O)[O-])ccc6F)c6nc(c(-c7cc(S(=O)(=O)[O-])ccc7F)c7ccc4[nH]7)C=C6)C=C5)cc3)c2)nnc1[C@@H]1CCCN1C(=O)c1ccccc1Cl
REMARK SMILES IDX 18 1 17 2 16 3 14 4 15 5 13 6 9 7 10 8 91 9 11 10 12 11 8 12
REMARK SMILES IDX 6 13 7 14 5 16 4 17 3 18 1 19 2 20 94 21 92 22 93 23 95 24
REMARK SMILES IDX 96 25 99 26 97 27 98 28 100 29 101 30 102 31 103 32 107 33
REMARK SMILES IDX 104 34 106 35 108 36 105 37 19 38 20 39 21 40 22 41 23 42
REMARK SMILES IDX 24 43 25 44 26 45 27 46 28 47 29 48 90 49 30 50 89 51 31 52
REMARK SMILES IDX 32 53 33 54 83 55 34 56 88 57 82 58 84 59 35 60 87 61 81 62
REMARK SMILES IDX 80 63 36 65 68 66 48 67 67 68 49 69 52 70 66 71 85 72 50 73
REMARK SMILES IDX 51 74 65 76 86 77 53 78 37 79 38 80 46 81 39 82 45 83 47 84
REMARK SMILES IDX 44 85 40 86 41 87 42 88 43 89 69 90 70 91 78 92 71 93 77 94
REMARK SMILES IDX 79 95 76 96 72 97 73 98 74 99 75 100 54 101 55 102 63 103
REMARK SMILES IDX 56 104 62 105 64 106 61 107 57 108 58 109 59 110 60 111
REMARK H PARENT 8 15 84 64 52 75
REMARK Flexibility Score: inf
ROOT
ATOM      1  C   UNL     1      -4.184   4.532   0.073  1.00  0.00     0.202 C 
ENDROOT
BRANCH   1   2
ATOM      2  C   UNL     1      -2.783   4.788  -0.506  1.00  0.00     0.261 C 
BRANCH   2   3
ATOM      3  O   UNL     1      -1.705   4.732   0.434  1.00  0.00    -0.460 OA
BRANCH   3   4
ATOM      4  C   UNL     1      -1.112   5.908   0.755  1.00  0.00     0.338 C 
ATOM      5  O   UNL     1      -1.361   7.002   0.280  1.00  0.00    -0.246 OA
BRANCH   4   6
ATOM      6  C   UNL     1      -0.134   5.706   1.858  1.00  0.00     0.062 A 
ATOM      7  C   UNL     1       1.589   4.352   2.891  1.00  0.00     0.042 A 
ATOM      8  C   UNL     1       1.818   5.353   3.830  1.00  0.00     0.026 A 
ATOM      9  C   UNL     1       0.532   4.492   2.004  1.00  0.00     0.041 A 
ATOM     10  C   UNL     1       1.088   6.543   3.764  1.00  0.00     0.003 A 
ATOM     11  C   UNL     1       0.147   6.740   2.749  1.00  0.00     0.016 A 
BRANCH   7  12
ATOM     12  N   UNL     1       2.452   3.253   2.852  1.00  0.00    -0.325 N 
ATOM     13  C   UNL     1       2.937   2.576   1.767  1.00  0.00     0.234 C 
ATOM     14  O   UNL     1       3.744   1.663   1.990  1.00  0.00    -0.274 OA
ATOM     15  H   UNL     1       2.754   2.920   3.728  1.00  0.00     0.169 HD
BRANCH  13  16
ATOM     16  C   UNL     1       2.704   3.037   0.343  1.00  0.00     0.178 C 
BRANCH  16  17
ATOM     17  S   UNL     1       1.235   2.535  -0.532  1.00  0.00    -0.076 SA
BRANCH  17  18
ATOM     18  C   UNL     1       0.560   1.081   0.103  1.00  0.00     0.191 A 
ATOM     19  C   UNL     1       2.571  -0.404   0.419  1.00  0.00     0.154 C 
ATOM     20  N   UNL     1       1.182  -0.134   0.188  1.00  0.00    -0.307 N 
ATOM     21  C   UNL     1       0.181  -1.069   0.035  1.00  0.00     0.156 A 
ATOM     22  N   UNL     1      -0.741   0.894   0.166  1.00  0.00    -0.123 NA
ATOM     23  N   UNL     1      -0.981  -0.454   0.140  1.00  0.00    -0.132 NA
BRANCH  21  24
ATOM     24  C   UNL     1       0.340  -2.514  -0.270  1.00  0.00     0.154 C 
ATOM     25  C   UNL     1       0.996  -3.305   0.868  1.00  0.00     0.035 C 
ATOM     26  N   UNL     1       1.152  -2.824  -1.457  1.00  0.00    -0.328 N 
ATOM     27  C   UNL     1       1.612  -4.507   0.168  1.00  0.00     0.024 C 
ATOM     28  C   UNL     1       1.964  -4.006  -1.224  1.00  0.00     0.120 C 
BRANCH  26  29
ATOM     29  C   UNL     1       1.027  -2.377  -2.769  1.00  0.00     0.255 C 
ATOM     30  O   UNL     1       1.444  -3.021  -3.732  1.00  0.00    -0.269 OA
BRANCH  29  31
ATOM     31  C   UNL     1       0.496  -1.037  -3.067  1.00  0.00     0.058 A 
ATOM     32  C   UNL     1      -0.862  -0.867  -3.350  1.00  0.00     0.015 A 
ATOM     33  C   UNL     1       1.382   0.038  -3.225  1.00  0.00     0.053 A 
ATOM     34  C   UNL     1      -1.343   0.399  -3.703  1.00  0.00     0.001 A 
ATOM     35  C   UNL     1       0.894   1.297  -3.584  1.00  0.00     0.021 A 
ATOM     36  Cl  UNL     1       3.088  -0.116  -2.978  1.00  0.00    -0.083 Cl
ATOM     37  C   UNL     1      -0.471   1.484  -3.798  1.00  0.00     0.002 A 
ENDBRANCH  29  31
ENDBRANCH  26  29
ENDBRANCH  21  24
ENDBRANCH  17  18
ENDBRANCH  16  17
ENDBRANCH  13  16
ENDBRANCH   7  12
ENDBRANCH   4   6
ENDBRANCH   3   4
ENDBRANCH   2   3
ENDBRANCH   1   2
BRANCH   1  38
ATOM     38  O   UNL     1      -4.578   5.077   1.322  1.00  0.00    -0.376 OA
BRANCH  38  39
ATOM     39  C   UNL     1      -3.712   4.993   2.446  1.00  0.00     0.188 C 
BRANCH  39  40
ATOM     40  C   UNL     1      -3.008   3.663   2.784  1.00  0.00     0.188 C 
BRANCH  40  41
ATOM     41  O   UNL     1      -3.310   2.592   1.931  1.00  0.00    -0.376 OA
BRANCH  41  42
ATOM     42  C   UNL     1      -4.393   1.732   2.224  1.00  0.00     0.202 C 
BRANCH  42  43
ATOM     43  C   UNL     1      -5.530   2.025   3.229  1.00  0.00     0.261 C 
BRANCH  43  44
ATOM     44  O   UNL     1      -5.461   3.207   4.033  1.00  0.00    -0.460 OA
BRANCH  44  45
ATOM     45  C   UNL     1      -4.950   3.061   5.285  1.00  0.00     0.338 C 
ATOM     46  O   UNL     1      -4.533   2.041   5.787  1.00  0.00    -0.246 OA
BRANCH  45  47
ATOM     47  C   UNL     1      -4.779   4.414   5.869  1.00  0.00     0.060 A 
ATOM     48  C   UNL     1      -3.480   4.889   6.106  1.00  0.00     0.016 A 
ATOM     49  C   UNL     1      -5.885   5.210   6.169  1.00  0.00     0.016 A 
ATOM     50  C   UNL     1      -3.285   6.155   6.660  1.00  0.00     0.010 A 
ATOM     51  C   UNL     1      -5.688   6.468   6.751  1.00  0.00     0.010 A 
ATOM     52  C   UNL     1      -4.389   6.936   7.024  1.00  0.00    -0.014 A 
BRANCH  52  53
ATOM     53  C   UNL     1      -4.192   8.145   7.865  1.00  0.00     0.031 A 
ATOM     54  C   UNL     1      -4.418   8.027   9.348  1.00  0.00     0.074 A 
ATOM     55  C   UNL     1      -3.810   9.320   7.336  1.00  0.00     0.049 A 
ATOM     56  N   UNL     1      -4.378   8.947  10.276  1.00  0.00    -0.248 NA
ATOM     57  C   UNL     1      -4.746   6.682   9.842  1.00  0.00     0.031 C 
ATOM     58  C   UNL     1      -3.522   9.554   5.923  1.00  0.00     0.029 A 
ATOM     59  N   UNL     1      -3.616  10.543   7.929  1.00  0.00    -0.354 N 
ATOM     60  C   UNL     1      -4.684   8.295  11.466  1.00  0.00     0.074 A 
ATOM     61  C   UNL     1      -4.954   6.913  11.127  1.00  0.00     0.031 C 
ATOM     62  C   UNL     1      -3.209  10.851   5.753  1.00  0.00     0.029 A 
ATOM     63  C   UNL     1      -3.316  11.545   7.037  1.00  0.00     0.049 A 
ATOM     64  H   UNL     1      -3.686  10.689   8.900  1.00  0.00     0.167 HD
ATOM     65  C   UNL     1      -4.726   8.798  12.726  1.00  0.00     0.034 A 
ATOM     66  C   UNL     1      -3.180  12.874   7.226  1.00  0.00     0.034 A 
ATOM     67  C   UNL     1      -4.484  10.186  13.041  1.00  0.00     0.049 A 
ATOM     68  C   UNL     1      -3.328  13.440   8.619  1.00  0.00     0.074 A 
ATOM     69  C   UNL     1      -4.484  10.803  14.280  1.00  0.00     0.029 A 
ATOM     70  N   UNL     1      -4.224  11.182  12.105  1.00  0.00    -0.354 N 
ATOM     71  N   UNL     1      -3.595  12.814   9.743  1.00  0.00    -0.248 NA
ATOM     72  C   UNL     1      -3.147  14.889   8.767  1.00  0.00     0.031 C 
ATOM     73  C   UNL     1      -4.315  12.178  14.086  1.00  0.00     0.029 A 
ATOM     74  C   UNL     1      -4.110  12.414  12.735  1.00  0.00     0.049 A 
ATOM     75  H   UNL     1      -4.135  11.035  11.136  1.00  0.00     0.167 HD
ATOM     76  C   UNL     1      -3.594  13.793  10.735  1.00  0.00     0.074 A 
ATOM     77  C   UNL     1      -3.280  15.046  10.077  1.00  0.00     0.031 C 
ATOM     78  C   UNL     1      -3.824  13.666  12.069  1.00  0.00     0.034 A 
BRANCH  65  79
ATOM     79  C   UNL     1      -5.115   7.843  13.832  1.00  0.00     0.023 A 
ATOM     80  C   UNL     1      -4.361   6.688  14.111  1.00  0.00     0.031 A 
ATOM     81  C   UNL     1      -6.297   8.044  14.565  1.00  0.00     0.131 A 
ATOM     82  C   UNL     1      -4.853   5.730  15.010  1.00  0.00     0.055 A 
ATOM     83  C   UNL     1      -6.729   7.136  15.534  1.00  0.00     0.041 A 
ATOM     84  F   UNL     1      -7.074   9.114  14.332  1.00  0.00    -0.206 F 
ATOM     85  C   UNL     1      -6.018   5.958  15.744  1.00  0.00     0.022 A 
BRANCH  82  86
ATOM     86  S   UNL     1      -4.059   4.098  15.050  1.00  0.00     0.124 S 
ATOM     87  O   UNL     1      -4.142   3.696  13.647  1.00  0.00    -0.237 OA
ATOM     88  O   UNL     1      -2.725   4.408  15.547  1.00  0.00    -0.237 OA
ATOM     89  O   UNL     1      -4.904   3.328  15.960  1.00  0.00    -0.744 OA
ENDBRANCH  82  86
ENDBRANCH  65  79
BRANCH  66  90
ATOM     90  C   UNL     1      -2.944  13.771   6.058  1.00  0.00     0.023 A 
ATOM     91  C   UNL     1      -1.748  14.490   5.912  1.00  0.00     0.031 A 
ATOM     92  C   UNL     1      -3.933  13.928   5.069  1.00  0.00     0.131 A 
ATOM     93  C   UNL     1      -1.579  15.350   4.814  1.00  0.00     0.055 A 
ATOM     94  C   UNL     1      -3.741  14.746   3.955  1.00  0.00     0.041 A 
ATOM     95  F   UNL     1      -5.099  13.268   5.164  1.00  0.00    -0.206 F 
ATOM     96  C   UNL     1      -2.560  15.469   3.826  1.00  0.00     0.022 A 
BRANCH  93  97
ATOM     97  S   UNL     1      -0.073  16.357   4.718  1.00  0.00     0.124 S 
ATOM     98  O   UNL     1      -0.176  17.163   5.929  1.00  0.00    -0.237 OA
ATOM     99  O   UNL     1       0.973  15.339   4.713  1.00  0.00    -0.237 OA
ATOM    100  O   UNL     1      -0.231  17.089   3.464  1.00  0.00    -0.744 OA
ENDBRANCH  93  97
ENDBRANCH  66  90
BRANCH  78 101
ATOM    101  C   UNL     1      -3.710  14.917  12.914  1.00  0.00     0.023 A 
ATOM    102  C   UNL     1      -4.585  16.006  12.752  1.00  0.00     0.031 A 
ATOM    103  C   UNL     1      -2.701  15.025  13.889  1.00  0.00     0.131 A 
ATOM    104  C   UNL     1      -4.395  17.176  13.506  1.00  0.00     0.055 A 
ATOM    105  C   UNL     1      -2.563  16.162  14.687  1.00  0.00     0.041 A 
ATOM    106  F   UNL     1      -1.830  14.022  14.086  1.00  0.00    -0.206 F 
ATOM    107  C   UNL     1      -3.403  17.253  14.487  1.00  0.00     0.022 A 
BRANCH 104 108
ATOM    108  S   UNL     1      -5.387  18.642  13.107  1.00  0.00     0.124 S 
ATOM    109  O   UNL     1      -5.073  18.844  11.696  1.00  0.00    -0.237 OA
ATOM    110  O   UNL     1      -6.743  18.191  13.401  1.00  0.00    -0.237 OA
ATOM    111  O   UNL     1      -4.865  19.666  14.010  1.00  0.00    -0.744 OA
ENDBRANCH 104 108
ENDBRANCH  78 101
ENDBRANCH  52  53
ENDBRANCH  45  47
ENDBRANCH  44  45
ENDBRANCH  43  44
ENDBRANCH  42  43
ENDBRANCH  41  42
ENDBRANCH  40  41
ENDBRANCH  39  40
ENDBRANCH  38  39
ENDBRANCH   1  38
TORSDOF 27
