REMARK SMILES COC(=O)c1sc(SCC(=O)OCCOCCOCCOC(=O)c2ccc(-c3c4nc(c(-c5cc(S(=O)(=O)[O-])ccc5F)c5ccc([nH]5)c(-c5cc(S(=O)(=O)[O-])ccc5F)c5nc(c(-c6cc(S(=O)(=O)[O-])ccc6F)c6ccc3[nH]6)C=C5)C=C4)cc2)c(NC(=O)c2ccccc2)c1O
REMARK SMILES IDX 16 1 15 2 14 3 13 4 12 5 10 6 11 7 9 8 8 9 7 10 5 11 6 12
REMARK SMILES IDX 97 13 87 14 3 15 4 16 2 17 1 18 98 19 88 21 89 22 90 24
REMARK SMILES IDX 91 25 92 26 96 27 93 28 95 29 94 30 17 31 18 32 19 33 20 34
REMARK SMILES IDX 21 35 22 36 23 37 24 38 25 39 86 40 26 41 85 42 27 43 28 44
REMARK SMILES IDX 29 45 79 46 30 47 84 48 78 49 80 50 31 51 83 52 77 53 76 54
REMARK SMILES IDX 32 56 64 57 44 58 63 59 45 60 48 61 62 62 81 63 46 64 47 65
REMARK SMILES IDX 61 67 82 68 49 69 33 70 34 71 42 72 35 73 41 74 43 75 40 76
REMARK SMILES IDX 36 77 37 78 38 79 39 80 65 81 66 82 74 83 67 84 73 85 75 86
REMARK SMILES IDX 72 87 68 88 69 89 70 90 71 91 50 92 51 93 59 94 52 95 58 96
REMARK SMILES IDX 60 97 57 98 53 99 54 100 55 101 56 102
REMARK H PARENT 98 20 88 23 80 55 48 66
REMARK Flexibility Score: inf
ROOT
ATOM      1  C   UNL     1      -3.452   6.530   2.086  1.00  0.00     0.188 C 
ENDROOT
BRANCH   1   2
ATOM      2  O   UNL     1      -3.921   7.753   1.508  1.00  0.00    -0.376 OA
BRANCH   2   3
ATOM      3  C   UNL     1      -3.112   8.908   1.755  1.00  0.00     0.202 C 
BRANCH   3   4
ATOM      4  C   UNL     1      -3.078   9.327   3.227  1.00  0.00     0.261 C 
BRANCH   4   5
ATOM      5  O   UNL     1      -1.984   8.696   3.928  1.00  0.00    -0.463 OA
BRANCH   5   6
ATOM      6  C   UNL     1      -2.255   8.216   5.188  1.00  0.00     0.316 C 
ATOM      7  O   UNL     1      -3.369   8.233   5.702  1.00  0.00    -0.251 OA
BRANCH   6   8
ATOM      8  C   UNL     1      -0.824   7.944   6.022  1.00  0.00     0.198 C 
BRANCH   8   9
ATOM      9  S   UNL     1       0.377   5.768   6.712  1.00  0.00    -0.101 SA
BRANCH   9  10
ATOM     10  C   UNL     1       0.530   4.395   5.547  1.00  0.00     0.089 A 
ATOM     11  C   UNL     1       1.493   2.563   4.158  1.00  0.00     0.157 A 
ATOM     12  S   UNL     1       2.102   3.887   5.065  1.00  0.00    -0.116 S 
ATOM     13  C   UNL     1       0.135   2.434   4.370  1.00  0.00     0.166 A 
ATOM     14  C   UNL     1      -0.449   3.560   5.027  1.00  0.00     0.109 A 
BRANCH  11  15
ATOM     15  C   UNL     1       2.405   1.805   3.318  1.00  0.00     0.352 C 
ATOM     16  O   UNL     1       3.608   2.004   3.209  1.00  0.00    -0.245 OA
BRANCH  15  17
ATOM     17  O   UNL     1       1.697   0.866   2.623  1.00  0.00    -0.465 OA
ATOM     18  C   UNL     1       2.392   0.174   1.569  1.00  0.00     0.282 C 
ENDBRANCH  15  17
ENDBRANCH  11  15
BRANCH  13  19
ATOM     19  O   UNL     1      -0.608   1.402   3.909  1.00  0.00    -0.504 OA
ATOM     20  H   UNL     1      -0.192   0.679   3.483  1.00  0.00     0.293 HD
ENDBRANCH  13  19
BRANCH  14  21
ATOM     21  N   UNL     1      -1.832   3.729   5.076  1.00  0.00    -0.317 N 
ATOM     22  C   UNL     1      -2.509   4.870   5.421  1.00  0.00     0.255 C 
ATOM     23  H   UNL     1      -2.380   2.947   4.837  1.00  0.00     0.170 HD
ATOM     24  O   UNL     1      -3.729   4.942   5.471  1.00  0.00    -0.269 OA
BRANCH  22  25
ATOM     25  C   UNL     1      -1.688   6.049   5.735  1.00  0.00     0.040 A 
ATOM     26  C   UNL     1      -1.666   6.619   7.445  1.00  0.00     0.014 A 
ATOM     27  C   UNL     1      -0.351   6.542   4.598  1.00  0.00     0.014 A 
ATOM     28  C   UNL     1      -0.263   7.569   8.059  1.00  0.00     0.001 A 
ATOM     29  C   UNL     1       1.063   7.465   5.220  1.00  0.00     0.001 A 
ATOM     30  C   UNL     1       1.082   8.002   6.943  1.00  0.00     0.000 A 
ENDBRANCH  22  25
ENDBRANCH  14  21
ENDBRANCH   9  10
ENDBRANCH   8   9
ENDBRANCH   6   8
ENDBRANCH   5   6
ENDBRANCH   4   5
ENDBRANCH   3   4
ENDBRANCH   2   3
ENDBRANCH   1   2
BRANCH   1  31
ATOM     31  C   UNL     1      -2.291   5.909   1.306  1.00  0.00     0.188 C 
BRANCH  31  32
ATOM     32  O   UNL     1      -1.166   6.787   1.340  1.00  0.00    -0.376 OA
BRANCH  32  33
ATOM     33  C   UNL     1       0.052   6.264   0.816  1.00  0.00     0.202 C 
BRANCH  33  34
ATOM     34  C   UNL     1      -0.014   5.874  -0.667  1.00  0.00     0.261 C 
BRANCH  34  35
ATOM     35  O   UNL     1      -0.792   4.688  -0.899  1.00  0.00    -0.460 OA
BRANCH  35  36
ATOM     36  C   UNL     1      -0.301   3.579  -0.302  1.00  0.00     0.338 C 
ATOM     37  O   UNL     1       0.746   3.502   0.325  1.00  0.00    -0.246 OA
BRANCH  36  38
ATOM     38  C   UNL     1      -1.260   2.467  -0.397  1.00  0.00     0.060 A 
ATOM     39  C   UNL     1      -1.240   1.542   0.648  1.00  0.00     0.016 A 
ATOM     40  C   UNL     1      -2.043   2.238  -1.527  1.00  0.00     0.016 A 
ATOM     41  C   UNL     1      -1.835   0.299   0.498  1.00  0.00     0.010 A 
ATOM     42  C   UNL     1      -2.664   0.996  -1.672  1.00  0.00     0.010 A 
ATOM     43  C   UNL     1      -2.443  -0.016  -0.717  1.00  0.00    -0.014 A 
BRANCH  43  44
ATOM     44  C   UNL     1      -2.520  -1.447  -1.066  1.00  0.00     0.031 A 
ATOM     45  C   UNL     1      -3.364  -2.400  -0.290  1.00  0.00     0.074 A 
ATOM     46  C   UNL     1      -1.810  -1.931  -2.111  1.00  0.00     0.049 A 
ATOM     47  N   UNL     1      -3.022  -3.574   0.150  1.00  0.00    -0.248 NA
ATOM     48  C   UNL     1      -4.755  -2.036   0.006  1.00  0.00     0.031 C 
ATOM     49  C   UNL     1      -1.039  -1.148  -3.083  1.00  0.00     0.029 A 
ATOM     50  N   UNL     1      -1.729  -3.209  -2.603  1.00  0.00    -0.354 N 
ATOM     51  C   UNL     1      -4.191  -4.182   0.596  1.00  0.00     0.074 A 
ATOM     52  C   UNL     1      -5.215  -3.165   0.550  1.00  0.00     0.031 C 
ATOM     53  C   UNL     1      -0.809  -1.902  -4.172  1.00  0.00     0.029 A 
ATOM     54  C   UNL     1      -1.296  -3.246  -3.919  1.00  0.00     0.049 A 
ATOM     55  H   UNL     1      -1.953  -4.012  -2.079  1.00  0.00     0.167 HD
ATOM     56  C   UNL     1      -4.291  -5.521   0.832  1.00  0.00     0.034 A 
ATOM     57  C   UNL     1      -1.385  -4.260  -4.808  1.00  0.00     0.034 A 
ATOM     58  C   UNL     1      -3.021  -6.163   1.036  1.00  0.00     0.049 A 
ATOM     59  C   UNL     1      -1.420  -5.544  -4.083  1.00  0.00     0.074 A 
ATOM     60  C   UNL     1      -2.001  -6.042   1.958  1.00  0.00     0.029 A 
ATOM     61  N   UNL     1      -2.554  -7.013   0.066  1.00  0.00    -0.354 N 
ATOM     62  N   UNL     1      -0.412  -6.036  -3.420  1.00  0.00    -0.248 NA
ATOM     63  C   UNL     1      -2.690  -6.228  -3.879  1.00  0.00     0.031 C 
ATOM     64  C   UNL     1      -0.829  -6.539   1.323  1.00  0.00     0.029 A 
ATOM     65  C   UNL     1      -1.184  -6.899   0.024  1.00  0.00     0.049 A 
ATOM     66  H   UNL     1      -3.102  -7.602  -0.501  1.00  0.00     0.167 HD
ATOM     67  C   UNL     1      -0.986  -6.810  -2.432  1.00  0.00     0.074 A 
ATOM     68  C   UNL     1      -2.353  -7.035  -2.872  1.00  0.00     0.031 C 
ATOM     69  C   UNL     1      -0.409  -6.911  -1.201  1.00  0.00     0.034 A 
BRANCH  56  70
ATOM     70  C   UNL     1      -5.569  -6.311   0.689  1.00  0.00     0.023 A 
ATOM     71  C   UNL     1      -5.680  -7.587   1.278  1.00  0.00     0.031 A 
ATOM     72  C   UNL     1      -6.599  -5.948  -0.207  1.00  0.00     0.131 A 
ATOM     73  C   UNL     1      -6.778  -8.421   0.990  1.00  0.00     0.055 A 
ATOM     74  C   UNL     1      -7.716  -6.754  -0.447  1.00  0.00     0.041 A 
ATOM     75  F   UNL     1      -6.524  -4.834  -0.950  1.00  0.00    -0.206 F 
ATOM     76  C   UNL     1      -7.807  -8.002   0.148  1.00  0.00     0.022 A 
BRANCH  73  77
ATOM     77  S   UNL     1      -6.785 -10.130   1.606  1.00  0.00     0.124 S 
ATOM     78  O   UNL     1      -5.440 -10.586   1.271  1.00  0.00    -0.237 OA
ATOM     79  O   UNL     1      -7.065  -9.937   3.025  1.00  0.00    -0.237 OA
ATOM     80  O   UNL     1      -7.859 -10.762   0.841  1.00  0.00    -0.744 OA
ENDBRANCH  73  77
ENDBRANCH  56  70
BRANCH  57  81
ATOM     81  C   UNL     1      -1.601  -4.119  -6.266  1.00  0.00     0.023 A 
ATOM     82  C   UNL     1      -1.285  -5.151  -7.164  1.00  0.00     0.031 A 
ATOM     83  C   UNL     1      -2.321  -3.016  -6.784  1.00  0.00     0.131 A 
ATOM     84  C   UNL     1      -1.662  -5.045  -8.518  1.00  0.00     0.055 A 
ATOM     85  C   UNL     1      -2.657  -2.898  -8.131  1.00  0.00     0.041 A 
ATOM     86  F   UNL     1      -2.794  -2.050  -5.980  1.00  0.00    -0.206 F 
ATOM     87  C   UNL     1      -2.332  -3.919  -9.006  1.00  0.00     0.022 A 
BRANCH  84  88
ATOM     88  S   UNL     1      -1.417  -6.454  -9.637  1.00  0.00     0.124 S 
ATOM     89  O   UNL     1      -0.006  -6.327  -9.985  1.00  0.00    -0.237 OA
ATOM     90  O   UNL     1      -1.779  -7.592  -8.800  1.00  0.00    -0.237 OA
ATOM     91  O   UNL     1      -2.352  -6.179 -10.729  1.00  0.00    -0.744 OA
ENDBRANCH  84  88
ENDBRANCH  57  81
BRANCH  69  92
ATOM     92  C   UNL     1       1.074  -6.660  -1.093  1.00  0.00     0.023 A 
ATOM     93  C   UNL     1       1.677  -5.415  -1.365  1.00  0.00     0.031 A 
ATOM     94  C   UNL     1       1.887  -7.691  -0.593  1.00  0.00     0.131 A 
ATOM     95  C   UNL     1       3.055  -5.239  -1.151  1.00  0.00     0.055 A 
ATOM     96  C   UNL     1       3.255  -7.513  -0.376  1.00  0.00     0.041 A 
ATOM     97  F   UNL     1       1.357  -8.885  -0.277  1.00  0.00    -0.206 F 
ATOM     98  C   UNL     1       3.845  -6.285  -0.660  1.00  0.00     0.022 A 
BRANCH  95  99
ATOM     99  S   UNL     1       3.828  -3.629  -1.498  1.00  0.00     0.124 S 
ATOM    100  O   UNL     1       3.427  -3.350  -2.873  1.00  0.00    -0.237 OA
ATOM    101  O   UNL     1       3.243  -2.765  -0.474  1.00  0.00    -0.237 OA
ATOM    102  O   UNL     1       5.257  -3.892  -1.322  1.00  0.00    -0.744 OA
ENDBRANCH  95  99
ENDBRANCH  69  92
ENDBRANCH  43  44
ENDBRANCH  36  38
ENDBRANCH  35  36
ENDBRANCH  34  35
ENDBRANCH  33  34
ENDBRANCH  32  33
ENDBRANCH  31  32
ENDBRANCH   1  31
TORSDOF 27
