REMARK SMILES CC1(C)OC(=O)C(/C=N/[C@@H](CCC(N)=O)C(=O)OCCOCCOCCOC(=O)c2ccc(-c3c4nc(c(-c5cc(S(=O)(=O)[O-])ccc5F)c5ccc([nH]5)c(-c5cc(S(=O)(=O)[O-])ccc5F)c5nc(c(-c6cc(S(=O)(=O)[O-])ccc6F)c6ccc3[nH]6)C=C5)C=C4)cc2)C(=O)O1
REMARK SMILES IDX 22 1 21 2 20 3 19 4 18 5 16 6 17 7 10 8 9 9 8 10 7 11 1 12
REMARK SMILES IDX 2 13 3 14 4 15 95 16 5 17 93 18 6 19 94 20 11 21 12 22 13 23
REMARK SMILES IDX 14 24 15 25 23 28 24 29 25 30 26 31 27 32 28 33 29 34 30 35
REMARK SMILES IDX 31 36 92 37 32 38 91 39 33 40 34 41 35 42 85 43 36 44 90 45
REMARK SMILES IDX 84 46 86 47 37 48 89 49 83 50 82 51 38 53 70 54 50 55 69 56
REMARK SMILES IDX 51 57 54 58 68 59 87 60 52 61 53 62 67 64 88 65 55 66 39 67
REMARK SMILES IDX 40 68 48 69 41 70 47 71 49 72 46 73 42 74 43 75 44 76 45 77
REMARK SMILES IDX 71 78 72 79 80 80 73 81 79 82 81 83 78 84 74 85 75 86 76 87
REMARK SMILES IDX 77 88 56 89 57 90 65 91 58 92 64 93 66 94 63 95 59 96 60 97
REMARK SMILES IDX 61 98 62 99
REMARK H PARENT 14 26 14 27 86 52 54 63
REMARK Flexibility Score: inf
ROOT
ATOM      1  C   UNL     1       3.398   4.848   2.765  1.00  0.00     0.188 C 
ENDROOT
BRANCH   1   2
ATOM      2  O   UNL     1       4.221   4.446   3.853  1.00  0.00    -0.376 OA
BRANCH   2   3
ATOM      3  C   UNL     1       3.884   3.280   4.593  1.00  0.00     0.202 C 
BRANCH   3   4
ATOM      4  C   UNL     1       2.449   3.102   5.107  1.00  0.00     0.261 C 
BRANCH   4   5
ATOM      5  O   UNL     1       1.425   3.095   4.089  1.00  0.00    -0.462 OA
BRANCH   5   6
ATOM      6  C   UNL     1       0.474   4.051   4.205  1.00  0.00     0.330 C 
ATOM      7  O   UNL     1       0.449   4.871   5.122  1.00  0.00    -0.250 OA
BRANCH   6   8
ATOM      8  C   UNL     1      -0.657   4.010   3.179  1.00  0.00     0.215 C 
BRANCH   8   9
ATOM      9  N   UNL     1      -0.521   3.366   1.864  1.00  0.00    -0.281 NA
ATOM     10  C   UNL     1      -0.051   2.201   1.630  1.00  0.00     0.106 C 
BRANCH  10  11
ATOM     11  C   UNL     1      -0.182   1.631   0.238  1.00  0.00     0.250 C 
ATOM     12  C   UNL     1      -0.086  -1.993   1.312  1.00  0.00     0.106 C 
ATOM     13  C   UNL     1      -0.019  -1.169   0.030  1.00  0.00     0.252 C 
ATOM     14  C   UNL     1       0.132  -2.091  -1.180  1.00  0.00     0.106 C 
ATOM     15  O   UNL     1       1.150  -0.357   0.089  1.00  0.00    -0.422 OA
ATOM     16  O   UNL     1      -1.270  -0.501  -0.136  1.00  0.00    -0.422 OA
ATOM     17  C   UNL     1       1.035   0.940  -0.238  1.00  0.00     0.329 C 
ATOM     18  C   UNL     1      -1.412   0.809   0.112  1.00  0.00     0.329 C 
ATOM     19  O   UNL     1       1.943   1.525  -0.816  1.00  0.00    -0.251 OA
ATOM     20  O   UNL     1      -2.538   1.290   0.207  1.00  0.00    -0.251 OA
ENDBRANCH  10  11
ENDBRANCH   8   9
BRANCH   8  21
ATOM     21  C   UNL     1      -1.986   3.629   3.841  1.00  0.00     0.049 C 
BRANCH  21  22
ATOM     22  C   UNL     1      -2.236   2.136   4.048  1.00  0.00     0.102 C 
BRANCH  22  23
ATOM     23  C   UNL     1      -1.161   1.398   4.811  1.00  0.00     0.217 C 
ATOM     24  N   UNL     1      -0.895   1.854   6.064  1.00  0.00    -0.370 N 
ATOM     25  O   UNL     1      -0.567   0.427   4.352  1.00  0.00    -0.275 OA
ATOM     26  H   UNL     1      -1.380   2.635   6.417  1.00  0.00     0.159 HD
ATOM     27  H   UNL     1      -0.217   1.404   6.618  1.00  0.00     0.159 HD
ENDBRANCH  22  23
ENDBRANCH  21  22
ENDBRANCH   8  21
ENDBRANCH   6   8
ENDBRANCH   5   6
ENDBRANCH   4   5
ENDBRANCH   3   4
ENDBRANCH   2   3
ENDBRANCH   1   2
BRANCH   1  28
ATOM     28  C   UNL     1       2.900   3.793   1.760  1.00  0.00     0.188 C 
BRANCH  28  29
ATOM     29  O   UNL     1       3.239   2.458   2.069  1.00  0.00    -0.376 OA
BRANCH  29  30
ATOM     30  C   UNL     1       4.274   1.828   1.332  1.00  0.00     0.202 C 
BRANCH  30  31
ATOM     31  C   UNL     1       5.526   2.571   0.829  1.00  0.00     0.261 C 
BRANCH  31  32
ATOM     32  O   UNL     1       5.411   3.976   0.583  1.00  0.00    -0.460 OA
BRANCH  32  33
ATOM     33  C   UNL     1       4.975   4.357  -0.643  1.00  0.00     0.338 C 
ATOM     34  O   UNL     1       4.684   3.633  -1.579  1.00  0.00    -0.246 OA
BRANCH  33  35
ATOM     35  C   UNL     1       4.725   5.815  -0.585  1.00  0.00     0.060 A 
ATOM     36  C   UNL     1       3.415   6.300  -0.717  1.00  0.00     0.016 A 
ATOM     37  C   UNL     1       5.786   6.695  -0.369  1.00  0.00     0.016 A 
ATOM     38  C   UNL     1       3.168   7.674  -0.656  1.00  0.00     0.010 A 
ATOM     39  C   UNL     1       5.541   8.070  -0.335  1.00  0.00     0.010 A 
ATOM     40  C   UNL     1       4.236   8.568  -0.508  1.00  0.00    -0.014 A 
BRANCH  40  41
ATOM     41  C   UNL     1       4.035  10.020  -0.746  1.00  0.00     0.031 A 
ATOM     42  C   UNL     1       4.396  10.569  -2.100  1.00  0.00     0.074 A 
ATOM     43  C   UNL     1       3.555  10.836   0.209  1.00  0.00     0.049 A 
ATOM     44  N   UNL     1       4.410  11.805  -2.523  1.00  0.00    -0.248 NA
ATOM     45  C   UNL     1       4.810   9.580  -3.108  1.00  0.00     0.031 C 
ATOM     46  C   UNL     1       3.124  10.416   1.541  1.00  0.00     0.029 A 
ATOM     47  N   UNL     1       3.364  12.196   0.206  1.00  0.00    -0.354 N 
ATOM     48  C   UNL     1       4.844  11.746  -3.844  1.00  0.00     0.074 A 
ATOM     49  C   UNL     1       5.121  10.356  -4.134  1.00  0.00     0.031 C 
ATOM     50  C   UNL     1       2.732  11.502   2.232  1.00  0.00     0.029 A 
ATOM     51  C   UNL     1       2.925  12.696   1.410  1.00  0.00     0.049 A 
ATOM     52  H   UNL     1       3.525  12.760  -0.585  1.00  0.00     0.167 HD
ATOM     53  C   UNL     1       4.990  12.758  -4.734  1.00  0.00     0.034 A 
ATOM     54  C   UNL     1       2.736  13.971   1.810  1.00  0.00     0.034 A 
ATOM     55  C   UNL     1       4.727  14.142  -4.422  1.00  0.00     0.049 A 
ATOM     56  C   UNL     1       3.001  15.095   0.833  1.00  0.00     0.074 A 
ATOM     57  C   UNL     1       4.828  15.246  -5.250  1.00  0.00     0.029 A 
ATOM     58  N   UNL     1       4.327  14.615  -3.178  1.00  0.00    -0.354 N 
ATOM     59  N   UNL     1       3.404  15.030  -0.417  1.00  0.00    -0.248 NA
ATOM     60  C   UNL     1       2.782  16.463   1.319  1.00  0.00     0.031 C 
ATOM     61  C   UNL     1       4.575  16.390  -4.487  1.00  0.00     0.029 A 
ATOM     62  C   UNL     1       4.218  15.997  -3.207  1.00  0.00     0.049 A 
ATOM     63  H   UNL     1       4.147  14.051  -2.391  1.00  0.00     0.167 HD
ATOM     64  C   UNL     1       3.449  16.347  -0.872  1.00  0.00     0.074 A 
ATOM     65  C   UNL     1       3.022  17.181   0.232  1.00  0.00     0.031 C 
ATOM     66  C   UNL     1       3.802  16.823  -2.095  1.00  0.00     0.034 A 
BRANCH  53  67
ATOM     67  C   UNL     1       5.516  12.403  -6.105  1.00  0.00     0.023 A 
ATOM     68  C   UNL     1       4.815  11.546  -6.971  1.00  0.00     0.031 A 
ATOM     69  C   UNL     1       6.761  12.896  -6.536  1.00  0.00     0.131 A 
ATOM     70  C   UNL     1       5.397  11.145  -8.184  1.00  0.00     0.055 A 
ATOM     71  C   UNL     1       7.294  12.565  -7.783  1.00  0.00     0.041 A 
ATOM     72  F   UNL     1       7.491  13.697  -5.743  1.00  0.00    -0.206 F 
ATOM     73  C   UNL     1       6.619  11.671  -8.608  1.00  0.00     0.022 A 
BRANCH  70  74
ATOM     74  S   UNL     1       4.611   9.805  -9.121  1.00  0.00     0.124 S 
ATOM     75  O   UNL     1       4.593   8.727  -8.135  1.00  0.00    -0.237 OA
ATOM     76  O   UNL     1       3.316  10.378  -9.466  1.00  0.00    -0.237 OA
ATOM     77  O   UNL     1       5.521   9.595 -10.246  1.00  0.00    -0.744 OA
ENDBRANCH  70  74
ENDBRANCH  53  67
BRANCH  54  78
ATOM     78  C   UNL     1       2.313  14.271   3.210  1.00  0.00     0.023 A 
ATOM     79  C   UNL     1       1.095  14.914   3.482  1.00  0.00     0.031 A 
ATOM     80  C   UNL     1       3.154  13.970   4.297  1.00  0.00     0.131 A 
ATOM     81  C   UNL     1       0.771  15.274   4.800  1.00  0.00     0.055 A 
ATOM     82  C   UNL     1       2.801  14.277   5.612  1.00  0.00     0.041 A 
ATOM     83  F   UNL     1       4.335  13.365   4.096  1.00  0.00    -0.206 F 
ATOM     84  C   UNL     1       1.608  14.945   5.869  1.00  0.00     0.022 A 
BRANCH  81  85
ATOM     85  S   UNL     1      -0.722  16.264   5.091  1.00  0.00     0.124 S 
ATOM     86  O   UNL     1      -0.452  17.450   4.287  1.00  0.00    -0.237 OA
ATOM     87  O   UNL     1      -1.773  15.380   4.598  1.00  0.00    -0.237 OA
ATOM     88  O   UNL     1      -0.715  16.474   6.537  1.00  0.00    -0.744 OA
ENDBRANCH  81  85
ENDBRANCH  54  78
BRANCH  66  89
ATOM     89  C   UNL     1       3.688  18.314  -2.320  1.00  0.00     0.023 A 
ATOM     90  C   UNL     1       4.491  19.238  -1.628  1.00  0.00     0.031 A 
ATOM     91  C   UNL     1       2.756  18.817  -3.247  1.00  0.00     0.131 A 
ATOM     92  C   UNL     1       4.306  20.615  -1.830  1.00  0.00     0.055 A 
ATOM     93  C   UNL     1       2.625  20.184  -3.494  1.00  0.00     0.041 A 
ATOM     94  F   UNL     1       1.958  17.984  -3.935  1.00  0.00    -0.206 F 
ATOM     95  C   UNL     1       3.394  21.093  -2.774  1.00  0.00     0.022 A 
BRANCH  92  96
ATOM     96  S   UNL     1       5.203  21.781  -0.768  1.00  0.00     0.124 S 
ATOM     97  O   UNL     1       4.768  21.374   0.564  1.00  0.00    -0.237 OA
ATOM     98  O   UNL     1       6.596  21.498  -1.099  1.00  0.00    -0.237 OA
ATOM     99  O   UNL     1       4.717  23.088  -1.206  1.00  0.00    -0.744 OA
ENDBRANCH  92  96
ENDBRANCH  66  89
ENDBRANCH  40  41
ENDBRANCH  33  35
ENDBRANCH  32  33
ENDBRANCH  31  32
ENDBRANCH  30  31
ENDBRANCH  29  30
ENDBRANCH  28  29
ENDBRANCH   1  28
TORSDOF 25
