REMARK SMILES C[C@@H](C(=O)[C@H](C)[C@@H](C)C(=O)OCCOCCOCCOC(=O)c1ccc(-c2c3nc(c(-c4cc(S(=O)(=O)[O-])ccc4F)c4ccc([nH]4)c(-c4cc(S(=O)(=O)[O-])ccc4F)c4nc(c(-c5cc(S(=O)(=O)[O-])ccc5F)c5ccc2[nH]5)C=C4)C=C3)cc1)c1ccccc1
REMARK SMILES IDX 15 1 14 2 13 3 12 4 11 5 9 6 10 7 7 8 8 9 5 10 6 11 3 12
REMARK SMILES IDX 4 13 2 14 1 15 86 16 87 17 91 18 88 19 90 20 89 21 16 22
REMARK SMILES IDX 17 23 18 24 19 25 20 26 21 27 22 28 23 29 24 30 85 31 25 32
REMARK SMILES IDX 84 33 26 34 27 35 28 36 78 37 29 38 83 39 77 40 79 41 30 42
REMARK SMILES IDX 82 43 76 44 75 45 31 47 63 48 43 49 62 50 44 51 47 52 61 53
REMARK SMILES IDX 80 54 45 55 46 56 60 58 81 59 48 60 32 61 33 62 41 63 34 64
REMARK SMILES IDX 40 65 42 66 39 67 35 68 36 69 37 70 38 71 64 72 65 73 73 74
REMARK SMILES IDX 66 75 72 76 74 77 71 78 67 79 68 80 69 81 70 82 49 83 50 84
REMARK SMILES IDX 58 85 51 86 57 87 59 88 56 89 52 90 53 91 54 92 55 93
REMARK H PARENT 79 46 47 57
REMARK Flexibility Score: inf
ROOT
ATOM      1  C   UNL     1       6.615  -0.039  -2.308  1.00  0.00     0.188 C 
ENDROOT
BRANCH   1   2
ATOM      2  O   UNL     1       7.329  -1.220  -1.957  1.00  0.00    -0.376 OA
BRANCH   2   3
ATOM      3  C   UNL     1       7.086  -2.386  -2.725  1.00  0.00     0.202 C 
BRANCH   3   4
ATOM      4  C   UNL     1       5.769  -3.118  -2.455  1.00  0.00     0.261 C 
BRANCH   4   5
ATOM      5  O   UNL     1       4.556  -2.366  -2.686  1.00  0.00    -0.463 OA
BRANCH   5   6
ATOM      6  C   UNL     1       3.962  -1.900  -1.555  1.00  0.00     0.309 C 
ATOM      7  O   UNL     1       4.523  -1.796  -0.470  1.00  0.00    -0.252 OA
BRANCH   6   8
ATOM      8  C   UNL     1       2.464  -1.710  -1.690  1.00  0.00     0.106 C 
ATOM      9  C   UNL     1       1.851  -3.120  -1.693  1.00  0.00     0.021 C 
BRANCH   8  10
ATOM     10  C   UNL     1       1.904  -0.839  -2.832  1.00  0.00     0.067 C 
ATOM     11  C   UNL     1       0.400  -0.591  -2.651  1.00  0.00     0.017 C 
BRANCH  10  12
ATOM     12  C   UNL     1       2.555   0.487  -3.271  1.00  0.00     0.143 C 
ATOM     13  O   UNL     1       2.740   0.622  -4.490  1.00  0.00    -0.299 OA
BRANCH  12  14
ATOM     14  C   UNL     1       3.002   1.589  -2.287  1.00  0.00     0.083 C 
ATOM     15  C   UNL     1       2.421   1.504  -0.878  1.00  0.00     0.021 C 
BRANCH  14  16
ATOM     16  C   UNL     1       3.012   3.036  -2.848  1.00  0.00    -0.038 A 
ATOM     17  C   UNL     1       3.739   3.345  -4.016  1.00  0.00     0.004 A 
ATOM     18  C   UNL     1       2.493   4.130  -2.125  1.00  0.00     0.004 A 
ATOM     19  C   UNL     1       3.998   4.669  -4.395  1.00  0.00     0.000 A 
ATOM     20  C   UNL     1       2.769   5.455  -2.494  1.00  0.00     0.000 A 
ATOM     21  C   UNL     1       3.536   5.724  -3.620  1.00  0.00     0.000 A 
ENDBRANCH  14  16
ENDBRANCH  12  14
ENDBRANCH  10  12
ENDBRANCH   8  10
ENDBRANCH   6   8
ENDBRANCH   5   6
ENDBRANCH   4   5
ENDBRANCH   3   4
ENDBRANCH   2   3
ENDBRANCH   1   2
BRANCH   1  22
ATOM     22  C   UNL     1       6.304   0.192  -3.791  1.00  0.00     0.188 C 
BRANCH  22  23
ATOM     23  O   UNL     1       7.482   0.176  -4.597  1.00  0.00    -0.376 OA
BRANCH  23  24
ATOM     24  C   UNL     1       7.825   1.452  -5.139  1.00  0.00     0.202 C 
BRANCH  24  25
ATOM     25  C   UNL     1       8.826   2.192  -4.249  1.00  0.00     0.261 C 
BRANCH  25  26
ATOM     26  O   UNL     1       8.261   2.640  -3.000  1.00  0.00    -0.460 OA
BRANCH  26  27
ATOM     27  C   UNL     1       7.563   3.797  -3.074  1.00  0.00     0.338 C 
ATOM     28  O   UNL     1       7.330   4.428  -4.088  1.00  0.00    -0.246 OA
BRANCH  27  29
ATOM     29  C   UNL     1       7.115   4.220  -1.729  1.00  0.00     0.060 A 
ATOM     30  C   UNL     1       5.967   3.658  -1.184  1.00  0.00     0.016 A 
ATOM     31  C   UNL     1       7.719   5.303  -1.092  1.00  0.00     0.016 A 
ATOM     32  C   UNL     1       5.350   4.249  -0.077  1.00  0.00     0.010 A 
ATOM     33  C   UNL     1       7.129   5.859   0.058  1.00  0.00     0.010 A 
ATOM     34  C   UNL     1       5.905   5.372   0.550  1.00  0.00    -0.014 A 
BRANCH  34  35
ATOM     35  C   UNL     1       5.158   6.062   1.650  1.00  0.00     0.031 A 
ATOM     36  C   UNL     1       4.633   7.467   1.459  1.00  0.00     0.074 A 
ATOM     37  C   UNL     1       4.845   5.415   2.792  1.00  0.00     0.049 A 
ATOM     38  N   UNL     1       4.066   8.268   2.329  1.00  0.00    -0.248 NA
ATOM     39  C   UNL     1       4.734   8.031   0.105  1.00  0.00     0.031 C 
ATOM     40  C   UNL     1       5.157   4.016   3.083  1.00  0.00     0.029 A 
ATOM     41  N   UNL     1       4.181   5.846   3.919  1.00  0.00    -0.354 N 
ATOM     42  C   UNL     1       3.744   9.430   1.633  1.00  0.00     0.074 A 
ATOM     43  C   UNL     1       4.198   9.233   0.271  1.00  0.00     0.031 C 
ATOM     44  C   UNL     1       4.677   3.702   4.296  1.00  0.00     0.029 A 
ATOM     45  C   UNL     1       4.113   4.899   4.916  1.00  0.00     0.049 A 
ATOM     46  H   UNL     1       3.792   6.747   4.004  1.00  0.00     0.167 HD
ATOM     47  C   UNL     1       3.131  10.556   2.084  1.00  0.00     0.034 A 
ATOM     48  C   UNL     1       3.711   4.986   6.202  1.00  0.00     0.034 A 
ATOM     49  C   UNL     1       2.703  10.767   3.449  1.00  0.00     0.049 A 
ATOM     50  C   UNL     1       3.199   6.302   6.731  1.00  0.00     0.074 A 
ATOM     51  C   UNL     1       2.162  11.910   4.018  1.00  0.00     0.029 A 
ATOM     52  N   UNL     1       2.762   9.820   4.462  1.00  0.00    -0.354 N 
ATOM     53  N   UNL     1       3.015   7.436   6.095  1.00  0.00    -0.248 NA
ATOM     54  C   UNL     1       2.850   6.352   8.158  1.00  0.00     0.031 C 
ATOM     55  C   UNL     1       1.959  11.675   5.384  1.00  0.00     0.029 A 
ATOM     56  C   UNL     1       2.298  10.361   5.655  1.00  0.00     0.049 A 
ATOM     57  H   UNL     1       3.086   8.897   4.351  1.00  0.00     0.167 HD
ATOM     58  C   UNL     1       2.520   8.327   7.045  1.00  0.00     0.074 A 
ATOM     59  C   UNL     1       2.399   7.590   8.284  1.00  0.00     0.031 C 
ATOM     60  C   UNL     1       2.203   9.640   6.903  1.00  0.00     0.034 A 
BRANCH  47  61
ATOM     61  C   UNL     1       2.960  11.690   1.101  1.00  0.00     0.023 A 
ATOM     62  C   UNL     1       2.065  11.611   0.019  1.00  0.00     0.031 A 
ATOM     63  C   UNL     1       3.711  12.870   1.252  1.00  0.00     0.131 A 
ATOM     64  C   UNL     1       1.976  12.677  -0.892  1.00  0.00     0.055 A 
ATOM     65  C   UNL     1       3.572  13.950   0.379  1.00  0.00     0.041 A 
ATOM     66  F   UNL     1       4.595  12.991   2.255  1.00  0.00    -0.206 F 
ATOM     67  C   UNL     1       2.707  13.854  -0.706  1.00  0.00     0.022 A 
BRANCH  64  68
ATOM     68  S   UNL     1       0.975  12.466  -2.391  1.00  0.00     0.124 S 
ATOM     69  O   UNL     1       1.587  11.283  -2.991  1.00  0.00    -0.237 OA
ATOM     70  O   UNL     1      -0.367  12.288  -1.850  1.00  0.00    -0.237 OA
ATOM     71  O   UNL     1       1.192  13.710  -3.126  1.00  0.00    -0.744 OA
ENDBRANCH  64  68
ENDBRANCH  47  61
BRANCH  48  72
ATOM     72  C   UNL     1       3.893   3.826   7.126  1.00  0.00     0.023 A 
ATOM     73  C   UNL     1       2.811   3.237   7.798  1.00  0.00     0.031 A 
ATOM     74  C   UNL     1       5.185   3.342   7.410  1.00  0.00     0.131 A 
ATOM     75  C   UNL     1       3.044   2.230   8.750  1.00  0.00     0.055 A 
ATOM     76  C   UNL     1       5.405   2.295   8.305  1.00  0.00     0.041 A 
ATOM     77  F   UNL     1       6.260   3.881   6.812  1.00  0.00    -0.206 F 
ATOM     78  C   UNL     1       4.331   1.743   8.993  1.00  0.00     0.022 A 
BRANCH  75  79
ATOM     79  S   UNL     1       1.653   1.636   9.752  1.00  0.00     0.124 S 
ATOM     80  O   UNL     1       1.178   2.872  10.364  1.00  0.00    -0.237 OA
ATOM     81  O   UNL     1       0.782   1.046   8.740  1.00  0.00    -0.237 OA
ATOM     82  O   UNL     1       2.276   0.684  10.668  1.00  0.00    -0.744 OA
ENDBRANCH  75  79
ENDBRANCH  48  72
BRANCH  60  83
ATOM     83  C   UNL     1       1.666  10.348   8.127  1.00  0.00     0.023 A 
ATOM     84  C   UNL     1       2.457  10.537   9.276  1.00  0.00     0.031 A 
ATOM     85  C   UNL     1       0.330  10.784   8.171  1.00  0.00     0.131 A 
ATOM     86  C   UNL     1       1.886  11.072  10.442  1.00  0.00     0.055 A 
ATOM     87  C   UNL     1      -0.215  11.374   9.314  1.00  0.00     0.041 A 
ATOM     88  F   UNL     1      -0.475  10.629   7.108  1.00  0.00    -0.206 F 
ATOM     89  C   UNL     1       0.558  11.504  10.464  1.00  0.00     0.022 A 
BRANCH  86  90
ATOM     90  S   UNL     1       2.865  11.077  11.971  1.00  0.00     0.124 S 
ATOM     91  O   UNL     1       3.252   9.675  12.090  1.00  0.00    -0.237 OA
ATOM     92  O   UNL     1       3.940  12.010  11.648  1.00  0.00    -0.237 OA
ATOM     93  O   UNL     1       1.920  11.547  12.982  1.00  0.00    -0.744 OA
ENDBRANCH  86  90
ENDBRANCH  60  83
ENDBRANCH  34  35
ENDBRANCH  27  29
ENDBRANCH  26  27
ENDBRANCH  25  26
ENDBRANCH  24  25
ENDBRANCH  23  24
ENDBRANCH  22  23
ENDBRANCH   1  22
TORSDOF 24
