REMARK SMILES CCOc1cc(OCC)cc(-c2ccc([C@@H](C)C(=O)OCCOCCOCCOC(=O)c3ccc(-c4c5nc(c(-c6cc(S(=O)(=O)[O-])ccc6F)c6ccc([nH]6)c(-c6cc(S(=O)(=O)[O-])ccc6F)c6nc(c(-c7cc(S(=O)(=O)[O-])ccc7F)c7ccc4[nH]7)C=C6)C=C5)cc3)cc2)c1
REMARK SMILES IDX 24 1 23 2 22 3 21 4 20 5 18 6 19 7 16 8 17 9 15 10 12 11
REMARK SMILES IDX 13 12 96 13 14 14 95 15 11 16 4 17 5 18 97 19 6 20 10 21
REMARK SMILES IDX 3 22 2 23 1 24 7 25 8 26 9 27 25 28 26 29 27 30 28 31 29 32
REMARK SMILES IDX 30 33 31 34 32 35 33 36 94 37 34 38 93 39 35 40 36 41 37 42
REMARK SMILES IDX 87 43 38 44 92 45 86 46 88 47 39 48 91 49 85 50 84 51 40 53
REMARK SMILES IDX 72 54 52 55 71 56 53 57 56 58 70 59 89 60 54 61 55 62 69 64
REMARK SMILES IDX 90 65 57 66 41 67 42 68 50 69 43 70 49 71 51 72 48 73 44 74
REMARK SMILES IDX 45 75 46 76 47 77 73 78 74 79 82 80 75 81 81 82 83 83 80 84
REMARK SMILES IDX 76 85 77 86 78 87 79 88 58 89 59 90 67 91 60 92 66 93 68 94
REMARK SMILES IDX 65 95 61 96 62 97 63 98 64 99
REMARK H PARENT 88 52 56 63
REMARK Flexibility Score: inf
ROOT
ATOM      1  C   UNL     1       6.215   4.904   0.265  1.00  0.00     0.188 C 
ENDROOT
BRANCH   1   2
ATOM      2  O   UNL     1       6.957   5.737  -0.620  1.00  0.00    -0.376 OA
BRANCH   2   3
ATOM      3  C   UNL     1       8.012   5.171  -1.384  1.00  0.00     0.202 C 
BRANCH   3   4
ATOM      4  C   UNL     1       9.146   4.444  -0.644  1.00  0.00     0.261 C 
BRANCH   4   5
ATOM      5  O   UNL     1       8.732   3.418   0.286  1.00  0.00    -0.463 OA
BRANCH   5   6
ATOM      6  C   UNL     1       9.106   3.586   1.581  1.00  0.00     0.313 C 
ATOM      7  O   UNL     1       9.825   4.512   1.953  1.00  0.00    -0.252 OA
BRANCH   6   8
ATOM      8  C   UNL     1       8.579   2.553   2.583  1.00  0.00     0.126 C 
ATOM      9  C   UNL     1       9.773   1.898   3.275  1.00  0.00     0.025 C 
BRANCH   8  10
ATOM     10  C   UNL     1       7.569   1.485   2.167  1.00  0.00    -0.034 A 
ATOM     11  C   UNL     1       5.613  -0.487   1.485  1.00  0.00    -0.018 A 
ATOM     12  C   UNL     1       6.803  -0.341   0.748  1.00  0.00     0.009 A 
ATOM     13  C   UNL     1       5.416   0.372   2.570  1.00  0.00     0.009 A 
ATOM     14  C   UNL     1       7.775   0.614   1.090  1.00  0.00     0.005 A 
ATOM     15  C   UNL     1       6.378   1.336   2.908  1.00  0.00     0.005 A 
BRANCH  11  16
ATOM     16  C   UNL     1       4.663  -1.575   1.177  1.00  0.00    -0.011 A 
ATOM     17  C   UNL     1       2.449  -2.436   0.649  1.00  0.00     0.123 A 
ATOM     18  C   UNL     1       2.947  -3.740   0.625  1.00  0.00     0.092 A 
ATOM     19  C   UNL     1       3.298  -1.361   0.935  1.00  0.00     0.055 A 
ATOM     20  C   UNL     1       4.294  -3.980   0.893  1.00  0.00     0.123 A 
ATOM     21  C   UNL     1       5.133  -2.900   1.168  1.00  0.00     0.055 A 
BRANCH  17  22
ATOM     22  O   UNL     1       1.089  -2.296   0.569  1.00  0.00    -0.494 OA
BRANCH  22  23
ATOM     23  C   UNL     1       0.610  -1.575  -0.569  1.00  0.00     0.226 C 
ATOM     24  C   UNL     1       0.533  -0.085  -0.305  1.00  0.00     0.049 C 
ENDBRANCH  22  23
ENDBRANCH  17  22
BRANCH  20  25
ATOM     25  O   UNL     1       4.686  -5.292   0.854  1.00  0.00    -0.494 OA
BRANCH  25  26
ATOM     26  C   UNL     1       5.931  -5.623   1.476  1.00  0.00     0.226 C 
ATOM     27  C   UNL     1       7.089  -5.502   0.496  1.00  0.00     0.049 C 
ENDBRANCH  25  26
ENDBRANCH  20  25
ENDBRANCH  11  16
ENDBRANCH   8  10
ENDBRANCH   6   8
ENDBRANCH   5   6
ENDBRANCH   4   5
ENDBRANCH   3   4
ENDBRANCH   2   3
ENDBRANCH   1   2
BRANCH   1  28
ATOM     28  C   UNL     1       5.922   3.449  -0.133  1.00  0.00     0.188 C 
BRANCH  28  29
ATOM     29  O   UNL     1       6.234   3.122  -1.472  1.00  0.00    -0.376 OA
BRANCH  29  30
ATOM     30  C   UNL     1       5.160   2.646  -2.258  1.00  0.00     0.202 C 
BRANCH  30  31
ATOM     31  C   UNL     1       4.070   3.689  -2.553  1.00  0.00     0.261 C 
BRANCH  31  32
ATOM     32  O   UNL     1       3.524   4.371  -1.405  1.00  0.00    -0.460 OA
BRANCH  32  33
ATOM     33  C   UNL     1       2.736   3.629  -0.597  1.00  0.00     0.338 C 
ATOM     34  O   UNL     1       2.432   2.458  -0.778  1.00  0.00    -0.246 OA
BRANCH  33  35
ATOM     35  C   UNL     1       2.467   4.366   0.657  1.00  0.00     0.060 A 
ATOM     36  C   UNL     1       2.869   3.802   1.877  1.00  0.00     0.016 A 
ATOM     37  C   UNL     1       1.794   5.588   0.637  1.00  0.00     0.016 A 
ATOM     38  C   UNL     1       2.570   4.443   3.081  1.00  0.00     0.010 A 
ATOM     39  C   UNL     1       1.478   6.220   1.847  1.00  0.00     0.010 A 
ATOM     40  C   UNL     1       1.835   5.636   3.077  1.00  0.00    -0.014 A 
BRANCH  40  41
ATOM     41  C   UNL     1       1.295   6.175   4.356  1.00  0.00     0.031 A 
ATOM     42  C   UNL     1      -0.151   5.920   4.696  1.00  0.00     0.074 A 
ATOM     43  C   UNL     1       2.079   6.845   5.221  1.00  0.00     0.049 A 
ATOM     44  N   UNL     1      -0.845   6.308   5.735  1.00  0.00    -0.248 NA
ATOM     45  C   UNL     1      -0.916   5.122   3.725  1.00  0.00     0.031 C 
ATOM     46  C   UNL     1       3.502   7.121   5.031  1.00  0.00     0.029 A 
ATOM     47  N   UNL     1       1.786   7.418   6.435  1.00  0.00    -0.354 N 
ATOM     48  C   UNL     1      -2.129   5.807   5.543  1.00  0.00     0.074 A 
ATOM     49  C   UNL     1      -2.124   5.123   4.267  1.00  0.00     0.031 C 
ATOM     50  C   UNL     1       3.957   7.813   6.090  1.00  0.00     0.029 A 
ATOM     51  C   UNL     1       2.853   8.066   7.014  1.00  0.00     0.049 A 
ATOM     52  H   UNL     1       0.895   7.370   6.852  1.00  0.00     0.167 HD
ATOM     53  C   UNL     1      -3.209   5.899   6.359  1.00  0.00     0.034 A 
ATOM     54  C   UNL     1       2.924   8.799   8.146  1.00  0.00     0.034 A 
ATOM     55  C   UNL     1      -3.205   6.595   7.624  1.00  0.00     0.049 A 
ATOM     56  C   UNL     1       1.685   8.960   8.997  1.00  0.00     0.074 A 
ATOM     57  C   UNL     1      -4.239   6.734   8.533  1.00  0.00     0.029 A 
ATOM     58  N   UNL     1      -2.119   7.281   8.154  1.00  0.00    -0.354 N 
ATOM     59  N   UNL     1       0.480   8.468   8.812  1.00  0.00    -0.248 NA
ATOM     60  C   UNL     1       1.821   9.764  10.218  1.00  0.00     0.031 C 
ATOM     61  C   UNL     1      -3.807   7.573   9.567  1.00  0.00     0.029 A 
ATOM     62  C   UNL     1      -2.472   7.878   9.357  1.00  0.00     0.049 A 
ATOM     63  H   UNL     1      -1.229   7.337   7.737  1.00  0.00     0.167 HD
ATOM     64  C   UNL     1      -0.272   8.877   9.912  1.00  0.00     0.074 A 
ATOM     65  C   UNL     1       0.622   9.634  10.764  1.00  0.00     0.031 C 
ATOM     66  C   UNL     1      -1.580   8.646  10.195  1.00  0.00     0.034 A 
BRANCH  53  67
ATOM     67  C   UNL     1      -4.500   5.279   5.876  1.00  0.00     0.023 A 
ATOM     68  C   UNL     1      -4.625   3.896   5.653  1.00  0.00     0.031 A 
ATOM     69  C   UNL     1      -5.620   6.089   5.614  1.00  0.00     0.131 A 
ATOM     70  C   UNL     1      -5.814   3.377   5.117  1.00  0.00     0.055 A 
ATOM     71  C   UNL     1      -6.828   5.555   5.162  1.00  0.00     0.041 A 
ATOM     72  F   UNL     1      -5.556   7.419   5.782  1.00  0.00    -0.206 F 
ATOM     73  C   UNL     1      -6.926   4.193   4.897  1.00  0.00     0.022 A 
BRANCH  70  74
ATOM     74  S   UNL     1      -5.837   1.647   4.571  1.00  0.00     0.124 S 
ATOM     75  O   UNL     1      -4.749   1.632   3.596  1.00  0.00    -0.237 OA
ATOM     76  O   UNL     1      -5.595   0.921   5.811  1.00  0.00    -0.237 OA
ATOM     77  O   UNL     1      -7.174   1.486   4.003  1.00  0.00    -0.744 OA
ENDBRANCH  70  74
ENDBRANCH  53  67
BRANCH  54  78
ATOM     78  C   UNL     1       4.198   9.477   8.534  1.00  0.00     0.023 A 
ATOM     79  C   UNL     1       4.853   9.169   9.738  1.00  0.00     0.031 A 
ATOM     80  C   UNL     1       4.741  10.499   7.734  1.00  0.00     0.131 A 
ATOM     81  C   UNL     1       5.979   9.910  10.132  1.00  0.00     0.055 A 
ATOM     82  C   UNL     1       5.897  11.190   8.101  1.00  0.00     0.041 A 
ATOM     83  F   UNL     1       4.152  10.842   6.577  1.00  0.00    -0.206 F 
ATOM     84  C   UNL     1       6.515  10.906   9.314  1.00  0.00     0.022 A 
BRANCH  81  85
ATOM     85  S   UNL     1       6.676   9.621  11.783  1.00  0.00     0.124 S 
ATOM     86  O   UNL     1       5.531   9.902  12.641  1.00  0.00    -0.237 OA
ATOM     87  O   UNL     1       7.086   8.224  11.698  1.00  0.00    -0.237 OA
ATOM     88  O   UNL     1       7.770  10.586  11.864  1.00  0.00    -0.744 OA
ENDBRANCH  81  85
ENDBRANCH  54  78
BRANCH  66  89
ATOM     89  C   UNL     1      -2.107   9.180  11.510  1.00  0.00     0.023 A 
ATOM     90  C   UNL     1      -2.148  10.558  11.791  1.00  0.00     0.031 A 
ATOM     91  C   UNL     1      -2.541   8.294  12.513  1.00  0.00     0.131 A 
ATOM     92  C   UNL     1      -2.532  11.003  13.066  1.00  0.00     0.055 A 
ATOM     93  C   UNL     1      -2.998   8.747  13.752  1.00  0.00     0.041 A 
ATOM     94  F   UNL     1      -2.524   6.967  12.308  1.00  0.00    -0.206 F 
ATOM     95  C   UNL     1      -2.976  10.107  14.041  1.00  0.00     0.022 A 
BRANCH  92  96
ATOM     96  S   UNL     1      -2.311  12.756  13.478  1.00  0.00     0.124 S 
ATOM     97  O   UNL     1      -0.892  12.954  13.205  1.00  0.00    -0.237 OA
ATOM     98  O   UNL     1      -3.235  13.411  12.558  1.00  0.00    -0.237 OA
ATOM     99  O   UNL     1      -2.687  12.826  14.889  1.00  0.00    -0.744 OA
ENDBRANCH  92  96
ENDBRANCH  66  89
ENDBRANCH  40  41
ENDBRANCH  33  35
ENDBRANCH  32  33
ENDBRANCH  31  32
ENDBRANCH  30  31
ENDBRANCH  29  30
ENDBRANCH  28  29
ENDBRANCH   1  28
TORSDOF 26
