REMARK SMILES C[NH+](C)CCc1nc(Nc2ccc(O)c(C(=O)OCCOCCOCCOC(=O)c3ccc(-c4c5nc(c(-c6cc(S(=O)(=O)[O-])ccc6F)c6ccc([nH]6)c(-c6cc(S(=O)(=O)[O-])ccc6F)c6nc(c(-c7cc(S(=O)(=O)[O-])ccc7F)c7ccc4[nH]7)C=C6)C=C5)cc3)c2)c2ccccc2n1
REMARK SMILES IDX 22 1 21 2 20 3 19 4 18 5 16 6 17 7 15 8 10 9 11 10 93 11
REMARK SMILES IDX 12 12 13 13 9 14 8 16 6 17 7 18 100 19 99 20 94 21 98 22
REMARK SMILES IDX 95 23 97 24 96 25 5 26 4 27 2 28 1 29 3 30 14 32 23 34 24 35
REMARK SMILES IDX 25 36 26 37 27 38 28 39 29 40 30 41 31 42 92 43 32 44 91 45
REMARK SMILES IDX 33 46 34 47 35 48 85 49 36 50 90 51 84 52 86 53 37 54 89 55
REMARK SMILES IDX 83 56 82 57 38 59 70 60 50 61 69 62 51 63 54 64 68 65 87 66
REMARK SMILES IDX 52 67 53 68 67 70 88 71 55 72 39 73 40 74 48 75 41 76 47 77
REMARK SMILES IDX 49 78 46 79 42 80 43 81 44 82 45 83 71 84 72 85 80 86 73 87
REMARK SMILES IDX 79 88 81 89 78 90 74 91 75 92 76 93 77 94 56 95 57 96 65 97
REMARK SMILES IDX 58 98 64 99 66 100 63 101 59 102 60 103 61 104 62 105
REMARK H PARENT 9 15 2 31 14 33 86 58 54 69
REMARK Flexibility Score: inf
ROOT
ATOM      1  C   UNL     1       0.362   4.955  -4.415  1.00  0.00     0.188 C 
ENDROOT
BRANCH   1   2
ATOM      2  O   UNL     1      -0.671   5.909  -4.551  1.00  0.00    -0.376 OA
BRANCH   2   3
ATOM      3  C   UNL     1      -1.255   6.502  -3.402  1.00  0.00     0.202 C 
BRANCH   3   4
ATOM      4  C   UNL     1      -1.359   5.789  -2.046  1.00  0.00     0.261 C 
BRANCH   4   5
ATOM      5  O   UNL     1      -0.191   5.064  -1.655  1.00  0.00    -0.460 OA
BRANCH   5   6
ATOM      6  C   UNL     1      -0.356   3.728  -1.482  1.00  0.00     0.342 C 
ATOM      7  O   UNL     1      -1.406   3.111  -1.587  1.00  0.00    -0.246 OA
BRANCH   6   8
ATOM      8  C   UNL     1       0.954   3.042  -1.367  1.00  0.00     0.103 A 
ATOM      9  C   UNL     1       2.276   1.073  -1.950  1.00  0.00     0.041 A 
ATOM     10  C   UNL     1       3.285   1.530  -1.094  1.00  0.00     0.030 A 
ATOM     11  C   UNL     1       1.121   1.851  -2.100  1.00  0.00     0.045 A 
ATOM     12  C   UNL     1       3.151   2.741  -0.403  1.00  0.00     0.049 A 
ATOM     13  C   UNL     1       1.977   3.487  -0.525  1.00  0.00     0.130 A 
BRANCH   9  14
ATOM     14  N   UNL     1       2.325  -0.233  -2.487  1.00  0.00    -0.340 N 
ATOM     15  H   UNL     1       2.543  -0.331  -3.442  1.00  0.00     0.168 HD
BRANCH  14  16
ATOM     16  C   UNL     1       2.079  -1.420  -1.733  1.00  0.00     0.142 A 
ATOM     17  C   UNL     1       1.318  -2.376   0.224  1.00  0.00     0.137 A 
ATOM     18  N   UNL     1       1.737  -1.289  -0.432  1.00  0.00    -0.215 NA
ATOM     19  N   UNL     1       1.319  -3.611  -0.302  1.00  0.00    -0.233 NA
ATOM     20  C   UNL     1       1.713  -3.752  -1.571  1.00  0.00     0.076 A 
ATOM     21  C   UNL     1       2.123  -2.675  -2.368  1.00  0.00     0.043 A 
ATOM     22  C   UNL     1       1.670  -5.023  -2.130  1.00  0.00     0.029 A 
ATOM     23  C   UNL     1       2.502  -2.917  -3.716  1.00  0.00     0.014 A 
ATOM     24  C   UNL     1       2.020  -5.257  -3.462  1.00  0.00     0.002 A 
ATOM     25  C   UNL     1       2.443  -4.201  -4.256  1.00  0.00     0.001 A 
BRANCH  17  26
ATOM     26  C   UNL     1       0.662  -2.254   1.579  1.00  0.00     0.138 C 
BRANCH  26  27
ATOM     27  C   UNL     1       0.753  -0.932   2.364  1.00  0.00     0.269 C 
BRANCH  27  28
ATOM     28  N   UNL     1      -0.166   0.188   2.090  1.00  0.00    -0.339 N 
ATOM     29  C   UNL     1       0.099   0.794   0.799  1.00  0.00     0.332 C 
ATOM     30  C   UNL     1      -1.583  -0.132   2.185  1.00  0.00     0.332 C 
ATOM     31  H   UNL     1       0.031   0.848   2.842  1.00  0.00     0.347 HD
ENDBRANCH  27  28
ENDBRANCH  26  27
ENDBRANCH  17  26
ENDBRANCH  14  16
ENDBRANCH   9  14
BRANCH  13  32
ATOM     32  O   UNL     1       1.817   4.616   0.227  1.00  0.00    -0.507 OA
ATOM     33  H   UNL     1       2.508   4.907   0.789  1.00  0.00     0.293 HD
ENDBRANCH  13  32
ENDBRANCH   6   8
ENDBRANCH   5   6
ENDBRANCH   4   5
ENDBRANCH   3   4
ENDBRANCH   2   3
ENDBRANCH   1   2
BRANCH   1  34
ATOM     34  C   UNL     1       1.721   5.375  -3.811  1.00  0.00     0.188 C 
BRANCH  34  35
ATOM     35  O   UNL     1       1.920   6.680  -3.318  1.00  0.00    -0.376 OA
BRANCH  35  36
ATOM     36  C   UNL     1       1.833   7.784  -4.198  1.00  0.00     0.202 C 
BRANCH  36  37
ATOM     37  C   UNL     1       2.232   7.733  -5.683  1.00  0.00     0.261 C 
BRANCH  37  38
ATOM     38  O   UNL     1       1.977   6.516  -6.393  1.00  0.00    -0.460 OA
BRANCH  38  39
ATOM     39  C   UNL     1       3.075   5.775  -6.688  1.00  0.00     0.338 C 
ATOM     40  O   UNL     1       4.236   6.033  -6.396  1.00  0.00    -0.246 OA
BRANCH  39  41
ATOM     41  C   UNL     1       2.651   4.485  -7.262  1.00  0.00     0.060 A 
ATOM     42  C   UNL     1       2.894   3.301  -6.548  1.00  0.00     0.016 A 
ATOM     43  C   UNL     1       2.049   4.443  -8.518  1.00  0.00     0.016 A 
ATOM     44  C   UNL     1       2.546   2.067  -7.097  1.00  0.00     0.010 A 
ATOM     45  C   UNL     1       1.727   3.205  -9.078  1.00  0.00     0.010 A 
ATOM     46  C   UNL     1       1.997   2.010  -8.383  1.00  0.00    -0.014 A 
BRANCH  46  47
ATOM     47  C   UNL     1       1.879   0.714  -9.097  1.00  0.00     0.031 A 
ATOM     48  C   UNL     1       2.948   0.353 -10.091  1.00  0.00     0.074 A 
ATOM     49  C   UNL     1       0.839  -0.113  -8.889  1.00  0.00     0.049 A 
ATOM     50  N   UNL     1       2.990  -0.634 -10.946  1.00  0.00    -0.248 NA
ATOM     51  C   UNL     1       4.123   1.238 -10.128  1.00  0.00     0.031 C 
ATOM     52  C   UNL     1      -0.225   0.097  -7.909  1.00  0.00     0.029 A 
ATOM     53  N   UNL     1       0.495  -1.287  -9.514  1.00  0.00    -0.354 N 
ATOM     54  C   UNL     1       4.187  -0.481 -11.639  1.00  0.00     0.074 A 
ATOM     55  C   UNL     1       4.825   0.709 -11.119  1.00  0.00     0.031 C 
ATOM     56  C   UNL     1      -1.118  -0.903  -8.017  1.00  0.00     0.029 A 
ATOM     57  C   UNL     1      -0.719  -1.791  -9.110  1.00  0.00     0.049 A 
ATOM     58  H   UNL     1       1.064  -1.725 -10.187  1.00  0.00     0.167 HD
ATOM     59  C   UNL     1       4.702  -1.262 -12.619  1.00  0.00     0.034 A 
ATOM     60  C   UNL     1      -1.445  -2.819  -9.598  1.00  0.00     0.034 A 
ATOM     61  C   UNL     1       4.042  -2.435 -13.137  1.00  0.00     0.049 A 
ATOM     62  C   UNL     1      -0.903  -3.615 -10.766  1.00  0.00     0.074 A 
ATOM     63  C   UNL     1       4.479  -3.304 -14.122  1.00  0.00     0.029 A 
ATOM     64  N   UNL     1       2.797  -2.895 -12.726  1.00  0.00    -0.354 N 
ATOM     65  N   UNL     1       0.227  -3.461 -11.419  1.00  0.00    -0.248 NA
ATOM     66  C   UNL     1      -1.731  -4.724 -11.259  1.00  0.00     0.031 C 
ATOM     67  C   UNL     1       3.465  -4.235 -14.365  1.00  0.00     0.029 A 
ATOM     68  C   UNL     1       2.438  -4.013 -13.462  1.00  0.00     0.049 A 
ATOM     69  H   UNL     1       2.251  -2.486 -12.017  1.00  0.00     0.167 HD
ATOM     70  C   UNL     1       0.262  -4.483 -12.367  1.00  0.00     0.074 A 
ATOM     71  C   UNL     1      -0.956  -5.245 -12.200  1.00  0.00     0.031 C 
ATOM     72  C   UNL     1       1.222  -4.773 -13.282  1.00  0.00     0.034 A 
BRANCH  59  73
ATOM     73  C   UNL     1       6.013  -0.835 -13.233  1.00  0.00     0.023 A 
ATOM     74  C   UNL     1       7.200  -0.774 -12.482  1.00  0.00     0.031 A 
ATOM     75  C   UNL     1       6.072  -0.460 -14.587  1.00  0.00     0.131 A 
ATOM     76  C   UNL     1       8.376  -0.284 -13.070  1.00  0.00     0.055 A 
ATOM     77  C   UNL     1       7.264  -0.055 -15.189  1.00  0.00     0.041 A 
ATOM     78  F   UNL     1       4.966  -0.471 -15.348  1.00  0.00    -0.206 F 
ATOM     79  C   UNL     1       8.423   0.049 -14.426  1.00  0.00     0.022 A 
BRANCH  76  80
ATOM     80  S   UNL     1       9.802   0.052 -12.002  1.00  0.00     0.124 S 
ATOM     81  O   UNL     1       9.237   1.001 -11.046  1.00  0.00    -0.237 OA
ATOM     82  O   UNL     1      10.120  -1.270 -11.476  1.00  0.00    -0.237 OA
ATOM     83  O   UNL     1      10.791   0.616 -12.918  1.00  0.00    -0.744 OA
ENDBRANCH  76  80
ENDBRANCH  59  73
BRANCH  60  84
ATOM     84  C   UNL     1      -2.788  -3.137  -9.030  1.00  0.00     0.023 A 
ATOM     85  C   UNL     1      -3.047  -4.381  -8.433  1.00  0.00     0.031 A 
ATOM     86  C   UNL     1      -3.855  -2.225  -9.136  1.00  0.00     0.131 A 
ATOM     87  C   UNL     1      -4.348  -4.701  -8.015  1.00  0.00     0.055 A 
ATOM     88  C   UNL     1      -5.133  -2.524  -8.659  1.00  0.00     0.041 A 
ATOM     89  F   UNL     1      -3.668  -1.024  -9.705  1.00  0.00    -0.206 F 
ATOM     90  C   UNL     1      -5.389  -3.775  -8.107  1.00  0.00     0.022 A 
BRANCH  87  91
ATOM     91  S   UNL     1      -4.683  -6.390  -7.445  1.00  0.00     0.124 S 
ATOM     92  O   UNL     1      -4.293  -7.176  -8.610  1.00  0.00    -0.237 OA
ATOM     93  O   UNL     1      -3.811  -6.495  -6.280  1.00  0.00    -0.237 OA
ATOM     94  O   UNL     1      -6.115  -6.373  -7.152  1.00  0.00    -0.744 OA
ENDBRANCH  87  91
ENDBRANCH  60  84
BRANCH  72  95
ATOM     95  C   UNL     1       1.042  -6.018 -14.120  1.00  0.00     0.023 A 
ATOM     96  C   UNL     1       0.022  -6.139 -15.080  1.00  0.00     0.031 A 
ATOM     97  C   UNL     1       1.934  -7.096 -13.965  1.00  0.00     0.131 A 
ATOM     98  C   UNL     1      -0.105  -7.328 -15.817  1.00  0.00     0.055 A 
ATOM     99  C   UNL     1       1.841  -8.248 -14.746  1.00  0.00     0.041 A 
ATOM    100  F   UNL     1       2.924  -7.038 -13.060  1.00  0.00    -0.206 F 
ATOM    101  C   UNL     1       0.811  -8.373 -15.671  1.00  0.00     0.022 A 
BRANCH  98 102
ATOM    102  S   UNL     1      -1.534  -7.527 -16.917  1.00  0.00     0.124 S 
ATOM    103  O   UNL     1      -2.652  -7.375 -15.992  1.00  0.00    -0.237 OA
ATOM    104  O   UNL     1      -1.346  -6.442 -17.874  1.00  0.00    -0.237 OA
ATOM    105  O   UNL     1      -1.361  -8.872 -17.464  1.00  0.00    -0.744 OA
ENDBRANCH  98 102
ENDBRANCH  72  95
ENDBRANCH  46  47
ENDBRANCH  39  41
ENDBRANCH  38  39
ENDBRANCH  37  38
ENDBRANCH  36  37
ENDBRANCH  35  36
ENDBRANCH  34  35
ENDBRANCH   1  34
TORSDOF 26
