REMARK SMILES COC(=O)c1ccc([C@H]2CC(=O)Nc3c(C(=O)OCCOCCOCCOC(=O)c4ccc(-c5c6nc(c(-c7cc(S(=O)(=O)[O-])ccc7F)c7ccc([nH]7)c(-c7cc(S(=O)(=O)[O-])ccc7F)c7nc(c(-c8cc(S(=O)(=O)[O-])ccc8F)c8ccc5[nH]8)C=C7)C=C6)cc4)cn(-c4ccccc4)c32)cc1
REMARK SMILES IDX 22 1 21 2 20 3 19 4 18 5 16 6 17 7 15 8 9 9 10 10 101 11
REMARK SMILES IDX 11 12 14 13 94 14 12 15 13 16 93 17 8 19 5 20 6 21 103 22
REMARK SMILES IDX 7 23 102 24 3 25 4 26 2 27 1 28 95 29 96 30 100 31 97 32
REMARK SMILES IDX 99 33 98 34 23 35 24 36 25 37 26 38 27 39 28 40 29 41 30 42
REMARK SMILES IDX 31 43 92 44 32 45 91 46 33 47 34 48 35 49 85 50 36 51 90 52
REMARK SMILES IDX 84 53 86 54 37 55 89 56 83 57 82 58 38 60 70 61 50 62 69 63
REMARK SMILES IDX 51 64 54 65 68 66 87 67 52 68 53 69 67 71 88 72 55 73 39 74
REMARK SMILES IDX 40 75 48 76 41 77 47 78 49 79 46 80 42 81 43 82 44 83 45 84
REMARK SMILES IDX 71 85 72 86 80 87 73 88 79 89 81 90 78 91 74 92 75 93 76 94
REMARK SMILES IDX 77 95 56 96 57 97 65 98 58 99 64 100 66 101 63 102 59 103
REMARK SMILES IDX 60 104 61 105 62 106
REMARK H PARENT 13 18 86 59 54 70
REMARK Flexibility Score: inf
ROOT
ATOM      1  C   UNL     1      -4.571   1.027  10.991  1.00  0.00     0.188 C 
ENDROOT
BRANCH   1   2
ATOM      2  O   UNL     1      -5.603   1.994  10.832  1.00  0.00    -0.376 OA
BRANCH   2   3
ATOM      3  C   UNL     1      -6.680   1.768   9.939  1.00  0.00     0.202 C 
BRANCH   3   4
ATOM      4  C   UNL     1      -6.384   1.600   8.437  1.00  0.00     0.261 C 
BRANCH   4   5
ATOM      5  O   UNL     1      -5.328   0.684   8.097  1.00  0.00    -0.460 OA
BRANCH   5   6
ATOM      6  C   UNL     1      -4.115   1.243   7.836  1.00  0.00     0.341 C 
ATOM      7  O   UNL     1      -3.915   2.454   7.729  1.00  0.00    -0.246 OA
BRANCH   6   8
ATOM      8  C   UNL     1      -3.028   0.270   7.811  1.00  0.00     0.102 A 
ATOM      9  C   UNL     1      -1.297  -2.986   7.221  1.00  0.00     0.078 C 
ATOM     10  C   UNL     1      -2.540  -3.886   7.128  1.00  0.00     0.115 C 
ATOM     11  C   UNL     1      -1.710  -1.580   7.582  1.00  0.00     0.055 A 
ATOM     12  C   UNL     1      -3.786  -3.207   6.582  1.00  0.00     0.225 C 
ATOM     13  C   UNL     1      -2.992  -1.093   7.419  1.00  0.00     0.078 A 
ATOM     14  N   UNL     1      -0.927  -0.537   8.045  1.00  0.00    -0.317 N 
ATOM     15  O   UNL     1      -4.641  -3.838   5.961  1.00  0.00    -0.275 OA
ATOM     16  N   UNL     1      -3.982  -1.887   6.894  1.00  0.00    -0.324 N 
ATOM     17  C   UNL     1      -1.748   0.547   8.269  1.00  0.00     0.109 A 
ATOM     18  H   UNL     1      -4.870  -1.491   6.736  1.00  0.00     0.170 HD
BRANCH   9  19
ATOM     19  C   UNL     1      -0.250  -3.687   8.089  1.00  0.00    -0.038 A 
ATOM     20  C   UNL     1       1.848  -4.918   9.542  1.00  0.00     0.060 A 
ATOM     21  C   UNL     1       1.619  -5.256   8.205  1.00  0.00     0.016 A 
ATOM     22  C   UNL     1       0.979  -4.022  10.173  1.00  0.00     0.016 A 
ATOM     23  C   UNL     1       0.586  -4.646   7.487  1.00  0.00     0.005 A 
ATOM     24  C   UNL     1      -0.080  -3.438   9.459  1.00  0.00     0.005 A 
BRANCH  20  25
ATOM     25  C   UNL     1       3.037  -5.509  10.219  1.00  0.00     0.337 C 
ATOM     26  O   UNL     1       3.861  -6.202   9.640  1.00  0.00    -0.246 OA
BRANCH  25  27
ATOM     27  O   UNL     1       3.080  -5.152  11.526  1.00  0.00    -0.465 OA
ATOM     28  C   UNL     1       4.213  -5.655  12.237  1.00  0.00     0.282 C 
ENDBRANCH  25  27
ENDBRANCH  20  25
ENDBRANCH   9  19
BRANCH  14  29
ATOM     29  C   UNL     1       0.469  -0.516   8.247  1.00  0.00     0.045 A 
ATOM     30  C   UNL     1       1.321  -0.918   7.215  1.00  0.00     0.026 A 
ATOM     31  C   UNL     1       0.978  -0.143   9.497  1.00  0.00     0.026 A 
ATOM     32  C   UNL     1       2.694  -0.977   7.447  1.00  0.00     0.002 A 
ATOM     33  C   UNL     1       2.349  -0.247   9.730  1.00  0.00     0.002 A 
ATOM     34  C   UNL     1       3.204  -0.662   8.707  1.00  0.00     0.000 A 
ENDBRANCH  14  29
ENDBRANCH   6   8
ENDBRANCH   5   6
ENDBRANCH   4   5
ENDBRANCH   3   4
ENDBRANCH   2   3
ENDBRANCH   1   2
BRANCH   1  35
ATOM     35  C   UNL     1      -4.805  -0.481  10.739  1.00  0.00     0.188 C 
BRANCH  35  36
ATOM     36  O   UNL     1      -6.120  -0.831  10.342  1.00  0.00    -0.376 OA
BRANCH  36  37
ATOM     37  C   UNL     1      -6.871  -1.645  11.232  1.00  0.00     0.202 C 
BRANCH  37  38
ATOM     38  C   UNL     1      -7.243  -1.031  12.579  1.00  0.00     0.261 C 
BRANCH  38  39
ATOM     39  O   UNL     1      -6.197  -0.320  13.222  1.00  0.00    -0.460 OA
BRANCH  39  40
ATOM     40  C   UNL     1      -5.244  -1.086  13.784  1.00  0.00     0.338 C 
ATOM     41  O   UNL     1      -4.987  -2.254  13.515  1.00  0.00    -0.246 OA
BRANCH  40  42
ATOM     42  C   UNL     1      -4.629  -0.329  14.870  1.00  0.00     0.060 A 
ATOM     43  C   UNL     1      -3.473  -0.857  15.448  1.00  0.00     0.016 A 
ATOM     44  C   UNL     1      -5.382   0.683  15.485  1.00  0.00     0.016 A 
ATOM     45  C   UNL     1      -3.193  -0.520  16.752  1.00  0.00     0.010 A 
ATOM     46  C   UNL     1      -5.122   0.989  16.795  1.00  0.00     0.010 A 
ATOM     47  C   UNL     1      -4.080   0.320  17.432  1.00  0.00    -0.014 A 
BRANCH  47  48
ATOM     48  C   UNL     1      -3.850   0.556  18.839  1.00  0.00     0.031 A 
ATOM     49  C   UNL     1      -2.773   1.531  19.087  1.00  0.00     0.074 A 
ATOM     50  C   UNL     1      -4.633   0.023  19.794  1.00  0.00     0.049 A 
ATOM     51  N   UNL     1      -1.617   1.313  19.615  1.00  0.00    -0.248 NA
ATOM     52  C   UNL     1      -2.923   2.869  18.492  1.00  0.00     0.031 C 
ATOM     53  C   UNL     1      -5.885  -0.714  19.611  1.00  0.00     0.029 A 
ATOM     54  N   UNL     1      -4.532   0.138  21.145  1.00  0.00    -0.354 N 
ATOM     55  C   UNL     1      -1.001   2.557  19.656  1.00  0.00     0.074 A 
ATOM     56  C   UNL     1      -1.723   3.390  18.738  1.00  0.00     0.031 C 
ATOM     57  C   UNL     1      -6.533  -0.782  20.796  1.00  0.00     0.029 A 
ATOM     58  C   UNL     1      -5.695  -0.194  21.830  1.00  0.00     0.049 A 
ATOM     59  H   UNL     1      -3.709   0.431  21.598  1.00  0.00     0.167 HD
ATOM     60  C   UNL     1      -0.150   2.876  20.666  1.00  0.00     0.034 A 
ATOM     61  C   UNL     1      -5.978   0.081  23.131  1.00  0.00     0.034 A 
ATOM     62  C   UNL     1       0.358   1.679  21.308  1.00  0.00     0.049 A 
ATOM     63  C   UNL     1      -4.684   0.325  23.818  1.00  0.00     0.074 A 
ATOM     64  C   UNL     1       1.028   0.557  20.853  1.00  0.00     0.029 A 
ATOM     65  N   UNL     1      -0.138   1.335  22.547  1.00  0.00    -0.354 N 
ATOM     66  N   UNL     1      -3.776  -0.596  23.997  1.00  0.00    -0.248 NA
ATOM     67  C   UNL     1      -4.192   1.693  23.900  1.00  0.00     0.031 C 
ATOM     68  C   UNL     1       0.498  -0.528  21.609  1.00  0.00     0.029 A 
ATOM     69  C   UNL     1      -0.411  -0.011  22.535  1.00  0.00     0.049 A 
ATOM     70  H   UNL     1      -0.274   1.947  23.306  1.00  0.00     0.167 HD
ATOM     71  C   UNL     1      -2.565   0.043  23.779  1.00  0.00     0.074 A 
ATOM     72  C   UNL     1      -2.876   1.468  23.837  1.00  0.00     0.031 C 
ATOM     73  C   UNL     1      -1.485  -0.637  23.288  1.00  0.00     0.034 A 
BRANCH  60  74
ATOM     74  C   UNL     1      -0.109   4.243  21.321  1.00  0.00     0.023 A 
ATOM     75  C   UNL     1       0.765   4.390  22.411  1.00  0.00     0.031 A 
ATOM     76  C   UNL     1      -1.046   5.292  21.149  1.00  0.00     0.131 A 
ATOM     77  C   UNL     1       0.601   5.436  23.333  1.00  0.00     0.055 A 
ATOM     78  C   UNL     1      -1.157   6.371  22.029  1.00  0.00     0.041 A 
ATOM     79  F   UNL     1      -1.965   5.309  20.179  1.00  0.00    -0.206 F 
ATOM     80  C   UNL     1      -0.357   6.428  23.154  1.00  0.00     0.022 A 
BRANCH  77  81
ATOM     81  S   UNL     1       1.540   5.357  24.875  1.00  0.00     0.124 S 
ATOM     82  O   UNL     1       1.178   4.031  25.363  1.00  0.00    -0.237 OA
ATOM     83  O   UNL     1       2.909   5.518  24.397  1.00  0.00    -0.237 OA
ATOM     84  O   UNL     1       1.012   6.477  25.649  1.00  0.00    -0.744 OA
ENDBRANCH  77  81
ENDBRANCH  60  74
BRANCH  61  85
ATOM     85  C   UNL     1      -7.302   0.447  23.707  1.00  0.00     0.023 A 
ATOM     86  C   UNL     1      -7.566   0.398  25.091  1.00  0.00     0.031 A 
ATOM     87  C   UNL     1      -8.276   1.083  22.902  1.00  0.00     0.131 A 
ATOM     88  C   UNL     1      -8.756   0.962  25.611  1.00  0.00     0.055 A 
ATOM     89  C   UNL     1      -9.455   1.624  23.418  1.00  0.00     0.041 A 
ATOM     90  F   UNL     1      -8.078   1.281  21.589  1.00  0.00    -0.206 F 
ATOM     91  C   UNL     1      -9.696   1.574  24.780  1.00  0.00     0.022 A 
BRANCH  88  92
ATOM     92  S   UNL     1      -9.049   1.001  27.409  1.00  0.00     0.124 S 
ATOM     93  O   UNL     1      -9.295  -0.404  27.714  1.00  0.00    -0.237 OA
ATOM     94  O   UNL     1      -7.806   1.569  27.917  1.00  0.00    -0.237 OA
ATOM     95  O   UNL     1     -10.217   1.873  27.544  1.00  0.00    -0.744 OA
ENDBRANCH  88  92
ENDBRANCH  61  85
BRANCH  73  96
ATOM     96  C   UNL     1      -1.500  -2.153  23.334  1.00  0.00     0.023 A 
ATOM     97  C   UNL     1      -2.491  -2.975  22.751  1.00  0.00     0.031 A 
ATOM     98  C   UNL     1      -0.386  -2.790  23.911  1.00  0.00     0.131 A 
ATOM     99  C   UNL     1      -2.348  -4.377  22.773  1.00  0.00     0.055 A 
ATOM    100  C   UNL     1      -0.237  -4.176  23.912  1.00  0.00     0.041 A 
ATOM    101  F   UNL     1       0.605  -2.066  24.459  1.00  0.00    -0.206 F 
ATOM    102  C   UNL     1      -1.222  -4.976  23.348  1.00  0.00     0.022 A 
BRANCH  99 103
ATOM    103  S   UNL     1      -3.635  -5.456  22.067  1.00  0.00     0.124 S 
ATOM    104  O   UNL     1      -4.876  -4.905  22.598  1.00  0.00    -0.237 OA
ATOM    105  O   UNL     1      -3.426  -5.296  20.631  1.00  0.00    -0.237 OA
ATOM    106  O   UNL     1      -3.288  -6.782  22.585  1.00  0.00    -0.744 OA
ENDBRANCH  99 103
ENDBRANCH  73  96
ENDBRANCH  47  48
ENDBRANCH  40  42
ENDBRANCH  39  40
ENDBRANCH  38  39
ENDBRANCH  37  38
ENDBRANCH  36  37
ENDBRANCH  35  36
ENDBRANCH   1  35
TORSDOF 24
