REMARK SMILES CC(C)[NH2+][C@]1(C(=O)OCCOCCOCCOC(=O)c2ccc(-c3c4nc(c(-c5cc(S(=O)(=O)[O-])ccc5F)c5ccc([nH]5)c(-c5cc(S(=O)(=O)[O-])ccc5F)c5nc(c(-c6cc(S(=O)(=O)[O-])ccc6F)c6ccc3[nH]6)C=C5)C=C4)cc2)CCC[C@H]([N@H+](C)C2CCCCC2)C1
REMARK SMILES IDX 13 1 12 2 11 3 10 4 9 5 8 6 6 7 7 8 5 9 83 10 95 11 84 12
REMARK SMILES IDX 86 13 85 14 4 15 2 18 1 19 3 20 87 21 88 22 89 24 90 25
REMARK SMILES IDX 94 26 91 27 93 28 92 29 14 30 15 31 16 32 17 33 18 34 19 35
REMARK SMILES IDX 20 36 21 37 82 38 22 39 81 40 23 41 24 42 25 43 75 44 26 45
REMARK SMILES IDX 80 46 74 47 76 48 27 49 79 50 73 51 72 52 28 54 60 55 40 56
REMARK SMILES IDX 59 57 41 58 44 59 58 60 77 61 42 62 43 63 57 65 78 66 45 67
REMARK SMILES IDX 29 68 30 69 38 70 31 71 37 72 39 73 36 74 32 75 33 76 34 77
REMARK SMILES IDX 35 78 61 79 62 80 70 81 63 82 69 83 71 84 68 85 64 86 65 87
REMARK SMILES IDX 66 88 67 89 46 90 47 91 55 92 48 93 54 94 56 95 53 96 49 97
REMARK SMILES IDX 50 98 51 99 52 100
REMARK H PARENT 4 16 4 17 87 23 76 53 44 64
REMARK Flexibility Score: inf
ROOT
ATOM      1  C   UNL     1      -2.470   1.248   1.072  1.00  0.00     0.188 C 
ENDROOT
BRANCH   1   2
ATOM      2  C   UNL     1      -2.474  -0.203   0.544  1.00  0.00     0.188 C 
BRANCH   2   3
ATOM      3  O   UNL     1      -1.393  -1.089   0.819  1.00  0.00    -0.376 OA
BRANCH   3   4
ATOM      4  C   UNL     1      -0.141  -0.578   1.233  1.00  0.00     0.202 C 
BRANCH   4   5
ATOM      5  C   UNL     1       0.637   0.279   0.232  1.00  0.00     0.261 C 
BRANCH   5   6
ATOM      6  O   UNL     1      -0.159   1.112  -0.621  1.00  0.00    -0.459 OA
BRANCH   6   7
ATOM      7  C   UNL     1      -0.643   0.530  -1.752  1.00  0.00     0.368 C 
ATOM      8  O   UNL     1      -0.454  -0.652  -2.037  1.00  0.00    -0.245 OA
BRANCH   7   9
ATOM      9  C   UNL     1      -1.407   1.536  -2.734  1.00  0.00     0.200 C 
ATOM     10  C   UNL     1      -2.924   1.662  -2.504  1.00  0.00     0.081 C 
ATOM     11  C   UNL     1      -0.865   2.952  -2.341  1.00  0.00     0.146 C 
ATOM     12  C   UNL     1      -3.577   2.829  -3.283  1.00  0.00     0.013 C 
ATOM     13  C   UNL     1      -1.329   4.143  -3.196  1.00  0.00     0.190 C 
ATOM     14  C   UNL     1      -2.874   4.180  -3.113  1.00  0.00     0.065 C 
BRANCH   9  15
ATOM     15  N   UNL     1      -1.043   0.925  -4.048  1.00  0.00    -0.330 N 
ATOM     16  H   UNL     1      -0.137   1.330  -4.284  1.00  0.00     0.347 HD
ATOM     17  H   UNL     1      -1.179  -0.059  -3.814  1.00  0.00     0.347 HD
BRANCH  15  18
ATOM     18  C   UNL     1      -1.812   0.978  -5.287  1.00  0.00     0.176 C 
ATOM     19  C   UNL     1      -0.905   0.345  -6.360  1.00  0.00     0.075 C 
ATOM     20  C   UNL     1      -3.139   0.207  -5.364  1.00  0.00     0.075 C 
ENDBRANCH  15  18
ENDBRANCH   9  15
BRANCH  13  21
ATOM     21  N   UNL     1      -0.648   4.215  -4.494  1.00  0.00    -0.332 N 
ATOM     22  C   UNL     1      -1.374   4.639  -5.663  1.00  0.00     0.333 C 
ATOM     23  H   UNL     1      -0.338   5.172  -4.665  1.00  0.00     0.348 HD
BRANCH  21  24
ATOM     24  C   UNL     1       0.706   3.665  -4.567  1.00  0.00     0.184 C 
ATOM     25  C   UNL     1       1.356   3.351  -5.919  1.00  0.00     0.065 C 
ATOM     26  C   UNL     1       1.714   4.477  -3.719  1.00  0.00     0.065 C 
ATOM     27  C   UNL     1       2.585   2.459  -5.668  1.00  0.00     0.006 C 
ATOM     28  C   UNL     1       2.946   3.617  -3.429  1.00  0.00     0.006 C 
ATOM     29  C   UNL     1       3.591   3.104  -4.713  1.00  0.00     0.000 C 
ENDBRANCH  21  24
ENDBRANCH  13  21
ENDBRANCH   7   9
ENDBRANCH   6   7
ENDBRANCH   5   6
ENDBRANCH   4   5
ENDBRANCH   3   4
ENDBRANCH   2   3
ENDBRANCH   1   2
BRANCH   1  30
ATOM     30  O   UNL     1      -1.825   1.362   2.325  1.00  0.00    -0.376 OA
BRANCH  30  31
ATOM     31  C   UNL     1      -2.656   1.735   3.403  1.00  0.00     0.202 C 
BRANCH  31  32
ATOM     32  C   UNL     1      -3.697   0.693   3.844  1.00  0.00     0.261 C 
BRANCH  32  33
ATOM     33  O   UNL     1      -4.444   0.011   2.813  1.00  0.00    -0.460 OA
BRANCH  33  34
ATOM     34  C   UNL     1      -5.447   0.681   2.203  1.00  0.00     0.338 C 
ATOM     35  O   UNL     1      -5.764   1.843   2.426  1.00  0.00    -0.246 OA
BRANCH  34  36
ATOM     36  C   UNL     1      -5.992  -0.132   1.079  1.00  0.00     0.060 A 
ATOM     37  C   UNL     1      -6.030   0.425  -0.207  1.00  0.00     0.016 A 
ATOM     38  C   UNL     1      -6.493  -1.422   1.284  1.00  0.00     0.016 A 
ATOM     39  C   UNL     1      -6.625  -0.273  -1.268  1.00  0.00     0.010 A 
ATOM     40  C   UNL     1      -7.101  -2.115   0.220  1.00  0.00     0.010 A 
ATOM     41  C   UNL     1      -7.213  -1.528  -1.055  1.00  0.00    -0.014 A 
BRANCH  41  42
ATOM     42  C   UNL     1      -8.095  -2.127  -2.104  1.00  0.00     0.031 A 
ATOM     43  C   UNL     1      -9.595  -2.005  -1.951  1.00  0.00     0.074 A 
ATOM     44  C   UNL     1      -7.596  -2.725  -3.204  1.00  0.00     0.049 A 
ATOM     45  N   UNL     1     -10.555  -2.436  -2.731  1.00  0.00    -0.248 NA
ATOM     46  C   UNL     1     -10.069  -1.301  -0.751  1.00  0.00     0.031 C 
ATOM     47  C   UNL     1      -6.176  -2.883  -3.509  1.00  0.00     0.029 A 
ATOM     48  N   UNL     1      -8.234  -3.313  -4.274  1.00  0.00    -0.354 N 
ATOM     49  C   UNL     1     -11.746  -2.056  -2.117  1.00  0.00     0.074 A 
ATOM     50  C   UNL     1     -11.383  -1.401  -0.878  1.00  0.00     0.031 C 
ATOM     51  C   UNL     1      -6.050  -3.524  -4.684  1.00  0.00     0.029 A 
ATOM     52  C   UNL     1      -7.377  -3.857  -5.204  1.00  0.00     0.049 A 
ATOM     53  H   UNL     1      -9.214  -3.342  -4.365  1.00  0.00     0.167 HD
ATOM     54  C   UNL     1     -13.023  -2.223  -2.547  1.00  0.00     0.034 A 
ATOM     55  C   UNL     1      -7.628  -4.556  -6.332  1.00  0.00     0.034 A 
ATOM     56  C   UNL     1     -13.384  -2.891  -3.776  1.00  0.00     0.049 A 
ATOM     57  C   UNL     1      -9.061  -4.807  -6.749  1.00  0.00     0.074 A 
ATOM     58  C   UNL     1     -14.648  -3.100  -4.304  1.00  0.00     0.029 A 
ATOM     59  N   UNL     1     -12.488  -3.474  -4.663  1.00  0.00    -0.354 N 
ATOM     60  N   UNL     1     -10.175  -4.426  -6.166  1.00  0.00    -0.248 NA
ATOM     61  C   UNL     1      -9.267  -5.571  -7.988  1.00  0.00     0.031 C 
ATOM     62  C   UNL     1     -14.522  -3.880  -5.459  1.00  0.00     0.029 A 
ATOM     63  C   UNL     1     -13.174  -4.073  -5.712  1.00  0.00     0.049 A 
ATOM     64  H   UNL     1     -11.509  -3.464  -4.563  1.00  0.00     0.167 HD
ATOM     65  C   UNL     1     -11.209  -4.871  -6.991  1.00  0.00     0.074 A 
ATOM     66  C   UNL     1     -10.584  -5.528  -8.119  1.00  0.00     0.031 C 
ATOM     67  C   UNL     1     -12.553  -4.742  -6.832  1.00  0.00     0.034 A 
BRANCH  54  68
ATOM     68  C   UNL     1     -14.131  -1.717  -1.649  1.00  0.00     0.023 A 
ATOM     69  C   UNL     1     -14.271  -0.353  -1.337  1.00  0.00     0.031 A 
ATOM     70  C   UNL     1     -15.048  -2.617  -1.077  1.00  0.00     0.131 A 
ATOM     71  C   UNL     1     -15.253   0.060  -0.422  1.00  0.00     0.055 A 
ATOM     72  C   UNL     1     -16.078  -2.188  -0.237  1.00  0.00     0.041 A 
ATOM     73  F   UNL     1     -14.954  -3.935  -1.317  1.00  0.00    -0.206 F 
ATOM     74  C   UNL     1     -16.175  -0.844   0.108  1.00  0.00     0.022 A 
BRANCH  71  75
ATOM     75  S   UNL     1     -15.209   1.770   0.184  1.00  0.00     0.124 S 
ATOM     76  O   UNL     1     -13.863   1.850   0.746  1.00  0.00    -0.237 OA
ATOM     77  O   UNL     1     -15.441   2.542  -1.031  1.00  0.00    -0.237 OA
ATOM     78  O   UNL     1     -16.290   1.812   1.167  1.00  0.00    -0.744 OA
ENDBRANCH  71  75
ENDBRANCH  54  68
BRANCH  55  79
ATOM     79  C   UNL     1      -6.505  -5.112  -7.149  1.00  0.00     0.023 A 
ATOM     80  C   UNL     1      -6.307  -4.723  -8.485  1.00  0.00     0.031 A 
ATOM     81  C   UNL     1      -5.660  -6.107  -6.625  1.00  0.00     0.131 A 
ATOM     82  C   UNL     1      -5.326  -5.360  -9.264  1.00  0.00     0.055 A 
ATOM     83  C   UNL     1      -4.644  -6.691  -7.384  1.00  0.00     0.041 A 
ATOM     84  F   UNL     1      -5.811  -6.527  -5.359  1.00  0.00    -0.206 F 
ATOM     85  C   UNL     1      -4.482  -6.329  -8.717  1.00  0.00     0.022 A 
BRANCH  82  86
ATOM     86  S   UNL     1      -5.232  -4.975 -11.035  1.00  0.00     0.124 S 
ATOM     87  O   UNL     1      -6.569  -5.337 -11.489  1.00  0.00    -0.237 OA
ATOM     88  O   UNL     1      -4.924  -3.549 -11.019  1.00  0.00    -0.237 OA
ATOM     89  O   UNL     1      -4.154  -5.837 -11.515  1.00  0.00    -0.744 OA
ENDBRANCH  82  86
ENDBRANCH  55  79
BRANCH  67  90
ATOM     90  C   UNL     1     -13.437  -5.276  -7.941  1.00  0.00     0.023 A 
ATOM     91  C   UNL     1     -13.464  -6.640  -8.284  1.00  0.00     0.031 A 
ATOM     92  C   UNL     1     -14.237  -4.397  -8.695  1.00  0.00     0.131 A 
ATOM     93  C   UNL     1     -14.200  -7.070  -9.400  1.00  0.00     0.055 A 
ATOM     94  C   UNL     1     -15.031  -4.843  -9.754  1.00  0.00     0.041 A 
ATOM     95  F   UNL     1     -14.255  -3.082  -8.421  1.00  0.00    -0.206 F 
ATOM     96  C   UNL     1     -14.999  -6.183 -10.125  1.00  0.00     0.022 A 
BRANCH  93  97
ATOM     97  S   UNL     1     -13.986  -8.776  -9.981  1.00  0.00     0.124 S 
ATOM     98  O   UNL     1     -12.540  -8.853 -10.164  1.00  0.00    -0.237 OA
ATOM     99  O   UNL     1     -14.531  -9.553  -8.872  1.00  0.00    -0.237 OA
ATOM    100  O   UNL     1     -14.770  -8.820 -11.213  1.00  0.00    -0.744 OA
ENDBRANCH  93  97
ENDBRANCH  67  90
ENDBRANCH  41  42
ENDBRANCH  34  36
ENDBRANCH  33  34
ENDBRANCH  32  33
ENDBRANCH  31  32
ENDBRANCH  30  31
ENDBRANCH   1  30
TORSDOF 24
