REMARK SMILES C[NH+](C)CCCNC(=O)[C@@H]1[C@@H](C(=O)OCCOCCOCCOC(=O)c2ccc(-c3c4nc(c(-c5cc(S(=O)(=O)[O-])ccc5F)c5ccc([nH]5)c(-c5cc(S(=O)(=O)[O-])ccc5F)c5nc(c(-c6cc(S(=O)(=O)[O-])ccc6F)c6ccc3[nH]6)C=C5)C=C4)cc2)C1(C)C
REMARK SMILES IDX 18 1 17 2 16 3 15 4 14 5 12 6 13 7 11 8 10 9 89 10 90 11
REMARK SMILES IDX 91 12 8 13 7 14 9 16 6 17 5 18 4 19 2 20 1 21 3 22 19 24
REMARK SMILES IDX 20 25 21 26 22 27 23 28 24 29 25 30 26 31 27 32 88 33 28 34
REMARK SMILES IDX 87 35 29 36 30 37 31 38 81 39 32 40 86 41 80 42 82 43 33 44
REMARK SMILES IDX 85 45 79 46 78 47 34 49 66 50 46 51 65 52 47 53 50 54 64 55
REMARK SMILES IDX 83 56 48 57 49 58 63 60 84 61 51 62 35 63 36 64 44 65 37 66
REMARK SMILES IDX 43 67 45 68 42 69 38 70 39 71 40 72 41 73 67 74 68 75 76 76
REMARK SMILES IDX 69 77 75 78 77 79 74 80 70 81 71 82 72 83 73 84 52 85 53 86
REMARK SMILES IDX 61 87 54 88 60 89 62 90 59 91 55 92 56 93 57 94 58 95
REMARK H PARENT 7 15 2 23 82 48 50 59
REMARK Flexibility Score: inf
ROOT
ATOM      1  C   UNL     1       3.735  -0.573   8.976  1.00  0.00     0.188 C 
ENDROOT
BRANCH   1   2
ATOM      2  O   UNL     1       5.025  -0.009   9.196  1.00  0.00    -0.376 OA
BRANCH   2   3
ATOM      3  C   UNL     1       5.592   0.862   8.225  1.00  0.00     0.202 C 
BRANCH   3   4
ATOM      4  C   UNL     1       5.635   0.425   6.752  1.00  0.00     0.261 C 
BRANCH   4   5
ATOM      5  O   UNL     1       4.365   0.017   6.210  1.00  0.00    -0.463 OA
BRANCH   5   6
ATOM      6  C   UNL     1       4.301  -1.280   5.823  1.00  0.00     0.310 C 
ATOM      7  O   UNL     1       5.261  -2.034   5.745  1.00  0.00    -0.252 OA
BRANCH   6   8
ATOM      8  C   UNL     1       2.939  -1.815   5.569  1.00  0.00     0.118 C 
ATOM      9  C   UNL     1       2.463  -1.732   4.124  1.00  0.00     0.100 C 
ATOM     10  C   UNL     1       1.572  -1.236   5.231  1.00  0.00    -0.009 C 
ATOM     11  C   UNL     1       1.267   0.243   5.160  1.00  0.00     0.013 C 
ATOM     12  C   UNL     1       0.369  -2.062   5.646  1.00  0.00     0.013 C 
BRANCH   9  13
ATOM     13  C   UNL     1       2.453  -3.025   3.417  1.00  0.00     0.224 C 
ATOM     14  N   UNL     1       3.617  -3.354   2.776  1.00  0.00    -0.356 N 
ATOM     15  H   UNL     1       3.673  -4.258   2.389  1.00  0.00     0.163 HD
ATOM     16  O   UNL     1       1.476  -3.763   3.416  1.00  0.00    -0.275 OA
BRANCH  14  17
ATOM     17  C   UNL     1       4.778  -2.496   2.611  1.00  0.00     0.121 C 
BRANCH  17  18
ATOM     18  C   UNL     1       6.097  -3.241   2.603  1.00  0.00     0.083 C 
BRANCH  18  19
ATOM     19  C   UNL     1       6.319  -4.155   1.396  1.00  0.00     0.263 C 
BRANCH  19  20
ATOM     20  N   UNL     1       6.392  -3.558   0.057  1.00  0.00    -0.340 N 
ATOM     21  C   UNL     1       5.106  -3.203  -0.530  1.00  0.00     0.332 C 
ATOM     22  C   UNL     1       7.354  -2.469  -0.045  1.00  0.00     0.332 C 
ATOM     23  H   UNL     1       6.747  -4.323  -0.518  1.00  0.00     0.347 HD
ENDBRANCH  19  20
ENDBRANCH  18  19
ENDBRANCH  17  18
ENDBRANCH  14  17
ENDBRANCH   9  13
ENDBRANCH   6   8
ENDBRANCH   5   6
ENDBRANCH   4   5
ENDBRANCH   3   4
ENDBRANCH   2   3
ENDBRANCH   1   2
BRANCH   1  24
ATOM     24  C   UNL     1       2.619   0.302   8.379  1.00  0.00     0.188 C 
BRANCH  24  25
ATOM     25  O   UNL     1       2.999   1.633   8.110  1.00  0.00    -0.376 OA
BRANCH  25  26
ATOM     26  C   UNL     1       2.462   2.653   8.931  1.00  0.00     0.202 C 
BRANCH  26  27
ATOM     27  C   UNL     1       2.475   2.509  10.466  1.00  0.00     0.261 C 
BRANCH  27  28
ATOM     28  O   UNL     1       2.213   1.208  11.015  1.00  0.00    -0.460 OA
BRANCH  28  29
ATOM     29  C   UNL     1       0.920   0.801  11.035  1.00  0.00     0.338 C 
ATOM     30  O   UNL     1      -0.038   1.430  10.625  1.00  0.00    -0.246 OA
BRANCH  29  31
ATOM     31  C   UNL     1       0.896  -0.634  11.413  1.00  0.00     0.060 A 
ATOM     32  C   UNL     1       0.361  -1.564  10.509  1.00  0.00     0.016 A 
ATOM     33  C   UNL     1       1.385  -1.058  12.650  1.00  0.00     0.016 A 
ATOM     34  C   UNL     1       0.261  -2.910  10.864  1.00  0.00     0.010 A 
ATOM     35  C   UNL     1       1.262  -2.404  13.014  1.00  0.00     0.010 A 
ATOM     36  C   UNL     1       0.656  -3.327  12.142  1.00  0.00    -0.014 A 
BRANCH  36  37
ATOM     37  C   UNL     1       0.191  -4.646  12.648  1.00  0.00     0.031 A 
ATOM     38  C   UNL     1      -1.055  -4.673  13.496  1.00  0.00     0.074 A 
ATOM     39  C   UNL     1       0.810  -5.795  12.324  1.00  0.00     0.049 A 
ATOM     40  N   UNL     1      -1.659  -5.684  14.065  1.00  0.00    -0.248 NA
ATOM     41  C   UNL     1      -1.702  -3.374  13.735  1.00  0.00     0.031 C 
ATOM     42  C   UNL     1       1.986  -5.909  11.464  1.00  0.00     0.029 A 
ATOM     43  N   UNL     1       0.526  -7.091  12.680  1.00  0.00    -0.354 N 
ATOM     44  C   UNL     1      -2.758  -5.144  14.727  1.00  0.00     0.074 A 
ATOM     45  C   UNL     1      -2.700  -3.711  14.534  1.00  0.00     0.031 C 
ATOM     46  C   UNL     1       2.322  -7.208  11.357  1.00  0.00     0.029 A 
ATOM     47  C   UNL     1       1.409  -8.013  12.168  1.00  0.00     0.049 A 
ATOM     48  H   UNL     1      -0.239  -7.337  13.249  1.00  0.00     0.167 HD
ATOM     49  C   UNL     1      -3.735  -5.781  15.419  1.00  0.00     0.034 A 
ATOM     50  C   UNL     1       1.479  -9.349  12.348  1.00  0.00     0.034 A 
ATOM     51  C   UNL     1      -3.768  -7.209  15.622  1.00  0.00     0.049 A 
ATOM     52  C   UNL     1       0.440 -10.030  13.211  1.00  0.00     0.074 A 
ATOM     53  C   UNL     1      -4.699  -7.960  16.318  1.00  0.00     0.029 A 
ATOM     54  N   UNL     1      -2.821  -8.104  15.139  1.00  0.00    -0.354 N 
ATOM     55  N   UNL     1      -0.588  -9.509  13.842  1.00  0.00    -0.248 NA
ATOM     56  C   UNL     1       0.567 -11.485  13.374  1.00  0.00     0.031 C 
ATOM     57  C   UNL     1      -4.275  -9.293  16.322  1.00  0.00     0.029 A 
ATOM     58  C   UNL     1      -3.131  -9.393  15.546  1.00  0.00     0.049 A 
ATOM     59  H   UNL     1      -2.043  -7.858  14.587  1.00  0.00     0.167 HD
ATOM     60  C   UNL     1      -1.257 -10.580  14.433  1.00  0.00     0.074 A 
ATOM     61  C   UNL     1      -0.517 -11.774  14.079  1.00  0.00     0.031 C 
ATOM     62  C   UNL     1      -2.386 -10.579  15.189  1.00  0.00     0.034 A 
BRANCH  49  63
ATOM     63  C   UNL     1      -4.806  -4.920  16.048  1.00  0.00     0.023 A 
ATOM     64  C   UNL     1      -5.659  -4.114  15.271  1.00  0.00     0.031 A 
ATOM     65  C   UNL     1      -4.938  -4.857  17.446  1.00  0.00     0.131 A 
ATOM     66  C   UNL     1      -6.538  -3.217  15.898  1.00  0.00     0.055 A 
ATOM     67  C   UNL     1      -5.882  -4.032  18.061  1.00  0.00     0.041 A 
ATOM     68  F   UNL     1      -4.136  -5.581  18.242  1.00  0.00    -0.206 F 
ATOM     69  C   UNL     1      -6.676  -3.191  17.287  1.00  0.00     0.022 A 
BRANCH  66  70
ATOM     70  S   UNL     1      -7.368  -1.965  14.880  1.00  0.00     0.124 S 
ATOM     71  O   UNL     1      -6.231  -1.283  14.267  1.00  0.00    -0.237 OA
ATOM     72  O   UNL     1      -8.186  -2.776  13.986  1.00  0.00    -0.237 OA
ATOM     73  O   UNL     1      -8.110  -1.168  15.855  1.00  0.00    -0.744 OA
ENDBRANCH  66  70
ENDBRANCH  49  63
BRANCH  50  74
ATOM     74  C   UNL     1       2.578 -10.144  11.724  1.00  0.00     0.023 A 
ATOM     75  C   UNL     1       2.306 -11.153  10.786  1.00  0.00     0.031 A 
ATOM     76  C   UNL     1       3.917  -9.950  12.110  1.00  0.00     0.131 A 
ATOM     77  C   UNL     1       3.347 -11.962  10.304  1.00  0.00     0.055 A 
ATOM     78  C   UNL     1       4.957 -10.718  11.583  1.00  0.00     0.041 A 
ATOM     79  F   UNL     1       4.235  -9.004  13.008  1.00  0.00    -0.206 F 
ATOM     80  C   UNL     1       4.673 -11.741  10.684  1.00  0.00     0.022 A 
BRANCH  77  81
ATOM     81  S   UNL     1       2.933 -13.375   9.243  1.00  0.00     0.124 S 
ATOM     82  O   UNL     1       2.046 -14.145  10.109  1.00  0.00    -0.237 OA
ATOM     83  O   UNL     1       2.307 -12.722   8.099  1.00  0.00    -0.237 OA
ATOM     84  O   UNL     1       4.231 -13.990   8.974  1.00  0.00    -0.744 OA
ENDBRANCH  77  81
ENDBRANCH  50  74
BRANCH  62  85
ATOM     85  C   UNL     1      -2.932 -11.922  15.623  1.00  0.00     0.023 A 
ATOM     86  C   UNL     1      -2.226 -12.776  16.488  1.00  0.00     0.031 A 
ATOM     87  C   UNL     1      -4.181 -12.359  15.142  1.00  0.00     0.131 A 
ATOM     88  C   UNL     1      -2.739 -14.049  16.788  1.00  0.00     0.055 A 
ATOM     89  C   UNL     1      -4.719 -13.595  15.502  1.00  0.00     0.041 A 
ATOM     90  F   UNL     1      -4.902 -11.589  14.311  1.00  0.00    -0.206 F 
ATOM     91  C   UNL     1      -3.989 -14.456  16.316  1.00  0.00     0.022 A 
BRANCH  88  92
ATOM     92  S   UNL     1      -1.696 -15.215  17.708  1.00  0.00     0.124 S 
ATOM     93  O   UNL     1      -0.495 -15.265  16.882  1.00  0.00    -0.237 OA
ATOM     94  O   UNL     1      -1.554 -14.553  19.001  1.00  0.00    -0.237 OA
ATOM     95  O   UNL     1      -2.489 -16.443  17.725  1.00  0.00    -0.744 OA
ENDBRANCH  88  92
ENDBRANCH  62  85
ENDBRANCH  36  37
ENDBRANCH  29  31
ENDBRANCH  28  29
ENDBRANCH  27  28
ENDBRANCH  26  27
ENDBRANCH  25  26
ENDBRANCH  24  25
ENDBRANCH   1  24
TORSDOF 25
