REMARK SMILES Cc1ccc2[nH]cc([C@@H](C(=O)OCCOCCOCCOC(=O)c3ccc(-c4c5nc(c(-c6cc(S(=O)(=O)[O-])ccc6F)c6ccc([nH]6)c(-c6cc(S(=O)(=O)[O-])ccc6F)c6nc(c(-c7cc(S(=O)(=O)[O-])ccc7F)c7ccc4[nH]7)C=C6)C=C5)cc3)[NH+]3CCN(c4cccc(Cl)c4)CC3)c2c1
REMARK SMILES IDX 17 1 16 2 15 3 14 4 13 5 12 6 10 7 11 8 9 9 8 10 1 11 2 12
REMARK SMILES IDX 3 13 101 14 4 15 100 16 5 17 6 18 7 19 87 21 88 22 99 23
REMARK SMILES IDX 89 25 98 26 90 27 91 28 92 29 97 30 93 31 95 32 94 33 96 34
REMARK SMILES IDX 18 35 19 36 20 37 21 38 22 39 23 40 24 41 25 42 86 43 26 44
REMARK SMILES IDX 85 45 27 46 28 47 29 48 79 49 30 50 84 51 78 52 80 53 31 54
REMARK SMILES IDX 83 55 77 56 76 57 32 59 64 60 44 61 63 62 45 63 48 64 62 65
REMARK SMILES IDX 81 66 46 67 47 68 61 70 82 71 49 72 33 73 34 74 42 75 35 76
REMARK SMILES IDX 41 77 43 78 40 79 36 80 37 81 38 82 39 83 65 84 66 85 74 86
REMARK SMILES IDX 67 87 73 88 75 89 72 90 68 91 69 92 70 93 71 94 50 95 51 96
REMARK SMILES IDX 59 97 52 98 58 99 60 100 57 101 53 102 54 103 55 104 56 105
REMARK H PARENT 6 20 87 24 80 58 48 69
REMARK Flexibility Score: inf
ROOT
ATOM      1  C   UNL     1      -4.614  -1.852   2.431  1.00  0.00     0.188 C 
ENDROOT
BRANCH   1   2
ATOM      2  C   UNL     1      -5.125  -3.289   2.397  1.00  0.00     0.188 C 
BRANCH   2   3
ATOM      3  O   UNL     1      -4.744  -4.154   3.461  1.00  0.00    -0.376 OA
BRANCH   3   4
ATOM      4  C   UNL     1      -3.494  -3.942   4.104  1.00  0.00     0.202 C 
BRANCH   4   5
ATOM      5  C   UNL     1      -2.248  -4.332   3.304  1.00  0.00     0.261 C 
BRANCH   5   6
ATOM      6  O   UNL     1      -1.837  -3.361   2.311  1.00  0.00    -0.459 OA
BRANCH   6   7
ATOM      7  C   UNL     1      -1.994  -3.746   1.010  1.00  0.00     0.370 C 
ATOM      8  O   UNL     1      -2.553  -4.797   0.701  1.00  0.00    -0.245 OA
BRANCH   7   9
ATOM      9  C   UNL     1      -1.285  -2.828  -0.021  1.00  0.00     0.328 C 
BRANCH   9  10
ATOM     10  C   UNL     1      -1.108  -1.353   0.286  1.00  0.00     0.046 A 
ATOM     11  C   UNL     1       3.960  -0.653  -0.062  1.00  0.00     0.044 C 
ATOM     12  C   UNL     1       2.549  -0.164   0.077  1.00  0.00    -0.050 A 
ATOM     13  C   UNL     1       2.257   1.201   0.123  1.00  0.00     0.005 A 
ATOM     14  C   UNL     1       1.504  -1.101   0.147  1.00  0.00     0.014 A 
ATOM     15  C   UNL     1       0.944   1.658   0.271  1.00  0.00     0.027 A 
ATOM     16  C   UNL     1       0.167  -0.671   0.284  1.00  0.00     0.009 A 
ATOM     17  C   UNL     1      -0.073   0.701   0.364  1.00  0.00     0.046 A 
ATOM     18  N   UNL     1      -1.427   0.861   0.509  1.00  0.00    -0.361 N 
ATOM     19  C   UNL     1      -2.052  -0.360   0.488  1.00  0.00     0.094 A 
ATOM     20  H   UNL     1      -1.885   1.727   0.613  1.00  0.00     0.166 HD
ENDBRANCH   9  10
BRANCH   9  21
ATOM     21  N   UNL     1      -1.826  -3.056  -1.378  1.00  0.00    -0.316 N 
ATOM     22  C   UNL     1      -3.249  -2.811  -1.620  1.00  0.00     0.284 C 
ATOM     23  C   UNL     1      -0.996  -2.651  -2.518  1.00  0.00     0.284 C 
ATOM     24  H   UNL     1      -1.758  -4.073  -1.337  1.00  0.00     0.349 HD
ATOM     25  C   UNL     1      -3.619  -1.476  -2.292  1.00  0.00     0.178 C 
ATOM     26  C   UNL     1      -1.284  -1.252  -3.119  1.00  0.00     0.178 C 
ATOM     27  N   UNL     1      -2.715  -1.085  -3.368  1.00  0.00    -0.360 N 
BRANCH  27  28
ATOM     28  C   UNL     1      -3.121   0.049  -4.074  1.00  0.00     0.038 A 
ATOM     29  C   UNL     1      -3.372   1.279  -3.445  1.00  0.00     0.026 A 
ATOM     30  C   UNL     1      -3.378  -0.063  -5.444  1.00  0.00     0.046 A 
ATOM     31  C   UNL     1      -3.914   2.354  -4.155  1.00  0.00     0.004 A 
ATOM     32  C   UNL     1      -3.911   1.014  -6.154  1.00  0.00     0.043 A 
ATOM     33  C   UNL     1      -4.193   2.218  -5.513  1.00  0.00     0.020 A 
ATOM     34  Cl  UNL     1      -4.239   0.844  -7.835  1.00  0.00    -0.084 Cl
ENDBRANCH  27  28
ENDBRANCH   9  21
ENDBRANCH   7   9
ENDBRANCH   6   7
ENDBRANCH   5   6
ENDBRANCH   4   5
ENDBRANCH   3   4
ENDBRANCH   2   3
ENDBRANCH   1   2
BRANCH   1  35
ATOM     35  O   UNL     1      -4.788  -1.260   3.713  1.00  0.00    -0.376 OA
BRANCH  35  36
ATOM     36  C   UNL     1      -4.902   0.159   3.667  1.00  0.00     0.202 C 
BRANCH  36  37
ATOM     37  C   UNL     1      -6.387   0.512   3.789  1.00  0.00     0.261 C 
BRANCH  37  38
ATOM     38  O   UNL     1      -7.171   0.043   2.674  1.00  0.00    -0.460 OA
BRANCH  38  39
ATOM     39  C   UNL     1      -6.924   0.650   1.496  1.00  0.00     0.338 C 
ATOM     40  O   UNL     1      -6.141   1.578   1.304  1.00  0.00    -0.246 OA
BRANCH  39  41
ATOM     41  C   UNL     1      -7.555  -0.124   0.415  1.00  0.00     0.060 A 
ATOM     42  C   UNL     1      -6.725  -0.637  -0.585  1.00  0.00     0.016 A 
ATOM     43  C   UNL     1      -8.935  -0.320   0.352  1.00  0.00     0.016 A 
ATOM     44  C   UNL     1      -7.272  -1.329  -1.663  1.00  0.00     0.010 A 
ATOM     45  C   UNL     1      -9.482  -1.000  -0.745  1.00  0.00     0.010 A 
ATOM     46  C   UNL     1      -8.654  -1.492  -1.769  1.00  0.00    -0.014 A 
BRANCH  46  47
ATOM     47  C   UNL     1      -9.223  -1.992  -3.047  1.00  0.00     0.031 A 
ATOM     48  C   UNL     1      -9.844  -0.992  -3.982  1.00  0.00     0.074 A 
ATOM     49  C   UNL     1      -9.112  -3.278  -3.428  1.00  0.00     0.049 A 
ATOM     50  N   UNL     1     -10.588  -1.187  -5.038  1.00  0.00    -0.248 NA
ATOM     51  C   UNL     1      -9.578   0.422  -3.679  1.00  0.00     0.031 C 
ATOM     52  C   UNL     1      -8.379  -4.317  -2.706  1.00  0.00     0.029 A 
ATOM     53  N   UNL     1      -9.616  -3.927  -4.529  1.00  0.00    -0.354 N 
ATOM     54  C   UNL     1     -10.916   0.082  -5.504  1.00  0.00     0.074 A 
ATOM     55  C   UNL     1     -10.291   1.035  -4.612  1.00  0.00     0.031 C 
ATOM     56  C   UNL     1      -8.491  -5.476  -3.379  1.00  0.00     0.029 A 
ATOM     57  C   UNL     1      -9.371  -5.282  -4.530  1.00  0.00     0.049 A 
ATOM     58  H   UNL     1     -10.105  -3.467  -5.249  1.00  0.00     0.167 HD
ATOM     59  C   UNL     1     -11.680   0.415  -6.573  1.00  0.00     0.034 A 
ATOM     60  C   UNL     1      -9.855  -6.256  -5.329  1.00  0.00     0.034 A 
ATOM     61  C   UNL     1     -12.281  -0.554  -7.456  1.00  0.00     0.049 A 
ATOM     62  C   UNL     1     -10.829  -5.882  -6.425  1.00  0.00     0.074 A 
ATOM     63  C   UNL     1     -13.127  -0.340  -8.530  1.00  0.00     0.029 A 
ATOM     64  N   UNL     1     -12.090  -1.927  -7.370  1.00  0.00    -0.354 N 
ATOM     65  N   UNL     1     -11.258  -4.691  -6.781  1.00  0.00    -0.248 NA
ATOM     66  C   UNL     1     -11.402  -6.983  -7.212  1.00  0.00     0.031 C 
ATOM     67  C   UNL     1     -13.495  -1.585  -9.053  1.00  0.00     0.029 A 
ATOM     68  C   UNL     1     -12.820  -2.573  -8.354  1.00  0.00     0.049 A 
ATOM     69  H   UNL     1     -11.519  -2.377  -6.706  1.00  0.00     0.167 HD
ATOM     70  C   UNL     1     -12.127  -4.903  -7.850  1.00  0.00     0.074 A 
ATOM     71  C   UNL     1     -12.154  -6.331  -8.086  1.00  0.00     0.031 C 
ATOM     72  C   UNL     1     -12.836  -4.000  -8.574  1.00  0.00     0.034 A 
BRANCH  59  73
ATOM     73  C   UNL     1     -11.979   1.880  -6.772  1.00  0.00     0.023 A 
ATOM     74  C   UNL     1     -10.976   2.814  -7.085  1.00  0.00     0.031 A 
ATOM     75  C   UNL     1     -13.288   2.357  -6.576  1.00  0.00     0.131 A 
ATOM     76  C   UNL     1     -11.285   4.183  -7.118  1.00  0.00     0.055 A 
ATOM     77  C   UNL     1     -13.604   3.711  -6.694  1.00  0.00     0.041 A 
ATOM     78  F   UNL     1     -14.279   1.515  -6.244  1.00  0.00    -0.206 F 
ATOM     79  C   UNL     1     -12.597   4.635  -6.950  1.00  0.00     0.022 A 
BRANCH  76  80
ATOM     80  S   UNL     1      -9.924   5.379  -7.225  1.00  0.00     0.124 S 
ATOM     81  O   UNL     1      -9.129   5.030  -6.049  1.00  0.00    -0.237 OA
ATOM     82  O   UNL     1      -9.326   5.065  -8.517  1.00  0.00    -0.237 OA
ATOM     83  O   UNL     1     -10.598   6.673  -7.147  1.00  0.00    -0.744 OA
ENDBRANCH  76  80
ENDBRANCH  59  73
BRANCH  60  84
ATOM     84  C   UNL     1      -9.531  -7.692  -5.069  1.00  0.00     0.023 A 
ATOM     85  C   UNL     1      -8.899  -8.488  -6.038  1.00  0.00     0.031 A 
ATOM     86  C   UNL     1      -9.932  -8.313  -3.871  1.00  0.00     0.131 A 
ATOM     87  C   UNL     1      -8.729  -9.864  -5.812  1.00  0.00     0.055 A 
ATOM     88  C   UNL     1      -9.704  -9.668  -3.626  1.00  0.00     0.041 A 
ATOM     89  F   UNL     1     -10.559  -7.608  -2.915  1.00  0.00    -0.206 F 
ATOM     90  C   UNL     1      -9.112 -10.456  -4.606  1.00  0.00     0.022 A 
BRANCH  87  91
ATOM     91  S   UNL     1      -8.097 -10.899  -7.163  1.00  0.00     0.124 S 
ATOM     92  O   UNL     1      -9.080 -10.650  -8.212  1.00  0.00    -0.237 OA
ATOM     93  O   UNL     1      -6.769 -10.337  -7.381  1.00  0.00    -0.237 OA
ATOM     94  O   UNL     1      -8.116 -12.247  -6.598  1.00  0.00    -0.744 OA
ENDBRANCH  87  91
ENDBRANCH  60  84
BRANCH  72  95
ATOM     95  C   UNL     1     -13.654  -4.529  -9.726  1.00  0.00     0.023 A 
ATOM     96  C   UNL     1     -14.806  -5.309  -9.525  1.00  0.00     0.031 A 
ATOM     97  C   UNL     1     -13.274  -4.235 -11.049  1.00  0.00     0.131 A 
ATOM     98  C   UNL     1     -15.515  -5.805 -10.631  1.00  0.00     0.055 A 
ATOM     99  C   UNL     1     -14.012  -4.688 -12.143  1.00  0.00     0.041 A 
ATOM    100  F   UNL     1     -12.183  -3.494 -11.296  1.00  0.00    -0.206 F 
ATOM    101  C   UNL     1     -15.133  -5.486 -11.938  1.00  0.00     0.022 A 
BRANCH  98 102
ATOM    102  S   UNL     1     -16.910  -6.928 -10.345  1.00  0.00     0.124 S 
ATOM    103  O   UNL     1     -16.269  -8.038  -9.646  1.00  0.00    -0.237 OA
ATOM    104  O   UNL     1     -17.813  -6.108  -9.544  1.00  0.00    -0.237 OA
ATOM    105  O   UNL     1     -17.386  -7.236 -11.692  1.00  0.00    -0.744 OA
ENDBRANCH  98 102
ENDBRANCH  72  95
ENDBRANCH  46  47
ENDBRANCH  39  41
ENDBRANCH  38  39
ENDBRANCH  37  38
ENDBRANCH  36  37
ENDBRANCH  35  36
ENDBRANCH   1  35
TORSDOF 23
