REMARK SMILES CC(=O)Oc1ccc([C@H]2Nc3c(C(=O)OCCOCCOCCOC(=O)c4ccc(-c5c6nc(c(-c7cc(S(=O)(=O)[O-])ccc7F)c7ccc([nH]7)c(-c7cc(S(=O)(=O)[O-])ccc7F)c7nc(c(-c8cc(S(=O)(=O)[O-])ccc8F)c8ccc5[nH]8)C=C7)C=C6)cc4)ccc([N+](=O)[O-])c3[C@H]3C=CC[C@@H]32)cc1
REMARK SMILES IDX 19 1 18 2 17 3 16 4 15 5 13 6 14 7 12 8 9 9 10 10 101 11
REMARK SMILES IDX 11 12 97 14 100 15 96 16 98 17 99 18 90 19 92 20 91 21 8 22
REMARK SMILES IDX 5 23 6 24 103 25 7 26 102 27 4 28 2 29 1 30 3 31 93 32 94 33
REMARK SMILES IDX 95 34 20 35 21 36 22 37 23 38 24 39 25 40 26 41 27 42 28 43
REMARK SMILES IDX 89 44 29 45 88 46 30 47 31 48 32 49 82 50 33 51 87 52 81 53
REMARK SMILES IDX 83 54 34 55 86 56 80 57 79 58 35 60 67 61 47 62 66 63 48 64
REMARK SMILES IDX 51 65 65 66 84 67 49 68 50 69 64 71 85 72 52 73 36 74 37 75
REMARK SMILES IDX 45 76 38 77 44 78 46 79 43 80 39 81 40 82 41 83 42 84 68 85
REMARK SMILES IDX 69 86 77 87 70 88 76 89 78 90 75 91 71 92 72 93 73 94 74 95
REMARK SMILES IDX 53 96 54 97 62 98 55 99 61 100 63 101 60 102 56 103 57 104
REMARK SMILES IDX 58 105 59 106
REMARK H PARENT 10 13 83 59 51 70
REMARK Flexibility Score: inf
ROOT
ATOM      1  C   UNL     1       3.035  11.404   1.355  1.00  0.00     0.188 C 
ENDROOT
BRANCH   1   2
ATOM      2  O   UNL     1       3.847  12.260   0.588  1.00  0.00    -0.376 OA
BRANCH   2   3
ATOM      3  C   UNL     1       3.327  13.443   0.025  1.00  0.00     0.202 C 
BRANCH   3   4
ATOM      4  C   UNL     1       1.838  13.815  -0.019  1.00  0.00     0.261 C 
BRANCH   4   5
ATOM      5  O   UNL     1       0.959  13.226   0.942  1.00  0.00    -0.460 OA
BRANCH   5   6
ATOM      6  C   UNL     1       0.100  12.242   0.547  1.00  0.00     0.340 C 
ATOM      7  O   UNL     1       0.091  11.659  -0.528  1.00  0.00    -0.246 OA
BRANCH   6   8
ATOM      8  C   UNL     1      -0.890  12.081   1.639  1.00  0.00     0.084 A 
ATOM      9  C   UNL     1      -1.087   8.422   2.870  1.00  0.00     0.114 C 
ATOM     10  N   UNL     1      -0.662   9.596   2.043  1.00  0.00    -0.377 N 
ATOM     11  C   UNL     1      -2.541   8.672   3.246  1.00  0.00     0.031 C 
ATOM     12  C   UNL     1      -1.214  10.884   2.342  1.00  0.00     0.060 A 
ATOM     13  H   UNL     1      -0.016   9.485   1.309  1.00  0.00     0.161 HD
ATOM     14  C   UNL     1      -2.413   9.782   4.286  1.00  0.00     0.056 C 
ATOM     15  C   UNL     1      -3.457   7.597   3.818  1.00  0.00     0.034 C 
ATOM     16  C   UNL     1      -2.140  11.019   3.456  1.00  0.00     0.061 A 
ATOM     17  C   UNL     1      -3.617   9.541   5.130  1.00  0.00    -0.022 C 
ATOM     18  C   UNL     1      -4.168   8.345   4.893  1.00  0.00    -0.030 C 
ATOM     19  C   UNL     1      -1.516  13.310   1.959  1.00  0.00     0.025 A 
ATOM     20  C   UNL     1      -2.731  12.268   3.721  1.00  0.00     0.275 A 
ATOM     21  C   UNL     1      -2.438  13.408   2.984  1.00  0.00     0.087 A 
BRANCH   9  22
ATOM     22  C   UNL     1      -0.895   6.997   2.386  1.00  0.00    -0.025 A 
ATOM     23  C   UNL     1      -0.861   4.207   1.940  1.00  0.00     0.130 A 
ATOM     24  C   UNL     1      -0.080   4.746   2.954  1.00  0.00     0.047 A 
ATOM     25  C   UNL     1      -1.680   5.035   1.177  1.00  0.00     0.047 A 
ATOM     26  C   UNL     1      -0.112   6.122   3.183  1.00  0.00     0.010 A 
ATOM     27  C   UNL     1      -1.674   6.424   1.375  1.00  0.00     0.010 A 
BRANCH  23  28
ATOM     28  O   UNL     1      -0.764   2.808   1.789  1.00  0.00    -0.427 OA
BRANCH  28  29
ATOM     29  C   UNL     1      -1.166   2.123   0.640  1.00  0.00     0.308 C 
ATOM     30  C   UNL     1      -0.735   0.700   0.760  1.00  0.00     0.139 C 
ATOM     31  O   UNL     1      -1.751   2.585  -0.329  1.00  0.00    -0.252 OA
ENDBRANCH  28  29
ENDBRANCH  23  28
ENDBRANCH   9  22
BRANCH  20  32
ATOM     32  N   UNL     1      -3.738  12.440   4.743  1.00  0.00     0.063 N 
ATOM     33  O   UNL     1      -4.920  12.379   4.378  1.00  0.00    -0.258 OA
ATOM     34  O   UNL     1      -3.340  12.701   5.885  1.00  0.00    -0.258 OA
ENDBRANCH  20  32
ENDBRANCH   6   8
ENDBRANCH   5   6
ENDBRANCH   4   5
ENDBRANCH   3   4
ENDBRANCH   2   3
ENDBRANCH   1   2
BRANCH   1  35
ATOM     35  C   UNL     1       2.666  11.835   2.795  1.00  0.00     0.188 C 
BRANCH  35  36
ATOM     36  O   UNL     1       3.285  12.971   3.371  1.00  0.00    -0.376 OA
BRANCH  36  37
ATOM     37  C   UNL     1       4.700  13.064   3.319  1.00  0.00     0.202 C 
BRANCH  37  38
ATOM     38  C   UNL     1       5.574  11.871   3.745  1.00  0.00     0.261 C 
BRANCH  38  39
ATOM     39  O   UNL     1       5.299  10.629   3.074  1.00  0.00    -0.460 OA
BRANCH  39  40
ATOM     40  C   UNL     1       4.825   9.617   3.849  1.00  0.00     0.338 C 
ATOM     41  O   UNL     1       4.626   9.644   5.050  1.00  0.00    -0.246 OA
BRANCH  40  42
ATOM     42  C   UNL     1       4.410   8.492   2.982  1.00  0.00     0.060 A 
ATOM     43  C   UNL     1       3.051   8.306   2.711  1.00  0.00     0.016 A 
ATOM     44  C   UNL     1       5.350   7.610   2.451  1.00  0.00     0.016 A 
ATOM     45  C   UNL     1       2.642   7.256   1.892  1.00  0.00     0.010 A 
ATOM     46  C   UNL     1       4.917   6.506   1.700  1.00  0.00     0.010 A 
ATOM     47  C   UNL     1       3.550   6.296   1.447  1.00  0.00    -0.014 A 
BRANCH  47  48
ATOM     48  C   UNL     1       3.047   4.976   0.960  1.00  0.00     0.031 A 
ATOM     49  C   UNL     1       3.212   3.778   1.865  1.00  0.00     0.074 A 
ATOM     50  C   UNL     1       2.326   4.829  -0.170  1.00  0.00     0.049 A 
ATOM     51  N   UNL     1       3.032   2.505   1.622  1.00  0.00    -0.248 NA
ATOM     52  C   UNL     1       3.607   4.072   3.254  1.00  0.00     0.031 C 
ATOM     53  C   UNL     1       1.865   5.915  -1.034  1.00  0.00     0.029 A 
ATOM     54  N   UNL     1       1.845   3.692  -0.780  1.00  0.00    -0.354 N 
ATOM     55  C   UNL     1       3.274   1.851   2.826  1.00  0.00     0.074 A 
ATOM     56  C   UNL     1       3.668   2.861   3.783  1.00  0.00     0.031 C 
ATOM     57  C   UNL     1       1.184   5.391  -2.068  1.00  0.00     0.029 A 
ATOM     58  C   UNL     1       1.235   3.933  -1.991  1.00  0.00     0.049 A 
ATOM     59  H   UNL     1       1.930   2.793  -0.387  1.00  0.00     0.167 HD
ATOM     60  C   UNL     1       3.153   0.532   3.116  1.00  0.00     0.034 A 
ATOM     61  C   UNL     1       0.826   3.081  -2.956  1.00  0.00     0.034 A 
ATOM     62  C   UNL     1       2.769  -0.467   2.149  1.00  0.00     0.049 A 
ATOM     63  C   UNL     1       0.994   1.593  -2.736  1.00  0.00     0.074 A 
ATOM     64  C   UNL     1       2.509  -1.810   2.358  1.00  0.00     0.029 A 
ATOM     65  N   UNL     1       2.607  -0.240   0.788  1.00  0.00    -0.354 N 
ATOM     66  N   UNL     1       1.529   0.959  -1.715  1.00  0.00    -0.248 NA
ATOM     67  C   UNL     1       0.508   0.703  -3.800  1.00  0.00     0.031 C 
ATOM     68  C   UNL     1       2.201  -2.394   1.125  1.00  0.00     0.029 A 
ATOM     69  C   UNL     1       2.134  -1.390   0.171  1.00  0.00     0.049 A 
ATOM     70  H   UNL     1       2.799   0.610   0.329  1.00  0.00     0.167 HD
ATOM     71  C   UNL     1       1.370  -0.400  -1.981  1.00  0.00     0.074 A 
ATOM     72  C   UNL     1       0.751  -0.495  -3.287  1.00  0.00     0.031 C 
ATOM     73  C   UNL     1       1.625  -1.470  -1.181  1.00  0.00     0.034 A 
BRANCH  60  74
ATOM     74  C   UNL     1       3.465   0.093   4.528  1.00  0.00     0.023 A 
ATOM     75  C   UNL     1       2.726   0.544   5.638  1.00  0.00     0.031 A 
ATOM     76  C   UNL     1       4.537  -0.784   4.766  1.00  0.00     0.131 A 
ATOM     77  C   UNL     1       3.115   0.174   6.936  1.00  0.00     0.055 A 
ATOM     78  C   UNL     1       4.871  -1.210   6.053  1.00  0.00     0.041 A 
ATOM     79  F   UNL     1       5.289  -1.233   3.749  1.00  0.00    -0.206 F 
ATOM     80  C   UNL     1       4.169  -0.717   7.148  1.00  0.00     0.022 A 
BRANCH  77  81
ATOM     81  S   UNL     1       2.330   0.997   8.352  1.00  0.00     0.124 S 
ATOM     82  O   UNL     1       2.490   2.407   8.004  1.00  0.00    -0.237 OA
ATOM     83  O   UNL     1       0.970   0.475   8.301  1.00  0.00    -0.237 OA
ATOM     84  O   UNL     1       3.131   0.552   9.491  1.00  0.00    -0.744 OA
ENDBRANCH  77  81
ENDBRANCH  60  74
BRANCH  61  85
ATOM     85  C   UNL     1       0.318   3.607  -4.263  1.00  0.00     0.023 A 
ATOM     86  C   UNL     1      -0.978   3.330  -4.731  1.00  0.00     0.031 A 
ATOM     87  C   UNL     1       1.167   4.357  -5.101  1.00  0.00     0.131 A 
ATOM     88  C   UNL     1      -1.368   3.759  -6.014  1.00  0.00     0.055 A 
ATOM     89  C   UNL     1       0.753   4.836  -6.345  1.00  0.00     0.041 A 
ATOM     90  F   UNL     1       2.423   4.640  -4.718  1.00  0.00    -0.206 F 
ATOM     91  C   UNL     1      -0.517   4.525  -6.814  1.00  0.00     0.022 A 
BRANCH  88  92
ATOM     92  S   UNL     1      -2.962   3.202  -6.686  1.00  0.00     0.124 S 
ATOM     93  O   UNL     1      -2.855   1.754  -6.548  1.00  0.00    -0.237 OA
ATOM     94  O   UNL     1      -3.915   3.866  -5.804  1.00  0.00    -0.237 OA
ATOM     95  O   UNL     1      -2.942   3.697  -8.061  1.00  0.00    -0.744 OA
ENDBRANCH  88  92
ENDBRANCH  61  85
BRANCH  73  96
ATOM     96  C   UNL     1       1.126  -2.809  -1.668  1.00  0.00     0.023 A 
ATOM     97  C   UNL     1       1.721  -3.495  -2.738  1.00  0.00     0.031 A 
ATOM     98  C   UNL     1       0.001  -3.391  -1.049  1.00  0.00     0.131 A 
ATOM     99  C   UNL     1       1.167  -4.710  -3.176  1.00  0.00     0.055 A 
ATOM    100  C   UNL     1      -0.502  -4.628  -1.444  1.00  0.00     0.041 A 
ATOM    101  F   UNL     1      -0.622  -2.762  -0.038  1.00  0.00    -0.206 F 
ATOM    102  C   UNL     1       0.077  -5.292  -2.520  1.00  0.00     0.022 A 
BRANCH  99 103
ATOM    103  S   UNL     1       1.842  -5.492  -4.666  1.00  0.00     0.124 S 
ATOM    104  O   UNL     1       1.504  -4.516  -5.696  1.00  0.00    -0.237 OA
ATOM    105  O   UNL     1       3.260  -5.613  -4.344  1.00  0.00    -0.237 OA
ATOM    106  O   UNL     1       1.117  -6.759  -4.747  1.00  0.00    -0.744 OA
ENDBRANCH  99 103
ENDBRANCH  73  96
ENDBRANCH  47  48
ENDBRANCH  40  42
ENDBRANCH  39  40
ENDBRANCH  38  39
ENDBRANCH  37  38
ENDBRANCH  36  37
ENDBRANCH  35  36
ENDBRANCH   1  35
TORSDOF 24
