REMARK SMILES Cc1cscc1C(=O)N[C@H](C(=O)OCCOCCOCCOC(=O)c1ccc(-c2c3nc(c(-c4cc(S(=O)(=O)[O-])ccc4F)c4ccc([nH]4)c(-c4cc(S(=O)(=O)[O-])ccc4F)c4nc(c(-c5cc(S(=O)(=O)[O-])ccc5F)c5ccc2[nH]5)C=C4)C=C3)cc1)c1ccccc1
REMARK SMILES IDX 18 1 17 2 16 3 15 4 14 5 13 6 11 7 12 8 10 9 9 10 7 11 8 12
REMARK SMILES IDX 6 14 1 15 2 16 3 17 4 18 5 19 88 20 89 21 93 22 90 23 92 24
REMARK SMILES IDX 91 25 19 26 20 27 21 28 22 29 23 30 24 31 25 32 26 33 87 34
REMARK SMILES IDX 27 35 86 36 28 37 29 38 30 39 80 40 31 41 85 42 79 43 81 44
REMARK SMILES IDX 32 45 84 46 78 47 77 48 33 50 65 51 45 52 64 53 46 54 49 55
REMARK SMILES IDX 63 56 82 57 47 58 48 59 62 61 83 62 50 63 34 64 35 65 43 66
REMARK SMILES IDX 36 67 42 68 44 69 41 70 37 71 38 72 39 73 40 74 66 75 67 76
REMARK SMILES IDX 75 77 68 78 74 79 76 80 73 81 69 82 70 83 71 84 72 85 51 86
REMARK SMILES IDX 52 87 60 88 53 89 59 90 61 91 58 92 54 93 55 94 56 95 57 96
REMARK H PARENT 9 13 81 49 49 60
REMARK Flexibility Score: inf
ROOT
ATOM      1  C   UNL     1       1.431   1.609   2.184  1.00  0.00     0.188 C 
ENDROOT
BRANCH   1   2
ATOM      2  C   UNL     1       0.953   3.048   1.957  1.00  0.00     0.188 C 
BRANCH   2   3
ATOM      3  O   UNL     1      -0.281   3.144   1.262  1.00  0.00    -0.376 OA
BRANCH   3   4
ATOM      4  C   UNL     1      -0.150   3.471  -0.114  1.00  0.00     0.202 C 
BRANCH   4   5
ATOM      5  C   UNL     1       0.372   2.334  -1.003  1.00  0.00     0.261 C 
BRANCH   5   6
ATOM      6  O   UNL     1       1.619   1.734  -0.563  1.00  0.00    -0.461 OA
BRANCH   6   7
ATOM      7  C   UNL     1       2.740   2.005  -1.272  1.00  0.00     0.333 C 
ATOM      8  O   UNL     1       2.702   2.764  -2.240  1.00  0.00    -0.249 OA
BRANCH   7   9
ATOM      9  C   UNL     1       3.989   1.128  -0.927  1.00  0.00     0.223 C 
BRANCH   9  10
ATOM     10  N   UNL     1       5.079   1.544  -1.799  1.00  0.00    -0.335 N 
ATOM     11  C   UNL     1       5.708   2.740  -2.015  1.00  0.00     0.253 C 
ATOM     12  O   UNL     1       6.706   2.647  -2.740  1.00  0.00    -0.269 OA
ATOM     13  H   UNL     1       5.440   0.811  -2.347  1.00  0.00     0.165 HD
BRANCH  11  14
ATOM     14  C   UNL     1       5.232   4.075  -1.575  1.00  0.00     0.053 A 
ATOM     15  C   UNL     1       4.403   4.092   0.996  1.00  0.00     0.046 C 
ATOM     16  C   UNL     1       4.677   4.671  -0.351  1.00  0.00    -0.028 A 
ATOM     17  C   UNL     1       4.452   6.033  -0.516  1.00  0.00     0.069 A 
ATOM     18  S   UNL     1       4.886   6.625  -2.040  1.00  0.00    -0.151 S 
ATOM     19  C   UNL     1       5.403   5.084  -2.521  1.00  0.00     0.079 A 
ENDBRANCH  11  14
ENDBRANCH   9  10
BRANCH   9  20
ATOM     20  C   UNL     1       4.566   0.780   0.464  1.00  0.00    -0.014 A 
ATOM     21  C   UNL     1       4.062  -0.271   1.251  1.00  0.00     0.006 A 
ATOM     22  C   UNL     1       5.755   1.381   0.945  1.00  0.00     0.006 A 
ATOM     23  C   UNL     1       4.664  -0.626   2.476  1.00  0.00     0.000 A 
ATOM     24  C   UNL     1       6.339   1.054   2.173  1.00  0.00     0.000 A 
ATOM     25  C   UNL     1       5.791   0.046   2.944  1.00  0.00     0.000 A 
ENDBRANCH   9  20
ENDBRANCH   7   9
ENDBRANCH   6   7
ENDBRANCH   5   6
ENDBRANCH   4   5
ENDBRANCH   3   4
ENDBRANCH   2   3
ENDBRANCH   1   2
BRANCH   1  26
ATOM     26  O   UNL     1       0.525   0.520   2.115  1.00  0.00    -0.376 OA
BRANCH  26  27
ATOM     27  C   UNL     1      -0.752   0.690   2.703  1.00  0.00     0.202 C 
BRANCH  27  28
ATOM     28  C   UNL     1      -0.841   1.059   4.194  1.00  0.00     0.261 C 
BRANCH  28  29
ATOM     29  O   UNL     1       0.128   2.010   4.680  1.00  0.00    -0.460 OA
BRANCH  29  30
ATOM     30  C   UNL     1       1.184   1.473   5.344  1.00  0.00     0.338 C 
ATOM     31  O   UNL     1       1.364   0.283   5.579  1.00  0.00    -0.246 OA
BRANCH  30  32
ATOM     32  C   UNL     1       2.224   2.500   5.594  1.00  0.00     0.060 A 
ATOM     33  C   UNL     1       3.505   2.299   5.058  1.00  0.00     0.016 A 
ATOM     34  C   UNL     1       1.984   3.597   6.420  1.00  0.00     0.016 A 
ATOM     35  C   UNL     1       4.555   3.166   5.365  1.00  0.00     0.010 A 
ATOM     36  C   UNL     1       3.047   4.450   6.756  1.00  0.00     0.010 A 
ATOM     37  C   UNL     1       4.346   4.220   6.260  1.00  0.00    -0.014 A 
BRANCH  37  38
ATOM     38  C   UNL     1       5.517   4.937   6.837  1.00  0.00     0.031 A 
ATOM     39  C   UNL     1       5.986   4.551   8.217  1.00  0.00     0.074 A 
ATOM     40  C   UNL     1       6.191   5.875   6.145  1.00  0.00     0.049 A 
ATOM     41  N   UNL     1       6.909   5.095   8.968  1.00  0.00    -0.248 NA
ATOM     42  C   UNL     1       5.319   3.391   8.827  1.00  0.00     0.031 C 
ATOM     43  C   UNL     1       5.913   6.274   4.768  1.00  0.00     0.029 A 
ATOM     44  N   UNL     1       7.253   6.665   6.516  1.00  0.00    -0.354 N 
ATOM     45  C   UNL     1       6.923   4.356  10.147  1.00  0.00     0.074 A 
ATOM     46  C   UNL     1       5.896   3.343  10.017  1.00  0.00     0.031 C 
ATOM     47  C   UNL     1       6.773   7.245   4.414  1.00  0.00     0.029 A 
ATOM     48  C   UNL     1       7.627   7.577   5.555  1.00  0.00     0.049 A 
ATOM     49  H   UNL     1       7.705   6.587   7.387  1.00  0.00     0.167 HD
ATOM     50  C   UNL     1       7.717   4.507  11.236  1.00  0.00     0.034 A 
ATOM     51  C   UNL     1       8.521   8.588   5.604  1.00  0.00     0.034 A 
ATOM     52  C   UNL     1       8.735   5.522  11.358  1.00  0.00     0.049 A 
ATOM     53  C   UNL     1       9.307   8.820   6.877  1.00  0.00     0.074 A 
ATOM     54  C   UNL     1       9.590   5.761  12.421  1.00  0.00     0.029 A 
ATOM     55  N   UNL     1       9.030   6.476  10.393  1.00  0.00    -0.354 N 
ATOM     56  N   UNL     1       9.289   8.138   8.000  1.00  0.00    -0.248 NA
ATOM     57  C   UNL     1      10.235   9.960   6.887  1.00  0.00     0.031 C 
ATOM     58  C   UNL     1      10.340   6.905  12.134  1.00  0.00     0.029 A 
ATOM     59  C   UNL     1      10.024   7.328  10.853  1.00  0.00     0.049 A 
ATOM     60  H   UNL     1       8.597   6.539   9.511  1.00  0.00     0.167 HD
ATOM     61  C   UNL     1      10.229   8.746   8.831  1.00  0.00     0.074 A 
ATOM     62  C   UNL     1      10.803   9.840   8.078  1.00  0.00     0.031 C 
ATOM     63  C   UNL     1      10.591   8.424  10.100  1.00  0.00     0.034 A 
BRANCH  50  64
ATOM     64  C   UNL     1       7.462   3.592  12.412  1.00  0.00     0.023 A 
ATOM     65  C   UNL     1       7.647   2.201  12.329  1.00  0.00     0.031 A 
ATOM     66  C   UNL     1       6.993   4.123  13.627  1.00  0.00     0.131 A 
ATOM     67  C   UNL     1       7.296   1.384  13.415  1.00  0.00     0.055 A 
ATOM     68  C   UNL     1       6.728   3.313  14.732  1.00  0.00     0.041 A 
ATOM     69  F   UNL     1       6.773   5.441  13.758  1.00  0.00    -0.206 F 
ATOM     70  C   UNL     1       6.864   1.932  14.625  1.00  0.00     0.022 A 
BRANCH  67  71
ATOM     71  S   UNL     1       7.263  -0.413  13.172  1.00  0.00     0.124 S 
ATOM     72  O   UNL     1       6.329  -0.543  12.056  1.00  0.00    -0.237 OA
ATOM     73  O   UNL     1       8.658  -0.717  12.876  1.00  0.00    -0.237 OA
ATOM     74  O   UNL     1       6.769  -0.923  14.449  1.00  0.00    -0.744 OA
ENDBRANCH  67  71
ENDBRANCH  50  64
BRANCH  51  75
ATOM     75  C   UNL     1       8.687   9.514   4.444  1.00  0.00     0.023 A 
ATOM     76  C   UNL     1       9.922   9.650   3.790  1.00  0.00     0.031 A 
ATOM     77  C   UNL     1       7.628  10.342   4.025  1.00  0.00     0.131 A 
ATOM     78  C   UNL     1      10.083  10.625   2.791  1.00  0.00     0.055 A 
ATOM     79  C   UNL     1       7.776  11.265   2.989  1.00  0.00     0.041 A 
ATOM     80  F   UNL     1       6.429  10.265   4.623  1.00  0.00    -0.206 F 
ATOM     81  C   UNL     1       9.014  11.421   2.375  1.00  0.00     0.022 A 
BRANCH  78  82
ATOM     82  S   UNL     1      11.743  10.915   2.118  1.00  0.00     0.124 S 
ATOM     83  O   UNL     1      12.489  11.273   3.318  1.00  0.00    -0.237 OA
ATOM     84  O   UNL     1      12.060   9.620   1.526  1.00  0.00    -0.237 OA
ATOM     85  O   UNL     1      11.537  12.002   1.163  1.00  0.00    -0.744 OA
ENDBRANCH  78  82
ENDBRANCH  51  75
BRANCH  63  86
ATOM     86  C   UNL     1      11.702   9.229  10.736  1.00  0.00     0.023 A 
ATOM     87  C   UNL     1      11.559  10.596  11.033  1.00  0.00     0.031 A 
ATOM     88  C   UNL     1      12.929   8.614  11.047  1.00  0.00     0.131 A 
ATOM     89  C   UNL     1      12.641  11.314  11.570  1.00  0.00     0.055 A 
ATOM     90  C   UNL     1      13.978   9.317  11.641  1.00  0.00     0.041 A 
ATOM     91  F   UNL     1      13.127   7.312  10.784  1.00  0.00    -0.206 F 
ATOM     92  C   UNL     1      13.843  10.678  11.893  1.00  0.00     0.022 A 
BRANCH  89  93
ATOM     93  S   UNL     1      12.493  13.113  11.751  1.00  0.00     0.124 S 
ATOM     94  O   UNL     1      12.201  13.533  10.384  1.00  0.00    -0.237 OA
ATOM     95  O   UNL     1      11.397  13.242  12.705  1.00  0.00    -0.237 OA
ATOM     96  O   UNL     1      13.804  13.517  12.256  1.00  0.00    -0.744 OA
ENDBRANCH  89  93
ENDBRANCH  63  86
ENDBRANCH  37  38
ENDBRANCH  30  32
ENDBRANCH  29  30
ENDBRANCH  28  29
ENDBRANCH  27  28
ENDBRANCH  26  27
ENDBRANCH   1  26
TORSDOF 23
