REMARK SMILES O=C(OCCOCCOCCOC(=O)[C@@H]1CCCCN1c1ccccc1[N+](=O)[O-])c1ccc(-c2c3nc(c(-c4cc(S(=O)(=O)[O-])ccc4F)c4ccc([nH]4)c(-c4cc(S(=O)(=O)[O-])ccc4F)c4nc(c(-c5cc(S(=O)(=O)[O-])ccc5F)c5ccc2[nH]5)C=C4)C=C3)cc1
REMARK SMILES IDX 7 1 6 2 5 3 4 4 3 5 2 6 1 7 30 8 31 9 92 10 32 11 91 12
REMARK SMILES IDX 33 13 34 14 35 15 85 16 36 17 90 18 84 19 86 20 37 21 89 22
REMARK SMILES IDX 83 23 82 24 38 26 70 27 50 28 69 29 51 30 54 31 68 32 87 33
REMARK SMILES IDX 52 34 53 35 67 37 88 38 55 39 39 40 40 41 48 42 41 43 47 44
REMARK SMILES IDX 49 45 46 46 42 47 43 48 44 49 45 50 71 51 72 52 80 53 73 54
REMARK SMILES IDX 79 55 81 56 78 57 74 58 75 59 76 60 77 61 56 62 57 63 65 64
REMARK SMILES IDX 58 65 64 66 66 67 63 68 59 69 60 70 61 71 62 72 8 73 9 74
REMARK SMILES IDX 10 75 11 76 12 77 13 78 14 79 15 80 16 81 20 82 17 83 19 84
REMARK SMILES IDX 18 85 21 86 22 87 26 88 23 89 25 90 24 91 27 92 28 93 29 94
REMARK H PARENT 86 25 54 36
REMARK Flexibility Score: inf
ROOT
ATOM      1  C   UNL     1       2.512  -1.620  -2.829  1.00  0.00     0.188 C 
ENDROOT
BRANCH   1   2
ATOM      2  O   UNL     1       3.817  -1.280  -2.413  1.00  0.00    -0.376 OA
BRANCH   2   3
ATOM      3  C   UNL     1       4.406  -2.151  -1.474  1.00  0.00     0.202 C 
BRANCH   3   4
ATOM      4  C   UNL     1       3.705  -2.294  -0.118  1.00  0.00     0.261 C 
BRANCH   4   5
ATOM      5  O   UNL     1       2.776  -1.280   0.410  1.00  0.00    -0.460 OA
BRANCH   5   6
ATOM      6  C   UNL     1       2.495   0.146   0.056  1.00  0.00     0.338 C 
ATOM      7  O   UNL     1       1.437  -0.052  -0.588  1.00  0.00    -0.246 OA
BRANCH   6   8
ATOM      8  C   UNL     1       3.411   1.952   0.808  1.00  0.00     0.060 A 
ATOM      9  C   UNL     1       4.855   2.416   0.622  1.00  0.00     0.016 A 
ATOM     10  C   UNL     1       2.825   3.113   1.585  1.00  0.00     0.016 A 
ATOM     11  C   UNL     1       5.425   3.634   0.850  1.00  0.00     0.010 A 
ATOM     12  C   UNL     1       3.342   4.407   1.722  1.00  0.00     0.010 A 
ATOM     13  C   UNL     1       4.613   4.644   1.273  1.00  0.00    -0.014 A 
BRANCH  13  14
ATOM     14  C   UNL     1       5.308   5.894   1.401  1.00  0.00     0.031 A 
ATOM     15  C   UNL     1       5.946   6.103   2.716  1.00  0.00     0.074 A 
ATOM     16  C   UNL     1       5.609   6.506   0.245  1.00  0.00     0.049 A 
ATOM     17  N   UNL     1       6.811   6.999   3.056  1.00  0.00    -0.248 NA
ATOM     18  C   UNL     1       5.672   5.084   3.751  1.00  0.00     0.031 C 
ATOM     19  C   UNL     1       5.228   6.014  -1.090  1.00  0.00     0.029 A 
ATOM     20  N   UNL     1       6.338   7.611  -0.022  1.00  0.00    -0.354 N 
ATOM     21  C   UNL     1       7.216   6.637   4.330  1.00  0.00     0.074 A 
ATOM     22  C   UNL     1       6.508   5.441   4.706  1.00  0.00     0.031 C 
ATOM     23  C   UNL     1       5.647   6.875  -2.025  1.00  0.00     0.029 A 
ATOM     24  C   UNL     1       6.296   7.976  -1.346  1.00  0.00     0.049 A 
ATOM     25  H   UNL     1       6.848   8.103   0.662  1.00  0.00     0.167 HD
ATOM     26  C   UNL     1       8.103   7.303   5.096  1.00  0.00     0.034 A 
ATOM     27  C   UNL     1       6.695   9.131  -1.894  1.00  0.00     0.034 A 
ATOM     28  C   UNL     1       8.621   8.566   4.635  1.00  0.00     0.049 A 
ATOM     29  C   UNL     1       7.407  10.037  -0.934  1.00  0.00     0.074 A 
ATOM     30  C   UNL     1       9.314   9.537   5.319  1.00  0.00     0.029 A 
ATOM     31  N   UNL     1       8.425   9.050   3.333  1.00  0.00    -0.354 N 
ATOM     32  N   UNL     1       7.693   9.804   0.334  1.00  0.00    -0.248 NA
ATOM     33  C   UNL     1       7.866  11.321  -1.440  1.00  0.00     0.031 C 
ATOM     34  C   UNL     1       9.446  10.640   4.462  1.00  0.00     0.029 A 
ATOM     35  C   UNL     1       8.931  10.325   3.205  1.00  0.00     0.049 A 
ATOM     36  H   UNL     1       7.985   8.548   2.609  1.00  0.00     0.167 HD
ATOM     37  C   UNL     1       8.407  10.895   0.779  1.00  0.00     0.074 A 
ATOM     38  C   UNL     1       8.500  11.791  -0.373  1.00  0.00     0.031 C 
ATOM     39  C   UNL     1       8.949  11.141   2.004  1.00  0.00     0.034 A 
BRANCH  26  40
ATOM     40  C   UNL     1       8.285   6.758   6.489  1.00  0.00     0.023 A 
ATOM     41  C   UNL     1       8.806   5.466   6.720  1.00  0.00     0.031 A 
ATOM     42  C   UNL     1       7.683   7.424   7.569  1.00  0.00     0.131 A 
ATOM     43  C   UNL     1       8.611   4.846   7.968  1.00  0.00     0.055 A 
ATOM     44  C   UNL     1       7.576   6.835   8.832  1.00  0.00     0.041 A 
ATOM     45  F   UNL     1       7.106   8.623   7.396  1.00  0.00    -0.206 F 
ATOM     46  C   UNL     1       8.021   5.532   9.032  1.00  0.00     0.022 A 
BRANCH  43  47
ATOM     47  S   UNL     1       8.925   3.060   8.121  1.00  0.00     0.124 S 
ATOM     48  O   UNL     1       7.935   2.507   7.200  1.00  0.00    -0.237 OA
ATOM     49  O   UNL     1      10.318   2.944   7.706  1.00  0.00    -0.237 OA
ATOM     50  O   UNL     1       8.671   2.786   9.534  1.00  0.00    -0.744 OA
ENDBRANCH  43  47
ENDBRANCH  26  40
BRANCH  27  51
ATOM     51  C   UNL     1       6.360   9.462  -3.304  1.00  0.00     0.023 A 
ATOM     52  C   UNL     1       7.349   9.692  -4.267  1.00  0.00     0.031 A 
ATOM     53  C   UNL     1       5.012   9.530  -3.723  1.00  0.00     0.131 A 
ATOM     54  C   UNL     1       6.982  10.005  -5.588  1.00  0.00     0.055 A 
ATOM     55  C   UNL     1       4.652   9.809  -5.043  1.00  0.00     0.041 A 
ATOM     56  F   UNL     1       4.016   9.300  -2.852  1.00  0.00    -0.206 F 
ATOM     57  C   UNL     1       5.643  10.060  -5.984  1.00  0.00     0.022 A 
BRANCH  54  58
ATOM     58  S   UNL     1       8.291  10.398  -6.781  1.00  0.00     0.124 S 
ATOM     59  O   UNL     1       9.022  11.451  -6.087  1.00  0.00    -0.237 OA
ATOM     60  O   UNL     1       8.975   9.115  -6.906  1.00  0.00    -0.237 OA
ATOM     61  O   UNL     1       7.553  10.828  -7.967  1.00  0.00    -0.744 OA
ENDBRANCH  54  58
ENDBRANCH  27  51
BRANCH  39  62
ATOM     62  C   UNL     1       9.723  12.415   2.095  1.00  0.00     0.023 A 
ATOM     63  C   UNL     1       9.083  13.657   2.005  1.00  0.00     0.031 A 
ATOM     64  C   UNL     1      11.116  12.368   2.258  1.00  0.00     0.131 A 
ATOM     65  C   UNL     1       9.857  14.817   1.994  1.00  0.00     0.055 A 
ATOM     66  C   UNL     1      11.869  13.532   2.344  1.00  0.00     0.041 A 
ATOM     67  F   UNL     1      11.756  11.191   2.342  1.00  0.00    -0.206 F 
ATOM     68  C   UNL     1      11.241  14.766   2.193  1.00  0.00     0.022 A 
BRANCH  65  69
ATOM     69  S   UNL     1       9.040  16.374   1.575  1.00  0.00     0.124 S 
ATOM     70  O   UNL     1       8.525  16.088   0.239  1.00  0.00    -0.237 OA
ATOM     71  O   UNL     1       8.040  16.497   2.630  1.00  0.00    -0.237 OA
ATOM     72  O   UNL     1      10.125  17.351   1.627  1.00  0.00    -0.744 OA
ENDBRANCH  65  69
ENDBRANCH  39  62
ENDBRANCH  13  14
ENDBRANCH   6   8
ENDBRANCH   5   6
ENDBRANCH   4   5
ENDBRANCH   3   4
ENDBRANCH   2   3
ENDBRANCH   1   2
BRANCH   1  73
ATOM     73  C   UNL     1       2.318  -1.545  -4.338  1.00  0.00     0.188 C 
BRANCH  73  74
ATOM     74  O   UNL     1       3.408  -1.905  -5.169  1.00  0.00    -0.376 OA
BRANCH  74  75
ATOM     75  C   UNL     1       4.627  -1.172  -5.030  1.00  0.00     0.202 C 
BRANCH  75  76
ATOM     76  C   UNL     1       4.623   0.365  -5.143  1.00  0.00     0.261 C 
BRANCH  76  77
ATOM     77  O   UNL     1       3.995   1.112  -4.074  1.00  0.00    -0.462 OA
BRANCH  77  78
ATOM     78  C   UNL     1       2.847   1.751  -4.403  1.00  0.00     0.328 C 
ATOM     79  O   UNL     1       2.255   1.540  -5.468  1.00  0.00    -0.250 OA
BRANCH  78  80
ATOM     80  C   UNL     1       2.435   2.941  -3.553  1.00  0.00     0.192 C 
ATOM     81  C   UNL     1       3.250   4.158  -4.023  1.00  0.00     0.037 C 
ATOM     82  N   UNL     1       2.253   3.011  -2.069  1.00  0.00    -0.353 N 
ATOM     83  C   UNL     1       2.447   5.430  -3.783  1.00  0.00     0.005 C 
ATOM     84  C   UNL     1       1.488   4.237  -1.697  1.00  0.00     0.118 C 
ATOM     85  C   UNL     1       2.001   5.540  -2.333  1.00  0.00     0.022 C 
BRANCH  82  86
ATOM     86  C   UNL     1       2.362   1.971  -1.115  1.00  0.00     0.116 A 
ATOM     87  C   UNL     1       3.927   1.043  -1.083  1.00  0.00     0.033 A 
ATOM     88  C   UNL     1       1.263   1.830   0.342  1.00  0.00     0.292 A 
ATOM     89  C   UNL     1       4.493   0.155   0.445  1.00  0.00     0.003 A 
ATOM     90  C   UNL     1       1.782   0.890   1.835  1.00  0.00     0.088 A 
ATOM     91  C   UNL     1       3.434   0.158   1.937  1.00  0.00     0.007 A 
BRANCH  88  92
ATOM     92  N   UNL     1      -0.107   2.319   0.373  1.00  0.00     0.064 N 
ATOM     93  O   UNL     1      -0.632   2.404   1.495  1.00  0.00    -0.258 OA
ATOM     94  O   UNL     1      -0.672   2.614  -0.684  1.00  0.00    -0.258 OA
ENDBRANCH  88  92
ENDBRANCH  82  86
ENDBRANCH  78  80
ENDBRANCH  77  78
ENDBRANCH  76  77
ENDBRANCH  75  76
ENDBRANCH  74  75
ENDBRANCH  73  74
ENDBRANCH   1  73
TORSDOF 22
