REMARK SMILES O=C(OCCOCCOCCOC(=O)c1ccc(-c2c3nc(c(-c4cc(S(=O)(=O)[O-])ccc4F)c4ccc([nH]4)c(-c4cc(S(=O)(=O)[O-])ccc4F)c4nc(c(-c5cc(S(=O)(=O)[O-])ccc5F)c5ccc2[nH]5)C=C4)C=C3)cc1)C1=Cc2cc(Cl)c(Cl)cc2O[C@@H]1C(F)(F)F
REMARK SMILES IDX 8 1 7 2 6 3 5 4 4 5 3 6 2 7 1 8 78 9 79 10 89 11 80 12 88 13
REMARK SMILES IDX 81 14 87 15 82 16 86 17 83 18 84 19 85 20 90 21 91 22 92 23
REMARK SMILES IDX 93 24 9 25 10 26 11 27 12 28 13 29 14 30 15 31 16 32 77 33
REMARK SMILES IDX 17 34 76 35 18 36 19 37 20 38 70 39 21 40 75 41 69 42 71 43
REMARK SMILES IDX 22 44 74 45 68 46 67 47 23 49 55 50 35 51 54 52 36 53 39 54
REMARK SMILES IDX 53 55 72 56 37 57 38 58 52 60 73 61 40 62 24 63 25 64 33 65
REMARK SMILES IDX 26 66 32 67 34 68 31 69 27 70 28 71 29 72 30 73 56 74 57 75
REMARK SMILES IDX 65 76 58 77 64 78 66 79 63 80 59 81 60 82 61 83 62 84 41 85
REMARK SMILES IDX 42 86 50 87 43 88 49 89 51 90 48 91 44 92 45 93 46 94 47 95
REMARK H PARENT 71 48 39 59
REMARK Flexibility Score: inf
ROOT
ATOM      1  C   UNL     1       2.171   3.468   0.394  1.00  0.00     0.188 C 
ENDROOT
BRANCH   1   2
ATOM      2  C   UNL     1       2.391   2.134   1.129  1.00  0.00     0.188 C 
BRANCH   2   3
ATOM      3  O   UNL     1       3.711   1.545   1.442  1.00  0.00    -0.376 OA
BRANCH   3   4
ATOM      4  C   UNL     1       4.426   0.126   0.854  1.00  0.00     0.202 C 
BRANCH   4   5
ATOM      5  C   UNL     1       3.703  -1.107  -0.785  1.00  0.00     0.261 C 
BRANCH   5   6
ATOM      6  O   UNL     1       2.792  -2.328  -0.668  1.00  0.00    -0.460 OA
BRANCH   6   7
ATOM      7  C   UNL     1       3.010  -3.017   0.460  1.00  0.00     0.338 C 
ATOM      8  O   UNL     1       2.411  -3.964   0.898  1.00  0.00    -0.246 OA
BRANCH   7   9
ATOM      9  C   UNL     1       3.854  -2.023   1.092  1.00  0.00     0.087 C 
ATOM     10  C   UNL     1       5.239  -2.018   0.600  1.00  0.00     0.027 C 
ATOM     11  C   UNL     1       2.594  -0.585   0.862  1.00  0.00     0.316 C 
ATOM     12  C   UNL     1       5.896  -0.775  -0.530  1.00  0.00     0.019 A 
ATOM     13  O   UNL     1       3.235   0.695  -0.459  1.00  0.00    -0.475 OA
ATOM     14  C   UNL     1       7.148  -0.937  -1.056  1.00  0.00     0.034 A 
ATOM     15  C   UNL     1       4.931   0.534  -1.120  1.00  0.00     0.129 A 
ATOM     16  C   UNL     1       7.530   0.031  -2.012  1.00  0.00     0.060 A 
ATOM     17  C   UNL     1       5.375   1.451  -2.029  1.00  0.00     0.069 A 
ATOM     18  Cl  UNL     1       9.118  -0.230  -2.693  1.00  0.00    -0.083 Cl
ATOM     19  C   UNL     1       6.700   1.166  -2.459  1.00  0.00     0.063 A 
ATOM     20  Cl  UNL     1       7.368   2.279  -3.626  1.00  0.00    -0.083 Cl
BRANCH  11  21
ATOM     21  C   UNL     1       2.270  -0.457   2.475  1.00  0.00     0.430 C 
ATOM     22  F   UNL     1       1.783   0.676   2.975  1.00  0.00    -0.167 F 
ATOM     23  F   UNL     1       1.319  -1.394   2.757  1.00  0.00    -0.167 F 
ATOM     24  F   UNL     1       3.329  -0.802   3.259  1.00  0.00    -0.167 F 
ENDBRANCH  11  21
ENDBRANCH   7   9
ENDBRANCH   6   7
ENDBRANCH   5   6
ENDBRANCH   4   5
ENDBRANCH   3   4
ENDBRANCH   2   3
ENDBRANCH   1   2
BRANCH   1  25
ATOM     25  O   UNL     1       3.181   3.959  -0.451  1.00  0.00    -0.376 OA
BRANCH  25  26
ATOM     26  C   UNL     1       4.446   4.154   0.167  1.00  0.00     0.202 C 
BRANCH  26  27
ATOM     27  C   UNL     1       4.506   4.940   1.489  1.00  0.00     0.261 C 
BRANCH  27  28
ATOM     28  O   UNL     1       4.022   4.197   2.632  1.00  0.00    -0.460 OA
BRANCH  28  29
ATOM     29  C   UNL     1       2.974   4.733   3.311  1.00  0.00     0.338 C 
ATOM     30  O   UNL     1       2.396   5.774   3.049  1.00  0.00    -0.246 OA
BRANCH  29  31
ATOM     31  C   UNL     1       2.494   3.787   4.344  1.00  0.00     0.060 A 
ATOM     32  C   UNL     1       1.162   3.345   4.293  1.00  0.00     0.016 A 
ATOM     33  C   UNL     1       3.325   3.389   5.392  1.00  0.00     0.016 A 
ATOM     34  C   UNL     1       0.660   2.502   5.286  1.00  0.00     0.010 A 
ATOM     35  C   UNL     1       2.806   2.585   6.414  1.00  0.00     0.010 A 
ATOM     36  C   UNL     1       1.464   2.163   6.380  1.00  0.00    -0.014 A 
BRANCH  36  37
ATOM     37  C   UNL     1       0.817   1.635   7.609  1.00  0.00     0.031 A 
ATOM     38  C   UNL     1       0.342   2.642   8.624  1.00  0.00     0.074 A 
ATOM     39  C   UNL     1       0.619   0.320   7.812  1.00  0.00     0.049 A 
ATOM     40  N   UNL     1      -0.256   2.457   9.772  1.00  0.00    -0.248 NA
ATOM     41  C   UNL     1       0.582   4.056   8.291  1.00  0.00     0.031 C 
ATOM     42  C   UNL     1       0.982  -0.744   6.880  1.00  0.00     0.029 A 
ATOM     43  N   UNL     1       0.057  -0.342   8.877  1.00  0.00    -0.354 N 
ATOM     44  C   UNL     1      -0.464   3.729  10.296  1.00  0.00     0.074 A 
ATOM     45  C   UNL     1       0.112   4.671   9.362  1.00  0.00     0.031 C 
ATOM     46  C   UNL     1       0.631  -1.928   7.415  1.00  0.00     0.029 A 
ATOM     47  C   UNL     1       0.051  -1.711   8.740  1.00  0.00     0.049 A 
ATOM     48  H   UNL     1      -0.308   0.121   9.665  1.00  0.00     0.167 HD
ATOM     49  C   UNL     1      -1.086   4.081  11.448  1.00  0.00     0.034 A 
ATOM     50  C   UNL     1      -0.364  -2.670   9.594  1.00  0.00     0.034 A 
ATOM     51  C   UNL     1      -1.621   3.127  12.385  1.00  0.00     0.049 A 
ATOM     52  C   UNL     1      -0.951  -2.257  10.928  1.00  0.00     0.074 A 
ATOM     53  C   UNL     1      -2.274   3.368  13.581  1.00  0.00     0.029 A 
ATOM     54  N   UNL     1      -1.542   1.746  12.247  1.00  0.00    -0.354 N 
ATOM     55  N   UNL     1      -1.164  -1.051  11.406  1.00  0.00    -0.248 NA
ATOM     56  C   UNL     1      -1.364  -3.339  11.833  1.00  0.00     0.031 C 
ATOM     57  C   UNL     1      -2.499   2.139  14.210  1.00  0.00     0.029 A 
ATOM     58  C   UNL     1      -2.091   1.125  13.358  1.00  0.00     0.049 A 
ATOM     59  H   UNL     1      -1.152   1.278  11.474  1.00  0.00     0.167 HD
ATOM     60  C   UNL     1      -1.780  -1.233  12.644  1.00  0.00     0.074 A 
ATOM     61  C   UNL     1      -1.911  -2.663  12.832  1.00  0.00     0.031 C 
ATOM     62  C   UNL     1      -2.208  -0.305  13.539  1.00  0.00     0.034 A 
BRANCH  49  63
ATOM     63  C   UNL     1      -1.143   5.554  11.779  1.00  0.00     0.023 A 
ATOM     64  C   UNL     1      -1.804   6.478  10.949  1.00  0.00     0.031 A 
ATOM     65  C   UNL     1      -0.477   6.051  12.913  1.00  0.00     0.131 A 
ATOM     66  C   UNL     1      -1.708   7.853  11.216  1.00  0.00     0.055 A 
ATOM     67  C   UNL     1      -0.468   7.411  13.226  1.00  0.00     0.041 A 
ATOM     68  F   UNL     1       0.198   5.224  13.727  1.00  0.00    -0.206 F 
ATOM     69  C   UNL     1      -1.070   8.323  12.365  1.00  0.00     0.022 A 
BRANCH  66  70
ATOM     70  S   UNL     1      -2.268   9.022   9.947  1.00  0.00     0.124 S 
ATOM     71  O   UNL     1      -1.464   8.617   8.796  1.00  0.00    -0.237 OA
ATOM     72  O   UNL     1      -3.695   8.736   9.861  1.00  0.00    -0.237 OA
ATOM     73  O   UNL     1      -1.925  10.327  10.508  1.00  0.00    -0.744 OA
ENDBRANCH  66  70
ENDBRANCH  49  63
BRANCH  50  74
ATOM     74  C   UNL     1      -0.231  -4.117   9.246  1.00  0.00     0.023 A 
ATOM     75  C   UNL     1      -1.359  -4.952   9.164  1.00  0.00     0.031 A 
ATOM     76  C   UNL     1       1.034  -4.707   9.068  1.00  0.00     0.131 A 
ATOM     77  C   UNL     1      -1.198  -6.333   8.966  1.00  0.00     0.055 A 
ATOM     78  C   UNL     1       1.184  -6.071   8.805  1.00  0.00     0.041 A 
ATOM     79  F   UNL     1       2.148  -3.963   9.151  1.00  0.00    -0.206 F 
ATOM     80  C   UNL     1       0.065  -6.895   8.767  1.00  0.00     0.022 A 
BRANCH  77  81
ATOM     81  S   UNL     1      -2.658  -7.406   9.084  1.00  0.00     0.124 S 
ATOM     82  O   UNL     1      -3.124  -7.121  10.436  1.00  0.00    -0.237 OA
ATOM     83  O   UNL     1      -3.493  -6.905   7.998  1.00  0.00    -0.237 OA
ATOM     84  O   UNL     1      -2.112  -8.747   8.881  1.00  0.00    -0.744 OA
ENDBRANCH  77  81
ENDBRANCH  50  74
BRANCH  62  85
ATOM     85  C   UNL     1      -2.919  -0.807  14.777  1.00  0.00     0.023 A 
ATOM     86  C   UNL     1      -2.280  -1.617  15.731  1.00  0.00     0.031 A 
ATOM     87  C   UNL     1      -4.271  -0.479  14.995  1.00  0.00     0.131 A 
ATOM     88  C   UNL     1      -3.009  -2.131  16.815  1.00  0.00     0.055 A 
ATOM     89  C   UNL     1      -4.967  -0.924  16.119  1.00  0.00     0.041 A 
ATOM     90  F   UNL     1      -4.939   0.287  14.117  1.00  0.00    -0.206 F 
ATOM     91  C   UNL     1      -4.342  -1.771  17.027  1.00  0.00     0.022 A 
BRANCH  88  92
ATOM     92  S   UNL     1      -2.232  -3.387  17.869  1.00  0.00     0.124 S 
ATOM     93  O   UNL     1      -1.863  -4.411  16.897  1.00  0.00    -0.237 OA
ATOM     94  O   UNL     1      -1.124  -2.649  18.468  1.00  0.00    -0.237 OA
ATOM     95  O   UNL     1      -3.297  -3.765  18.795  1.00  0.00    -0.744 OA
ENDBRANCH  88  92
ENDBRANCH  62  85
ENDBRANCH  36  37
ENDBRANCH  29  31
ENDBRANCH  28  29
ENDBRANCH  27  28
ENDBRANCH  26  27
ENDBRANCH  25  26
ENDBRANCH   1  25
TORSDOF 21
