REMARK SMILES NC(=O)[C@@H]1CCCCN1C(=O)N[C@H]1C=C[C@@H](C(=O)OCCOCCOCCOC(=O)c2ccc(-c3c4nc(c(-c5cc(S(=O)(=O)[O-])ccc5F)c5ccc([nH]5)c(-c5cc(S(=O)(=O)[O-])ccc5F)c5nc(c(-c6cc(S(=O)(=O)[O-])ccc6F)c6ccc3[nH]6)C=C5)C=C4)cc2)C1
REMARK SMILES IDX 23 1 22 2 21 3 20 4 19 5 17 6 18 7 16 8 13 9 14 10 94 11
REMARK SMILES IDX 15 12 12 13 10 14 11 15 9 17 4 18 5 19 6 20 8 21 7 22 2 23
REMARK SMILES IDX 1 24 3 27 24 28 25 29 26 30 27 31 28 32 29 33 30 34 31 35
REMARK SMILES IDX 32 36 93 37 33 38 92 39 34 40 35 41 36 42 86 43 37 44 91 45
REMARK SMILES IDX 85 46 87 47 38 48 90 49 84 50 83 51 39 53 71 54 51 55 70 56
REMARK SMILES IDX 52 57 55 58 69 59 88 60 53 61 54 62 68 64 89 65 56 66 40 67
REMARK SMILES IDX 41 68 49 69 42 70 48 71 50 72 47 73 43 74 44 75 45 76 46 77
REMARK SMILES IDX 72 78 73 79 81 80 74 81 80 82 82 83 79 84 75 85 76 86 77 87
REMARK SMILES IDX 78 88 57 89 58 90 66 91 59 92 65 93 67 94 64 95 60 96 61 97
REMARK SMILES IDX 62 98 63 99
REMARK H PARENT 12 16 1 25 1 26 87 52 55 63
REMARK Flexibility Score: inf
ROOT
ATOM      1  C   UNL     1       0.773  -8.390   3.923  1.00  0.00     0.188 C 
ENDROOT
BRANCH   1   2
ATOM      2  O   UNL     1      -0.151  -9.150   4.698  1.00  0.00    -0.376 OA
BRANCH   2   3
ATOM      3  C   UNL     1      -1.169  -8.458   5.412  1.00  0.00     0.202 C 
BRANCH   3   4
ATOM      4  C   UNL     1      -0.679  -7.523   6.517  1.00  0.00     0.261 C 
BRANCH   4   5
ATOM      5  O   UNL     1       0.150  -6.463   6.004  1.00  0.00    -0.463 OA
BRANCH   5   6
ATOM      6  C   UNL     1       0.905  -5.825   6.935  1.00  0.00     0.312 C 
ATOM      7  O   UNL     1       0.857  -6.075   8.135  1.00  0.00    -0.252 OA
BRANCH   6   8
ATOM      8  C   UNL     1       1.899  -4.830   6.324  1.00  0.00     0.124 C 
ATOM      9  C   UNL     1       2.028  -2.782   4.935  1.00  0.00     0.107 C 
ATOM     10  C   UNL     1       2.002  -2.475   6.402  1.00  0.00    -0.006 C 
ATOM     11  C   UNL     1       1.597  -4.259   4.929  1.00  0.00     0.048 C 
ATOM     12  C   UNL     1       1.948  -3.581   7.153  1.00  0.00    -0.014 C 
BRANCH   9  13
ATOM     13  N   UNL     1       1.081  -1.911   4.263  1.00  0.00    -0.332 N 
ATOM     14  C   UNL     1       0.779  -1.513   3.016  1.00  0.00     0.318 C 
ATOM     15  O   UNL     1      -0.213  -0.780   2.953  1.00  0.00    -0.249 OA
ATOM     16  H   UNL     1       0.481  -1.484   4.916  1.00  0.00     0.165 HD
BRANCH  14  17
ATOM     17  N   UNL     1       1.476  -1.856   1.891  1.00  0.00    -0.313 N 
ATOM     18  C   UNL     1       0.804  -1.649   0.581  1.00  0.00     0.176 C 
ATOM     19  C   UNL     1       0.030  -2.916   0.215  1.00  0.00     0.035 C 
ATOM     20  C   UNL     1       1.040  -4.061   0.086  1.00  0.00     0.004 C 
ATOM     21  C   UNL     1       2.527  -2.855   1.774  1.00  0.00     0.122 C 
ATOM     22  C   UNL     1       1.914  -4.187   1.337  1.00  0.00     0.022 C 
BRANCH  18  23
ATOM     23  C   UNL     1       0.067  -0.332   0.269  1.00  0.00     0.240 C 
ATOM     24  N   UNL     1       0.824   0.795   0.453  1.00  0.00    -0.368 N 
ATOM     25  H   UNL     1       0.435   1.683   0.278  1.00  0.00     0.159 HD
ATOM     26  H   UNL     1       1.756   0.717   0.760  1.00  0.00     0.159 HD
ATOM     27  O   UNL     1      -1.015  -0.260  -0.307  1.00  0.00    -0.273 OA
ENDBRANCH  18  23
ENDBRANCH  14  17
ENDBRANCH   9  13
ENDBRANCH   6   8
ENDBRANCH   5   6
ENDBRANCH   4   5
ENDBRANCH   3   4
ENDBRANCH   2   3
ENDBRANCH   1   2
BRANCH   1  28
ATOM     28  C   UNL     1       0.248  -7.182   3.133  1.00  0.00     0.188 C 
BRANCH  28  29
ATOM     29  O   UNL     1      -1.112  -7.305   2.744  1.00  0.00    -0.376 OA
BRANCH  29  30
ATOM     30  C   UNL     1      -1.354  -7.062   1.366  1.00  0.00     0.202 C 
BRANCH  30  31
ATOM     31  C   UNL     1      -1.092  -8.328   0.553  1.00  0.00     0.261 C 
BRANCH  31  32
ATOM     32  O   UNL     1       0.284  -8.751   0.628  1.00  0.00    -0.460 OA
BRANCH  32  33
ATOM     33  C   UNL     1       1.132  -8.139  -0.221  1.00  0.00     0.338 C 
ATOM     34  O   UNL     1       0.853  -7.296  -1.063  1.00  0.00    -0.246 OA
BRANCH  33  35
ATOM     35  C   UNL     1       2.502  -8.575   0.082  1.00  0.00     0.060 A 
ATOM     36  C   UNL     1       3.311  -7.789   0.909  1.00  0.00     0.016 A 
ATOM     37  C   UNL     1       3.013  -9.721  -0.522  1.00  0.00     0.016 A 
ATOM     38  C   UNL     1       4.654  -8.110   1.094  1.00  0.00     0.010 A 
ATOM     39  C   UNL     1       4.354 -10.057  -0.317  1.00  0.00     0.010 A 
ATOM     40  C   UNL     1       5.191  -9.237   0.464  1.00  0.00    -0.014 A 
BRANCH  40  41
ATOM     41  C   UNL     1       6.649  -9.507   0.504  1.00  0.00     0.031 A 
ATOM     42  C   UNL     1       7.455  -9.290  -0.746  1.00  0.00     0.074 A 
ATOM     43  C   UNL     1       7.240  -9.954   1.626  1.00  0.00     0.049 A 
ATOM     44  N   UNL     1       8.675  -9.663  -1.025  1.00  0.00    -0.248 NA
ATOM     45  C   UNL     1       6.783  -8.558  -1.832  1.00  0.00     0.031 C 
ATOM     46  C   UNL     1       6.582 -10.119   2.922  1.00  0.00     0.029 A 
ATOM     47  N   UNL     1       8.528 -10.373   1.848  1.00  0.00    -0.354 N 
ATOM     48  C   UNL     1       8.907  -9.251  -2.333  1.00  0.00     0.074 A 
ATOM     49  C   UNL     1       7.696  -8.603  -2.791  1.00  0.00     0.031 C 
ATOM     50  C   UNL     1       7.466 -10.626   3.799  1.00  0.00     0.029 A 
ATOM     51  C   UNL     1       8.727 -10.886   3.109  1.00  0.00     0.049 A 
ATOM     52  H   UNL     1       9.240 -10.312   1.171  1.00  0.00     0.167 HD
ATOM     53  C   UNL     1      10.026  -9.410  -3.081  1.00  0.00     0.034 A 
ATOM     54  C   UNL     1       9.785 -11.543   3.626  1.00  0.00     0.034 A 
ATOM     55  C   UNL     1      11.223 -10.053  -2.598  1.00  0.00     0.049 A 
ATOM     56  C   UNL     1      10.987 -11.791   2.747  1.00  0.00     0.074 A 
ATOM     57  C   UNL     1      12.417 -10.268  -3.263  1.00  0.00     0.029 A 
ATOM     58  N   UNL     1      11.377 -10.589  -1.325  1.00  0.00    -0.354 N 
ATOM     59  N   UNL     1      11.183 -11.442   1.496  1.00  0.00    -0.248 NA
ATOM     60  C   UNL     1      12.106 -12.528   3.348  1.00  0.00     0.031 C 
ATOM     61  C   UNL     1      13.268 -10.988  -2.416  1.00  0.00     0.029 A 
ATOM     62  C   UNL     1      12.633 -11.158  -1.195  1.00  0.00     0.049 A 
ATOM     63  H   UNL     1      10.692 -10.567  -0.618  1.00  0.00     0.167 HD
ATOM     64  C   UNL     1      12.460 -11.892   1.172  1.00  0.00     0.074 A 
ATOM     65  C   UNL     1      12.990 -12.526   2.362  1.00  0.00     0.031 C 
ATOM     66  C   UNL     1      13.139 -11.789   0.001  1.00  0.00     0.034 A 
BRANCH  53  67
ATOM     67  C   UNL     1       9.973  -8.946  -4.516  1.00  0.00     0.023 A 
ATOM     68  C   UNL     1       9.837  -7.590  -4.857  1.00  0.00     0.031 A 
ATOM     69  C   UNL     1      10.027  -9.887  -5.560  1.00  0.00     0.131 A 
ATOM     70  C   UNL     1       9.693  -7.220  -6.204  1.00  0.00     0.055 A 
ATOM     71  C   UNL     1       9.958  -9.505  -6.901  1.00  0.00     0.041 A 
ATOM     72  F   UNL     1      10.131 -11.199  -5.293  1.00  0.00    -0.206 F 
ATOM     73  C   UNL     1       9.776  -8.165  -7.229  1.00  0.00     0.022 A 
BRANCH  70  74
ATOM     74  S   UNL     1       9.262  -5.500  -6.589  1.00  0.00     0.124 S 
ATOM     75  O   UNL     1       7.995  -5.347  -5.877  1.00  0.00    -0.237 OA
ATOM     76  O   UNL     1      10.393  -4.761  -6.042  1.00  0.00    -0.237 OA
ATOM     77  O   UNL     1       9.155  -5.491  -8.046  1.00  0.00    -0.744 OA
ENDBRANCH  70  74
ENDBRANCH  53  67
BRANCH  54  78
ATOM     78  C   UNL     1       9.739 -12.081   5.016  1.00  0.00     0.023 A 
ATOM     79  C   UNL     1      10.633 -11.624   5.998  1.00  0.00     0.031 A 
ATOM     80  C   UNL     1       8.840 -13.104   5.369  1.00  0.00     0.131 A 
ATOM     81  C   UNL     1      10.639 -12.219   7.269  1.00  0.00     0.055 A 
ATOM     82  C   UNL     1       8.813 -13.655   6.651  1.00  0.00     0.041 A 
ATOM     83  F   UNL     1       7.966 -13.580   4.468  1.00  0.00    -0.206 F 
ATOM     84  C   UNL     1       9.726 -13.221   7.607  1.00  0.00     0.022 A 
BRANCH  81  85
ATOM     85  S   UNL     1      11.920 -11.721   8.453  1.00  0.00     0.124 S 
ATOM     86  O   UNL     1      13.140 -12.022   7.713  1.00  0.00    -0.237 OA
ATOM     87  O   UNL     1      11.618 -10.306   8.645  1.00  0.00    -0.237 OA
ATOM     88  O   UNL     1      11.664 -12.574   9.611  1.00  0.00    -0.744 OA
ENDBRANCH  81  85
ENDBRANCH  54  78
BRANCH  66  89
ATOM     89  C   UNL     1      14.549 -12.325  -0.021  1.00  0.00     0.023 A 
ATOM     90  C   UNL     1      14.821 -13.700   0.071  1.00  0.00     0.031 A 
ATOM     91  C   UNL     1      15.636 -11.438  -0.120  1.00  0.00     0.131 A 
ATOM     92  C   UNL     1      16.150 -14.146   0.117  1.00  0.00     0.055 A 
ATOM     93  C   UNL     1      16.955 -11.892  -0.131  1.00  0.00     0.041 A 
ATOM     94  F   UNL     1      15.432 -10.114  -0.209  1.00  0.00    -0.206 F 
ATOM     95  C   UNL     1      17.218 -13.253   0.001  1.00  0.00     0.022 A 
BRANCH  92  96
ATOM     96  S   UNL     1      16.468 -15.906   0.420  1.00  0.00     0.124 S 
ATOM     97  O   UNL     1      15.813 -16.116   1.707  1.00  0.00    -0.237 OA
ATOM     98  O   UNL     1      15.833 -16.541  -0.730  1.00  0.00    -0.237 OA
ATOM     99  O   UNL     1      17.927 -15.992   0.446  1.00  0.00    -0.744 OA
ENDBRANCH  92  96
ENDBRANCH  66  89
ENDBRANCH  40  41
ENDBRANCH  33  35
ENDBRANCH  32  33
ENDBRANCH  31  32
ENDBRANCH  30  31
ENDBRANCH  29  30
ENDBRANCH  28  29
ENDBRANCH   1  28
TORSDOF 23
