REMARK SMILES Cc1c(C(=O)OCCOCCOCCOC(=O)c2ccc(-c3c4nc(c(-c5cc(S(=O)(=O)[O-])ccc5F)c5ccc([nH]5)c(-c5cc(S(=O)(=O)[O-])ccc5F)c5nc(c(-c6cc(S(=O)(=O)[O-])ccc6F)c6ccc3[nH]6)C=C5)C=C4)cc2)sc2c1=C(CSc1nncn1-c1ccccc1)CC(=O)N=2
REMARK SMILES IDX 10 1 9 2 8 3 7 4 6 5 4 6 5 7 3 8 1 9 2 10 83 11 81 12 82 13
REMARK SMILES IDX 84 14 101 15 98 16 99 17 100 18 85 19 86 20 87 21 88 22
REMARK SMILES IDX 91 23 89 24 90 25 92 26 93 27 97 28 94 29 96 30 95 31 11 32
REMARK SMILES IDX 12 33 13 34 14 35 15 36 16 37 17 38 18 39 19 40 80 41 20 42
REMARK SMILES IDX 79 43 21 44 22 45 23 46 73 47 24 48 78 49 72 50 74 51 25 52
REMARK SMILES IDX 77 53 71 54 70 55 26 57 58 58 38 59 57 60 39 61 42 62 56 63
REMARK SMILES IDX 75 64 40 65 41 66 55 68 76 69 43 70 27 71 28 72 36 73 29 74
REMARK SMILES IDX 35 75 37 76 34 77 30 78 31 79 32 80 33 81 59 82 60 83 68 84
REMARK SMILES IDX 61 85 67 86 69 87 66 88 62 89 63 90 64 91 65 92 44 93 45 94
REMARK SMILES IDX 53 95 46 96 52 97 54 98 51 99 47 100 48 101 49 102 50 103
REMARK H PARENT 74 56 42 67
REMARK Flexibility Score: inf
ROOT
ATOM      1  C   UNL     1       2.358  -4.391   2.776  1.00  0.00     0.188 C 
ENDROOT
BRANCH   1   2
ATOM      2  O   UNL     1       3.695  -4.026   3.075  1.00  0.00    -0.376 OA
BRANCH   2   3
ATOM      3  C   UNL     1       4.578  -3.931   1.965  1.00  0.00     0.202 C 
BRANCH   3   4
ATOM      4  C   UNL     1       4.271  -2.822   0.954  1.00  0.00     0.261 C 
BRANCH   4   5
ATOM      5  O   UNL     1       2.969  -2.871   0.348  1.00  0.00    -0.459 OA
BRANCH   5   6
ATOM      6  C   UNL     1       2.678  -3.855  -0.531  1.00  0.00     0.348 C 
ATOM      7  O   UNL     1       3.435  -4.766  -0.835  1.00  0.00    -0.245 OA
BRANCH   6   8
ATOM      8  C   UNL     1       1.306  -3.661  -1.085  1.00  0.00     0.118 A 
ATOM      9  C   UNL     1       0.950  -1.222  -0.538  1.00  0.00     0.047 C 
ATOM     10  C   UNL     1       0.626  -2.504  -1.210  1.00  0.00    -0.016 A 
ATOM     11  C   UNL     1      -0.619  -2.650  -1.925  1.00  0.00     0.016 A 
ATOM     12  S   UNL     1       0.379  -5.053  -1.595  1.00  0.00    -0.108 S 
ATOM     13  C   UNL     1      -1.036  -4.074  -1.992  1.00  0.00     0.128 A 
ATOM     14  C   UNL     1      -1.336  -1.828  -2.713  1.00  0.00    -0.040 C 
ATOM     15  N   UNL     1      -2.154  -4.581  -2.354  1.00  0.00    -0.202 NA
ATOM     16  C   UNL     1      -2.774  -2.236  -2.993  1.00  0.00     0.135 C 
ATOM     17  C   UNL     1      -3.143  -3.699  -2.716  1.00  0.00     0.251 C 
ATOM     18  O   UNL     1      -4.311  -4.053  -2.870  1.00  0.00    -0.272 OA
BRANCH  14  19
ATOM     19  C   UNL     1      -0.979  -0.508  -3.380  1.00  0.00     0.110 C 
BRANCH  19  20
ATOM     20  S   UNL     1       0.784  -0.077  -3.526  1.00  0.00    -0.081 SA
BRANCH  20  21
ATOM     21  C   UNL     1       0.642   1.655  -3.475  1.00  0.00     0.195 A 
ATOM     22  N   UNL     1      -0.004   2.354  -4.382  1.00  0.00    -0.123 NA
ATOM     23  N   UNL     1       0.886   2.439  -2.362  1.00  0.00    -0.277 N 
ATOM     24  N   UNL     1      -0.237   3.605  -3.863  1.00  0.00    -0.138 NA
ATOM     25  C   UNL     1       0.259   3.627  -2.647  1.00  0.00     0.231 A 
BRANCH  23  26
ATOM     26  C   UNL     1       1.530   2.125  -1.147  1.00  0.00     0.049 A 
ATOM     27  C   UNL     1       2.791   1.519  -1.149  1.00  0.00     0.027 A 
ATOM     28  C   UNL     1       0.864   2.378   0.061  1.00  0.00     0.027 A 
ATOM     29  C   UNL     1       3.363   1.121   0.064  1.00  0.00     0.002 A 
ATOM     30  C   UNL     1       1.423   1.934   1.260  1.00  0.00     0.002 A 
ATOM     31  C   UNL     1       2.666   1.300   1.260  1.00  0.00     0.000 A 
ENDBRANCH  23  26
ENDBRANCH  20  21
ENDBRANCH  19  20
ENDBRANCH  14  19
ENDBRANCH   6   8
ENDBRANCH   5   6
ENDBRANCH   4   5
ENDBRANCH   3   4
ENDBRANCH   2   3
ENDBRANCH   1   2
BRANCH   1  32
ATOM     32  C   UNL     1       1.353  -3.223   2.809  1.00  0.00     0.188 C 
BRANCH  32  33
ATOM     33  O   UNL     1       1.755  -1.906   3.182  1.00  0.00    -0.376 OA
BRANCH  33  34
ATOM     34  C   UNL     1       2.679  -1.694   4.242  1.00  0.00     0.202 C 
BRANCH  34  35
ATOM     35  C   UNL     1       2.384  -2.227   5.640  1.00  0.00     0.261 C 
BRANCH  35  36
ATOM     36  O   UNL     1       2.003  -3.591   5.673  1.00  0.00    -0.460 OA
BRANCH  36  37
ATOM     37  C   UNL     1       0.668  -3.778   5.766  1.00  0.00     0.338 C 
ATOM     38  O   UNL     1      -0.202  -2.939   5.600  1.00  0.00    -0.246 OA
BRANCH  37  39
ATOM     39  C   UNL     1       0.405  -5.166   6.159  1.00  0.00     0.060 A 
ATOM     40  C   UNL     1      -0.931  -5.572   6.182  1.00  0.00     0.016 A 
ATOM     41  C   UNL     1       1.431  -5.956   6.701  1.00  0.00     0.016 A 
ATOM     42  C   UNL     1      -1.266  -6.683   6.923  1.00  0.00     0.010 A 
ATOM     43  C   UNL     1       1.093  -7.060   7.450  1.00  0.00     0.010 A 
ATOM     44  C   UNL     1      -0.258  -7.359   7.615  1.00  0.00    -0.014 A 
BRANCH  44  45
ATOM     45  C   UNL     1      -0.665  -8.394   8.538  1.00  0.00     0.031 A 
ATOM     46  C   UNL     1      -1.020  -9.676   7.911  1.00  0.00     0.074 A 
ATOM     47  C   UNL     1      -0.646  -8.219   9.871  1.00  0.00     0.049 A 
ATOM     48  N   UNL     1      -2.187 -10.216   7.831  1.00  0.00    -0.248 NA
ATOM     49  C   UNL     1       0.028 -10.373   7.155  1.00  0.00     0.031 C 
ATOM     50  C   UNL     1      -0.049  -7.104  10.608  1.00  0.00     0.029 A 
ATOM     51  N   UNL     1      -1.061  -9.067  10.852  1.00  0.00    -0.354 N 
ATOM     52  C   UNL     1      -1.976 -11.455   7.242  1.00  0.00     0.074 A 
ATOM     53  C   UNL     1      -0.665 -11.395   6.654  1.00  0.00     0.031 C 
ATOM     54  C   UNL     1       0.052  -7.445  11.911  1.00  0.00     0.029 A 
ATOM     55  C   UNL     1      -0.577  -8.742  12.111  1.00  0.00     0.049 A 
ATOM     56  H   UNL     1      -1.649  -9.839  10.684  1.00  0.00     0.167 HD
ATOM     57  C   UNL     1      -2.779 -12.510   7.542  1.00  0.00     0.034 A 
ATOM     58  C   UNL     1      -0.615  -9.519  13.221  1.00  0.00     0.034 A 
ATOM     59  C   UNL     1      -4.044 -12.061   8.096  1.00  0.00     0.049 A 
ATOM     60  C   UNL     1      -1.719 -10.495  13.046  1.00  0.00     0.074 A 
ATOM     61  C   UNL     1      -5.026 -11.182   7.671  1.00  0.00     0.029 A 
ATOM     62  N   UNL     1      -4.292 -12.262   9.437  1.00  0.00    -0.354 N 
ATOM     63  N   UNL     1      -2.980 -10.160  12.995  1.00  0.00    -0.248 NA
ATOM     64  C   UNL     1      -1.415 -11.816  12.513  1.00  0.00     0.031 C 
ATOM     65  C   UNL     1      -5.506 -10.548   8.855  1.00  0.00     0.029 A 
ATOM     66  C   UNL     1      -4.838 -11.108   9.944  1.00  0.00     0.049 A 
ATOM     67  H   UNL     1      -4.110 -13.087   9.943  1.00  0.00     0.167 HD
ATOM     68  C   UNL     1      -3.543 -11.013  12.059  1.00  0.00     0.074 A 
ATOM     69  C   UNL     1      -2.571 -12.089  11.901  1.00  0.00     0.031 C 
ATOM     70  C   UNL     1      -4.602 -10.618  11.291  1.00  0.00     0.034 A 
BRANCH  57  71
ATOM     71  C   UNL     1      -2.263 -13.926   7.727  1.00  0.00     0.023 A 
ATOM     72  C   UNL     1      -3.206 -14.882   8.143  1.00  0.00     0.031 A 
ATOM     73  C   UNL     1      -0.909 -14.323   7.835  1.00  0.00     0.131 A 
ATOM     74  C   UNL     1      -2.802 -16.058   8.795  1.00  0.00     0.055 A 
ATOM     75  C   UNL     1      -0.513 -15.535   8.409  1.00  0.00     0.041 A 
ATOM     76  F   UNL     1       0.117 -13.545   7.476  1.00  0.00    -0.206 F 
ATOM     77  C   UNL     1      -1.460 -16.390   8.938  1.00  0.00     0.022 A 
BRANCH  74  78
ATOM     78  S   UNL     1      -4.070 -17.011   9.662  1.00  0.00     0.124 S 
ATOM     79  O   UNL     1      -4.701 -15.971  10.470  1.00  0.00    -0.237 OA
ATOM     80  O   UNL     1      -4.859 -17.534   8.552  1.00  0.00    -0.237 OA
ATOM     81  O   UNL     1      -3.298 -18.001  10.406  1.00  0.00    -0.744 OA
ENDBRANCH  74  78
ENDBRANCH  57  71
BRANCH  58  82
ATOM     82  C   UNL     1       0.423  -9.606  14.279  1.00  0.00     0.023 A 
ATOM     83  C   UNL     1       0.162 -10.167  15.543  1.00  0.00     0.031 A 
ATOM     84  C   UNL     1       1.777  -9.326  13.977  1.00  0.00     0.131 A 
ATOM     85  C   UNL     1       1.223 -10.414  16.443  1.00  0.00     0.055 A 
ATOM     86  C   UNL     1       2.818  -9.548  14.878  1.00  0.00     0.041 A 
ATOM     87  F   UNL     1       2.149  -8.902  12.759  1.00  0.00    -0.206 F 
ATOM     88  C   UNL     1       2.545 -10.103  16.116  1.00  0.00     0.022 A 
BRANCH  85  89
ATOM     89  S   UNL     1       0.903 -11.264  18.019  1.00  0.00     0.124 S 
ATOM     90  O   UNL     1       0.221 -10.235  18.793  1.00  0.00    -0.237 OA
ATOM     91  O   UNL     1       0.098 -12.406  17.602  1.00  0.00    -0.237 OA
ATOM     92  O   UNL     1       2.244 -11.606  18.498  1.00  0.00    -0.744 OA
ENDBRANCH  85  89
ENDBRANCH  58  82
BRANCH  70  93
ATOM     93  C   UNL     1      -5.432  -9.439  11.752  1.00  0.00     0.023 A 
ATOM     94  C   UNL     1      -4.925  -8.148  12.015  1.00  0.00     0.031 A 
ATOM     95  C   UNL     1      -6.826  -9.619  11.832  1.00  0.00     0.131 A 
ATOM     96  C   UNL     1      -5.803  -7.102  12.361  1.00  0.00     0.055 A 
ATOM     97  C   UNL     1      -7.694  -8.578  12.158  1.00  0.00     0.041 A 
ATOM     98  F   UNL     1      -7.376 -10.816  11.564  1.00  0.00    -0.206 F 
ATOM     99  C   UNL     1      -7.184  -7.315  12.432  1.00  0.00     0.022 A 
BRANCH  96 100
ATOM    100  S   UNL     1      -5.159  -5.442  12.742  1.00  0.00     0.124 S 
ATOM    101  O   UNL     1      -4.038  -5.703  13.637  1.00  0.00    -0.237 OA
ATOM    102  O   UNL     1      -4.815  -4.928  11.419  1.00  0.00    -0.237 OA
ATOM    103  O   UNL     1      -6.298  -4.773  13.374  1.00  0.00    -0.744 OA
ENDBRANCH  96 100
ENDBRANCH  70  93
ENDBRANCH  44  45
ENDBRANCH  37  39
ENDBRANCH  36  37
ENDBRANCH  35  36
ENDBRANCH  34  35
ENDBRANCH  33  34
ENDBRANCH  32  33
ENDBRANCH   1  32
TORSDOF 24
