REMARK SMILES COc1ccccc1[C@@H]1C[N@@H+](Cc2cn3cc(C)ccc3n2)C[C@H]1C(=O)OCCOCCOCCOC(=O)c1ccc(-c2c3nc(c(-c4cc(S(=O)(=O)[O-])ccc4F)c4ccc([nH]4)c(-c4cc(S(=O)(=O)[O-])ccc4F)c4nc(c(-c5cc(S(=O)(=O)[O-])ccc5F)c5ccc2[nH]5)C=C4)C=C3)cc1
REMARK SMILES IDX 32 1 31 2 30 3 29 4 28 5 27 6 25 7 26 8 24 9 9 10 10 11
REMARK SMILES IDX 11 12 23 13 8 15 3 16 4 17 5 18 7 19 6 20 2 21 1 22 12 23
REMARK SMILES IDX 13 24 14 25 22 26 15 27 21 28 16 29 20 30 17 31 19 32 18 33
REMARK SMILES IDX 33 34 34 35 35 36 36 37 37 38 38 39 39 40 40 41 101 42 41 43
REMARK SMILES IDX 100 44 42 45 43 46 44 47 94 48 45 49 99 50 93 51 95 52 46 53
REMARK SMILES IDX 98 54 92 55 91 56 47 58 79 59 59 60 78 61 60 62 63 63 77 64
REMARK SMILES IDX 96 65 61 66 62 67 76 69 97 70 64 71 48 72 49 73 57 74 50 75
REMARK SMILES IDX 56 76 58 77 55 78 51 79 52 80 53 81 54 82 80 83 81 84 89 85
REMARK SMILES IDX 82 86 88 87 90 88 87 89 83 90 84 91 85 92 86 93 65 94 66 95
REMARK SMILES IDX 74 96 67 97 73 98 75 99 72 100 68 101 69 102 70 103 71 104
REMARK H PARENT 11 14 95 57 63 68
REMARK Flexibility Score: inf
ROOT
ATOM      1  C   UNL     1       2.491  -4.380  -1.020  1.00  0.00     0.188 C 
ENDROOT
BRANCH   1   2
ATOM      2  C   UNL     1       1.552  -4.400  -2.233  1.00  0.00     0.188 C 
BRANCH   2   3
ATOM      3  O   UNL     1       2.059  -4.871  -3.474  1.00  0.00    -0.376 OA
BRANCH   3   4
ATOM      4  C   UNL     1       3.341  -4.404  -3.890  1.00  0.00     0.202 C 
BRANCH   4   5
ATOM      5  C   UNL     1       3.607  -2.889  -3.822  1.00  0.00     0.261 C 
BRANCH   5   6
ATOM      6  O   UNL     1       3.578  -2.312  -2.490  1.00  0.00    -0.463 OA
BRANCH   6   7
ATOM      7  C   UNL     1       2.945  -1.126  -2.380  1.00  0.00     0.315 C 
ATOM      8  O   UNL     1       2.470  -0.529  -3.349  1.00  0.00    -0.252 OA
BRANCH   7   9
ATOM      9  C   UNL     1       2.845  -0.485  -0.999  1.00  0.00     0.167 C 
ATOM     10  C   UNL     1       3.104  -1.103   0.388  1.00  0.00     0.098 C 
ATOM     11  C   UNL     1       3.686   0.069   1.193  1.00  0.00     0.272 C 
ATOM     12  N   UNL     1       4.440   0.884   0.247  1.00  0.00    -0.329 N 
ATOM     13  C   UNL     1       3.783   0.730  -1.054  1.00  0.00     0.278 C 
ATOM     14  H   UNL     1       4.416   1.861   0.539  1.00  0.00     0.348 HD
BRANCH  10  15
ATOM     15  C   UNL     1       2.033  -1.768   1.266  1.00  0.00     0.004 A 
ATOM     16  C   UNL     1       0.766  -1.280   1.642  1.00  0.00     0.122 A 
ATOM     17  C   UNL     1      -0.062  -2.030   2.506  1.00  0.00     0.047 A 
ATOM     18  C   UNL     1       0.380  -3.215   3.091  1.00  0.00     0.004 A 
ATOM     19  C   UNL     1       2.467  -2.947   1.931  1.00  0.00     0.008 A 
ATOM     20  C   UNL     1       1.667  -3.652   2.832  1.00  0.00     0.001 A 
BRANCH  16  21
ATOM     21  O   UNL     1       0.377   0.032   1.547  1.00  0.00    -0.496 OA
ATOM     22  C   UNL     1      -0.034   0.497   0.276  1.00  0.00     0.278 C 
ENDBRANCH  16  21
ENDBRANCH  10  15
BRANCH  12  23
ATOM     23  C   UNL     1       5.889   0.632   0.232  1.00  0.00     0.321 C 
BRANCH  23  24
ATOM     24  C   UNL     1       6.304  -0.797   0.054  1.00  0.00     0.114 A 
ATOM     25  C   UNL     1       6.620  -1.723   1.032  1.00  0.00     0.122 A 
ATOM     26  N   UNL     1       6.459  -1.357  -1.199  1.00  0.00    -0.228 NA
ATOM     27  N   UNL     1       6.965  -2.872   0.370  1.00  0.00    -0.306 N 
ATOM     28  C   UNL     1       6.860  -2.596  -0.987  1.00  0.00     0.137 A 
ATOM     29  C   UNL     1       7.349  -4.107   0.887  1.00  0.00     0.096 A 
ATOM     30  C   UNL     1       7.198  -3.650  -1.882  1.00  0.00     0.048 A 
ATOM     31  C   UNL     1       7.680  -5.106   0.045  1.00  0.00    -0.034 A 
ATOM     32  C   UNL     1       7.621  -4.836  -1.397  1.00  0.00     0.009 A 
ATOM     33  C   UNL     1       7.953  -6.509   0.498  1.00  0.00     0.046 C 
ENDBRANCH  23  24
ENDBRANCH  12  23
ENDBRANCH   7   9
ENDBRANCH   6   7
ENDBRANCH   5   6
ENDBRANCH   4   5
ENDBRANCH   3   4
ENDBRANCH   2   3
ENDBRANCH   1   2
BRANCH   1  34
ATOM     34  O   UNL     1       3.826  -4.776  -1.280  1.00  0.00    -0.376 OA
BRANCH  34  35
ATOM     35  C   UNL     1       4.389  -5.782  -0.465  1.00  0.00     0.202 C 
BRANCH  35  36
ATOM     36  C   UNL     1       3.891  -7.177  -0.780  1.00  0.00     0.261 C 
BRANCH  36  37
ATOM     37  O   UNL     1       2.492  -7.260  -0.639  1.00  0.00    -0.460 OA
BRANCH  37  38
ATOM     38  C   UNL     1       2.033  -6.989   0.589  1.00  0.00     0.338 C 
ATOM     39  O   UNL     1       2.681  -6.659   1.587  1.00  0.00    -0.246 OA
BRANCH  38  40
ATOM     40  C   UNL     1       0.597  -7.183   0.566  1.00  0.00     0.060 A 
ATOM     41  C   UNL     1      -0.080  -6.838   1.735  1.00  0.00     0.016 A 
ATOM     42  C   UNL     1       0.115  -8.107  -0.370  1.00  0.00     0.016 A 
ATOM     43  C   UNL     1      -1.077  -7.674   2.142  1.00  0.00     0.010 A 
ATOM     44  C   UNL     1      -0.826  -8.981   0.068  1.00  0.00     0.010 A 
ATOM     45  C   UNL     1      -1.328  -8.796   1.354  1.00  0.00    -0.014 A 
BRANCH  45  46
ATOM     46  C   UNL     1      -2.205  -9.797   1.883  1.00  0.00     0.031 A 
ATOM     47  C   UNL     1      -3.615  -9.437   1.691  1.00  0.00     0.074 A 
ATOM     48  C   UNL     1      -1.722 -10.963   2.339  1.00  0.00     0.049 A 
ATOM     49  N   UNL     1      -4.480  -9.143   2.598  1.00  0.00    -0.248 NA
ATOM     50  C   UNL     1      -4.052  -9.132   0.316  1.00  0.00     0.031 C 
ATOM     51  C   UNL     1      -0.347 -11.463   2.252  1.00  0.00     0.029 A 
ATOM     52  N   UNL     1      -2.410 -12.022   2.823  1.00  0.00    -0.354 N 
ATOM     53  C   UNL     1      -5.647  -8.887   1.896  1.00  0.00     0.074 A 
ATOM     54  C   UNL     1      -5.256  -8.615   0.544  1.00  0.00     0.031 C 
ATOM     55  C   UNL     1      -0.366 -12.804   2.418  1.00  0.00     0.029 A 
ATOM     56  C   UNL     1      -1.729 -13.224   2.707  1.00  0.00     0.049 A 
ATOM     57  H   UNL     1      -3.309 -11.946   3.219  1.00  0.00     0.167 HD
ATOM     58  C   UNL     1      -6.851  -9.252   2.404  1.00  0.00     0.034 A 
ATOM     59  C   UNL     1      -2.296 -14.459   2.705  1.00  0.00     0.034 A 
ATOM     60  C   UNL     1      -6.770  -9.452   3.836  1.00  0.00     0.049 A 
ATOM     61  C   UNL     1      -3.644 -14.316   3.329  1.00  0.00     0.074 A 
ATOM     62  C   UNL     1      -6.310  -8.666   4.879  1.00  0.00     0.029 A 
ATOM     63  N   UNL     1      -6.797 -10.740   4.329  1.00  0.00    -0.354 N 
ATOM     64  N   UNL     1      -3.831 -13.973   4.577  1.00  0.00    -0.248 NA
ATOM     65  C   UNL     1      -4.784 -14.065   2.454  1.00  0.00     0.031 C 
ATOM     66  C   UNL     1      -5.618  -9.565   5.741  1.00  0.00     0.029 A 
ATOM     67  C   UNL     1      -5.765 -10.857   5.232  1.00  0.00     0.049 A 
ATOM     68  H   UNL     1      -7.436 -11.447   4.080  1.00  0.00     0.167 HD
ATOM     69  C   UNL     1      -4.902 -13.089   4.558  1.00  0.00     0.074 A 
ATOM     70  C   UNL     1      -5.516 -13.271   3.244  1.00  0.00     0.031 C 
ATOM     71  C   UNL     1      -5.017 -12.080   5.474  1.00  0.00     0.034 A 
BRANCH  58  72
ATOM     72  C   UNL     1      -7.973  -9.793   1.552  1.00  0.00     0.023 A 
ATOM     73  C   UNL     1      -9.175 -10.085   2.212  1.00  0.00     0.031 A 
ATOM     74  C   UNL     1      -7.863 -10.288   0.227  1.00  0.00     0.131 A 
ATOM     75  C   UNL     1     -10.140 -10.910   1.614  1.00  0.00     0.055 A 
ATOM     76  C   UNL     1      -8.862 -11.039  -0.393  1.00  0.00     0.041 A 
ATOM     77  F   UNL     1      -6.758 -10.166  -0.516  1.00  0.00    -0.206 F 
ATOM     78  C   UNL     1      -9.996 -11.386   0.314  1.00  0.00     0.022 A 
BRANCH  75  79
ATOM     79  S   UNL     1     -11.494 -11.506   2.651  1.00  0.00     0.124 S 
ATOM     80  O   UNL     1     -10.766 -12.075   3.780  1.00  0.00    -0.237 OA
ATOM     81  O   UNL     1     -12.230 -10.274   2.913  1.00  0.00    -0.237 OA
ATOM     82  O   UNL     1     -12.174 -12.473   1.793  1.00  0.00    -0.744 OA
ENDBRANCH  75  79
ENDBRANCH  58  72
BRANCH  59  83
ATOM     83  C   UNL     1      -1.854 -15.633   1.900  1.00  0.00     0.023 A 
ATOM     84  C   UNL     1      -2.306 -16.938   2.173  1.00  0.00     0.031 A 
ATOM     85  C   UNL     1      -1.117 -15.463   0.702  1.00  0.00     0.131 A 
ATOM     86  C   UNL     1      -2.001 -17.999   1.288  1.00  0.00     0.055 A 
ATOM     87  C   UNL     1      -0.793 -16.519  -0.153  1.00  0.00     0.041 A 
ATOM     88  F   UNL     1      -0.751 -14.248   0.267  1.00  0.00    -0.206 F 
ATOM     89  C   UNL     1      -1.241 -17.795   0.134  1.00  0.00     0.022 A 
BRANCH  86  90
ATOM     90  S   UNL     1      -2.696 -19.657   1.571  1.00  0.00     0.124 S 
ATOM     91  O   UNL     1      -1.908 -20.132   2.702  1.00  0.00    -0.237 OA
ATOM     92  O   UNL     1      -4.101 -19.367   1.834  1.00  0.00    -0.237 OA
ATOM     93  O   UNL     1      -2.443 -20.352   0.308  1.00  0.00    -0.744 OA
ENDBRANCH  86  90
ENDBRANCH  59  83
BRANCH  71  94
ATOM     94  C   UNL     1      -4.133 -12.098   6.709  1.00  0.00     0.023 A 
ATOM     95  C   UNL     1      -2.721 -12.160   6.689  1.00  0.00     0.031 A 
ATOM     96  C   UNL     1      -4.754 -11.890   7.955  1.00  0.00     0.131 A 
ATOM     97  C   UNL     1      -1.989 -12.024   7.886  1.00  0.00     0.055 A 
ATOM     98  C   UNL     1      -4.026 -11.734   9.135  1.00  0.00     0.041 A 
ATOM     99  F   UNL     1      -6.091 -11.790   8.042  1.00  0.00    -0.206 F 
ATOM    100  C   UNL     1      -2.639 -11.806   9.105  1.00  0.00     0.022 A 
BRANCH  97 101
ATOM    101  S   UNL     1      -0.171 -12.135   7.883  1.00  0.00     0.124 S 
ATOM    102  O   UNL     1       0.099 -13.311   7.064  1.00  0.00    -0.237 OA
ATOM    103  O   UNL     1       0.223 -10.850   7.310  1.00  0.00    -0.237 OA
ATOM    104  O   UNL     1       0.162 -12.293   9.300  1.00  0.00    -0.744 OA
ENDBRANCH  97 101
ENDBRANCH  71  94
ENDBRANCH  45  46
ENDBRANCH  38  40
ENDBRANCH  37  38
ENDBRANCH  36  37
ENDBRANCH  35  36
ENDBRANCH  34  35
ENDBRANCH   1  34
TORSDOF 24
