REMARK SMILES O=C(OCCOCCOCCOC(=O)[C@@H]1[C@H](C(=O)Nc2ccccc2Cc2ccccc2)[C@H]2C=C[C@@H]1O2)c1ccc(-c2c3nc(c(-c4cc(S(=O)(=O)[O-])ccc4F)c4ccc([nH]4)c(-c4cc(S(=O)(=O)[O-])ccc4F)c4nc(c(-c5cc(S(=O)(=O)[O-])ccc5F)c5ccc2[nH]5)C=C4)C=C3)cc1
REMARK SMILES IDX 8 1 7 2 6 3 5 4 4 5 3 6 2 7 1 8 38 9 39 10 100 11 40 12
REMARK SMILES IDX 99 13 41 14 42 15 43 16 93 17 44 18 98 19 92 20 94 21 45 22
REMARK SMILES IDX 97 23 91 24 90 25 46 27 78 28 58 29 77 30 59 31 62 32 76 33
REMARK SMILES IDX 95 34 60 35 61 36 75 38 96 39 63 40 47 41 48 42 56 43 49 44
REMARK SMILES IDX 55 45 57 46 54 47 50 48 51 49 52 50 53 51 79 52 80 53 88 54
REMARK SMILES IDX 81 55 87 56 89 57 86 58 82 59 83 60 84 61 85 62 64 63 65 64
REMARK SMILES IDX 73 65 66 66 72 67 74 68 71 69 67 70 68 71 69 72 70 73 9 74
REMARK SMILES IDX 10 75 11 76 12 77 13 78 14 79 15 80 16 81 36 82 33 83 35 84
REMARK SMILES IDX 37 85 34 86 17 87 18 88 19 89 20 91 21 92 25 93 22 94 24 95
REMARK SMILES IDX 23 96 26 97 27 98 28 99 32 100 29 101 31 102 30 103
REMARK H PARENT 94 26 62 37 19 90
REMARK Flexibility Score: inf
ROOT
ATOM      1  C   UNL     1       1.819   1.998   0.999  1.00  0.00     0.188 C 
ENDROOT
BRANCH   1   2
ATOM      2  C   UNL     1       2.479   0.653   0.284  1.00  0.00     0.188 C 
BRANCH   2   3
ATOM      3  O   UNL     1       3.814   0.189   0.415  1.00  0.00    -0.376 OA
BRANCH   3   4
ATOM      4  C   UNL     1       4.822   0.408  -0.563  1.00  0.00     0.202 C 
BRANCH   4   5
ATOM      5  C   UNL     1       4.556  -0.035  -1.986  1.00  0.00     0.261 C 
BRANCH   5   6
ATOM      6  O   UNL     1       3.297  -0.671  -2.287  1.00  0.00    -0.460 OA
BRANCH   6   7
ATOM      7  C   UNL     1       2.645  -1.754  -1.799  1.00  0.00     0.338 C 
ATOM      8  O   UNL     1       1.502  -1.968  -2.205  1.00  0.00    -0.246 OA
BRANCH   7   9
ATOM      9  C   UNL     1       3.216  -2.707  -0.804  1.00  0.00     0.060 A 
ATOM     10  C   UNL     1       4.476  -2.576  -0.264  1.00  0.00     0.016 A 
ATOM     11  C   UNL     1       2.447  -3.742  -0.271  1.00  0.00     0.016 A 
ATOM     12  C   UNL     1       5.103  -3.472   0.549  1.00  0.00     0.010 A 
ATOM     13  C   UNL     1       2.984  -4.590   0.720  1.00  0.00     0.010 A 
ATOM     14  C   UNL     1       4.327  -4.464   1.093  1.00  0.00    -0.014 A 
BRANCH  14  15
ATOM     15  C   UNL     1       5.123  -5.408   1.873  1.00  0.00     0.031 A 
ATOM     16  C   UNL     1       5.898  -6.381   1.044  1.00  0.00     0.074 A 
ATOM     17  C   UNL     1       5.494  -5.107   3.132  1.00  0.00     0.049 A 
ATOM     18  N   UNL     1       6.901  -7.130   1.390  1.00  0.00    -0.248 NA
ATOM     19  C   UNL     1       5.596  -6.389  -0.404  1.00  0.00     0.031 C 
ATOM     20  C   UNL     1       5.090  -3.906   3.869  1.00  0.00     0.029 A 
ATOM     21  N   UNL     1       6.361  -5.736   3.985  1.00  0.00    -0.354 N 
ATOM     22  C   UNL     1       7.384  -7.649   0.201  1.00  0.00     0.074 A 
ATOM     23  C   UNL     1       6.591  -7.114  -0.878  1.00  0.00     0.031 C 
ATOM     24  C   UNL     1       5.682  -3.921   5.075  1.00  0.00     0.029 A 
ATOM     25  C   UNL     1       6.430  -5.151   5.229  1.00  0.00     0.049 A 
ATOM     26  H   UNL     1       6.884  -6.530   3.733  1.00  0.00     0.167 HD
ATOM     27  C   UNL     1       8.392  -8.531   0.043  1.00  0.00     0.034 A 
ATOM     28  C   UNL     1       6.995  -5.601   6.367  1.00  0.00     0.034 A 
ATOM     29  C   UNL     1       9.034  -9.150   1.164  1.00  0.00     0.049 A 
ATOM     30  C   UNL     1       7.820  -6.854   6.231  1.00  0.00     0.074 A 
ATOM     31  C   UNL     1       9.865 -10.249   1.185  1.00  0.00     0.029 A 
ATOM     32  N   UNL     1       8.860  -8.743   2.483  1.00  0.00    -0.354 N 
ATOM     33  N   UNL     1       8.168  -7.479   5.127  1.00  0.00    -0.248 NA
ATOM     34  C   UNL     1       8.345  -7.453   7.458  1.00  0.00     0.031 C 
ATOM     35  C   UNL     1      10.118 -10.563   2.524  1.00  0.00     0.029 A 
ATOM     36  C   UNL     1       9.532  -9.599   3.333  1.00  0.00     0.049 A 
ATOM     37  H   UNL     1       8.335  -7.960   2.769  1.00  0.00     0.167 HD
ATOM     38  C   UNL     1       8.988  -8.524   5.524  1.00  0.00     0.074 A 
ATOM     39  C   UNL     1       9.097  -8.427   6.969  1.00  0.00     0.031 C 
ATOM     40  C   UNL     1       9.600  -9.472   4.770  1.00  0.00     0.034 A 
BRANCH  27  41
ATOM     41  C   UNL     1       8.642  -8.985  -1.363  1.00  0.00     0.023 A 
ATOM     42  C   UNL     1       9.201  -8.128  -2.328  1.00  0.00     0.031 A 
ATOM     43  C   UNL     1       8.149 -10.232  -1.780  1.00  0.00     0.131 A 
ATOM     44  C   UNL     1       9.200  -8.514  -3.676  1.00  0.00     0.055 A 
ATOM     45  C   UNL     1       8.218 -10.638  -3.111  1.00  0.00     0.041 A 
ATOM     46  F   UNL     1       7.536 -11.049  -0.908  1.00  0.00    -0.206 F 
ATOM     47  C   UNL     1       8.738  -9.773  -4.070  1.00  0.00     0.022 A 
BRANCH  44  48
ATOM     48  S   UNL     1       9.662  -7.289  -4.933  1.00  0.00     0.124 S 
ATOM     49  O   UNL     1       8.597  -6.300  -4.786  1.00  0.00    -0.237 OA
ATOM     50  O   UNL     1      10.988  -6.868  -4.496  1.00  0.00    -0.237 OA
ATOM     51  O   UNL     1       9.630  -8.051  -6.180  1.00  0.00    -0.744 OA
ENDBRANCH  44  48
ENDBRANCH  27  41
BRANCH  28  52
ATOM     52  C   UNL     1       6.707  -4.995   7.709  1.00  0.00     0.023 A 
ATOM     53  C   UNL     1       7.727  -4.630   8.604  1.00  0.00     0.031 A 
ATOM     54  C   UNL     1       5.380  -4.932   8.187  1.00  0.00     0.131 A 
ATOM     55  C   UNL     1       7.414  -4.298   9.938  1.00  0.00     0.055 A 
ATOM     56  C   UNL     1       5.071  -4.542   9.494  1.00  0.00     0.041 A 
ATOM     57  F   UNL     1       4.353  -5.287   7.400  1.00  0.00    -0.206 F 
ATOM     58  C   UNL     1       6.093  -4.243  10.385  1.00  0.00     0.022 A 
BRANCH  55  59
ATOM     59  S   UNL     1       8.771  -4.091  11.129  1.00  0.00     0.124 S 
ATOM     60  O   UNL     1       9.504  -5.341  10.962  1.00  0.00    -0.237 OA
ATOM     61  O   UNL     1       9.428  -2.889  10.627  1.00  0.00    -0.237 OA
ATOM     62  O   UNL     1       8.082  -3.937  12.408  1.00  0.00    -0.744 OA
ENDBRANCH  55  59
ENDBRANCH  28  52
BRANCH  40  63
ATOM     63  C   UNL     1      10.472 -10.446   5.508  1.00  0.00     0.023 A 
ATOM     64  C   UNL     1       9.937 -11.339   6.447  1.00  0.00     0.031 A 
ATOM     65  C   UNL     1      11.857 -10.462   5.277  1.00  0.00     0.131 A 
ATOM     66  C   UNL     1      10.797 -12.156   7.187  1.00  0.00     0.055 A 
ATOM     67  C   UNL     1      12.697 -11.344   5.951  1.00  0.00     0.041 A 
ATOM     68  F   UNL     1      12.414  -9.622   4.389  1.00  0.00    -0.206 F 
ATOM     69  C   UNL     1      12.170 -12.184   6.928  1.00  0.00     0.022 A 
BRANCH  66  70
ATOM     70  S   UNL     1      10.109 -13.075   8.587  1.00  0.00     0.124 S 
ATOM     71  O   UNL     1       9.550 -12.003   9.404  1.00  0.00    -0.237 OA
ATOM     72  O   UNL     1       9.140 -13.953   7.939  1.00  0.00    -0.237 OA
ATOM     73  O   UNL     1      11.274 -13.749   9.157  1.00  0.00    -0.744 OA
ENDBRANCH  66  70
ENDBRANCH  40  63
ENDBRANCH  14  15
ENDBRANCH   7   9
ENDBRANCH   6   7
ENDBRANCH   5   6
ENDBRANCH   4   5
ENDBRANCH   3   4
ENDBRANCH   2   3
ENDBRANCH   1   2
BRANCH   1  74
ATOM     74  O   UNL     1       2.542   3.504   2.120  1.00  0.00    -0.376 OA
BRANCH  74  75
ATOM     75  C   UNL     1       3.581   3.939   3.181  1.00  0.00     0.202 C 
BRANCH  75  76
ATOM     76  C   UNL     1       3.499   3.610   4.737  1.00  0.00     0.261 C 
BRANCH  76  77
ATOM     77  O   UNL     1       3.290   2.228   5.172  1.00  0.00    -0.463 OA
BRANCH  77  78
ATOM     78  C   UNL     1       2.237   1.815   5.926  1.00  0.00     0.312 C 
ATOM     79  O   UNL     1       1.441   2.607   6.425  1.00  0.00    -0.252 OA
BRANCH  78  80
ATOM     80  C   UNL     1       2.066   0.258   6.136  1.00  0.00     0.147 C 
ATOM     81  C   UNL     1       3.117  -0.298   7.095  1.00  0.00     0.129 C 
ATOM     82  C   UNL     1       2.053  -0.903   5.082  1.00  0.00     0.157 C 
ATOM     83  C   UNL     1       3.442  -1.682   6.566  1.00  0.00     0.155 C 
ATOM     84  C   UNL     1       1.428  -2.161   5.622  1.00  0.00     0.004 C 
ATOM     85  O   UNL     1       3.427  -1.395   5.157  1.00  0.00    -0.365 OA
ATOM     86  C   UNL     1       2.266  -2.617   6.565  1.00  0.00     0.004 C 
BRANCH  81  87
ATOM     87  C   UNL     1       4.312   0.611   7.240  1.00  0.00     0.231 C 
ATOM     88  O   UNL     1       4.380   1.237   8.315  1.00  0.00    -0.274 OA
ATOM     89  N   UNL     1       5.307   0.906   6.368  1.00  0.00    -0.325 N 
ATOM     90  H   UNL     1       5.802   1.690   6.697  1.00  0.00     0.169 HD
BRANCH  89  91
ATOM     91  C   UNL     1       5.883   0.473   5.140  1.00  0.00     0.044 A 
ATOM     92  C   UNL     1       7.248   0.155   5.384  1.00  0.00     0.026 A 
ATOM     93  C   UNL     1       5.396   0.362   3.796  1.00  0.00    -0.020 A 
ATOM     94  C   UNL     1       8.081  -0.409   4.428  1.00  0.00     0.002 A 
ATOM     95  C   UNL     1       6.278  -0.240   2.862  1.00  0.00     0.006 A 
ATOM     96  C   UNL     1       7.579  -0.643   3.168  1.00  0.00     0.000 A 
BRANCH  93  97
ATOM     97  C   UNL     1       3.990   0.548   3.223  1.00  0.00     0.073 C 
BRANCH  97  98
ATOM     98  C   UNL     1       3.277   1.719   2.532  1.00  0.00    -0.044 A 
ATOM     99  C   UNL     1       1.598   2.158   3.138  1.00  0.00     0.004 A 
ATOM    100  C   UNL     1       3.898   2.622   1.067  1.00  0.00     0.004 A 
ATOM    101  C   UNL     1       0.613   3.430   2.313  1.00  0.00     0.000 A 
ATOM    102  C   UNL     1       2.861   3.826   0.217  1.00  0.00     0.000 A 
ATOM    103  C   UNL     1       1.239   4.242   0.857  1.00  0.00     0.000 A 
ENDBRANCH  97  98
ENDBRANCH  93  97
ENDBRANCH  89  91
ENDBRANCH  81  87
ENDBRANCH  78  80
ENDBRANCH  77  78
ENDBRANCH  76  77
ENDBRANCH  75  76
ENDBRANCH  74  75
ENDBRANCH   1  74
TORSDOF 24
