REMARK SMILES Cc1ccc(-c2cc(Cl)cc3c2O[C@@H](C(F)(F)F)C(C(=O)OCCOCCOCCOC(=O)c2ccc(-c4c5nc(c(-c6cc(S(=O)(=O)[O-])ccc6F)c6ccc([nH]6)c(-c6cc(S(=O)(=O)[O-])ccc6F)c6nc(c(-c7cc(S(=O)(=O)[O-])ccc7F)c7ccc4[nH]7)C=C6)C=C5)cc2)=C3)cc1
REMARK SMILES IDX 27 1 26 2 25 3 24 4 23 5 22 6 20 7 21 8 19 9 6 10 7 11 12 12
REMARK SMILES IDX 8 13 11 14 13 15 9 16 10 17 97 18 14 19 5 20 1 21 2 22 3 23
REMARK SMILES IDX 99 24 4 25 98 26 15 27 16 28 17 29 18 30 28 31 29 32 30 33
REMARK SMILES IDX 31 34 32 35 33 36 34 37 35 38 96 39 36 40 95 41 37 42 38 43
REMARK SMILES IDX 39 44 89 45 40 46 94 47 88 48 90 49 41 50 93 51 87 52 86 53
REMARK SMILES IDX 42 55 74 56 54 57 73 58 55 59 58 60 72 61 91 62 56 63 57 64
REMARK SMILES IDX 71 66 92 67 59 68 43 69 44 70 52 71 45 72 51 73 53 74 50 75
REMARK SMILES IDX 46 76 47 77 48 78 49 79 75 80 76 81 84 82 77 83 83 84 85 85
REMARK SMILES IDX 82 86 78 87 79 88 80 89 81 90 60 91 61 92 69 93 62 94 68 95
REMARK SMILES IDX 70 96 67 97 63 98 64 99 65 100 66 101
REMARK H PARENT 90 54 58 65
REMARK Flexibility Score: inf
ROOT
ATOM      1  C   UNL     1      -0.805  -4.796   1.696  1.00  0.00     0.188 C 
ENDROOT
BRANCH   1   2
ATOM      2  C   UNL     1      -0.574  -3.501   2.432  1.00  0.00     0.188 C 
BRANCH   2   3
ATOM      3  O   UNL     1      -0.467  -3.614   3.852  1.00  0.00    -0.376 OA
BRANCH   3   4
ATOM      4  C   UNL     1      -1.398  -3.562   4.970  1.00  0.00     0.202 C 
BRANCH   4   5
ATOM      5  C   UNL     1      -3.172  -3.428   5.456  1.00  0.00     0.261 C 
BRANCH   5   6
ATOM      6  O   UNL     1      -4.671  -2.489   4.666  1.00  0.00    -0.460 OA
BRANCH   6   7
ATOM      7  C   UNL     1      -5.167  -0.980   4.172  1.00  0.00     0.338 C 
ATOM      8  O   UNL     1      -4.544   0.052   4.454  1.00  0.00    -0.246 OA
BRANCH   7   9
ATOM      9  C   UNL     1      -6.366  -0.481   3.316  1.00  0.00     0.087 C 
ATOM     10  C   UNL     1      -4.828   0.602  -0.529  1.00  0.00     0.026 A 
ATOM     11  C   UNL     1      -5.618   1.310  -1.404  1.00  0.00     0.033 A 
ATOM     12  C   UNL     1      -5.544   0.285   0.812  1.00  0.00     0.135 A 
ATOM     13  C   UNL     1      -6.855   1.785  -0.920  1.00  0.00     0.042 A 
ATOM     14  C   UNL     1      -6.460   1.109   1.426  1.00  0.00     0.019 A 
ATOM     15  O   UNL     1      -6.240  -1.159   1.009  1.00  0.00    -0.475 OA
ATOM     16  Cl  UNL     1      -7.978   2.393  -2.090  1.00  0.00    -0.084 Cl
ATOM     17  C   UNL     1      -7.234   1.776   0.477  1.00  0.00     0.032 A 
ATOM     18  C   UNL     1      -6.554   0.843   2.936  1.00  0.00     0.027 C 
ATOM     19  C   UNL     1      -7.010  -1.306   2.296  1.00  0.00     0.316 C 
BRANCH  10  20
ATOM     20  C   UNL     1      -3.040   0.571  -0.835  1.00  0.00    -0.015 A 
ATOM     21  C   UNL     1       2.029   1.583  -0.575  1.00  0.00     0.044 C 
ATOM     22  C   UNL     1       0.543   1.345  -0.494  1.00  0.00    -0.051 A 
ATOM     23  C   UNL     1       0.113  -0.316  -0.169  1.00  0.00     0.004 A 
ATOM     24  C   UNL     1      -0.662   2.573  -0.972  1.00  0.00     0.004 A 
ATOM     25  C   UNL     1      -1.611  -0.786  -0.300  1.00  0.00     0.009 A 
ATOM     26  C   UNL     1      -2.414   2.245  -1.156  1.00  0.00     0.009 A 
ENDBRANCH  10  20
BRANCH  19  27
ATOM     27  C   UNL     1      -7.460  -2.580   3.050  1.00  0.00     0.430 C 
ATOM     28  F   UNL     1      -7.743  -2.273   4.362  1.00  0.00    -0.167 F 
ATOM     29  F   UNL     1      -8.625  -3.069   2.565  1.00  0.00    -0.167 F 
ATOM     30  F   UNL     1      -6.571  -3.577   3.083  1.00  0.00    -0.167 F 
ENDBRANCH  19  27
ENDBRANCH   7   9
ENDBRANCH   6   7
ENDBRANCH   5   6
ENDBRANCH   4   5
ENDBRANCH   3   4
ENDBRANCH   2   3
ENDBRANCH   1   2
BRANCH   1  31
ATOM     31  O   UNL     1      -1.359  -5.675   2.650  1.00  0.00    -0.376 OA
BRANCH  31  32
ATOM     32  C   UNL     1      -0.965  -7.014   2.530  1.00  0.00     0.202 C 
BRANCH  32  33
ATOM     33  C   UNL     1      -1.628  -7.673   1.323  1.00  0.00     0.261 C 
BRANCH  33  34
ATOM     34  O   UNL     1      -3.070  -7.664   1.446  1.00  0.00    -0.460 OA
BRANCH  34  35
ATOM     35  C   UNL     1      -3.694  -6.742   0.648  1.00  0.00     0.338 C 
ATOM     36  O   UNL     1      -3.893  -6.881  -0.543  1.00  0.00    -0.246 OA
BRANCH  35  37
ATOM     37  C   UNL     1      -3.968  -5.523   1.433  1.00  0.00     0.060 A 
ATOM     38  C   UNL     1      -4.066  -4.236   0.958  1.00  0.00     0.016 A 
ATOM     39  C   UNL     1      -4.114  -5.601   2.771  1.00  0.00     0.016 A 
ATOM     40  C   UNL     1      -3.822  -3.100   1.868  1.00  0.00     0.010 A 
ATOM     41  C   UNL     1      -3.861  -4.420   3.489  1.00  0.00     0.010 A 
ATOM     42  C   UNL     1      -3.286  -3.106   3.108  1.00  0.00    -0.014 A 
BRANCH  42  43
ATOM     43  C   UNL     1      -2.675  -1.631   4.110  1.00  0.00     0.031 A 
ATOM     44  C   UNL     1      -3.265  -1.145   5.833  1.00  0.00     0.074 A 
ATOM     45  C   UNL     1      -1.575  -0.840   3.818  1.00  0.00     0.049 A 
ATOM     46  N   UNL     1      -2.975  -0.061   6.488  1.00  0.00    -0.248 NA
ATOM     47  C   UNL     1      -4.466  -1.806   6.731  1.00  0.00     0.031 C 
ATOM     48  C   UNL     1      -0.835   0.060   4.725  1.00  0.00     0.029 A 
ATOM     49  N   UNL     1      -0.842  -0.629   2.634  1.00  0.00    -0.354 N 
ATOM     50  C   UNL     1      -3.709  -0.029   7.677  1.00  0.00     0.074 A 
ATOM     51  C   UNL     1      -4.779  -0.927   7.642  1.00  0.00     0.031 C 
ATOM     52  C   UNL     1      -0.066   0.908   4.014  1.00  0.00     0.029 A 
ATOM     53  C   UNL     1      -0.425   0.726   2.621  1.00  0.00     0.049 A 
ATOM     54  H   UNL     1      -0.653  -1.301   1.940  1.00  0.00     0.167 HD
ATOM     55  C   UNL     1      -3.248   0.648   8.740  1.00  0.00     0.034 A 
ATOM     56  C   UNL     1      -0.929   1.665   1.746  1.00  0.00     0.034 A 
ATOM     57  C   UNL     1      -2.391   1.694   8.240  1.00  0.00     0.049 A 
ATOM     58  C   UNL     1      -1.555   2.852   2.572  1.00  0.00     0.074 A 
ATOM     59  C   UNL     1      -1.035   1.882   8.100  1.00  0.00     0.029 A 
ATOM     60  N   UNL     1      -2.987   2.546   7.335  1.00  0.00    -0.354 N 
ATOM     61  N   UNL     1      -1.548   2.951   3.885  1.00  0.00    -0.248 NA
ATOM     62  C   UNL     1      -2.268   3.990   1.989  1.00  0.00     0.031 C 
ATOM     63  C   UNL     1      -0.849   2.864   7.067  1.00  0.00     0.029 A 
ATOM     64  C   UNL     1      -2.090   3.291   6.621  1.00  0.00     0.049 A 
ATOM     65  H   UNL     1      -3.962   2.612   7.215  1.00  0.00     0.167 HD
ATOM     66  C   UNL     1      -2.343   3.990   4.317  1.00  0.00     0.074 A 
ATOM     67  C   UNL     1      -2.742   4.634   3.077  1.00  0.00     0.031 C 
ATOM     68  C   UNL     1      -2.657   4.213   5.640  1.00  0.00     0.034 A 
BRANCH  55  69
ATOM     69  C   UNL     1      -3.427   0.172  10.164  1.00  0.00     0.023 A 
ATOM     70  C   UNL     1      -2.656   0.862  11.100  1.00  0.00     0.031 A 
ATOM     71  C   UNL     1      -4.106  -0.974  10.677  1.00  0.00     0.131 A 
ATOM     72  C   UNL     1      -2.510   0.400  12.414  1.00  0.00     0.055 A 
ATOM     73  C   UNL     1      -3.997  -1.406  12.006  1.00  0.00     0.041 A 
ATOM     74  F   UNL     1      -4.874  -1.790   9.945  1.00  0.00    -0.206 F 
ATOM     75  C   UNL     1      -3.173  -0.730  12.881  1.00  0.00     0.022 A 
BRANCH  72  76
ATOM     76  S   UNL     1      -1.363   1.292  13.476  1.00  0.00     0.124 S 
ATOM     77  O   UNL     1      -0.093   1.081  12.787  1.00  0.00    -0.237 OA
ATOM     78  O   UNL     1      -1.907   2.645  13.436  1.00  0.00    -0.237 OA
ATOM     79  O   UNL     1      -1.493   0.608  14.760  1.00  0.00    -0.744 OA
ENDBRANCH  72  76
ENDBRANCH  55  69
BRANCH  56  80
ATOM     80  C   UNL     1      -1.595   0.988   0.395  1.00  0.00     0.023 A 
ATOM     81  C   UNL     1      -1.240   0.549  -1.555  1.00  0.00     0.031 A 
ATOM     82  C   UNL     1      -2.876  -0.021   1.147  1.00  0.00     0.131 A 
ATOM     83  C   UNL     1      -2.117  -0.770  -2.383  1.00  0.00     0.055 A 
ATOM     84  C   UNL     1      -3.621  -1.298   0.122  1.00  0.00     0.041 A 
ATOM     85  F   UNL     1      -3.451   0.428   2.266  1.00  0.00    -0.206 F 
ATOM     86  C   UNL     1      -3.282  -1.629  -1.538  1.00  0.00     0.022 A 
BRANCH  83  87
ATOM     87  S   UNL     1      -1.231  -1.834  -3.578  1.00  0.00     0.124 S 
ATOM     88  O   UNL     1      -1.058  -0.949  -4.721  1.00  0.00    -0.237 OA
ATOM     89  O   UNL     1      -0.018  -2.202  -2.849  1.00  0.00    -0.237 OA
ATOM     90  O   UNL     1      -2.168  -2.940  -3.780  1.00  0.00    -0.744 OA
ENDBRANCH  83  87
ENDBRANCH  56  80
BRANCH  68  91
ATOM     91  C   UNL     1      -3.573   5.324   6.183  1.00  0.00     0.023 A 
ATOM     92  C   UNL     1      -3.555   6.610   5.638  1.00  0.00     0.031 A 
ATOM     93  C   UNL     1      -4.377   5.185   7.358  1.00  0.00     0.131 A 
ATOM     94  C   UNL     1      -4.296   7.658   6.228  1.00  0.00     0.055 A 
ATOM     95  C   UNL     1      -5.019   6.247   7.999  1.00  0.00     0.041 A 
ATOM     96  F   UNL     1      -4.644   4.000   7.923  1.00  0.00    -0.206 F 
ATOM     97  C   UNL     1      -4.988   7.500   7.428  1.00  0.00     0.022 A 
BRANCH  94  98
ATOM     98  S   UNL     1      -4.383   9.241   5.363  1.00  0.00     0.124 S 
ATOM     99  O   UNL     1      -2.976   9.558   5.143  1.00  0.00    -0.237 OA
ATOM    100  O   UNL     1      -5.148   8.880   4.172  1.00  0.00    -0.237 OA
ATOM    101  O   UNL     1      -5.080  10.114   6.305  1.00  0.00    -0.744 OA
ENDBRANCH  94  98
ENDBRANCH  68  91
ENDBRANCH  42  43
ENDBRANCH  35  37
ENDBRANCH  34  35
ENDBRANCH  33  34
ENDBRANCH  32  33
ENDBRANCH  31  32
ENDBRANCH   1  31
TORSDOF 22
