REMARK SMILES N#Cc1ccc(/C=C/C(=O)N[C@H]2C=C[C@H](C(=O)OCCOCCOCCOC(=O)c3ccc(-c4c5nc(c(-c6cc(S(=O)(=O)[O-])ccc6F)c6ccc([nH]6)c(-c6cc(S(=O)(=O)[O-])ccc6F)c6nc(c(-c7cc(S(=O)(=O)[O-])ccc7F)c7ccc4[nH]7)C=C6)C=C5)cc3)C2)cc1
REMARK SMILES IDX 22 1 21 2 20 3 19 4 18 5 16 6 17 7 15 8 12 9 13 10 93 11
REMARK SMILES IDX 14 12 11 13 9 14 10 15 8 17 7 18 6 19 3 20 4 21 95 22 5 23
REMARK SMILES IDX 94 24 2 25 1 26 23 27 24 28 25 29 26 30 27 31 28 32 29 33
REMARK SMILES IDX 30 34 31 35 92 36 32 37 91 38 33 39 34 40 35 41 85 42 36 43
REMARK SMILES IDX 90 44 84 45 86 46 37 47 89 48 83 49 82 50 38 52 70 53 50 54
REMARK SMILES IDX 69 55 51 56 54 57 68 58 87 59 52 60 53 61 67 63 88 64 55 65
REMARK SMILES IDX 39 66 40 67 48 68 41 69 47 70 49 71 46 72 42 73 43 74 44 75
REMARK SMILES IDX 45 76 71 77 72 78 80 79 73 80 79 81 81 82 78 83 74 84 75 85
REMARK SMILES IDX 76 86 77 87 56 88 57 89 65 90 58 91 64 92 66 93 63 94 59 95
REMARK SMILES IDX 60 96 61 97 62 98
REMARK H PARENT 11 16 86 51 54 62
REMARK Flexibility Score: inf
ROOT
ATOM      1  C   UNL     1       2.376  -2.385   2.993  1.00  0.00     0.188 C 
ENDROOT
BRANCH   1   2
ATOM      2  O   UNL     1       1.062  -2.865   2.813  1.00  0.00    -0.376 OA
BRANCH   2   3
ATOM      3  C   UNL     1       0.861  -4.098   2.140  1.00  0.00     0.202 C 
BRANCH   3   4
ATOM      4  C   UNL     1       1.926  -4.815   1.278  1.00  0.00     0.261 C 
BRANCH   4   5
ATOM      5  O   UNL     1       3.301  -4.651   1.665  1.00  0.00    -0.463 OA
BRANCH   5   6
ATOM      6  C   UNL     1       4.163  -4.176   0.715  1.00  0.00     0.312 C 
ATOM      7  O   UNL     1       3.844  -3.942  -0.443  1.00  0.00    -0.252 OA
BRANCH   6   8
ATOM      8  C   UNL     1       5.531  -3.826   1.332  1.00  0.00     0.124 C 
ATOM      9  C   UNL     1       6.133  -1.837   0.119  1.00  0.00     0.106 C 
ATOM     10  C   UNL     1       7.098  -2.932  -0.194  1.00  0.00    -0.006 C 
ATOM     11  C   UNL     1       5.665  -2.308   1.498  1.00  0.00     0.048 C 
ATOM     12  C   UNL     1       6.708  -4.064   0.419  1.00  0.00    -0.014 C 
BRANCH   9  13
ATOM     13  N   UNL     1       6.687  -0.523   0.167  1.00  0.00    -0.346 N 
ATOM     14  C   UNL     1       6.054   0.677   0.036  1.00  0.00     0.244 C 
ATOM     15  O   UNL     1       6.730   1.696   0.171  1.00  0.00    -0.270 OA
ATOM     16  H   UNL     1       7.659  -0.477   0.316  1.00  0.00     0.164 HD
BRANCH  14  17
ATOM     17  C   UNL     1       4.590   0.835  -0.272  1.00  0.00     0.072 C 
ATOM     18  C   UNL     1       3.582  -0.037  -0.119  1.00  0.00     0.014 C 
BRANCH  18  19
ATOM     19  C   UNL     1       2.123   0.119  -0.280  1.00  0.00    -0.025 A 
ATOM     20  C   UNL     1      -0.700   0.172  -0.171  1.00  0.00     0.052 A 
ATOM     21  C   UNL     1       0.032   1.361  -0.152  1.00  0.00     0.020 A 
ATOM     22  C   UNL     1      -0.027  -1.042  -0.288  1.00  0.00     0.020 A 
ATOM     23  C   UNL     1       1.434   1.331  -0.214  1.00  0.00     0.009 A 
ATOM     24  C   UNL     1       1.368  -1.064  -0.346  1.00  0.00     0.009 A 
BRANCH  20  25
ATOM     25  C   UNL     1      -2.131   0.181  -0.060  1.00  0.00     0.099 C 
ATOM     26  N   UNL     1      -3.285   0.144   0.031  1.00  0.00    -0.192 NA
ENDBRANCH  20  25
ENDBRANCH  18  19
ENDBRANCH  14  17
ENDBRANCH   9  13
ENDBRANCH   6   8
ENDBRANCH   5   6
ENDBRANCH   4   5
ENDBRANCH   3   4
ENDBRANCH   2   3
ENDBRANCH   1   2
BRANCH   1  27
ATOM     27  C   UNL     1       3.265  -3.099   4.031  1.00  0.00     0.188 C 
BRANCH  27  28
ATOM     28  O   UNL     1       2.834  -4.339   4.539  1.00  0.00    -0.376 OA
BRANCH  28  29
ATOM     29  C   UNL     1       1.721  -4.377   5.415  1.00  0.00     0.202 C 
BRANCH  29  30
ATOM     30  C   UNL     1       1.122  -3.165   6.167  1.00  0.00     0.261 C 
BRANCH  30  31
ATOM     31  O   UNL     1       1.424  -1.840   5.711  1.00  0.00    -0.460 OA
BRANCH  31  32
ATOM     32  C   UNL     1       2.379  -1.179   6.417  1.00  0.00     0.338 C 
ATOM     33  O   UNL     1       3.014  -1.613   7.362  1.00  0.00    -0.246 OA
BRANCH  32  34
ATOM     34  C   UNL     1       2.687   0.101   5.740  1.00  0.00     0.060 A 
ATOM     35  C   UNL     1       3.925   0.262   5.099  1.00  0.00     0.016 A 
ATOM     36  C   UNL     1       1.782   1.159   5.793  1.00  0.00     0.016 A 
ATOM     37  C   UNL     1       4.268   1.489   4.524  1.00  0.00     0.010 A 
ATOM     38  C   UNL     1       2.139   2.396   5.241  1.00  0.00     0.010 A 
ATOM     39  C   UNL     1       3.394   2.578   4.629  1.00  0.00    -0.014 A 
BRANCH  39  40
ATOM     40  C   UNL     1       3.845   3.945   4.250  1.00  0.00     0.031 A 
ATOM     41  C   UNL     1       4.263   4.897   5.329  1.00  0.00     0.074 A 
ATOM     42  C   UNL     1       3.883   4.347   2.967  1.00  0.00     0.049 A 
ATOM     43  N   UNL     1       4.604   6.155   5.233  1.00  0.00    -0.248 NA
ATOM     44  C   UNL     1       4.282   4.363   6.697  1.00  0.00     0.031 C 
ATOM     45  C   UNL     1       3.547   3.501   1.833  1.00  0.00     0.029 A 
ATOM     46  N   UNL     1       4.215   5.554   2.398  1.00  0.00    -0.354 N 
ATOM     47  C   UNL     1       4.863   6.574   6.531  1.00  0.00     0.074 A 
ATOM     48  C   UNL     1       4.600   5.441   7.396  1.00  0.00     0.031 C 
ATOM     49  C   UNL     1       3.702   4.210   0.704  1.00  0.00     0.029 A 
ATOM     50  C   UNL     1       4.099   5.570   1.027  1.00  0.00     0.049 A 
ATOM     51  H   UNL     1       4.508   6.333   2.923  1.00  0.00     0.167 HD
ATOM     52  C   UNL     1       5.283   7.791   6.955  1.00  0.00     0.034 A 
ATOM     53  C   UNL     1       4.268   6.557   0.123  1.00  0.00     0.034 A 
ATOM     54  C   UNL     1       5.520   8.912   6.077  1.00  0.00     0.049 A 
ATOM     55  C   UNL     1       4.646   7.925   0.627  1.00  0.00     0.074 A 
ATOM     56  C   UNL     1       5.950  10.185   6.408  1.00  0.00     0.029 A 
ATOM     57  N   UNL     1       5.334   8.906   4.699  1.00  0.00    -0.354 N 
ATOM     58  N   UNL     1       4.878   8.310   1.861  1.00  0.00    -0.248 NA
ATOM     59  C   UNL     1       4.778   8.991  -0.373  1.00  0.00     0.031 C 
ATOM     60  C   UNL     1       5.932  10.971   5.252  1.00  0.00     0.029 A 
ATOM     61  C   UNL     1       5.598  10.164   4.176  1.00  0.00     0.049 A 
ATOM     62  H   UNL     1       5.057   8.123   4.171  1.00  0.00     0.167 HD
ATOM     63  C   UNL     1       5.217   9.656   1.778  1.00  0.00     0.074 A 
ATOM     64  C   UNL     1       5.175  10.010   0.374  1.00  0.00     0.031 C 
ATOM     65  C   UNL     1       5.537  10.518   2.776  1.00  0.00     0.034 A 
BRANCH  52  66
ATOM     66  C   UNL     1       5.442   7.979   8.443  1.00  0.00     0.023 A 
ATOM     67  C   UNL     1       6.358   7.220   9.193  1.00  0.00     0.031 A 
ATOM     68  C   UNL     1       4.630   8.897   9.132  1.00  0.00     0.131 A 
ATOM     69  C   UNL     1       6.375   7.328  10.591  1.00  0.00     0.055 A 
ATOM     70  C   UNL     1       4.723   9.072  10.513  1.00  0.00     0.041 A 
ATOM     71  F   UNL     1       3.715   9.629   8.475  1.00  0.00    -0.206 F 
ATOM     72  C   UNL     1       5.587   8.271  11.254  1.00  0.00     0.022 A 
BRANCH  69  73
ATOM     73  S   UNL     1       7.307   6.095  11.539  1.00  0.00     0.124 S 
ATOM     74  O   UNL     1       6.694   4.849  11.084  1.00  0.00    -0.237 OA
ATOM     75  O   UNL     1       8.678   6.329  11.101  1.00  0.00    -0.237 OA
ATOM     76  O   UNL     1       7.025   6.447  12.929  1.00  0.00    -0.744 OA
ENDBRANCH  69  73
ENDBRANCH  52  66
BRANCH  53  77
ATOM     77  C   UNL     1       4.052   6.316  -1.339  1.00  0.00     0.023 A 
ATOM     78  C   UNL     1       5.085   6.525  -2.270  1.00  0.00     0.031 A 
ATOM     79  C   UNL     1       2.794   5.930  -1.839  1.00  0.00     0.131 A 
ATOM     80  C   UNL     1       4.828   6.401  -3.646  1.00  0.00     0.055 A 
ATOM     81  C   UNL     1       2.564   5.737  -3.203  1.00  0.00     0.041 A 
ATOM     82  F   UNL     1       1.764   5.719  -1.003  1.00  0.00    -0.206 F 
ATOM     83  C   UNL     1       3.581   5.988  -4.117  1.00  0.00     0.022 A 
BRANCH  80  84
ATOM     84  S   UNL     1       6.113   6.910  -4.824  1.00  0.00     0.124 S 
ATOM     85  O   UNL     1       6.343   8.295  -4.429  1.00  0.00    -0.237 OA
ATOM     86  O   UNL     1       7.189   5.970  -4.529  1.00  0.00    -0.237 OA
ATOM     87  O   UNL     1       5.471   6.731  -6.124  1.00  0.00    -0.744 OA
ENDBRANCH  80  84
ENDBRANCH  53  77
BRANCH  65  88
ATOM     88  C   UNL     1       5.917  11.923   2.374  1.00  0.00     0.023 A 
ATOM     89  C   UNL     1       5.003  12.793   1.754  1.00  0.00     0.031 A 
ATOM     90  C   UNL     1       7.224  12.391   2.599  1.00  0.00     0.131 A 
ATOM     91  C   UNL     1       5.426  14.059   1.323  1.00  0.00     0.055 A 
ATOM     92  C   UNL     1       7.616  13.681   2.240  1.00  0.00     0.041 A 
ATOM     93  F   UNL     1       8.143  11.602   3.178  1.00  0.00    -0.206 F 
ATOM     94  C   UNL     1       6.719  14.518   1.584  1.00  0.00     0.022 A 
BRANCH  91  95
ATOM     95  S   UNL     1       4.297  15.056   0.311  1.00  0.00     0.124 S 
ATOM     96  O   UNL     1       4.040  14.168  -0.818  1.00  0.00    -0.237 OA
ATOM     97  O   UNL     1       3.175  15.276   1.218  1.00  0.00    -0.237 OA
ATOM     98  O   UNL     1       5.082  16.249  -0.003  1.00  0.00    -0.744 OA
ENDBRANCH  91  95
ENDBRANCH  65  88
ENDBRANCH  39  40
ENDBRANCH  32  34
ENDBRANCH  31  32
ENDBRANCH  30  31
ENDBRANCH  29  30
ENDBRANCH  28  29
ENDBRANCH  27  28
ENDBRANCH   1  27
TORSDOF 24
