REMARK SMILES Cc1cccc(CC(=O)N2CCC3(CCC(=O)N([C@H](C)C(=O)OCCOCCOCCOC(=O)c4ccc(-c5c6nc(c(-c7cc(S(=O)(=O)[O-])ccc7F)c7ccc([nH]7)c(-c7cc(S(=O)(=O)[O-])ccc7F)c7nc(c(-c8cc(S(=O)(=O)[O-])ccc8F)c8ccc5[nH]8)C=C7)C=C6)cc4)C3)CC2)c1
REMARK SMILES IDX 27 1 26 2 25 3 24 4 23 5 21 6 22 7 19 8 20 9 18 10 8 11 9 12
REMARK SMILES IDX 10 13 11 14 100 15 12 16 99 17 13 18 14 19 98 20 15 21 16 22
REMARK SMILES IDX 17 23 7 24 6 25 1 26 2 27 3 28 101 29 4 30 5 31 28 32 29 33
REMARK SMILES IDX 30 34 31 35 32 36 33 37 34 38 35 39 36 40 97 41 37 42 96 43
REMARK SMILES IDX 38 44 39 45 40 46 90 47 41 48 95 49 89 50 91 51 42 52 94 53
REMARK SMILES IDX 88 54 87 55 43 57 75 58 55 59 74 60 56 61 59 62 73 63 92 64
REMARK SMILES IDX 57 65 58 66 72 68 93 69 60 70 44 71 45 72 53 73 46 74 52 75
REMARK SMILES IDX 54 76 51 77 47 78 48 79 49 80 50 81 76 82 77 83 85 84 78 85
REMARK SMILES IDX 84 86 86 87 83 88 79 89 80 90 81 91 82 92 61 93 62 94 70 95
REMARK SMILES IDX 63 96 69 97 71 98 68 99 64 100 65 101 66 102 67 103
REMARK H PARENT 91 56 59 67
REMARK Flexibility Score: inf
ROOT
ATOM      1  C   UNL     1      -3.760   5.431  -6.649  1.00  0.00     0.188 C 
ENDROOT
BRANCH   1   2
ATOM      2  O   UNL     1      -4.515   6.536  -7.084  1.00  0.00    -0.376 OA
BRANCH   2   3
ATOM      3  C   UNL     1      -4.197   7.299  -8.274  1.00  0.00     0.202 C 
BRANCH   3   4
ATOM      4  C   UNL     1      -2.745   8.042  -8.980  1.00  0.00     0.261 C 
BRANCH   4   5
ATOM      5  O   UNL     1      -1.299   8.865  -8.198  1.00  0.00    -0.462 OA
BRANCH   5   6
ATOM      6  C   UNL     1       0.017   8.813  -7.449  1.00  0.00     0.328 C 
ATOM      7  O   UNL     1       0.445   9.803  -6.836  1.00  0.00    -0.250 OA
BRANCH   6   8
ATOM      8  C   UNL     1       1.204   7.592  -7.264  1.00  0.00     0.192 C 
ATOM      9  C   UNL     1       1.459   6.092  -6.964  1.00  0.00     0.044 C 
BRANCH   8  10
ATOM     10  N   UNL     1       2.368   7.987  -8.062  1.00  0.00    -0.329 N 
ATOM     11  C   UNL     1       8.141   5.186  -7.015  1.00  0.00     0.226 C 
ATOM     12  O   UNL     1       8.321   3.989  -6.763  1.00  0.00    -0.275 OA
ATOM     13  N   UNL     1       7.112   5.586  -7.842  1.00  0.00    -0.342 N 
ATOM     14  C   UNL     1       5.886   4.809  -7.820  1.00  0.00     0.120 C 
ATOM     15  C   UNL     1       7.047   6.822  -8.615  1.00  0.00     0.120 C 
ATOM     16  C   UNL     1       4.740   5.699  -7.333  1.00  0.00     0.030 C 
ATOM     17  C   UNL     1       6.019   7.745  -8.011  1.00  0.00     0.030 C 
ATOM     18  C   UNL     1       4.661   7.054  -8.100  1.00  0.00    -0.008 C 
ATOM     19  C   UNL     1       4.383   6.760  -9.617  1.00  0.00     0.019 C 
ATOM     20  C   UNL     1       3.662   8.068  -7.457  1.00  0.00     0.127 C 
ATOM     21  C   UNL     1       2.924   6.543  -9.884  1.00  0.00     0.101 C 
ATOM     22  C   UNL     1       2.405   7.870  -9.429  1.00  0.00     0.223 C 
ATOM     23  O   UNL     1       2.539   8.857 -10.151  1.00  0.00    -0.275 OA
BRANCH  11  24
ATOM     24  C   UNL     1       8.887   6.241  -6.206  1.00  0.00     0.135 C 
BRANCH  24  25
ATOM     25  C   UNL     1       9.453   7.417  -6.957  1.00  0.00    -0.038 A 
ATOM     26  C   UNL     1       8.695  11.146  -7.256  1.00  0.00     0.044 C 
ATOM     27  C   UNL     1       9.280   9.785  -7.512  1.00  0.00    -0.051 A 
ATOM     28  C   UNL     1      10.065   9.558  -8.648  1.00  0.00     0.003 A 
ATOM     29  C   UNL     1       8.999   8.715  -6.656  1.00  0.00     0.007 A 
ATOM     30  C   UNL     1      10.569   8.284  -8.923  1.00  0.00     0.001 A 
ATOM     31  C   UNL     1      10.282   7.216  -8.072  1.00  0.00     0.004 A 
ENDBRANCH  24  25
ENDBRANCH  11  24
ENDBRANCH   8  10
ENDBRANCH   6   8
ENDBRANCH   5   6
ENDBRANCH   4   5
ENDBRANCH   3   4
ENDBRANCH   2   3
ENDBRANCH   1   2
BRANCH   1  32
ATOM     32  C   UNL     1      -3.900   3.912  -6.929  1.00  0.00     0.188 C 
BRANCH  32  33
ATOM     33  O   UNL     1      -5.148   3.474  -7.328  1.00  0.00    -0.376 OA
BRANCH  33  34
ATOM     34  C   UNL     1      -6.055   4.088  -6.441  1.00  0.00     0.202 C 
BRANCH  34  35
ATOM     35  C   UNL     1      -5.729   4.076  -4.883  1.00  0.00     0.261 C 
BRANCH  35  36
ATOM     36  O   UNL     1      -4.349   3.840  -4.064  1.00  0.00    -0.460 OA
BRANCH  36  37
ATOM     37  C   UNL     1      -3.125   3.672  -3.490  1.00  0.00     0.338 C 
ATOM     38  O   UNL     1      -3.021   3.269  -2.329  1.00  0.00    -0.246 OA
BRANCH  37  39
ATOM     39  C   UNL     1      -1.808   4.054  -4.103  1.00  0.00     0.060 A 
ATOM     40  C   UNL     1      -1.042   5.111  -3.623  1.00  0.00     0.016 A 
ATOM     41  C   UNL     1      -1.401   3.589  -5.312  1.00  0.00     0.016 A 
ATOM     42  C   UNL     1      -0.744   6.147  -4.505  1.00  0.00     0.010 A 
ATOM     43  C   UNL     1      -1.083   4.590  -6.201  1.00  0.00     0.010 A 
ATOM     44  C   UNL     1      -1.112   5.942  -5.817  1.00  0.00    -0.014 A 
BRANCH  44  45
ATOM     45  C   UNL     1      -1.516   6.981  -6.840  1.00  0.00     0.031 A 
ATOM     46  C   UNL     1      -0.870   6.545  -8.529  1.00  0.00     0.074 A 
ATOM     47  C   UNL     1      -2.401   8.096  -6.352  1.00  0.00     0.049 A 
ATOM     48  N   UNL     1      -0.307   7.455  -9.302  1.00  0.00    -0.248 NA
ATOM     49  C   UNL     1      -0.724   5.321  -9.364  1.00  0.00     0.031 C 
ATOM     50  C   UNL     1      -3.144   9.391  -7.018  1.00  0.00     0.029 A 
ATOM     51  N   UNL     1      -2.942   8.339  -5.085  1.00  0.00    -0.354 N 
ATOM     52  C   UNL     1      -0.181   7.214 -10.619  1.00  0.00     0.074 A 
ATOM     53  C   UNL     1      -0.282   5.774 -10.579  1.00  0.00     0.031 C 
ATOM     54  C   UNL     1      -3.795  10.194  -6.192  1.00  0.00     0.029 A 
ATOM     55  C   UNL     1      -3.318   9.734  -4.962  1.00  0.00     0.049 A 
ATOM     56  H   UNL     1      -3.052   7.662  -4.379  1.00  0.00     0.167 HD
ATOM     57  C   UNL     1      -0.007   8.296 -11.467  1.00  0.00     0.034 A 
ATOM     58  C   UNL     1      -2.680  10.587  -4.133  1.00  0.00     0.034 A 
ATOM     59  C   UNL     1      -0.362   9.661 -10.855  1.00  0.00     0.049 A 
ATOM     60  C   UNL     1      -1.624  11.446  -4.988  1.00  0.00     0.074 A 
ATOM     61  C   UNL     1      -1.505  10.451 -10.943  1.00  0.00     0.029 A 
ATOM     62  N   UNL     1       0.425  10.353  -9.896  1.00  0.00    -0.354 N 
ATOM     63  N   UNL     1      -1.494  11.424  -6.319  1.00  0.00    -0.248 NA
ATOM     64  C   UNL     1      -0.775  12.505  -4.440  1.00  0.00     0.031 C 
ATOM     65  C   UNL     1      -1.494  11.431  -9.887  1.00  0.00     0.029 A 
ATOM     66  C   UNL     1      -0.303  11.349  -9.180  1.00  0.00     0.049 A 
ATOM     67  H   UNL     1       1.379  10.163  -9.741  1.00  0.00     0.167 HD
ATOM     68  C   UNL     1      -0.428  12.206  -6.762  1.00  0.00     0.074 A 
ATOM     69  C   UNL     1      -0.148  12.974  -5.542  1.00  0.00     0.031 C 
ATOM     70  C   UNL     1       0.259  12.117  -7.995  1.00  0.00     0.034 A 
BRANCH  57  71
ATOM     71  C   UNL     1       0.294   8.149 -12.961  1.00  0.00     0.023 A 
ATOM     72  C   UNL     1      -0.094   9.152 -13.879  1.00  0.00     0.031 A 
ATOM     73  C   UNL     1       1.006   7.069 -13.531  1.00  0.00     0.131 A 
ATOM     74  C   UNL     1       0.124   9.015 -15.271  1.00  0.00     0.055 A 
ATOM     75  C   UNL     1       1.229   6.934 -14.915  1.00  0.00     0.041 A 
ATOM     76  F   UNL     1       1.528   6.097 -12.770  1.00  0.00    -0.206 F 
ATOM     77  C   UNL     1       0.764   7.897 -15.797  1.00  0.00     0.022 A 
BRANCH  74  78
ATOM     78  S   UNL     1      -0.502  10.297 -16.401  1.00  0.00     0.124 S 
ATOM     79  O   UNL     1      -1.916  10.355 -16.043  1.00  0.00    -0.237 OA
ATOM     80  O   UNL     1       0.307  11.455 -16.041  1.00  0.00    -0.237 OA
ATOM     81  O   UNL     1      -0.231   9.745 -17.729  1.00  0.00    -0.744 OA
ENDBRANCH  74  78
ENDBRANCH  57  71
BRANCH  58  82
ATOM     82  C   UNL     1      -2.833   9.801  -2.835  1.00  0.00     0.023 A 
ATOM     83  C   UNL     1      -4.216   9.401  -2.545  1.00  0.00     0.031 A 
ATOM     84  C   UNL     1      -1.851   8.888  -2.452  1.00  0.00     0.131 A 
ATOM     85  C   UNL     1      -4.545   8.056  -2.233  1.00  0.00     0.055 A 
ATOM     86  C   UNL     1      -2.208   7.604  -1.988  1.00  0.00     0.041 A 
ATOM     87  F   UNL     1      -0.566   9.097  -2.775  1.00  0.00    -0.206 F 
ATOM     88  C   UNL     1      -3.532   7.147  -1.972  1.00  0.00     0.022 A 
BRANCH  85  89
ATOM     89  S   UNL     1      -6.256   7.427  -2.490  1.00  0.00     0.124 S 
ATOM     90  O   UNL     1      -7.006   8.114  -1.446  1.00  0.00    -0.237 OA
ATOM     91  O   UNL     1      -6.544   7.833  -3.863  1.00  0.00    -0.237 OA
ATOM     92  O   UNL     1      -6.138   5.982  -2.307  1.00  0.00    -0.744 OA
ENDBRANCH  85  89
ENDBRANCH  58  82
BRANCH  70  93
ATOM     93  C   UNL     1       1.637  12.789  -8.160  1.00  0.00     0.023 A 
ATOM     94  C   UNL     1       2.421  13.171  -7.058  1.00  0.00     0.031 A 
ATOM     95  C   UNL     1       2.217  13.072  -9.416  1.00  0.00     0.131 A 
ATOM     96  C   UNL     1       3.512  14.043  -7.192  1.00  0.00     0.055 A 
ATOM     97  C   UNL     1       3.406  13.810  -9.557  1.00  0.00     0.041 A 
ATOM     98  F   UNL     1       1.658  12.661 -10.563  1.00  0.00    -0.206 F 
ATOM     99  C   UNL     1       4.022  14.363  -8.442  1.00  0.00     0.022 A 
BRANCH  96 100
ATOM    100  S   UNL     1       4.103  14.882  -5.697  1.00  0.00     0.124 S 
ATOM    101  O   UNL     1       2.921  15.638  -5.289  1.00  0.00    -0.237 OA
ATOM    102  O   UNL     1       4.472  13.769  -4.828  1.00  0.00    -0.237 OA
ATOM    103  O   UNL     1       5.221  15.693  -6.174  1.00  0.00    -0.744 OA
ENDBRANCH  96 100
ENDBRANCH  70  93
ENDBRANCH  44  45
ENDBRANCH  37  39
ENDBRANCH  36  37
ENDBRANCH  35  36
ENDBRANCH  34  35
ENDBRANCH  33  34
ENDBRANCH  32  33
ENDBRANCH   1  32
TORSDOF 23
