REMARK SMILES O=C(CSc1nnnn1-c1ccc(C(=O)OCCOCCOCCOC(=O)c2ccc(-c3c4nc(c(-c5cc(S(=O)(=O)[O-])ccc5F)c5ccc([nH]5)c(-c5cc(S(=O)(=O)[O-])ccc5F)c5nc(c(-c6cc(S(=O)(=O)[O-])ccc6F)c6ccc3[nH]6)C=C5)C=C4)cc2)cc1)Nc1nc(-c2ccccc2)cs1
REMARK SMILES IDX 19 1 18 2 17 3 16 4 14 5 15 6 13 7 10 8 11 9 92 10 12 11
REMARK SMILES IDX 91 12 9 13 5 14 6 15 7 16 8 17 4 18 3 19 2 20 1 21 93 22
REMARK SMILES IDX 94 24 95 25 104 26 96 27 103 28 97 29 98 30 102 31 99 32
REMARK SMILES IDX 101 33 100 34 20 35 21 36 22 37 23 38 24 39 25 40 26 41
REMARK SMILES IDX 27 42 28 43 29 44 90 45 30 46 89 47 31 48 32 49 33 50 83 51
REMARK SMILES IDX 34 52 88 53 82 54 84 55 35 56 87 57 81 58 80 59 36 61 68 62
REMARK SMILES IDX 48 63 67 64 49 65 52 66 66 67 85 68 50 69 51 70 65 72 86 73
REMARK SMILES IDX 53 74 37 75 38 76 46 77 39 78 45 79 47 80 44 81 40 82 41 83
REMARK SMILES IDX 42 84 43 85 69 86 70 87 78 88 71 89 77 90 79 91 76 92 72 93
REMARK SMILES IDX 73 94 74 95 75 96 54 97 55 98 63 99 56 100 62 101 64 102
REMARK SMILES IDX 61 103 57 104 58 105 59 106 60 107
REMARK H PARENT 93 23 84 60 52 71
REMARK Flexibility Score: inf
ROOT
ATOM      1  O   UNL     1       8.947   8.899  -3.645  1.00  0.00    -0.376 OA
ENDROOT
BRANCH   1   2
ATOM      2  C   UNL     1       9.323   8.020  -4.695  1.00  0.00     0.202 C 
BRANCH   2   3
ATOM      3  C   UNL     1       9.339   6.509  -4.422  1.00  0.00     0.261 C 
BRANCH   3   4
ATOM      4  O   UNL     1       8.127   6.001  -3.844  1.00  0.00    -0.460 OA
BRANCH   4   5
ATOM      5  C   UNL     1       8.225   5.560  -2.569  1.00  0.00     0.338 C 
ATOM      6  O   UNL     1       9.238   5.430  -1.904  1.00  0.00    -0.246 OA
BRANCH   5   7
ATOM      7  C   UNL     1       6.874   5.368  -1.999  1.00  0.00     0.060 A 
ATOM      8  C   UNL     1       4.447   4.866  -0.750  1.00  0.00     0.069 A 
ATOM      9  C   UNL     1       5.408   5.623  -0.077  1.00  0.00     0.029 A 
ATOM     10  C   UNL     1       4.643   4.466  -2.083  1.00  0.00     0.029 A 
ATOM     11  C   UNL     1       6.638   5.838  -0.696  1.00  0.00     0.018 A 
ATOM     12  C   UNL     1       5.856   4.732  -2.716  1.00  0.00     0.018 A 
BRANCH   8  13
ATOM     13  N   UNL     1       3.360   4.346  -0.021  1.00  0.00    -0.187 N 
ATOM     14  C   UNL     1       2.963   3.024   0.077  1.00  0.00     0.214 A 
ATOM     15  N   UNL     1       1.940   2.942   0.894  1.00  0.00    -0.101 NA
ATOM     16  N   UNL     1       1.746   4.219   1.369  1.00  0.00    -0.022 NA
ATOM     17  N   UNL     1       2.659   5.056   0.887  1.00  0.00    -0.039 NA
BRANCH  14  18
ATOM     18  S   UNL     1       3.943   1.692  -0.456  1.00  0.00    -0.074 SA
BRANCH  18  19
ATOM     19  C   UNL     1       2.705   0.592  -1.162  1.00  0.00     0.178 C 
BRANCH  19  20
ATOM     20  C   UNL     1       1.934  -0.239  -0.153  1.00  0.00     0.236 C 
ATOM     21  O   UNL     1       0.877  -0.758  -0.507  1.00  0.00    -0.274 OA
ATOM     22  N   UNL     1       2.557  -0.407   1.062  1.00  0.00    -0.301 N 
ATOM     23  H   UNL     1       3.403   0.067   1.232  1.00  0.00     0.172 HD
BRANCH  22  24
ATOM     24  C   UNL     1       2.042  -1.206   2.039  1.00  0.00     0.189 A 
ATOM     25  N   UNL     1       1.023  -2.018   1.977  1.00  0.00    -0.220 NA
ATOM     26  S   UNL     1       2.866  -1.127   3.532  1.00  0.00    -0.105 S 
ATOM     27  C   UNL     1       0.799  -2.565   3.221  1.00  0.00     0.084 A 
ATOM     28  C   UNL     1       1.706  -2.205   4.200  1.00  0.00     0.097 A 
BRANCH  27  29
ATOM     29  C   UNL     1      -0.319  -3.456   3.440  1.00  0.00     0.001 A 
ATOM     30  C   UNL     1      -0.413  -4.641   2.702  1.00  0.00     0.010 A 
ATOM     31  C   UNL     1      -1.341  -3.112   4.332  1.00  0.00     0.010 A 
ATOM     32  C   UNL     1      -1.510  -5.487   2.869  1.00  0.00     0.001 A 
ATOM     33  C   UNL     1      -2.443  -3.953   4.488  1.00  0.00     0.001 A 
ATOM     34  C   UNL     1      -2.525  -5.141   3.761  1.00  0.00     0.000 A 
ENDBRANCH  27  29
ENDBRANCH  22  24
ENDBRANCH  19  20
ENDBRANCH  18  19
ENDBRANCH  14  18
ENDBRANCH   8  13
ENDBRANCH   5   7
ENDBRANCH   4   5
ENDBRANCH   3   4
ENDBRANCH   2   3
ENDBRANCH   1   2
BRANCH   1  35
ATOM     35  C   UNL     1       7.668   8.780  -3.036  1.00  0.00     0.188 C 
BRANCH  35  36
ATOM     36  C   UNL     1       6.406   8.391  -3.839  1.00  0.00     0.188 C 
BRANCH  36  37
ATOM     37  O   UNL     1       6.609   8.073  -5.210  1.00  0.00    -0.376 OA
BRANCH  37  38
ATOM     38  C   UNL     1       5.920   8.910  -6.135  1.00  0.00     0.202 C 
BRANCH  38  39
ATOM     39  C   UNL     1       6.572  10.277  -6.334  1.00  0.00     0.261 C 
BRANCH  39  40
ATOM     40  O   UNL     1       6.776  11.012  -5.131  1.00  0.00    -0.460 OA
BRANCH  40  41
ATOM     41  C   UNL     1       5.660  11.428  -4.494  1.00  0.00     0.338 C 
ATOM     42  O   UNL     1       4.518  11.070  -4.718  1.00  0.00    -0.246 OA
BRANCH  41  43
ATOM     43  C   UNL     1       6.039  12.435  -3.492  1.00  0.00     0.060 A 
ATOM     44  C   UNL     1       5.042  12.885  -2.623  1.00  0.00     0.016 A 
ATOM     45  C   UNL     1       7.287  13.071  -3.576  1.00  0.00     0.016 A 
ATOM     46  C   UNL     1       5.221  14.095  -1.984  1.00  0.00     0.010 A 
ATOM     47  C   UNL     1       7.460  14.283  -2.946  1.00  0.00     0.010 A 
ATOM     48  C   UNL     1       6.389  14.820  -2.232  1.00  0.00    -0.014 A 
BRANCH  48  49
ATOM     49  C   UNL     1       6.415  16.216  -1.836  1.00  0.00     0.031 A 
ATOM     50  C   UNL     1       6.748  16.503  -0.428  1.00  0.00     0.074 A 
ATOM     51  C   UNL     1       6.265  17.192  -2.753  1.00  0.00     0.049 A 
ATOM     52  N   UNL     1       6.060  17.189   0.422  1.00  0.00    -0.248 NA
ATOM     53  C   UNL     1       7.968  15.901   0.126  1.00  0.00     0.031 C 
ATOM     54  C   UNL     1       6.218  17.031  -4.210  1.00  0.00     0.029 A 
ATOM     55  N   UNL     1       6.258  18.544  -2.583  1.00  0.00    -0.354 N 
ATOM     56  C   UNL     1       6.854  17.287   1.558  1.00  0.00     0.074 A 
ATOM     57  C   UNL     1       7.940  16.361   1.375  1.00  0.00     0.031 C 
ATOM     58  C   UNL     1       6.417  18.232  -4.791  1.00  0.00     0.029 A 
ATOM     59  C   UNL     1       6.496  19.249  -3.755  1.00  0.00     0.049 A 
ATOM     60  H   UNL     1       6.100  18.979  -1.714  1.00  0.00     0.167 HD
ATOM     61  C   UNL     1       6.667  18.278   2.469  1.00  0.00     0.034 A 
ATOM     62  C   UNL     1       6.830  20.558  -3.872  1.00  0.00     0.034 A 
ATOM     63  C   UNL     1       5.340  18.840   2.382  1.00  0.00     0.049 A 
ATOM     64  C   UNL     1       6.394  21.248  -2.635  1.00  0.00     0.074 A 
ATOM     65  C   UNL     1       4.065  18.310   2.464  1.00  0.00     0.029 A 
ATOM     66  N   UNL     1       5.181  20.098   1.849  1.00  0.00    -0.354 N 
ATOM     67  N   UNL     1       5.145  21.408  -2.294  1.00  0.00    -0.248 NA
ATOM     68  C   UNL     1       7.351  21.413  -1.551  1.00  0.00     0.031 C 
ATOM     69  C   UNL     1       3.283  19.069   1.547  1.00  0.00     0.029 A 
ATOM     70  C   UNL     1       4.112  20.041   0.986  1.00  0.00     0.049 A 
ATOM     71  H   UNL     1       5.730  20.890   2.048  1.00  0.00     0.167 HD
ATOM     72  C   UNL     1       5.126  21.266  -0.916  1.00  0.00     0.074 A 
ATOM     73  C   UNL     1       6.519  21.406  -0.506  1.00  0.00     0.031 C 
ATOM     74  C   UNL     1       4.032  20.764  -0.270  1.00  0.00     0.034 A 
BRANCH  61  75
ATOM     75  C   UNL     1       7.786  18.935   3.240  1.00  0.00     0.023 A 
ATOM     76  C   UNL     1       7.438  19.892   4.211  1.00  0.00     0.031 A 
ATOM     77  C   UNL     1       9.157  18.880   2.894  1.00  0.00     0.131 A 
ATOM     78  C   UNL     1       8.399  20.776   4.730  1.00  0.00     0.055 A 
ATOM     79  C   UNL     1      10.123  19.706   3.474  1.00  0.00     0.041 A 
ATOM     80  F   UNL     1       9.623  18.100   1.910  1.00  0.00    -0.206 F 
ATOM     81  C   UNL     1       9.743  20.682   4.378  1.00  0.00     0.022 A 
BRANCH  78  82
ATOM     82  S   UNL     1       7.827  22.183   5.716  1.00  0.00     0.124 S 
ATOM     83  O   UNL     1       6.748  22.709   4.886  1.00  0.00    -0.237 OA
ATOM     84  O   UNL     1       7.426  21.532   6.959  1.00  0.00    -0.237 OA
ATOM     85  O   UNL     1       9.011  23.034   5.809  1.00  0.00    -0.744 OA
ENDBRANCH  78  82
ENDBRANCH  61  75
BRANCH  62  86
ATOM     86  C   UNL     1       7.734  21.151  -4.891  1.00  0.00     0.023 A 
ATOM     87  C   UNL     1       7.736  22.525  -5.187  1.00  0.00     0.031 A 
ATOM     88  C   UNL     1       8.773  20.377  -5.461  1.00  0.00     0.131 A 
ATOM     89  C   UNL     1       8.728  23.066  -6.035  1.00  0.00     0.055 A 
ATOM     90  C   UNL     1       9.733  20.910  -6.322  1.00  0.00     0.041 A 
ATOM     91  F   UNL     1       8.943  19.086  -5.135  1.00  0.00    -0.206 F 
ATOM     92  C   UNL     1       9.717  22.263  -6.610  1.00  0.00     0.022 A 
BRANCH  89  93
ATOM     93  S   UNL     1       8.818  24.864  -6.301  1.00  0.00     0.124 S 
ATOM     94  O   UNL     1       7.679  25.104  -7.179  1.00  0.00    -0.237 OA
ATOM     95  O   UNL     1       8.715  25.387  -4.944  1.00  0.00    -0.237 OA
ATOM     96  O   UNL     1      10.128  25.048  -6.927  1.00  0.00    -0.744 OA
ENDBRANCH  89  93
ENDBRANCH  62  86
BRANCH  74  97
ATOM     97  C   UNL     1       2.715  20.697  -1.017  1.00  0.00     0.023 A 
ATOM     98  C   UNL     1       2.527  20.014  -2.238  1.00  0.00     0.031 A 
ATOM     99  C   UNL     1       1.577  21.241  -0.394  1.00  0.00     0.131 A 
ATOM    100  C   UNL     1       1.241  19.910  -2.800  1.00  0.00     0.055 A 
ATOM    101  C   UNL     1       0.300  21.120  -0.944  1.00  0.00     0.041 A 
ATOM    102  F   UNL     1       1.682  21.872   0.788  1.00  0.00    -0.206 F 
ATOM    103  C   UNL     1       0.128  20.459  -2.155  1.00  0.00     0.022 A 
BRANCH 100 104
ATOM    104  S   UNL     1       0.997  19.058  -4.391  1.00  0.00     0.124 S 
ATOM    105  O   UNL     1       2.043  19.615  -5.241  1.00  0.00    -0.237 OA
ATOM    106  O   UNL     1       1.151  17.654  -4.022  1.00  0.00    -0.237 OA
ATOM    107  O   UNL     1      -0.364  19.439  -4.774  1.00  0.00    -0.744 OA
ENDBRANCH 100 104
ENDBRANCH  74  97
ENDBRANCH  48  49
ENDBRANCH  41  43
ENDBRANCH  40  41
ENDBRANCH  39  40
ENDBRANCH  38  39
ENDBRANCH  37  38
ENDBRANCH  36  37
ENDBRANCH  35  36
ENDBRANCH   1  35
TORSDOF 26
