REMARK SMILES O=C(C[C@@H]([NH2+]C[C@H]1CCCO1)C(=O)OCCOCCOCCOC(=O)c1ccc(-c2c3nc(c(-c4cc(S(=O)(=O)[O-])ccc4F)c4ccc([nH]4)c(-c4cc(S(=O)(=O)[O-])ccc4F)c4nc(c(-c5cc(S(=O)(=O)[O-])ccc5F)c5ccc2[nH]5)C=C4)C=C3)cc1)Nc1cccc(Cl)c1
REMARK SMILES IDX 18 1 17 2 16 3 15 4 14 5 12 6 13 7 4 8 3 9 2 10 1 11 89 12
REMARK SMILES IDX 90 14 91 15 96 16 92 17 94 18 93 19 95 20 5 21 6 24 7 25
REMARK SMILES IDX 8 26 11 27 9 28 10 29 19 30 20 31 21 32 22 33 23 34 24 35
REMARK SMILES IDX 25 36 26 37 27 38 88 39 28 40 87 41 29 42 30 43 31 44 81 45
REMARK SMILES IDX 32 46 86 47 80 48 82 49 33 50 85 51 79 52 78 53 34 55 66 56
REMARK SMILES IDX 46 57 65 58 47 59 50 60 64 61 83 62 48 63 49 64 63 66 84 67
REMARK SMILES IDX 51 68 35 69 36 70 44 71 37 72 43 73 45 74 42 75 38 76 39 77
REMARK SMILES IDX 40 78 41 79 67 80 68 81 76 82 69 83 75 84 77 85 74 86 70 87
REMARK SMILES IDX 71 88 72 89 73 90 52 91 53 92 61 93 54 94 60 95 62 96 59 97
REMARK SMILES IDX 55 98 56 99 57 100 58 101
REMARK H PARENT 89 13 5 22 5 23 82 54 50 65
REMARK Flexibility Score: inf
ROOT
ATOM      1  C   UNL     1       5.285   4.040   3.897  1.00  0.00     0.188 C 
ENDROOT
BRANCH   1   2
ATOM      2  O   UNL     1       4.702   4.646   5.041  1.00  0.00    -0.376 OA
BRANCH   2   3
ATOM      3  C   UNL     1       5.297   4.469   6.321  1.00  0.00     0.202 C 
BRANCH   3   4
ATOM      4  C   UNL     1       5.727   3.076   6.825  1.00  0.00     0.261 C 
BRANCH   4   5
ATOM      5  O   UNL     1       6.601   2.308   5.966  1.00  0.00    -0.459 OA
BRANCH   5   6
ATOM      6  C   UNL     1       6.027   1.216   5.393  1.00  0.00     0.365 C 
ATOM      7  O   UNL     1       4.859   0.915   5.615  1.00  0.00    -0.245 OA
BRANCH   6   8
ATOM      8  C   UNL     1       6.928   0.474   4.359  1.00  0.00     0.302 C 
BRANCH   8   9
ATOM      9  C   UNL     1       8.421   0.887   4.355  1.00  0.00     0.177 C 
BRANCH   9  10
ATOM     10  C   UNL     1       9.173   0.329   3.145  1.00  0.00     0.231 C 
ATOM     11  O   UNL     1       9.437   1.023   2.170  1.00  0.00    -0.274 OA
ATOM     12  N   UNL     1       9.428  -1.028   3.268  1.00  0.00    -0.326 N 
ATOM     13  H   UNL     1       9.108  -1.456   4.095  1.00  0.00     0.169 HD
BRANCH  12  14
ATOM     14  C   UNL     1      10.090  -1.867   2.352  1.00  0.00     0.042 A 
ATOM     15  C   UNL     1       9.767  -3.232   2.391  1.00  0.00     0.026 A 
ATOM     16  C   UNL     1      11.075  -1.421   1.471  1.00  0.00     0.046 A 
ATOM     17  C   UNL     1      10.413  -4.144   1.554  1.00  0.00     0.004 A 
ATOM     18  C   UNL     1      11.760  -2.348   0.678  1.00  0.00     0.043 A 
ATOM     19  C   UNL     1      11.427  -3.703   0.709  1.00  0.00     0.020 A 
ATOM     20  Cl  UNL     1      13.069  -1.831  -0.314  1.00  0.00    -0.084 Cl
ENDBRANCH  12  14
ENDBRANCH   9  10
ENDBRANCH   8   9
BRANCH   8  21
ATOM     21  N   UNL     1       6.911  -1.019   4.527  1.00  0.00    -0.332 N 
ATOM     22  H   UNL     1       7.451  -1.243   5.363  1.00  0.00     0.347 HD
ATOM     23  H   UNL     1       7.298  -1.393   3.661  1.00  0.00     0.347 HD
BRANCH  21  24
ATOM     24  C   UNL     1       5.586  -1.649   4.667  1.00  0.00     0.293 C 
BRANCH  24  25
ATOM     25  C   UNL     1       4.741  -1.616   3.370  1.00  0.00     0.173 C 
ATOM     26  C   UNL     1       4.064  -2.953   3.113  1.00  0.00     0.040 C 
ATOM     27  O   UNL     1       3.680  -0.656   3.494  1.00  0.00    -0.372 OA
ATOM     28  C   UNL     1       2.785  -2.809   3.897  1.00  0.00     0.031 C 
ATOM     29  C   UNL     1       2.435  -1.360   3.634  1.00  0.00     0.161 C 
ENDBRANCH  24  25
ENDBRANCH  21  24
ENDBRANCH   8  21
ENDBRANCH   6   8
ENDBRANCH   5   6
ENDBRANCH   4   5
ENDBRANCH   3   4
ENDBRANCH   2   3
ENDBRANCH   1   2
BRANCH   1  30
ATOM     30  C   UNL     1       6.806   4.098   3.704  1.00  0.00     0.188 C 
BRANCH  30  31
ATOM     31  O   UNL     1       7.526   4.565   4.822  1.00  0.00    -0.376 OA
BRANCH  31  32
ATOM     32  C   UNL     1       8.205   5.808   4.743  1.00  0.00     0.202 C 
BRANCH  32  33
ATOM     33  C   UNL     1       7.562   7.046   4.083  1.00  0.00     0.261 C 
BRANCH  33  34
ATOM     34  O   UNL     1       6.827   6.842   2.868  1.00  0.00    -0.460 OA
BRANCH  34  35
ATOM     35  C   UNL     1       7.551   6.594   1.750  1.00  0.00     0.338 C 
ATOM     36  O   UNL     1       8.770   6.575   1.667  1.00  0.00    -0.246 OA
BRANCH  35  37
ATOM     37  C   UNL     1       6.614   6.086   0.717  1.00  0.00     0.060 A 
ATOM     38  C   UNL     1       6.808   4.796   0.201  1.00  0.00     0.016 A 
ATOM     39  C   UNL     1       5.529   6.856   0.294  1.00  0.00     0.016 A 
ATOM     40  C   UNL     1       5.936   4.285  -0.763  1.00  0.00     0.010 A 
ATOM     41  C   UNL     1       4.673   6.354  -0.695  1.00  0.00     0.010 A 
ATOM     42  C   UNL     1       4.893   5.080  -1.254  1.00  0.00    -0.014 A 
BRANCH  42  43
ATOM     43  C   UNL     1       4.197   4.691  -2.509  1.00  0.00     0.031 A 
ATOM     44  C   UNL     1       4.675   5.314  -3.795  1.00  0.00     0.074 A 
ATOM     45  C   UNL     1       3.194   3.795  -2.528  1.00  0.00     0.049 A 
ATOM     46  N   UNL     1       4.194   5.206  -5.006  1.00  0.00    -0.248 NA
ATOM     47  C   UNL     1       5.858   6.184  -3.692  1.00  0.00     0.031 C 
ATOM     48  C   UNL     1       2.682   3.070  -1.367  1.00  0.00     0.029 A 
ATOM     49  N   UNL     1       2.421   3.345  -3.572  1.00  0.00    -0.354 N 
ATOM     50  C   UNL     1       5.012   5.996  -5.808  1.00  0.00     0.074 A 
ATOM     51  C   UNL     1       5.990   6.612  -4.937  1.00  0.00     0.031 C 
ATOM     52  C   UNL     1       1.673   2.272  -1.762  1.00  0.00     0.029 A 
ATOM     53  C   UNL     1       1.437   2.461  -3.193  1.00  0.00     0.049 A 
ATOM     54  H   UNL     1       2.559   3.629  -4.504  1.00  0.00     0.167 HD
ATOM     55  C   UNL     1       4.961   6.184  -7.149  1.00  0.00     0.034 A 
ATOM     56  C   UNL     1       0.446   1.894  -3.915  1.00  0.00     0.034 A 
ATOM     57  C   UNL     1       3.974   5.577  -8.007  1.00  0.00     0.049 A 
ATOM     58  C   UNL     1       0.339   2.207  -5.393  1.00  0.00     0.074 A 
ATOM     59  C   UNL     1       3.826   5.707  -9.377  1.00  0.00     0.029 A 
ATOM     60  N   UNL     1       2.959   4.731  -7.578  1.00  0.00    -0.354 N 
ATOM     61  N   UNL     1       1.108   2.967  -6.139  1.00  0.00    -0.248 NA
ATOM     62  C   UNL     1      -0.768   1.577  -6.126  1.00  0.00     0.031 C 
ATOM     63  C   UNL     1       2.679   5.007  -9.763  1.00  0.00     0.029 A 
ATOM     64  C   UNL     1       2.164   4.358  -8.652  1.00  0.00     0.049 A 
ATOM     65  H   UNL     1       2.823   4.439  -6.648  1.00  0.00     0.167 HD
ATOM     66  C   UNL     1       0.603   2.865  -7.436  1.00  0.00     0.074 A 
ATOM     67  C   UNL     1      -0.527   1.963  -7.369  1.00  0.00     0.031 C 
ATOM     68  C   UNL     1       1.039   3.456  -8.579  1.00  0.00     0.034 A 
BRANCH  55  69
ATOM     69  C   UNL     1       5.972   7.128  -7.756  1.00  0.00     0.023 A 
ATOM     70  C   UNL     1       7.352   6.862  -7.718  1.00  0.00     0.031 A 
ATOM     71  C   UNL     1       5.549   8.327  -8.358  1.00  0.00     0.131 A 
ATOM     72  C   UNL     1       8.261   7.811  -8.209  1.00  0.00     0.055 A 
ATOM     73  C   UNL     1       6.454   9.227  -8.921  1.00  0.00     0.041 A 
ATOM     74  F   UNL     1       4.246   8.649  -8.399  1.00  0.00    -0.206 F 
ATOM     75  C   UNL     1       7.821   8.979  -8.836  1.00  0.00     0.022 A 
BRANCH  72  76
ATOM     76  S   UNL     1      10.029   7.568  -7.886  1.00  0.00     0.124 S 
ATOM     77  O   UNL     1      10.058   7.519  -6.426  1.00  0.00    -0.237 OA
ATOM     78  O   UNL     1      10.306   6.313  -8.574  1.00  0.00    -0.237 OA
ATOM     79  O   UNL     1      10.651   8.753  -8.474  1.00  0.00    -0.744 OA
ENDBRANCH  72  76
ENDBRANCH  55  69
BRANCH  56  80
ATOM     80  C   UNL     1      -0.563   1.003  -3.265  1.00  0.00     0.023 A 
ATOM     81  C   UNL     1      -0.724  -0.333  -3.671  1.00  0.00     0.031 A 
ATOM     82  C   UNL     1      -1.446   1.502  -2.290  1.00  0.00     0.131 A 
ATOM     83  C   UNL     1      -1.777  -1.102  -3.152  1.00  0.00     0.055 A 
ATOM     84  C   UNL     1      -2.452   0.712  -1.730  1.00  0.00     0.041 A 
ATOM     85  F   UNL     1      -1.349   2.773  -1.871  1.00  0.00    -0.206 F 
ATOM     86  C   UNL     1      -2.633  -0.594  -2.173  1.00  0.00     0.022 A 
BRANCH  83  87
ATOM     87  S   UNL     1      -2.087  -2.744  -3.862  1.00  0.00     0.124 S 
ATOM     88  O   UNL     1      -2.297  -2.424  -5.269  1.00  0.00    -0.237 OA
ATOM     89  O   UNL     1      -0.852  -3.451  -3.541  1.00  0.00    -0.237 OA
ATOM     90  O   UNL     1      -3.272  -3.207  -3.143  1.00  0.00    -0.744 OA
ENDBRANCH  83  87
ENDBRANCH  56  80
BRANCH  68  91
ATOM     91  C   UNL     1       0.334   3.087  -9.866  1.00  0.00     0.023 A 
ATOM     92  C   UNL     1      -1.018   3.397 -10.096  1.00  0.00     0.031 A 
ATOM     93  C   UNL     1       1.031   2.397 -10.876  1.00  0.00     0.131 A 
ATOM     94  C   UNL     1      -1.646   2.960 -11.274  1.00  0.00     0.055 A 
ATOM     95  C   UNL     1       0.421   2.030 -12.076  1.00  0.00     0.041 A 
ATOM     96  F   UNL     1       2.324   2.070 -10.713  1.00  0.00    -0.206 F 
ATOM     97  C   UNL     1      -0.930   2.296 -12.273  1.00  0.00     0.022 A 
BRANCH  94  98
ATOM     98  S   UNL     1      -3.441   3.167 -11.433  1.00  0.00     0.124 S 
ATOM     99  O   UNL     1      -3.933   2.472 -10.248  1.00  0.00    -0.237 OA
ATOM    100  O   UNL     1      -3.590   4.619 -11.428  1.00  0.00    -0.237 OA
ATOM    101  O   UNL     1      -3.750   2.518 -12.706  1.00  0.00    -0.744 OA
ENDBRANCH  94  98
ENDBRANCH  68  91
ENDBRANCH  42  43
ENDBRANCH  35  37
ENDBRANCH  34  35
ENDBRANCH  33  34
ENDBRANCH  32  33
ENDBRANCH  31  32
ENDBRANCH  30  31
ENDBRANCH   1  30
TORSDOF 26
