REMARK SMILES O=C(Nc1cccc(C(=O)OCCOCCOCCOC(=O)c2ccc(-c3c4nc(c(-c5cc(S(=O)(=O)[O-])ccc5F)c5ccc([nH]5)c(-c5cc(S(=O)(=O)[O-])ccc5F)c5nc(c(-c6cc(S(=O)(=O)[O-])ccc6F)c6ccc3[nH]6)C=C5)C=C4)cc2)c1)Nc1cc(Cl)c(Cl)cc1Cl
REMARK SMILES IDX 16 1 15 2 14 3 13 4 12 5 11 6 9 7 10 8 8 9 4 10 5 11 86 12
REMARK SMILES IDX 6 13 7 14 3 15 1 16 2 17 87 18 88 21 89 22 95 23 90 24 94 25
REMARK SMILES IDX 96 26 91 27 92 28 93 29 17 30 18 31 19 32 20 33 21 34 22 35
REMARK SMILES IDX 23 36 24 37 85 38 25 39 84 40 26 41 27 42 28 43 78 44 29 45
REMARK SMILES IDX 83 46 77 47 79 48 30 49 82 50 76 51 75 52 31 54 63 55 43 56
REMARK SMILES IDX 62 57 44 58 47 59 61 60 80 61 45 62 46 63 60 65 81 66 48 67
REMARK SMILES IDX 32 68 33 69 41 70 34 71 40 72 42 73 39 74 35 75 36 76 37 77
REMARK SMILES IDX 38 78 64 79 65 80 73 81 66 82 72 83 74 84 71 85 67 86 68 87
REMARK SMILES IDX 69 88 70 89 49 90 50 91 58 92 51 93 57 94 59 95 56 96 52 97
REMARK SMILES IDX 53 98 54 99 55 100
REMARK H PARENT 3 19 87 20 79 53 47 64
REMARK Flexibility Score: inf
ROOT
ATOM      1  C   UNL     1       6.933  -1.951  -3.344  1.00  0.00     0.188 C 
ENDROOT
BRANCH   1   2
ATOM      2  C   UNL     1       8.374  -1.995  -2.794  1.00  0.00     0.188 C 
BRANCH   2   3
ATOM      3  O   UNL     1       8.960  -3.246  -2.445  1.00  0.00    -0.376 OA
BRANCH   3   4
ATOM      4  C   UNL     1       8.188  -4.221  -1.758  1.00  0.00     0.202 C 
BRANCH   4   5
ATOM      5  C   UNL     1       7.615  -3.847  -0.388  1.00  0.00     0.261 C 
BRANCH   5   6
ATOM      6  O   UNL     1       6.793  -2.669  -0.416  1.00  0.00    -0.460 OA
BRANCH   6   7
ATOM      7  C   UNL     1       7.231  -1.629   0.336  1.00  0.00     0.338 C 
ATOM      8  O   UNL     1       8.166  -1.627   1.119  1.00  0.00    -0.246 OA
BRANCH   7   9
ATOM      9  C   UNL     1       6.478  -0.406  -0.020  1.00  0.00     0.062 A 
ATOM     10  C   UNL     1       4.391   0.759  -0.423  1.00  0.00     0.043 A 
ATOM     11  C   UNL     1       5.115   1.920  -0.717  1.00  0.00     0.026 A 
ATOM     12  C   UNL     1       5.085  -0.422  -0.140  1.00  0.00     0.041 A 
ATOM     13  C   UNL     1       6.510   1.930  -0.623  1.00  0.00     0.003 A 
ATOM     14  C   UNL     1       7.191   0.775  -0.244  1.00  0.00     0.016 A 
BRANCH  10  15
ATOM     15  N   UNL     1       2.985   0.854  -0.423  1.00  0.00    -0.308 N 
ATOM     16  O   UNL     1       0.848   0.250  -0.078  1.00  0.00    -0.248 OA
ATOM     17  C   UNL     1       2.034   0.057   0.170  1.00  0.00     0.323 C 
ATOM     18  N   UNL     1       2.505  -0.804   1.121  1.00  0.00    -0.306 N 
ATOM     19  H   UNL     1       2.624   1.616  -0.931  1.00  0.00     0.171 HD
ATOM     20  H   UNL     1       3.398  -0.588   1.476  1.00  0.00     0.171 HD
BRANCH  18  21
ATOM     21  C   UNL     1       1.905  -1.955   1.671  1.00  0.00     0.063 A 
ATOM     22  C   UNL     1       2.437  -2.356   2.910  1.00  0.00     0.049 A 
ATOM     23  C   UNL     1       0.911  -2.753   1.080  1.00  0.00     0.066 A 
ATOM     24  C   UNL     1       1.952  -3.484   3.579  1.00  0.00     0.061 A 
ATOM     25  C   UNL     1       0.412  -3.872   1.763  1.00  0.00     0.044 A 
ATOM     26  Cl  UNL     1       0.353  -2.575  -0.546  1.00  0.00    -0.082 Cl
ATOM     27  Cl  UNL     1       2.677  -3.897   5.091  1.00  0.00    -0.083 Cl
ATOM     28  C   UNL     1       0.923  -4.234   3.010  1.00  0.00     0.061 A 
ATOM     29  Cl  UNL     1       0.266  -5.636   3.776  1.00  0.00    -0.083 Cl
ENDBRANCH  18  21
ENDBRANCH  10  15
ENDBRANCH   7   9
ENDBRANCH   6   7
ENDBRANCH   5   6
ENDBRANCH   4   5
ENDBRANCH   3   4
ENDBRANCH   2   3
ENDBRANCH   1   2
BRANCH   1  30
ATOM     30  O   UNL     1       6.424  -3.222  -3.709  1.00  0.00    -0.376 OA
BRANCH  30  31
ATOM     31  C   UNL     1       6.224  -3.449  -5.095  1.00  0.00     0.202 C 
BRANCH  31  32
ATOM     32  C   UNL     1       7.487  -3.518  -5.964  1.00  0.00     0.261 C 
BRANCH  32  33
ATOM     33  O   UNL     1       8.392  -2.408  -5.858  1.00  0.00    -0.460 OA
BRANCH  33  34
ATOM     34  C   UNL     1       8.004  -1.235  -6.411  1.00  0.00     0.338 C 
ATOM     35  O   UNL     1       6.945  -1.009  -6.967  1.00  0.00    -0.246 OA
BRANCH  34  36
ATOM     36  C   UNL     1       9.024  -0.216  -6.068  1.00  0.00     0.060 A 
ATOM     37  C   UNL     1       8.637   0.922  -5.349  1.00  0.00     0.016 A 
ATOM     38  C   UNL     1      10.359  -0.390  -6.445  1.00  0.00     0.016 A 
ATOM     39  C   UNL     1       9.584   1.900  -5.027  1.00  0.00     0.010 A 
ATOM     40  C   UNL     1      11.300   0.599  -6.136  1.00  0.00     0.010 A 
ATOM     41  C   UNL     1      10.915   1.761  -5.446  1.00  0.00    -0.014 A 
BRANCH  41  42
ATOM     42  C   UNL     1      11.866   2.898  -5.318  1.00  0.00     0.031 A 
ATOM     43  C   UNL     1      12.063   3.804  -6.505  1.00  0.00     0.074 A 
ATOM     44  C   UNL     1      12.540   3.130  -4.176  1.00  0.00     0.049 A 
ATOM     45  N   UNL     1      12.880   4.815  -6.655  1.00  0.00    -0.248 NA
ATOM     46  C   UNL     1      11.222   3.528  -7.680  1.00  0.00     0.031 C 
ATOM     47  C   UNL     1      12.410   2.353  -2.944  1.00  0.00     0.029 A 
ATOM     48  N   UNL     1      13.481   4.085  -3.872  1.00  0.00    -0.354 N 
ATOM     49  C   UNL     1      12.650   5.299  -7.939  1.00  0.00     0.074 A 
ATOM     50  C   UNL     1      11.643   4.447  -8.536  1.00  0.00     0.031 C 
ATOM     51  C   UNL     1      13.252   2.854  -2.022  1.00  0.00     0.029 A 
ATOM     52  C   UNL     1      14.009   3.961  -2.606  1.00  0.00     0.049 A 
ATOM     53  H   UNL     1      13.752   4.792  -4.500  1.00  0.00     0.167 HD
ATOM     54  C   UNL     1      13.219   6.360  -8.562  1.00  0.00     0.034 A 
ATOM     55  C   UNL     1      15.007   4.642  -2.003  1.00  0.00     0.034 A 
ATOM     56  C   UNL     1      14.240   7.189  -7.972  1.00  0.00     0.049 A 
ATOM     57  C   UNL     1      15.698   5.758  -2.757  1.00  0.00     0.074 A 
ATOM     58  C   UNL     1      14.885   8.285  -8.520  1.00  0.00     0.029 A 
ATOM     59  N   UNL     1      14.777   7.007  -6.705  1.00  0.00    -0.354 N 
ATOM     60  N   UNL     1      15.464   6.210  -3.968  1.00  0.00    -0.248 NA
ATOM     61  C   UNL     1      16.785   6.458  -2.057  1.00  0.00     0.031 C 
ATOM     62  C   UNL     1      15.854   8.724  -7.613  1.00  0.00     0.029 A 
ATOM     63  C   UNL     1      15.764   7.952  -6.466  1.00  0.00     0.049 A 
ATOM     64  H   UNL     1      14.498   6.310  -6.069  1.00  0.00     0.167 HD
ATOM     65  C   UNL     1      16.351   7.269  -4.156  1.00  0.00     0.074 A 
ATOM     66  C   UNL     1      17.113   7.396  -2.933  1.00  0.00     0.031 C 
ATOM     67  C   UNL     1      16.518   8.068  -5.241  1.00  0.00     0.034 A 
BRANCH  54  68
ATOM     68  C   UNL     1      12.778   6.649  -9.975  1.00  0.00     0.023 A 
ATOM     69  C   UNL     1      11.467   7.065 -10.267  1.00  0.00     0.031 A 
ATOM     70  C   UNL     1      13.674   6.487 -11.047  1.00  0.00     0.131 A 
ATOM     71  C   UNL     1      11.072   7.249 -11.600  1.00  0.00     0.055 A 
ATOM     72  C   UNL     1      13.295   6.741 -12.366  1.00  0.00     0.041 A 
ATOM     73  F   UNL     1      14.930   6.069 -10.829  1.00  0.00    -0.206 F 
ATOM     74  C   UNL     1      11.984   7.113 -12.650  1.00  0.00     0.022 A 
BRANCH  71  75
ATOM     75  S   UNL     1       9.319   7.549 -11.952  1.00  0.00     0.124 S 
ATOM     76  O   UNL     1       8.699   6.340 -11.414  1.00  0.00    -0.237 OA
ATOM     77  O   UNL     1       9.056   8.781 -11.219  1.00  0.00    -0.237 OA
ATOM     78  O   UNL     1       9.277   7.668 -13.408  1.00  0.00    -0.744 OA
ENDBRANCH  71  75
ENDBRANCH  54  68
BRANCH  55  79
ATOM     79  C   UNL     1      15.466   4.273  -0.631  1.00  0.00     0.023 A 
ATOM     80  C   UNL     1      15.387   5.186   0.433  1.00  0.00     0.031 A 
ATOM     81  C   UNL     1      16.078   3.030  -0.387  1.00  0.00     0.131 A 
ATOM     82  C   UNL     1      15.964   4.868   1.674  1.00  0.00     0.055 A 
ATOM     83  C   UNL     1      16.598   2.696   0.866  1.00  0.00     0.041 A 
ATOM     84  F   UNL     1      16.187   2.122  -1.369  1.00  0.00    -0.206 F 
ATOM     85  C   UNL     1      16.557   3.624   1.901  1.00  0.00     0.022 A 
BRANCH  82  86
ATOM     86  S   UNL     1      16.025   6.150   2.957  1.00  0.00     0.124 S 
ATOM     87  O   UNL     1      16.740   7.221   2.272  1.00  0.00    -0.237 OA
ATOM     88  O   UNL     1      14.609   6.386   3.215  1.00  0.00    -0.237 OA
ATOM     89  O   UNL     1      16.757   5.507   4.046  1.00  0.00    -0.744 OA
ENDBRANCH  82  86
ENDBRANCH  55  79
BRANCH  67  90
ATOM     90  C   UNL     1      17.524   9.189  -5.127  1.00  0.00     0.023 A 
ATOM     91  C   UNL     1      18.904   8.942  -5.022  1.00  0.00     0.031 A 
ATOM     92  C   UNL     1      17.090  10.527  -5.119  1.00  0.00     0.131 A 
ATOM     93  C   UNL     1      19.796  10.014  -4.861  1.00  0.00     0.055 A 
ATOM     94  C   UNL     1      17.987  11.591  -5.017  1.00  0.00     0.041 A 
ATOM     95  F   UNL     1      15.784  10.821  -5.216  1.00  0.00    -0.206 F 
ATOM     96  C   UNL     1      19.348  11.337  -4.874  1.00  0.00     0.022 A 
BRANCH  93  97
ATOM     97  S   UNL     1      21.547   9.654  -4.549  1.00  0.00     0.124 S 
ATOM     98  O   UNL     1      21.480   8.851  -3.333  1.00  0.00    -0.237 OA
ATOM     99  O   UNL     1      21.940   8.943  -5.762  1.00  0.00    -0.237 OA
ATOM    100  O   UNL     1      22.146  10.977  -4.386  1.00  0.00    -0.744 OA
ENDBRANCH  93  97
ENDBRANCH  67  90
ENDBRANCH  41  42
ENDBRANCH  34  36
ENDBRANCH  33  34
ENDBRANCH  32  33
ENDBRANCH  31  32
ENDBRANCH  30  31
ENDBRANCH   1  30
TORSDOF 22
