REMARK SMILES C[C@H]([C@@H](C)C(=O)OCCOCCOCCOC(=O)c1ccc(-c2c3nc(c(-c4cc(S(=O)(=O)[O-])ccc4F)c4ccc([nH]4)c(-c4cc(S(=O)(=O)[O-])ccc4F)c4nc(c(-c5cc(S(=O)(=O)[O-])ccc5F)c5ccc2[nH]5)C=C4)C=C3)cc1)n1c(CC#N)nc2ccccc21
REMARK SMILES IDX 11 1 10 2 9 3 8 4 7 5 5 6 6 7 3 8 4 9 2 10 1 11 82 12 83 13
REMARK SMILES IDX 93 14 87 15 88 16 92 17 89 18 91 19 90 20 84 21 85 22 86 23
REMARK SMILES IDX 12 24 13 25 14 26 15 27 16 28 17 29 18 30 19 31 20 32 81 33
REMARK SMILES IDX 21 34 80 35 22 36 23 37 24 38 74 39 25 40 79 41 73 42 75 43
REMARK SMILES IDX 26 44 78 45 72 46 71 47 27 49 59 50 39 51 58 52 40 53 43 54
REMARK SMILES IDX 57 55 76 56 41 57 42 58 56 60 77 61 44 62 28 63 29 64 37 65
REMARK SMILES IDX 30 66 36 67 38 68 35 69 31 70 32 71 33 72 34 73 60 74 61 75
REMARK SMILES IDX 69 76 62 77 68 78 70 79 67 80 63 81 64 82 65 83 66 84 45 85
REMARK SMILES IDX 46 86 54 87 47 88 53 89 55 90 52 91 48 92 49 93 50 94 51 95
REMARK H PARENT 75 48 43 59
REMARK Flexibility Score: inf
ROOT
ATOM      1  C   UNL     1       2.969  -1.888   2.944  1.00  0.00     0.188 C 
ENDROOT
BRANCH   1   2
ATOM      2  O   UNL     1       4.223  -2.272   2.391  1.00  0.00    -0.376 OA
BRANCH   2   3
ATOM      3  C   UNL     1       4.937  -1.382   1.554  1.00  0.00     0.202 C 
BRANCH   3   4
ATOM      4  C   UNL     1       4.301  -0.950   0.230  1.00  0.00     0.261 C 
BRANCH   4   5
ATOM      5  O   UNL     1       2.918  -0.573   0.255  1.00  0.00    -0.463 OA
BRANCH   5   6
ATOM      6  C   UNL     1       1.955  -1.503  -0.043  1.00  0.00     0.310 C 
ATOM      7  O   UNL     1       2.145  -2.706  -0.103  1.00  0.00    -0.252 OA
BRANCH   6   8
ATOM      8  C   UNL     1       0.702  -0.798  -0.584  1.00  0.00     0.119 C 
ATOM      9  C   UNL     1       1.448  -0.057  -1.768  1.00  0.00     0.022 C 
BRANCH   8  10
ATOM     10  C   UNL     1      -0.243  -0.091   0.598  1.00  0.00     0.100 C 
ATOM     11  C   UNL     1       0.531   1.161   1.228  1.00  0.00     0.032 C 
BRANCH  10  12
ATOM     12  N   UNL     1      -1.643   0.439   0.382  1.00  0.00    -0.323 N 
ATOM     13  C   UNL     1      -1.575   1.635  -0.253  1.00  0.00     0.124 A 
ATOM     14  C   UNL     1      -2.989   0.239   0.017  1.00  0.00     0.068 A 
ATOM     15  N   UNL     1      -2.484   2.450   0.203  1.00  0.00    -0.232 NA
ATOM     16  C   UNL     1      -3.510   1.583   0.074  1.00  0.00     0.089 A 
ATOM     17  C   UNL     1      -3.718  -0.692  -0.743  1.00  0.00     0.028 A 
ATOM     18  C   UNL     1      -4.763   1.979  -0.417  1.00  0.00     0.030 A 
ATOM     19  C   UNL     1      -4.853  -0.194  -1.456  1.00  0.00     0.002 A 
ATOM     20  C   UNL     1      -5.379   1.094  -1.284  1.00  0.00     0.002 A 
BRANCH  13  21
ATOM     21  C   UNL     1      -0.954   1.504  -1.529  1.00  0.00     0.195 C 
BRANCH  21  22
ATOM     22  C   UNL     1      -1.321   0.385  -2.490  1.00  0.00     0.070 C 
ATOM     23  N   UNL     1      -1.626  -0.543  -3.288  1.00  0.00    -0.198 NA
ENDBRANCH  21  22
ENDBRANCH  13  21
ENDBRANCH  10  12
ENDBRANCH   8  10
ENDBRANCH   6   8
ENDBRANCH   5   6
ENDBRANCH   4   5
ENDBRANCH   3   4
ENDBRANCH   2   3
ENDBRANCH   1   2
BRANCH   1  24
ATOM     24  C   UNL     1       2.613  -0.404   3.039  1.00  0.00     0.188 C 
BRANCH  24  25
ATOM     25  O   UNL     1       3.698   0.482   3.130  1.00  0.00    -0.376 OA
BRANCH  25  26
ATOM     26  C   UNL     1       3.943   1.079   4.385  1.00  0.00     0.202 C 
BRANCH  26  27
ATOM     27  C   UNL     1       3.887   0.221   5.662  1.00  0.00     0.261 C 
BRANCH  27  28
ATOM     28  O   UNL     1       2.879  -0.806   5.755  1.00  0.00    -0.460 OA
BRANCH  28  29
ATOM     29  C   UNL     1       1.594  -0.446   5.991  1.00  0.00     0.338 C 
ATOM     30  O   UNL     1       1.195   0.698   6.168  1.00  0.00    -0.246 OA
BRANCH  29  31
ATOM     31  C   UNL     1       0.721  -1.624   5.712  1.00  0.00     0.060 A 
ATOM     32  C   UNL     1      -0.316  -1.508   4.770  1.00  0.00     0.016 A 
ATOM     33  C   UNL     1       0.947  -2.852   6.337  1.00  0.00     0.016 A 
ATOM     34  C   UNL     1      -1.143  -2.603   4.481  1.00  0.00     0.010 A 
ATOM     35  C   UNL     1       0.102  -3.939   6.066  1.00  0.00     0.010 A 
ATOM     36  C   UNL     1      -0.969  -3.815   5.161  1.00  0.00    -0.014 A 
BRANCH  36  37
ATOM     37  C   UNL     1      -2.016  -4.876   5.102  1.00  0.00     0.031 A 
ATOM     38  C   UNL     1      -3.014  -4.949   6.232  1.00  0.00     0.074 A 
ATOM     39  C   UNL     1      -2.098  -5.756   4.086  1.00  0.00     0.049 A 
ATOM     40  N   UNL     1      -3.952  -5.829   6.465  1.00  0.00    -0.248 NA
ATOM     41  C   UNL     1      -2.927  -3.880   7.239  1.00  0.00     0.031 C 
ATOM     42  C   UNL     1      -1.240  -5.765   2.903  1.00  0.00     0.029 A 
ATOM     43  N   UNL     1      -2.943  -6.824   3.894  1.00  0.00    -0.354 N 
ATOM     44  C   UNL     1      -4.559  -5.430   7.652  1.00  0.00     0.074 A 
ATOM     45  C   UNL     1      -3.857  -4.248   8.105  1.00  0.00     0.031 C 
ATOM     46  C   UNL     1      -1.597  -6.795   2.114  1.00  0.00     0.029 A 
ATOM     47  C   UNL     1      -2.675  -7.549   2.755  1.00  0.00     0.049 A 
ATOM     48  H   UNL     1      -3.674  -7.050   4.515  1.00  0.00     0.167 HD
ATOM     49  C   UNL     1      -5.607  -5.993   8.305  1.00  0.00     0.034 A 
ATOM     50  C   UNL     1      -3.213  -8.702   2.299  1.00  0.00     0.034 A 
ATOM     51  C   UNL     1      -6.293  -7.178   7.851  1.00  0.00     0.049 A 
ATOM     52  C   UNL     1      -4.311  -9.373   3.099  1.00  0.00     0.074 A 
ATOM     53  C   UNL     1      -7.378  -7.818   8.427  1.00  0.00     0.029 A 
ATOM     54  N   UNL     1      -5.955  -7.913   6.722  1.00  0.00    -0.354 N 
ATOM     55  N   UNL     1      -4.878  -8.985   4.218  1.00  0.00    -0.248 NA
ATOM     56  C   UNL     1      -4.841 -10.639   2.570  1.00  0.00     0.031 C 
ATOM     57  C   UNL     1      -7.636  -8.985   7.701  1.00  0.00     0.029 A 
ATOM     58  C   UNL     1      -6.780  -9.023   6.612  1.00  0.00     0.049 A 
ATOM     59  H   UNL     1      -5.235  -7.681   6.093  1.00  0.00     0.167 HD
ATOM     60  C   UNL     1      -5.858  -9.937   4.500  1.00  0.00     0.074 A 
ATOM     61  C   UNL     1      -5.810 -10.911   3.431  1.00  0.00     0.031 C 
ATOM     62  C   UNL     1      -6.724  -9.996   5.545  1.00  0.00     0.034 A 
BRANCH  49  63
ATOM     63  C   UNL     1      -6.029  -5.368   9.614  1.00  0.00     0.023 A 
ATOM     64  C   UNL     1      -6.524  -4.054   9.687  1.00  0.00     0.031 A 
ATOM     65  C   UNL     1      -5.908  -6.092  10.813  1.00  0.00     0.131 A 
ATOM     66  C   UNL     1      -6.808  -3.482  10.937  1.00  0.00     0.055 A 
ATOM     67  C   UNL     1      -6.276  -5.547  12.045  1.00  0.00     0.041 A 
ATOM     68  F   UNL     1      -5.416  -7.341  10.811  1.00  0.00    -0.206 F 
ATOM     69  C   UNL     1      -6.715  -4.229  12.114  1.00  0.00     0.022 A 
BRANCH  66  70
ATOM     70  S   UNL     1      -7.151  -1.703  11.019  1.00  0.00     0.124 S 
ATOM     71  O   UNL     1      -5.942  -1.142  10.419  1.00  0.00    -0.237 OA
ATOM     72  O   UNL     1      -8.372  -1.580  10.231  1.00  0.00    -0.237 OA
ATOM     73  O   UNL     1      -7.302  -1.448  12.450  1.00  0.00    -0.744 OA
ENDBRANCH  66  70
ENDBRANCH  49  63
BRANCH  50  74
ATOM     74  C   UNL     1      -2.705  -9.340   1.046  1.00  0.00     0.023 A 
ATOM     75  C   UNL     1      -3.547  -9.546  -0.059  1.00  0.00     0.031 A 
ATOM     76  C   UNL     1      -1.388  -9.827   0.965  1.00  0.00     0.131 A 
ATOM     77  C   UNL     1      -3.081 -10.262  -1.174  1.00  0.00     0.055 A 
ATOM     78  C   UNL     1      -0.909 -10.482  -0.171  1.00  0.00     0.041 A 
ATOM     79  F   UNL     1      -0.542  -9.674   1.997  1.00  0.00    -0.206 F 
ATOM     80  C   UNL     1      -1.762 -10.716  -1.245  1.00  0.00     0.022 A 
BRANCH  77  81
ATOM     81  S   UNL     1      -4.256 -10.688  -2.490  1.00  0.00     0.124 S 
ATOM     82  O   UNL     1      -5.253 -11.460  -1.757  1.00  0.00    -0.237 OA
ATOM     83  O   UNL     1      -4.679  -9.372  -2.957  1.00  0.00    -0.237 OA
ATOM     84  O   UNL     1      -3.446 -11.453  -3.436  1.00  0.00    -0.744 OA
ENDBRANCH  77  81
ENDBRANCH  50  74
BRANCH  62  85
ATOM     85  C   UNL     1      -7.737 -11.120   5.551  1.00  0.00     0.023 A 
ATOM     86  C   UNL     1      -7.358 -12.469   5.673  1.00  0.00     0.031 A 
ATOM     87  C   UNL     1      -9.110 -10.831   5.431  1.00  0.00     0.131 A 
ATOM     88  C   UNL     1      -8.333 -13.478   5.614  1.00  0.00     0.055 A 
ATOM     89  C   UNL     1     -10.079 -11.835   5.444  1.00  0.00     0.041 A 
ATOM     90  F   UNL     1      -9.534  -9.563   5.308  1.00  0.00    -0.206 F 
ATOM     91  C   UNL     1      -9.692 -13.169   5.522  1.00  0.00     0.022 A 
BRANCH  88  92
ATOM     92  S   UNL     1      -7.794 -15.210   5.558  1.00  0.00     0.124 S 
ATOM     93  O   UNL     1      -6.940 -15.224   4.376  1.00  0.00    -0.237 OA
ATOM     94  O   UNL     1      -7.113 -15.367   6.839  1.00  0.00    -0.237 OA
ATOM     95  O   UNL     1      -9.046 -15.955   5.428  1.00  0.00    -0.744 OA
ENDBRANCH  88  92
ENDBRANCH  62  85
ENDBRANCH  36  37
ENDBRANCH  29  31
ENDBRANCH  28  29
ENDBRANCH  27  28
ENDBRANCH  26  27
ENDBRANCH  25  26
ENDBRANCH  24  25
ENDBRANCH   1  24
TORSDOF 24
