REMARK SMILES COc1cc(/C=C/C(=O)OCCOCCOCCOC(=O)c2ccc(-c3c4nc(c(-c5cc(S(=O)(=O)[O-])ccc5F)c5ccc([nH]5)c(-c5cc(S(=O)(=O)[O-])ccc5F)c5nc(c(-c6cc(S(=O)(=O)[O-])ccc6F)c6ccc3[nH]6)C=C5)C=C4)cc2)cc(S(=O)(=O)Nc2ccc3c(c2)OCCO3)c1OC
REMARK SMILES IDX 14 1 13 2 12 3 11 4 10 5 8 6 9 7 7 8 6 9 5 10 3 11 4 12
REMARK SMILES IDX 101 13 86 14 85 15 2 16 1 17 102 18 103 19 87 20 88 21 89 22
REMARK SMILES IDX 90 23 91 25 92 26 96 27 93 28 95 29 94 30 97 31 100 32 98 33
REMARK SMILES IDX 99 34 15 35 16 36 17 37 18 38 19 39 20 40 21 41 22 42 23 43
REMARK SMILES IDX 84 44 24 45 83 46 25 47 26 48 27 49 77 50 28 51 82 52 76 53
REMARK SMILES IDX 78 54 29 55 81 56 75 57 74 58 30 60 62 61 42 62 61 63 43 64
REMARK SMILES IDX 46 65 60 66 79 67 44 68 45 69 59 71 80 72 47 73 31 74 32 75
REMARK SMILES IDX 40 76 33 77 39 78 41 79 38 80 34 81 35 82 36 83 37 84 63 85
REMARK SMILES IDX 64 86 72 87 65 88 71 89 73 90 70 91 66 92 67 93 68 94 69 95
REMARK SMILES IDX 48 96 49 97 57 98 50 99 56 100 58 101 55 102 51 103 52 104
REMARK SMILES IDX 53 105 54 106
REMARK H PARENT 90 24 78 59 46 70
REMARK Flexibility Score: inf
ROOT
ATOM      1  C   UNL     1      -3.915  -7.074   0.914  1.00  0.00     0.188 C 
ENDROOT
BRANCH   1   2
ATOM      2  O   UNL     1      -4.920  -8.030   0.633  1.00  0.00    -0.376 OA
BRANCH   2   3
ATOM      3  C   UNL     1      -4.849  -8.844  -0.528  1.00  0.00     0.202 C 
BRANCH   3   4
ATOM      4  C   UNL     1      -4.074  -8.498  -1.822  1.00  0.00     0.261 C 
BRANCH   4   5
ATOM      5  O   UNL     1      -3.000  -7.555  -1.747  1.00  0.00    -0.460 OA
BRANCH   5   6
ATOM      6  C   UNL     1      -3.272  -6.320  -2.222  1.00  0.00     0.330 C 
ATOM      7  O   UNL     1      -4.331  -5.956  -2.711  1.00  0.00    -0.247 OA
BRANCH   6   8
ATOM      8  C   UNL     1      -2.169  -5.365  -1.972  1.00  0.00     0.094 C 
ATOM      9  C   UNL     1      -0.880  -5.639  -1.691  1.00  0.00     0.016 C 
BRANCH   9  10
ATOM     10  C   UNL     1       0.127  -4.578  -1.463  1.00  0.00    -0.020 A 
ATOM     11  C   UNL     1       0.623  -2.179  -1.062  1.00  0.00     0.162 A 
ATOM     12  C   UNL     1      -0.243  -3.300  -1.052  1.00  0.00     0.058 A 
ATOM     13  C   UNL     1       1.967  -2.371  -1.429  1.00  0.00     0.181 A 
ATOM     14  C   UNL     1       2.403  -3.709  -1.632  1.00  0.00     0.134 A 
ATOM     15  C   UNL     1       1.482  -4.790  -1.673  1.00  0.00     0.034 A 
BRANCH  11  16
ATOM     16  O   UNL     1      -0.174  -1.109  -0.804  1.00  0.00    -0.493 OA
ATOM     17  C   UNL     1       0.138   0.170  -0.310  1.00  0.00     0.278 C 
ENDBRANCH  11  16
BRANCH  13  18
ATOM     18  O   UNL     1       2.925  -1.461  -1.738  1.00  0.00    -0.492 OA
ATOM     19  C   UNL     1       2.676  -0.077  -1.789  1.00  0.00     0.278 C 
ENDBRANCH  13  18
BRANCH  14  20
ATOM     20  S   UNL     1       4.103  -4.211  -1.970  1.00  0.00     0.265 S 
ATOM     21  O   UNL     1       4.327  -5.413  -1.186  1.00  0.00    -0.201 OA
ATOM     22  O   UNL     1       4.225  -4.269  -3.415  1.00  0.00    -0.201 OA
BRANCH  20  23
ATOM     23  N   UNL     1       5.261  -3.080  -1.472  1.00  0.00    -0.279 N 
ATOM     24  H   UNL     1       6.003  -2.855  -2.078  1.00  0.00     0.180 HD
BRANCH  23  25
ATOM     25  C   UNL     1       5.188  -2.447  -0.200  1.00  0.00     0.053 A 
ATOM     26  C   UNL     1       5.414  -1.063  -0.153  1.00  0.00     0.031 A 
ATOM     27  C   UNL     1       4.750  -3.127   0.927  1.00  0.00     0.077 A 
ATOM     28  C   UNL     1       4.897  -0.320   0.905  1.00  0.00     0.052 A 
ATOM     29  C   UNL     1       4.167  -2.387   1.941  1.00  0.00     0.163 A 
ATOM     30  C   UNL     1       4.163  -0.990   1.875  1.00  0.00     0.161 A 
ATOM     31  O   UNL     1       3.455  -3.096   2.870  1.00  0.00    -0.486 OA
ATOM     32  O   UNL     1       3.285  -0.256   2.633  1.00  0.00    -0.486 OA
ATOM     33  C   UNL     1       2.385  -2.343   3.463  1.00  0.00     0.271 C 
ATOM     34  C   UNL     1       2.086  -1.045   2.729  1.00  0.00     0.271 C 
ENDBRANCH  23  25
ENDBRANCH  20  23
ENDBRANCH  14  20
ENDBRANCH   9  10
ENDBRANCH   6   8
ENDBRANCH   5   6
ENDBRANCH   4   5
ENDBRANCH   3   4
ENDBRANCH   2   3
ENDBRANCH   1   2
BRANCH   1  35
ATOM     35  C   UNL     1      -2.468  -7.576   1.049  1.00  0.00     0.188 C 
BRANCH  35  36
ATOM     36  O   UNL     1      -2.328  -8.937   0.678  1.00  0.00    -0.376 OA
BRANCH  36  37
ATOM     37  C   UNL     1      -2.077  -9.839   1.747  1.00  0.00     0.202 C 
BRANCH  37  38
ATOM     38  C   UNL     1      -3.097  -9.918   2.902  1.00  0.00     0.261 C 
BRANCH  38  39
ATOM     39  O   UNL     1      -3.551  -8.677   3.473  1.00  0.00    -0.460 OA
BRANCH  39  40
ATOM     40  C   UNL     1      -2.708  -8.013   4.293  1.00  0.00     0.338 C 
ATOM     41  O   UNL     1      -1.567  -8.347   4.585  1.00  0.00    -0.246 OA
BRANCH  40  42
ATOM     42  C   UNL     1      -3.318  -6.706   4.626  1.00  0.00     0.060 A 
ATOM     43  C   UNL     1      -2.696  -5.532   4.180  1.00  0.00     0.016 A 
ATOM     44  C   UNL     1      -4.499  -6.631   5.370  1.00  0.00     0.016 A 
ATOM     45  C   UNL     1      -3.240  -4.285   4.500  1.00  0.00     0.010 A 
ATOM     46  C   UNL     1      -5.035  -5.378   5.700  1.00  0.00     0.010 A 
ATOM     47  C   UNL     1      -4.395  -4.195   5.292  1.00  0.00    -0.014 A 
BRANCH  47  48
ATOM     48  C   UNL     1      -4.837  -2.862   5.790  1.00  0.00     0.031 A 
ATOM     49  C   UNL     1      -4.519  -2.465   7.209  1.00  0.00     0.074 A 
ATOM     50  C   UNL     1      -5.457  -1.987   4.977  1.00  0.00     0.049 A 
ATOM     51  N   UNL     1      -4.755  -1.338   7.832  1.00  0.00    -0.248 NA
ATOM     52  C   UNL     1      -3.846  -3.479   8.032  1.00  0.00     0.031 C 
ATOM     53  C   UNL     1      -5.800  -2.237   3.578  1.00  0.00     0.029 A 
ATOM     54  N   UNL     1      -5.902  -0.708   5.208  1.00  0.00    -0.354 N 
ATOM     55  C   UNL     1      -4.255  -1.504   9.120  1.00  0.00     0.074 A 
ATOM     56  C   UNL     1      -3.751  -2.860   9.199  1.00  0.00     0.031 C 
ATOM     57  C   UNL     1      -6.389  -1.140   3.071  1.00  0.00     0.029 A 
ATOM     58  C   UNL     1      -6.498  -0.122   4.115  1.00  0.00     0.049 A 
ATOM     59  H   UNL     1      -5.802  -0.252   6.075  1.00  0.00     0.167 HD
ATOM     60  C   UNL     1      -4.205  -0.606  10.138  1.00  0.00     0.034 A 
ATOM     61  C   UNL     1      -7.076   1.089   3.974  1.00  0.00     0.034 A 
ATOM     62  C   UNL     1      -4.733   0.736  10.056  1.00  0.00     0.049 A 
ATOM     63  C   UNL     1      -7.087   2.041   5.146  1.00  0.00     0.074 A 
ATOM     64  C   UNL     1      -4.721   1.728  11.022  1.00  0.00     0.029 A 
ATOM     65  N   UNL     1      -5.389   1.271   8.954  1.00  0.00    -0.354 N 
ATOM     66  N   UNL     1      -6.582   1.883   6.349  1.00  0.00    -0.248 NA
ATOM     67  C   UNL     1      -7.731   3.343   4.932  1.00  0.00     0.031 C 
ATOM     68  C   UNL     1      -5.442   2.825  10.538  1.00  0.00     0.029 A 
ATOM     69  C   UNL     1      -5.819   2.561   9.231  1.00  0.00     0.049 A 
ATOM     70  H   UNL     1      -5.529   0.802   8.099  1.00  0.00     0.167 HD
ATOM     71  C   UNL     1      -6.822   3.080   7.022  1.00  0.00     0.074 A 
ATOM     72  C   UNL     1      -7.493   3.954   6.083  1.00  0.00     0.031 C 
ATOM     73  C   UNL     1      -6.510   3.425   8.300  1.00  0.00     0.034 A 
BRANCH  60  74
ATOM     74  C   UNL     1      -3.602  -1.075  11.444  1.00  0.00     0.023 A 
ATOM     75  C   UNL     1      -2.262  -1.494  11.533  1.00  0.00     0.031 A 
ATOM     76  C   UNL     1      -4.387  -1.141  12.609  1.00  0.00     0.131 A 
ATOM     77  C   UNL     1      -1.775  -2.038  12.732  1.00  0.00     0.055 A 
ATOM     78  C   UNL     1      -3.869  -1.597  13.823  1.00  0.00     0.041 A 
ATOM     79  F   UNL     1      -5.679  -0.778  12.584  1.00  0.00    -0.206 F 
ATOM     80  C   UNL     1      -2.561  -2.067  13.886  1.00  0.00     0.022 A 
BRANCH  77  81
ATOM     81  S   UNL     1      -0.159  -2.863  12.714  1.00  0.00     0.124 S 
ATOM     82  O   UNL     1      -0.352  -3.864  11.667  1.00  0.00    -0.237 OA
ATOM     83  O   UNL     1       0.749  -1.769  12.391  1.00  0.00    -0.237 OA
ATOM     84  O   UNL     1      -0.035  -3.402  14.066  1.00  0.00    -0.744 OA
ENDBRANCH  77  81
ENDBRANCH  60  74
BRANCH  61  85
ATOM     85  C   UNL     1      -7.713   1.475   2.680  1.00  0.00     0.023 A 
ATOM     86  C   UNL     1      -7.234   2.558   1.926  1.00  0.00     0.031 A 
ATOM     87  C   UNL     1      -8.848   0.793   2.204  1.00  0.00     0.131 A 
ATOM     88  C   UNL     1      -7.908   2.953   0.759  1.00  0.00     0.055 A 
ATOM     89  C   UNL     1      -9.481   1.154   1.014  1.00  0.00     0.041 A 
ATOM     90  F   UNL     1      -9.352  -0.245   2.890  1.00  0.00    -0.206 F 
ATOM     91  C   UNL     1      -9.019   2.247   0.290  1.00  0.00     0.022 A 
BRANCH  88  92
ATOM     92  S   UNL     1      -7.358   4.454  -0.098  1.00  0.00     0.124 S 
ATOM     93  O   UNL     1      -7.519   5.465   0.941  1.00  0.00    -0.237 OA
ATOM     94  O   UNL     1      -5.984   4.114  -0.453  1.00  0.00    -0.237 OA
ATOM     95  O   UNL     1      -8.282   4.561  -1.225  1.00  0.00    -0.744 OA
ENDBRANCH  88  92
ENDBRANCH  61  85
BRANCH  73  96
ATOM     96  C   UNL     1      -6.856   4.833   8.736  1.00  0.00     0.023 A 
ATOM     97  C   UNL     1      -8.184   5.294   8.779  1.00  0.00     0.031 A 
ATOM     98  C   UNL     1      -5.837   5.743   9.074  1.00  0.00     0.131 A 
ATOM     99  C   UNL     1      -8.451   6.643   9.064  1.00  0.00     0.055 A 
ATOM    100  C   UNL     1      -6.114   7.062   9.437  1.00  0.00     0.041 A 
ATOM    101  F   UNL     1      -4.548   5.367   9.048  1.00  0.00    -0.206 F 
ATOM    102  C   UNL     1      -7.426   7.525   9.414  1.00  0.00     0.022 A 
BRANCH  99 103
ATOM    103  S   UNL     1     -10.139   7.264   8.828  1.00  0.00     0.124 S 
ATOM    104  O   UNL     1     -10.402   6.901   7.439  1.00  0.00    -0.237 OA
ATOM    105  O   UNL     1     -10.889   6.520   9.834  1.00  0.00    -0.237 OA
ATOM    106  O   UNL     1     -10.015   8.698   9.081  1.00  0.00    -0.744 OA
ENDBRANCH  99 103
ENDBRANCH  73  96
ENDBRANCH  47  48
ENDBRANCH  40  42
ENDBRANCH  39  40
ENDBRANCH  38  39
ENDBRANCH  37  38
ENDBRANCH  36  37
ENDBRANCH  35  36
ENDBRANCH   1  35
TORSDOF 26
