REMARK SMILES O=C(CNS(=O)(=O)c1ccc(F)c(F)c1)OCCOCCOCCOC(=O)c1ccc(-c2c3nc(c(-c4cc(S(=O)(=O)[O-])ccc4F)c4ccc([nH]4)c(-c4cc(S(=O)(=O)[O-])ccc4F)c4nc(c(-c5cc(S(=O)(=O)[O-])ccc5F)c5ccc2[nH]5)C=C4)C=C3)cc1
REMARK SMILES IDX 20 1 19 2 18 3 17 4 16 5 2 6 1 7 3 8 4 9 5 11 6 12 7 13 8 14
REMARK SMILES IDX 9 15 15 16 10 17 13 18 11 19 14 20 12 21 21 22 22 23 23 24
REMARK SMILES IDX 24 25 25 26 26 27 27 28 28 29 29 30 90 31 30 32 89 33 31 34
REMARK SMILES IDX 32 35 33 36 83 37 34 38 88 39 82 40 84 41 35 42 87 43 81 44
REMARK SMILES IDX 80 45 36 47 68 48 48 49 67 50 49 51 52 52 66 53 85 54 50 55
REMARK SMILES IDX 51 56 65 58 86 59 53 60 37 61 38 62 46 63 39 64 45 65 47 66
REMARK SMILES IDX 44 67 40 68 41 69 42 70 43 71 69 72 70 73 78 74 71 75 77 76
REMARK SMILES IDX 79 77 76 78 72 79 73 80 74 81 75 82 54 83 55 84 63 85 56 86
REMARK SMILES IDX 62 87 64 88 61 89 57 90 58 91 59 92 60 93
REMARK H PARENT 4 10 84 46 52 57
REMARK Flexibility Score: inf
ROOT
ATOM      1  C   UNL     1       2.590  -1.034  -1.231  1.00  0.00     0.188 C 
ENDROOT
BRANCH   1   2
ATOM      2  O   UNL     1       3.980  -0.724  -1.142  1.00  0.00    -0.376 OA
BRANCH   2   3
ATOM      3  C   UNL     1       4.610  -1.197   0.049  1.00  0.00     0.202 C 
BRANCH   3   4
ATOM      4  C   UNL     1       4.476  -0.284   1.272  1.00  0.00     0.261 C 
BRANCH   4   5
ATOM      5  O   UNL     1       3.134   0.132   1.566  1.00  0.00    -0.462 OA
BRANCH   5   6
ATOM      6  C   UNL     1       2.483   1.206   1.062  1.00  0.00     0.321 C 
ATOM      7  O   UNL     1       1.292   1.346   1.345  1.00  0.00    -0.251 OA
BRANCH   6   8
ATOM      8  C   UNL     1       3.159   2.166   0.106  1.00  0.00     0.221 C 
BRANCH   8   9
ATOM      9  N   UNL     1       4.505   2.648   0.463  1.00  0.00    -0.200 NA
ATOM     10  H   UNL     1       5.143   1.853   0.416  1.00  0.00     0.142 HD
BRANCH   9  11
ATOM     11  S   UNL     1       5.144   3.881  -0.509  1.00  0.00     0.241 S 
ATOM     12  O   UNL     1       4.035   4.614  -1.075  1.00  0.00    -0.207 OA
ATOM     13  O   UNL     1       6.157   4.499   0.311  1.00  0.00    -0.207 OA
BRANCH  11  14
ATOM     14  C   UNL     1       5.996   3.081  -1.842  1.00  0.00     0.085 A 
ATOM     15  C   UNL     1       6.098   1.691  -1.923  1.00  0.00     0.025 A 
ATOM     16  C   UNL     1       6.575   3.890  -2.827  1.00  0.00     0.064 A 
ATOM     17  C   UNL     1       6.759   1.098  -3.001  1.00  0.00     0.044 A 
ATOM     18  C   UNL     1       7.252   3.289  -3.884  1.00  0.00     0.160 A 
ATOM     19  C   UNL     1       7.338   1.903  -3.974  1.00  0.00     0.158 A 
ATOM     20  F   UNL     1       7.836   4.056  -4.814  1.00  0.00    -0.204 F 
ATOM     21  F   UNL     1       7.990   1.328  -4.994  1.00  0.00    -0.204 F 
ENDBRANCH  11  14
ENDBRANCH   9  11
ENDBRANCH   8   9
ENDBRANCH   6   8
ENDBRANCH   5   6
ENDBRANCH   4   5
ENDBRANCH   3   4
ENDBRANCH   2   3
ENDBRANCH   1   2
BRANCH   1  22
ATOM     22  C   UNL     1       2.175  -2.323  -1.951  1.00  0.00     0.188 C 
BRANCH  22  23
ATOM     23  O   UNL     1       3.003  -3.464  -1.828  1.00  0.00    -0.376 OA
BRANCH  23  24
ATOM     24  C   UNL     1       4.293  -3.426  -2.429  1.00  0.00     0.202 C 
BRANCH  24  25
ATOM     25  C   UNL     1       4.483  -2.889  -3.857  1.00  0.00     0.261 C 
BRANCH  25  26
ATOM     26  O   UNL     1       4.009  -1.548  -4.083  1.00  0.00    -0.460 OA
BRANCH  26  27
ATOM     27  C   UNL     1       3.080  -1.434  -5.069  1.00  0.00     0.338 C 
ATOM     28  O   UNL     1       2.581  -2.341  -5.714  1.00  0.00    -0.246 OA
BRANCH  27  29
ATOM     29  C   UNL     1       2.679  -0.029  -5.256  1.00  0.00     0.060 A 
ATOM     30  C   UNL     1       1.508   0.452  -4.657  1.00  0.00     0.016 A 
ATOM     31  C   UNL     1       3.377   0.758  -6.173  1.00  0.00     0.016 A 
ATOM     32  C   UNL     1       1.034   1.729  -4.977  1.00  0.00     0.010 A 
ATOM     33  C   UNL     1       2.897   2.033  -6.493  1.00  0.00     0.010 A 
ATOM     34  C   UNL     1       1.714   2.524  -5.911  1.00  0.00    -0.014 A 
BRANCH  34  35
ATOM     35  C   UNL     1       1.181   3.850  -6.329  1.00  0.00     0.031 A 
ATOM     36  C   UNL     1       0.514   4.005  -7.670  1.00  0.00     0.074 A 
ATOM     37  C   UNL     1       1.333   4.922  -5.527  1.00  0.00     0.049 A 
ATOM     38  N   UNL     1       0.107   5.094  -8.273  1.00  0.00    -0.248 NA
ATOM     39  C   UNL     1       0.274   2.771  -8.434  1.00  0.00     0.031 C 
ATOM     40  C   UNL     1       1.923   4.894  -4.189  1.00  0.00     0.029 A 
ATOM     41  N   UNL     1       1.027   6.246  -5.730  1.00  0.00    -0.354 N 
ATOM     42  C   UNL     1      -0.423   4.683  -9.492  1.00  0.00     0.074 A 
ATOM     43  C   UNL     1      -0.273   3.244  -9.547  1.00  0.00     0.031 C 
ATOM     44  C   UNL     1       1.958   6.145  -3.701  1.00  0.00     0.029 A 
ATOM     45  C   UNL     1       1.446   7.071  -4.709  1.00  0.00     0.049 A 
ATOM     46  H   UNL     1       0.554   6.574  -6.528  1.00  0.00     0.167 HD
ATOM     47  C   UNL     1      -0.979   5.439 -10.471  1.00  0.00     0.034 A 
ATOM     48  C   UNL     1       1.462   8.418  -4.618  1.00  0.00     0.034 A 
ATOM     49  C   UNL     1      -1.118   6.875 -10.405  1.00  0.00     0.049 A 
ATOM     50  C   UNL     1       0.930   9.240  -5.771  1.00  0.00     0.074 A 
ATOM     51  C   UNL     1      -1.708   7.724 -11.327  1.00  0.00     0.029 A 
ATOM     52  N   UNL     1      -0.645   7.679  -9.377  1.00  0.00    -0.354 N 
ATOM     53  N   UNL     1       0.398   8.835  -6.902  1.00  0.00    -0.248 NA
ATOM     54  C   UNL     1       1.000  10.703  -5.636  1.00  0.00     0.031 C 
ATOM     55  C   UNL     1      -1.508   9.041 -10.904  1.00  0.00     0.029 A 
ATOM     56  C   UNL     1      -0.879   9.014  -9.671  1.00  0.00     0.049 A 
ATOM     57  H   UNL     1      -0.207   7.349  -8.559  1.00  0.00     0.167 HD
ATOM     58  C   UNL     1       0.048   9.993  -7.594  1.00  0.00     0.074 A 
ATOM     59  C   UNL     1       0.401  11.109  -6.744  1.00  0.00     0.031 C 
ATOM     60  C   UNL     1      -0.513  10.124  -8.823  1.00  0.00     0.034 A 
BRANCH  47  61
ATOM     61  C   UNL     1      -1.433   4.747 -11.735  1.00  0.00     0.023 A 
ATOM     62  C   UNL     1      -2.514   3.851 -11.749  1.00  0.00     0.031 A 
ATOM     63  C   UNL     1      -0.795   5.032 -12.957  1.00  0.00     0.131 A 
ATOM     64  C   UNL     1      -2.902   3.244 -12.955  1.00  0.00     0.055 A 
ATOM     65  C   UNL     1      -1.230   4.480 -14.162  1.00  0.00     0.041 A 
ATOM     66  F   UNL     1       0.256   5.866 -13.000  1.00  0.00    -0.206 F 
ATOM     67  C   UNL     1      -2.285   3.574 -14.165  1.00  0.00     0.022 A 
BRANCH  64  68
ATOM     68  S   UNL     1      -4.162   1.941 -12.909  1.00  0.00     0.124 S 
ATOM     69  O   UNL     1      -3.546   0.964 -12.014  1.00  0.00    -0.237 OA
ATOM     70  O   UNL     1      -5.326   2.645 -12.381  1.00  0.00    -0.237 OA
ATOM     71  O   UNL     1      -4.269   1.517 -14.303  1.00  0.00    -0.744 OA
ENDBRANCH  64  68
ENDBRANCH  47  61
BRANCH  48  72
ATOM     72  C   UNL     1       2.067   9.097  -3.431  1.00  0.00     0.023 A 
ATOM     73  C   UNL     1       1.316   9.984  -2.643  1.00  0.00     0.031 A 
ATOM     74  C   UNL     1       3.434   8.950  -3.131  1.00  0.00     0.131 A 
ATOM     75  C   UNL     1       1.949  10.743  -1.645  1.00  0.00     0.055 A 
ATOM     76  C   UNL     1       4.042   9.649  -2.087  1.00  0.00     0.041 A 
ATOM     77  F   UNL     1       4.208   8.129  -3.859  1.00  0.00    -0.206 F 
ATOM     78  C   UNL     1       3.303  10.568  -1.350  1.00  0.00     0.022 A 
BRANCH  75  79
ATOM     79  S   UNL     1       1.009  12.070  -0.839  1.00  0.00     0.124 S 
ATOM     80  O   UNL     1       0.577  12.863  -1.984  1.00  0.00    -0.237 OA
ATOM     81  O   UNL     1      -0.035  11.324  -0.145  1.00  0.00    -0.237 OA
ATOM     82  O   UNL     1       1.998  12.710   0.027  1.00  0.00    -0.744 OA
ENDBRANCH  75  79
ENDBRANCH  48  72
BRANCH  60  83
ATOM     83  C   UNL     1      -0.812  11.526  -9.306  1.00  0.00     0.023 A 
ATOM     84  C   UNL     1       0.214  12.452  -9.568  1.00  0.00     0.031 A 
ATOM     85  C   UNL     1      -2.141  11.943  -9.503  1.00  0.00     0.131 A 
ATOM     86  C   UNL     1      -0.107  13.762  -9.958  1.00  0.00     0.055 A 
ATOM     87  C   UNL     1      -2.451  13.226  -9.958  1.00  0.00     0.041 A 
ATOM     88  F   UNL     1      -3.163  11.105  -9.265  1.00  0.00    -0.206 F 
ATOM     89  C   UNL     1      -1.432  14.148 -10.175  1.00  0.00     0.022 A 
BRANCH  86  90
ATOM     90  S   UNL     1       1.226  14.985 -10.090  1.00  0.00     0.124 S 
ATOM     91  O   UNL     1       1.776  14.980  -8.738  1.00  0.00    -0.237 OA
ATOM     92  O   UNL     1       2.077  14.410 -11.126  1.00  0.00    -0.237 OA
ATOM     93  O   UNL     1       0.529  16.212 -10.472  1.00  0.00    -0.744 OA
ENDBRANCH  86  90
ENDBRANCH  60  83
ENDBRANCH  34  35
ENDBRANCH  27  29
ENDBRANCH  26  27
ENDBRANCH  25  26
ENDBRANCH  24  25
ENDBRANCH  23  24
ENDBRANCH  22  23
ENDBRANCH   1  22
TORSDOF 23
