REMARK SMILES CC(C)(C)OC(=O)N1CCN(c2nc3ccccc3s2)[C@H](C(=O)OCCOCCOCCOC(=O)c2ccc(-c3c4nc(c(-c5cc(S(=O)(=O)[O-])ccc5F)c5ccc([nH]5)c(-c5cc(S(=O)(=O)[O-])ccc5F)c5nc(c(-c6cc(S(=O)(=O)[O-])ccc6F)c6ccc3[nH]6)C=C5)C=C4)cc2)C1
REMARK SMILES IDX 28 1 27 2 26 3 25 4 24 5 22 6 23 7 21 8 8 9 9 10 99 11 10 12
REMARK SMILES IDX 11 13 6 14 7 15 5 16 2 17 1 18 3 19 4 20 12 21 13 22 20 23
REMARK SMILES IDX 14 24 19 25 15 26 18 27 16 28 17 29 29 30 30 31 31 32 32 33
REMARK SMILES IDX 33 34 34 35 35 36 36 37 37 38 98 39 38 40 97 41 39 42 40 43
REMARK SMILES IDX 41 44 91 45 42 46 96 47 90 48 92 49 43 50 95 51 89 52 88 53
REMARK SMILES IDX 44 55 76 56 56 57 75 58 57 59 60 60 74 61 93 62 58 63 59 64
REMARK SMILES IDX 73 66 94 67 61 68 45 69 46 70 54 71 47 72 53 73 55 74 52 75
REMARK SMILES IDX 48 76 49 77 50 78 51 79 77 80 78 81 86 82 79 83 85 84 87 85
REMARK SMILES IDX 84 86 80 87 81 88 82 89 83 90 62 91 63 92 71 93 64 94 70 95
REMARK SMILES IDX 72 96 69 97 65 98 66 99 67 100 68 101
REMARK H PARENT 92 54 60 65
REMARK Flexibility Score: inf
ROOT
ATOM      1  C   UNL     1       5.834   6.740   2.899  1.00  0.00     0.188 C 
ENDROOT
BRANCH   1   2
ATOM      2  O   UNL     1       6.993   5.961   3.127  1.00  0.00    -0.376 OA
BRANCH   2   3
ATOM      3  C   UNL     1       6.866   5.016   4.176  1.00  0.00     0.202 C 
BRANCH   3   4
ATOM      4  C   UNL     1       5.839   3.880   3.993  1.00  0.00     0.261 C 
BRANCH   4   5
ATOM      5  O   UNL     1       4.520   4.220   3.500  1.00  0.00    -0.462 OA
BRANCH   5   6
ATOM      6  C   UNL     1       3.511   4.412   4.394  1.00  0.00     0.330 C 
ATOM      7  O   UNL     1       3.706   4.425   5.605  1.00  0.00    -0.250 OA
BRANCH   6   8
ATOM      8  C   UNL     1       2.104   4.574   3.733  1.00  0.00     0.214 C 
ATOM      9  N   UNL     1       0.742   4.425   1.580  1.00  0.00    -0.304 N 
ATOM     10  C   UNL     1       0.124   5.726   1.858  1.00  0.00     0.144 C 
ATOM     11  C   UNL     1       2.038   4.152   2.238  1.00  0.00     0.160 C 
ATOM     12  C   UNL     1       0.119   6.042   3.362  1.00  0.00     0.141 C 
ATOM     13  N   UNL     1       1.484   5.915   3.874  1.00  0.00    -0.331 N 
BRANCH   9  14
ATOM     14  C   UNL     1       0.288   3.691   0.506  1.00  0.00     0.410 C 
ATOM     15  O   UNL     1      -0.578   4.086  -0.275  1.00  0.00    -0.224 OA
BRANCH  14  16
ATOM     16  O   UNL     1       0.861   2.467   0.454  1.00  0.00    -0.444 OA
BRANCH  16  17
ATOM     17  C   UNL     1       0.407   1.457  -0.482  1.00  0.00     0.106 C 
ATOM     18  C   UNL     1       1.039   0.158   0.041  1.00  0.00     0.056 C 
ATOM     19  C   UNL     1       0.939   1.749  -1.886  1.00  0.00     0.056 C 
ATOM     20  C   UNL     1      -1.118   1.282  -0.476  1.00  0.00     0.056 C 
ENDBRANCH  16  17
ENDBRANCH  14  16
ENDBRANCH   9  14
BRANCH  13  21
ATOM     21  C   UNL     1       1.936   6.843   4.744  1.00  0.00     0.187 A 
ATOM     22  N   UNL     1       1.524   7.024   5.974  1.00  0.00    -0.220 NA
ATOM     23  S   UNL     1       3.058   8.004   4.184  1.00  0.00    -0.097 S 
ATOM     24  C   UNL     1       2.242   8.062   6.567  1.00  0.00     0.084 A 
ATOM     25  C   UNL     1       3.204   8.657   5.753  1.00  0.00     0.056 A 
ATOM     26  C   UNL     1       2.079   8.573   7.871  1.00  0.00     0.030 A 
ATOM     27  C   UNL     1       4.049   9.691   6.188  1.00  0.00     0.021 A 
ATOM     28  C   UNL     1       2.886   9.635   8.309  1.00  0.00     0.002 A 
ATOM     29  C   UNL     1       3.862  10.181   7.479  1.00  0.00     0.002 A 
ENDBRANCH  13  21
ENDBRANCH   6   8
ENDBRANCH   5   6
ENDBRANCH   4   5
ENDBRANCH   3   4
ENDBRANCH   2   3
ENDBRANCH   1   2
BRANCH   1  30
ATOM     30  C   UNL     1       5.120   6.366   1.595  1.00  0.00     0.188 C 
BRANCH  30  31
ATOM     31  O   UNL     1       5.833   5.673   0.583  1.00  0.00    -0.376 OA
BRANCH  31  32
ATOM     32  C   UNL     1       7.161   6.093   0.320  1.00  0.00     0.202 C 
BRANCH  32  33
ATOM     33  C   UNL     1       7.413   7.566  -0.050  1.00  0.00     0.261 C 
BRANCH  33  34
ATOM     34  O   UNL     1       6.633   8.561   0.650  1.00  0.00    -0.460 OA
BRANCH  34  35
ATOM     35  C   UNL     1       5.579   9.076  -0.043  1.00  0.00     0.338 C 
ATOM     36  O   UNL     1       5.266   8.786  -1.186  1.00  0.00    -0.246 OA
BRANCH  35  37
ATOM     37  C   UNL     1       4.720   9.928   0.829  1.00  0.00     0.060 A 
ATOM     38  C   UNL     1       3.344   9.654   0.893  1.00  0.00     0.016 A 
ATOM     39  C   UNL     1       5.225  11.036   1.510  1.00  0.00     0.016 A 
ATOM     40  C   UNL     1       2.471  10.493   1.608  1.00  0.00     0.010 A 
ATOM     41  C   UNL     1       4.345  11.886   2.209  1.00  0.00     0.010 A 
ATOM     42  C   UNL     1       2.955  11.640   2.248  1.00  0.00    -0.014 A 
BRANCH  42  43
ATOM     43  C   UNL     1       2.024  12.685   2.786  1.00  0.00     0.031 A 
ATOM     44  C   UNL     1       1.709  13.877   1.929  1.00  0.00     0.074 A 
ATOM     45  C   UNL     1       1.435  12.614   3.997  1.00  0.00     0.049 A 
ATOM     46  N   UNL     1       1.013  14.944   2.225  1.00  0.00    -0.248 NA
ATOM     47  C   UNL     1       2.215  13.842   0.550  1.00  0.00     0.031 C 
ATOM     48  C   UNL     1       1.476  11.456   4.865  1.00  0.00     0.029 A 
ATOM     49  N   UNL     1       0.700  13.528   4.720  1.00  0.00    -0.354 N 
ATOM     50  C   UNL     1       0.961  15.693   1.059  1.00  0.00     0.074 A 
ATOM     51  C   UNL     1       1.754  14.988   0.072  1.00  0.00     0.031 C 
ATOM     52  C   UNL     1       0.901  11.746   6.043  1.00  0.00     0.029 A 
ATOM     53  C   UNL     1       0.441  13.125   6.015  1.00  0.00     0.049 A 
ATOM     54  H   UNL     1       0.390  14.386   4.349  1.00  0.00     0.167 HD
ATOM     55  C   UNL     1       0.287  16.845   0.826  1.00  0.00     0.034 A 
ATOM     56  C   UNL     1      -0.088  13.782   7.068  1.00  0.00     0.034 A 
ATOM     57  C   UNL     1      -0.477  17.560   1.820  1.00  0.00     0.049 A 
ATOM     58  C   UNL     1      -0.634  15.167   6.852  1.00  0.00     0.074 A 
ATOM     59  C   UNL     1      -1.183  18.741   1.672  1.00  0.00     0.029 A 
ATOM     60  N   UNL     1      -0.622  17.180   3.148  1.00  0.00    -0.354 N 
ATOM     61  N   UNL     1      -0.670  15.868   5.744  1.00  0.00    -0.248 NA
ATOM     62  C   UNL     1      -1.255  15.830   8.006  1.00  0.00     0.031 C 
ATOM     63  C   UNL     1      -1.678  19.120   2.924  1.00  0.00     0.029 A 
ATOM     64  C   UNL     1      -1.364  18.129   3.838  1.00  0.00     0.049 A 
ATOM     65  H   UNL     1      -0.253  16.357   3.543  1.00  0.00     0.167 HD
ATOM     66  C   UNL     1      -1.380  17.023   6.052  1.00  0.00     0.074 A 
ATOM     67  C   UNL     1      -1.743  16.929   7.450  1.00  0.00     0.031 C 
ATOM     68  C   UNL     1      -1.720  18.051   5.236  1.00  0.00     0.034 A 
BRANCH  55  69
ATOM     69  C   UNL     1       0.395  17.426  -0.559  1.00  0.00     0.023 A 
ATOM     70  C   UNL     1      -0.131  16.758  -1.679  1.00  0.00     0.031 A 
ATOM     71  C   UNL     1       1.052  18.650  -0.765  1.00  0.00     0.131 A 
ATOM     72  C   UNL     1       0.067  17.288  -2.962  1.00  0.00     0.055 A 
ATOM     73  C   UNL     1       1.174  19.212  -2.035  1.00  0.00     0.041 A 
ATOM     74  F   UNL     1       1.597  19.314   0.267  1.00  0.00    -0.206 F 
ATOM     75  C   UNL     1       0.692  18.525  -3.145  1.00  0.00     0.022 A 
BRANCH  72  76
ATOM     76  S   UNL     1      -0.378  16.273  -4.397  1.00  0.00     0.124 S 
ATOM     77  O   UNL     1       0.460  15.094  -4.194  1.00  0.00    -0.237 OA
ATOM     78  O   UNL     1      -1.811  16.079  -4.214  1.00  0.00    -0.237 OA
ATOM     79  O   UNL     1      -0.000  17.108  -5.536  1.00  0.00    -0.744 OA
ENDBRANCH  72  76
ENDBRANCH  55  69
BRANCH  56  80
ATOM     80  C   UNL     1      -0.100  13.176   8.435  1.00  0.00     0.023 A 
ATOM     81  C   UNL     1      -1.301  12.902   9.111  1.00  0.00     0.031 A 
ATOM     82  C   UNL     1       1.105  12.975   9.134  1.00  0.00     0.131 A 
ATOM     83  C   UNL     1      -1.273  12.505  10.459  1.00  0.00     0.055 A 
ATOM     84  C   UNL     1       1.129  12.529  10.458  1.00  0.00     0.041 A 
ATOM     85  F   UNL     1       2.284  13.232   8.545  1.00  0.00    -0.206 F 
ATOM     86  C   UNL     1      -0.067  12.305  11.133  1.00  0.00     0.022 A 
BRANCH  83  87
ATOM     87  S   UNL     1      -2.843  12.377  11.362  1.00  0.00     0.124 S 
ATOM     88  O   UNL     1      -3.390  13.718  11.194  1.00  0.00    -0.237 OA
ATOM     89  O   UNL     1      -3.523  11.309  10.637  1.00  0.00    -0.237 OA
ATOM     90  O   UNL     1      -2.426  12.037  12.721  1.00  0.00    -0.744 OA
ENDBRANCH  83  87
ENDBRANCH  56  80
BRANCH  68  91
ATOM     91  C   UNL     1      -2.590  19.136   5.824  1.00  0.00     0.023 A 
ATOM     92  C   UNL     1      -2.142  19.964   6.867  1.00  0.00     0.031 A 
ATOM     93  C   UNL     1      -3.901  19.323   5.349  1.00  0.00     0.131 A 
ATOM     94  C   UNL     1      -3.019  20.895   7.445  1.00  0.00     0.055 A 
ATOM     95  C   UNL     1      -4.743  20.300   5.878  1.00  0.00     0.041 A 
ATOM     96  F   UNL     1      -4.387  18.554   4.361  1.00  0.00    -0.206 F 
ATOM     97  C   UNL     1      -4.309  21.083   6.943  1.00  0.00     0.022 A 
BRANCH  94  98
ATOM     98  S   UNL     1      -2.486  21.780   8.936  1.00  0.00     0.124 S 
ATOM     99  O   UNL     1      -2.224  20.683   9.861  1.00  0.00    -0.237 OA
ATOM    100  O   UNL     1      -1.313  22.509   8.465  1.00  0.00    -0.237 OA
ATOM    101  O   UNL     1      -3.640  22.613   9.271  1.00  0.00    -0.744 OA
ENDBRANCH  94  98
ENDBRANCH  68  91
ENDBRANCH  42  43
ENDBRANCH  35  37
ENDBRANCH  34  35
ENDBRANCH  33  34
ENDBRANCH  32  33
ENDBRANCH  31  32
ENDBRANCH  30  31
ENDBRANCH   1  30
TORSDOF 24
