REMARK SMILES O=C(C[N@@H+](CC(F)(F)F)[C@H]1CCCC[C@H]1O)OCCOCCOCCOC(=O)c1ccc(-c2c3nc(c(-c4cc(S(=O)(=O)[O-])ccc4F)c4ccc([nH]4)c(-c4cc(S(=O)(=O)[O-])ccc4F)c4nc(c(-c5cc(S(=O)(=O)[O-])ccc5F)c5ccc2[nH]5)C=C4)C=C3)cc1
REMARK SMILES IDX 21 1 20 2 19 3 18 4 17 5 2 6 1 7 3 8 4 9 5 11 6 12 7 13 8 14
REMARK SMILES IDX 9 15 10 16 11 17 15 18 12 19 14 20 13 21 16 22 22 24 23 25
REMARK SMILES IDX 24 26 25 27 26 28 27 29 28 30 29 31 30 32 91 33 31 34 90 35
REMARK SMILES IDX 32 36 33 37 34 38 84 39 35 40 89 41 83 42 85 43 36 44 88 45
REMARK SMILES IDX 82 46 81 47 37 49 69 50 49 51 68 52 50 53 53 54 67 55 86 56
REMARK SMILES IDX 51 57 52 58 66 60 87 61 54 62 38 63 39 64 47 65 40 66 46 67
REMARK SMILES IDX 48 68 45 69 41 70 42 71 43 72 44 73 70 74 71 75 79 76 72 77
REMARK SMILES IDX 78 78 80 79 77 80 73 81 74 82 75 83 76 84 55 85 56 86 64 87
REMARK SMILES IDX 57 88 63 89 65 90 62 91 58 92 59 93 60 94 61 95
REMARK H PARENT 4 10 16 23 85 48 53 59
REMARK Flexibility Score: inf
ROOT
ATOM      1  C   UNL     1       3.278   1.959   1.237  1.00  0.00     0.188 C 
ENDROOT
BRANCH   1   2
ATOM      2  O   UNL     1       4.425   1.903   0.401  1.00  0.00    -0.376 OA
BRANCH   2   3
ATOM      3  C   UNL     1       4.907   0.600   0.133  1.00  0.00     0.202 C 
BRANCH   3   4
ATOM      4  C   UNL     1       4.299   0.126  -1.178  1.00  0.00     0.261 C 
BRANCH   4   5
ATOM      5  O   UNL     1       2.852   0.129  -1.208  1.00  0.00    -0.459 OA
BRANCH   5   6
ATOM      6  C   UNL     1       2.025  -0.711  -0.546  1.00  0.00     0.361 C 
ATOM      7  O   UNL     1       0.818  -0.690  -0.787  1.00  0.00    -0.245 OA
BRANCH   6   8
ATOM      8  C   UNL     1       2.580  -1.611   0.546  1.00  0.00     0.387 C 
BRANCH   8   9
ATOM      9  N   UNL     1       3.668  -2.531   0.110  1.00  0.00    -0.314 N 
ATOM     10  H   UNL     1       4.369  -2.052  -0.457  1.00  0.00     0.349 HD
BRANCH   9  11
ATOM     11  C   UNL     1       4.389  -3.035   1.322  1.00  0.00     0.380 C 
BRANCH  11  12
ATOM     12  C   UNL     1       3.616  -3.594   2.538  1.00  0.00     0.438 C 
ATOM     13  F   UNL     1       2.701  -4.513   2.166  1.00  0.00    -0.165 F 
ATOM     14  F   UNL     1       4.466  -4.178   3.409  1.00  0.00    -0.165 F 
ATOM     15  F   UNL     1       2.971  -2.604   3.196  1.00  0.00    -0.165 F 
ENDBRANCH  11  12
ENDBRANCH   9  11
BRANCH   9  16
ATOM     16  C   UNL     1       3.107  -3.592  -0.786  1.00  0.00     0.213 C 
ATOM     17  C   UNL     1       3.145  -3.089  -2.253  1.00  0.00     0.068 C 
ATOM     18  C   UNL     1       3.775  -5.003  -0.760  1.00  0.00     0.172 C 
ATOM     19  C   UNL     1       2.394  -4.029  -3.188  1.00  0.00     0.006 C 
ATOM     20  C   UNL     1       3.021  -5.962  -1.689  1.00  0.00     0.038 C 
ATOM     21  C   UNL     1       2.945  -5.445  -3.124  1.00  0.00     0.003 C 
BRANCH  18  22
ATOM     22  O   UNL     1       5.145  -4.926  -1.164  1.00  0.00    -0.387 OA
ATOM     23  H   UNL     1       5.196  -4.593  -2.074  1.00  0.00     0.211 HD
ENDBRANCH  18  22
ENDBRANCH   9  16
ENDBRANCH   8   9
ENDBRANCH   6   8
ENDBRANCH   5   6
ENDBRANCH   4   5
ENDBRANCH   3   4
ENDBRANCH   2   3
ENDBRANCH   1   2
BRANCH   1  24
ATOM     24  C   UNL     1       2.476   3.237   0.985  1.00  0.00     0.188 C 
BRANCH  24  25
ATOM     25  O   UNL     1       3.162   4.453   0.708  1.00  0.00    -0.376 OA
BRANCH  25  26
ATOM     26  C   UNL     1       4.473   4.651   1.212  1.00  0.00     0.202 C 
BRANCH  26  27
ATOM     27  C   UNL     1       4.612   4.857   2.723  1.00  0.00     0.261 C 
BRANCH  27  28
ATOM     28  O   UNL     1       4.220   3.726   3.525  1.00  0.00    -0.460 OA
BRANCH  28  29
ATOM     29  C   UNL     1       3.025   3.865   4.154  1.00  0.00     0.338 C 
ATOM     30  O   UNL     1       2.278   4.826   4.083  1.00  0.00    -0.246 OA
BRANCH  29  31
ATOM     31  C   UNL     1       2.639   2.629   4.875  1.00  0.00     0.060 A 
ATOM     32  C   UNL     1       1.343   2.137   4.669  1.00  0.00     0.016 A 
ATOM     33  C   UNL     1       3.454   2.060   5.857  1.00  0.00     0.016 A 
ATOM     34  C   UNL     1       0.824   1.145   5.504  1.00  0.00     0.010 A 
ATOM     35  C   UNL     1       2.927   1.071   6.703  1.00  0.00     0.010 A 
ATOM     36  C   UNL     1       1.588   0.654   6.571  1.00  0.00    -0.014 A 
BRANCH  36  37
ATOM     37  C   UNL     1       0.896  -0.064   7.680  1.00  0.00     0.031 A 
ATOM     38  C   UNL     1       0.453   0.739   8.882  1.00  0.00     0.074 A 
ATOM     39  C   UNL     1       0.600  -1.375   7.612  1.00  0.00     0.049 A 
ATOM     40  N   UNL     1      -0.184   0.352   9.958  1.00  0.00    -0.248 NA
ATOM     41  C   UNL     1       0.781   2.173   8.862  1.00  0.00     0.031 C 
ATOM     42  C   UNL     1       0.920  -2.260   6.495  1.00  0.00     0.029 A 
ATOM     43  N   UNL     1      -0.048  -2.189   8.512  1.00  0.00    -0.354 N 
ATOM     44  C   UNL     1      -0.332   1.493  10.743  1.00  0.00     0.074 A 
ATOM     45  C   UNL     1       0.321   2.574  10.036  1.00  0.00     0.031 C 
ATOM     46  C   UNL     1       0.469  -3.496   6.777  1.00  0.00     0.029 A 
ATOM     47  C   UNL     1      -0.150  -3.498   8.103  1.00  0.00     0.049 A 
ATOM     48  H   UNL     1      -0.405  -1.864   9.370  1.00  0.00     0.167 HD
ATOM     49  C   UNL     1      -0.963   1.635  11.936  1.00  0.00     0.034 A 
ATOM     50  C   UNL     1      -0.672  -4.574   8.730  1.00  0.00     0.034 A 
ATOM     51  C   UNL     1      -1.607   0.556  12.644  1.00  0.00     0.049 A 
ATOM     52  C   UNL     1      -1.299  -4.409  10.097  1.00  0.00     0.074 A 
ATOM     53  C   UNL     1      -2.286   0.601  13.850  1.00  0.00     0.029 A 
ATOM     54  N   UNL     1      -1.643  -0.765  12.220  1.00  0.00    -0.354 N 
ATOM     55  N   UNL     1      -1.446  -3.322  10.818  1.00  0.00    -0.248 NA
ATOM     56  C   UNL     1      -1.842  -5.622  10.726  1.00  0.00     0.031 C 
ATOM     57  C   UNL     1      -2.669  -0.702  14.189  1.00  0.00     0.029 A 
ATOM     58  C   UNL     1      -2.301  -1.549  13.156  1.00  0.00     0.049 A 
ATOM     59  H   UNL     1      -1.258  -1.097  11.377  1.00  0.00     0.167 HD
ATOM     60  C   UNL     1      -2.136  -3.716  11.965  1.00  0.00     0.074 A 
ATOM     61  C   UNL     1      -2.381  -5.136  11.834  1.00  0.00     0.031 C 
ATOM     62  C   UNL     1      -2.540  -2.968  13.024  1.00  0.00     0.034 A 
BRANCH  49  63
ATOM     63  C   UNL     1      -0.929   3.005  12.573  1.00  0.00     0.023 A 
ATOM     64  C   UNL     1      -1.553   4.116  11.979  1.00  0.00     0.031 A 
ATOM     65  C   UNL     1      -0.224   3.209  13.773  1.00  0.00     0.131 A 
ATOM     66  C   UNL     1      -1.394   5.391  12.544  1.00  0.00     0.055 A 
ATOM     67  C   UNL     1      -0.138   4.466  14.372  1.00  0.00     0.041 A 
ATOM     68  F   UNL     1       0.411   2.190  14.374  1.00  0.00    -0.206 F 
ATOM     69  C   UNL     1      -0.711   5.570  13.749  1.00  0.00     0.022 A 
BRANCH  66  70
ATOM     70  S   UNL     1      -1.961   6.835  11.601  1.00  0.00     0.124 S 
ATOM     71  O   UNL     1      -1.203   6.692  10.361  1.00  0.00    -0.237 OA
ATOM     72  O   UNL     1      -3.397   6.603  11.505  1.00  0.00    -0.237 OA
ATOM     73  O   UNL     1      -1.566   7.966  12.437  1.00  0.00    -0.744 OA
ENDBRANCH  66  70
ENDBRANCH  49  63
BRANCH  50  74
ATOM     74  C   UNL     1      -0.607  -5.926   8.100  1.00  0.00     0.023 A 
ATOM     75  C   UNL     1      -1.776  -6.623   7.749  1.00  0.00     0.031 A 
ATOM     76  C   UNL     1       0.627  -6.574   7.917  1.00  0.00     0.131 A 
ATOM     77  C   UNL     1      -1.688  -7.944   7.283  1.00  0.00     0.055 A 
ATOM     78  C   UNL     1       0.711  -7.870   7.405  1.00  0.00     0.041 A 
ATOM     79  F   UNL     1       1.774  -5.956   8.241  1.00  0.00    -0.206 F 
ATOM     80  C   UNL     1      -0.453  -8.568   7.097  1.00  0.00     0.022 A 
BRANCH  77  81
ATOM     81  S   UNL     1      -3.222  -8.874   7.004  1.00  0.00     0.124 S 
ATOM     82  O   UNL     1      -3.829  -8.851   8.329  1.00  0.00    -0.237 OA
ATOM     83  O   UNL     1      -3.881  -8.069   5.981  1.00  0.00    -0.237 OA
ATOM     84  O   UNL     1      -2.750 -10.182   6.554  1.00  0.00    -0.744 OA
ENDBRANCH  77  81
ENDBRANCH  50  74
BRANCH  62  85
ATOM     85  C   UNL     1      -3.347  -3.663  14.098  1.00  0.00     0.023 A 
ATOM     86  C   UNL     1      -2.797  -4.669  14.912  1.00  0.00     0.031 A 
ATOM     87  C   UNL     1      -4.698  -3.322  14.295  1.00  0.00     0.131 A 
ATOM     88  C   UNL     1      -3.608  -5.340  15.842  1.00  0.00     0.055 A 
ATOM     89  C   UNL     1      -5.483  -3.950  15.263  1.00  0.00     0.041 A 
ATOM     90  F   UNL     1      -5.278  -2.370  13.548  1.00  0.00    -0.206 F 
ATOM     91  C   UNL     1      -4.944  -4.976  16.033  1.00  0.00     0.022 A 
BRANCH  88  92
ATOM     92  S   UNL     1      -2.925  -6.769  16.728  1.00  0.00     0.124 S 
ATOM     93  O   UNL     1      -2.487  -7.627  15.632  1.00  0.00    -0.237 OA
ATOM     94  O   UNL     1      -1.864  -6.162  17.525  1.00  0.00    -0.237 OA
ATOM     95  O   UNL     1      -4.063  -7.274  17.494  1.00  0.00    -0.744 OA
ENDBRANCH  88  92
ENDBRANCH  62  85
ENDBRANCH  36  37
ENDBRANCH  29  31
ENDBRANCH  28  29
ENDBRANCH  27  28
ENDBRANCH  26  27
ENDBRANCH  25  26
ENDBRANCH  24  25
ENDBRANCH   1  24
TORSDOF 25
