REMARK SMILES CS(=O)(=O)c1ccc(/C=C(/C(=O)OCCOCCOCCOC(=O)c2ccc(-c3c4nc(c(-c5cc(S(=O)(=O)[O-])ccc5F)c5ccc([nH]5)c(-c5cc(S(=O)(=O)[O-])ccc5F)c5nc(c(-c6cc(S(=O)(=O)[O-])ccc6F)c6ccc3[nH]6)C=C5)C=C4)cc2)c2ccc(O)cc2)cc1
REMARK SMILES IDX 18 1 17 2 16 3 15 4 14 5 13 6 11 7 12 8 10 9 9 10 8 11 5 12
REMARK SMILES IDX 6 13 96 14 7 15 95 16 2 17 1 18 3 19 4 20 88 21 89 22 94 23
REMARK SMILES IDX 90 24 93 25 91 26 92 27 19 29 20 30 21 31 22 32 23 33 24 34
REMARK SMILES IDX 25 35 26 36 87 37 27 38 86 39 28 40 29 41 30 42 80 43 31 44
REMARK SMILES IDX 85 45 79 46 81 47 32 48 84 49 78 50 77 51 33 53 65 54 45 55
REMARK SMILES IDX 64 56 46 57 49 58 63 59 82 60 47 61 48 62 62 64 83 65 50 66
REMARK SMILES IDX 34 67 35 68 43 69 36 70 42 71 44 72 41 73 37 74 38 75 39 76
REMARK SMILES IDX 40 77 66 78 67 79 75 80 68 81 74 82 76 83 73 84 69 85 70 86
REMARK SMILES IDX 71 87 72 88 51 89 52 90 60 91 53 92 59 93 61 94 58 95 54 96
REMARK SMILES IDX 55 97 56 98 57 99
REMARK H PARENT 92 28 81 52 49 63
REMARK Flexibility Score: inf
ROOT
ATOM      1  C   UNL     1       0.729   1.947   9.399  1.00  0.00     0.188 C 
ENDROOT
BRANCH   1   2
ATOM      2  C   UNL     1       1.773   1.242  10.290  1.00  0.00     0.188 C 
BRANCH   2   3
ATOM      3  O   UNL     1       2.309   2.083  11.297  1.00  0.00    -0.376 OA
BRANCH   3   4
ATOM      4  C   UNL     1       3.660   2.475  11.104  1.00  0.00     0.202 C 
BRANCH   4   5
ATOM      5  C   UNL     1       3.973   3.337   9.867  1.00  0.00     0.261 C 
BRANCH   5   6
ATOM      6  O   UNL     1       3.388   2.910   8.622  1.00  0.00    -0.460 OA
BRANCH   6   7
ATOM      7  C   UNL     1       4.013   1.931   7.921  1.00  0.00     0.338 C 
ATOM      8  O   UNL     1       5.056   1.393   8.258  1.00  0.00    -0.246 OA
BRANCH   7   9
ATOM      9  C   UNL     1       3.194   1.516   6.723  1.00  0.00     0.067 C 
ATOM     10  C   UNL     1       2.465   2.443   6.048  1.00  0.00     0.024 C 
BRANCH  10  11
ATOM     11  C   UNL     1       1.692   2.287   4.787  1.00  0.00    -0.025 A 
ATOM     12  C   UNL     1       0.667   1.977   2.183  1.00  0.00     0.067 A 
ATOM     13  C   UNL     1       0.525   0.947   3.107  1.00  0.00     0.021 A 
ATOM     14  C   UNL     1       1.193   3.207   2.582  1.00  0.00     0.021 A 
ATOM     15  C   UNL     1       1.004   1.123   4.412  1.00  0.00     0.009 A 
ATOM     16  C   UNL     1       1.698   3.358   3.879  1.00  0.00     0.009 A 
BRANCH  12  17
ATOM     17  S   UNL     1       0.259   1.715   0.473  1.00  0.00     0.175 S 
ATOM     18  C   UNL     1       0.972   0.143   0.051  1.00  0.00     0.163 C 
ATOM     19  O   UNL     1       0.978   2.717  -0.296  1.00  0.00    -0.224 OA
ATOM     20  O   UNL     1      -1.183   1.610   0.389  1.00  0.00    -0.224 OA
ENDBRANCH  12  17
ENDBRANCH  10  11
BRANCH   9  21
ATOM     21  C   UNL     1       3.193   0.087   6.338  1.00  0.00    -0.011 A 
ATOM     22  C   UNL     1       2.447  -0.827   7.101  1.00  0.00     0.013 A 
ATOM     23  C   UNL     1       3.773  -0.347   5.136  1.00  0.00     0.013 A 
ATOM     24  C   UNL     1       2.231  -2.124   6.642  1.00  0.00     0.047 A 
ATOM     25  C   UNL     1       3.547  -1.649   4.673  1.00  0.00     0.047 A 
ATOM     26  C   UNL     1       2.761  -2.517   5.422  1.00  0.00     0.115 A 
BRANCH  26  27
ATOM     27  O   UNL     1       2.444  -3.764   4.982  1.00  0.00    -0.508 OA
ATOM     28  H   UNL     1       1.911  -4.326   5.510  1.00  0.00     0.293 HD
ENDBRANCH  26  27
ENDBRANCH   9  21
ENDBRANCH   7   9
ENDBRANCH   6   7
ENDBRANCH   5   6
ENDBRANCH   4   5
ENDBRANCH   3   4
ENDBRANCH   2   3
ENDBRANCH   1   2
BRANCH   1  29
ATOM     29  O   UNL     1       0.306   3.268   9.701  1.00  0.00    -0.376 OA
BRANCH  29  30
ATOM     30  C   UNL     1       0.034   3.612  11.050  1.00  0.00     0.202 C 
BRANCH  30  31
ATOM     31  C   UNL     1      -0.859   2.720  11.936  1.00  0.00     0.261 C 
BRANCH  31  32
ATOM     32  O   UNL     1      -0.748   1.297  11.764  1.00  0.00    -0.460 OA
BRANCH  32  33
ATOM     33  C   UNL     1      -1.738   0.708  11.048  1.00  0.00     0.338 C 
ATOM     34  O   UNL     1      -2.709   1.265  10.551  1.00  0.00    -0.246 OA
BRANCH  33  35
ATOM     35  C   UNL     1      -1.383  -0.703  10.774  1.00  0.00     0.060 A 
ATOM     36  C   UNL     1      -1.232  -1.116   9.442  1.00  0.00     0.016 A 
ATOM     37  C   UNL     1      -1.237  -1.625  11.812  1.00  0.00     0.016 A 
ATOM     38  C   UNL     1      -0.942  -2.449   9.143  1.00  0.00     0.010 A 
ATOM     39  C   UNL     1      -0.978  -2.968  11.509  1.00  0.00     0.010 A 
ATOM     40  C   UNL     1      -0.848  -3.393  10.174  1.00  0.00    -0.014 A 
BRANCH  40  41
ATOM     41  C   UNL     1      -0.811  -4.843   9.848  1.00  0.00     0.031 A 
ATOM     42  C   UNL     1      -2.110  -5.603   9.820  1.00  0.00     0.074 A 
ATOM     43  C   UNL     1       0.343  -5.476   9.566  1.00  0.00     0.049 A 
ATOM     44  N   UNL     1      -2.324  -6.880   9.639  1.00  0.00    -0.248 NA
ATOM     45  C   UNL     1      -3.329  -4.808  10.029  1.00  0.00     0.031 C 
ATOM     46  C   UNL     1       1.658  -4.844   9.499  1.00  0.00     0.029 A 
ATOM     47  N   UNL     1       0.591  -6.799   9.289  1.00  0.00    -0.354 N 
ATOM     48  C   UNL     1      -3.703  -7.046   9.719  1.00  0.00     0.074 A 
ATOM     49  C   UNL     1      -4.267  -5.741   9.995  1.00  0.00     0.031 C 
ATOM     50  C   UNL     1       2.576  -5.781   9.201  1.00  0.00     0.029 A 
ATOM     51  C   UNL     1       1.925  -7.088   9.114  1.00  0.00     0.049 A 
ATOM     52  H   UNL     1      -0.119  -7.477   9.222  1.00  0.00     0.167 HD
ATOM     53  C   UNL     1      -4.431  -8.181   9.576  1.00  0.00     0.034 A 
ATOM     54  C   UNL     1       2.550  -8.273   8.940  1.00  0.00     0.034 A 
ATOM     55  C   UNL     1      -3.855  -9.480   9.329  1.00  0.00     0.049 A 
ATOM     56  C   UNL     1       1.727  -9.543   8.902  1.00  0.00     0.074 A 
ATOM     57  C   UNL     1      -4.505 -10.693   9.171  1.00  0.00     0.029 A 
ATOM     58  N   UNL     1      -2.496  -9.744   9.222  1.00  0.00    -0.354 N 
ATOM     59  N   UNL     1       0.424  -9.690   8.984  1.00  0.00    -0.248 NA
ATOM     60  C   UNL     1       2.461 -10.807   8.747  1.00  0.00     0.031 C 
ATOM     61  C   UNL     1      -3.538 -11.697   9.058  1.00  0.00     0.029 A 
ATOM     62  C   UNL     1      -2.286 -11.104   9.042  1.00  0.00     0.049 A 
ATOM     63  H   UNL     1      -1.784  -9.065   9.268  1.00  0.00     0.167 HD
ATOM     64  C   UNL     1       0.185 -11.058   8.852  1.00  0.00     0.074 A 
ATOM     65  C   UNL     1       1.475 -11.688   8.674  1.00  0.00     0.031 C 
ATOM     66  C   UNL     1      -0.995 -11.730   8.869  1.00  0.00     0.034 A 
BRANCH  53  67
ATOM     67  C   UNL     1      -5.926  -8.070   9.753  1.00  0.00     0.023 A 
ATOM     68  C   UNL     1      -6.721  -7.299   8.887  1.00  0.00     0.031 A 
ATOM     69  C   UNL     1      -6.561  -8.719  10.827  1.00  0.00     0.131 A 
ATOM     70  C   UNL     1      -8.089  -7.138   9.152  1.00  0.00     0.055 A 
ATOM     71  C   UNL     1      -7.938  -8.625  11.034  1.00  0.00     0.041 A 
ATOM     72  F   UNL     1      -5.851  -9.447  11.703  1.00  0.00    -0.206 F 
ATOM     73  C   UNL     1      -8.709  -7.817  10.204  1.00  0.00     0.022 A 
BRANCH  70  74
ATOM     74  S   UNL     1      -9.015  -5.904   8.199  1.00  0.00     0.124 S 
ATOM     75  O   UNL     1      -8.257  -4.686   8.477  1.00  0.00    -0.237 OA
ATOM     76  O   UNL     1      -8.920  -6.420   6.839  1.00  0.00    -0.237 OA
ATOM     77  O   UNL     1     -10.351  -5.946   8.791  1.00  0.00    -0.744 OA
ENDBRANCH  70  74
ENDBRANCH  53  67
BRANCH  54  78
ATOM     78  C   UNL     1       4.040  -8.343   8.850  1.00  0.00     0.023 A 
ATOM     79  C   UNL     1       4.678  -8.859   7.709  1.00  0.00     0.031 A 
ATOM     80  C   UNL     1       4.847  -7.971   9.940  1.00  0.00     0.131 A 
ATOM     81  C   UNL     1       6.071  -9.038   7.705  1.00  0.00     0.055 A 
ATOM     82  C   UNL     1       6.238  -8.092   9.907  1.00  0.00     0.041 A 
ATOM     83  F   UNL     1       4.293  -7.484  11.062  1.00  0.00    -0.206 F 
ATOM     84  C   UNL     1       6.856  -8.643   8.790  1.00  0.00     0.022 A 
BRANCH  81  85
ATOM     85  S   UNL     1       6.834  -9.895   6.300  1.00  0.00     0.124 S 
ATOM     86  O   UNL     1       6.146 -11.180   6.327  1.00  0.00    -0.237 OA
ATOM     87  O   UNL     1       6.500  -9.011   5.187  1.00  0.00    -0.237 OA
ATOM     88  O   UNL     1       8.251  -9.936   6.654  1.00  0.00    -0.744 OA
ENDBRANCH  81  85
ENDBRANCH  54  78
BRANCH  66  89
ATOM     89  C   UNL     1      -0.955 -13.222   8.626  1.00  0.00     0.023 A 
ATOM     90  C   UNL     1      -0.335 -14.112   9.521  1.00  0.00     0.031 A 
ATOM     91  C   UNL     1      -1.553 -13.763   7.472  1.00  0.00     0.131 A 
ATOM     92  C   UNL     1      -0.280 -15.483   9.222  1.00  0.00     0.055 A 
ATOM     93  C   UNL     1      -1.556 -15.135   7.214  1.00  0.00     0.041 A 
ATOM     94  F   UNL     1      -2.155 -12.964   6.576  1.00  0.00    -0.206 F 
ATOM     95  C   UNL     1      -0.905 -16.002   8.085  1.00  0.00     0.022 A 
BRANCH  92  96
ATOM     96  S   UNL     1       0.706 -16.572  10.287  1.00  0.00     0.124 S 
ATOM     97  O   UNL     1       2.026 -15.954  10.212  1.00  0.00    -0.237 OA
ATOM     98  O   UNL     1       0.021 -16.458  11.570  1.00  0.00    -0.237 OA
ATOM     99  O   UNL     1       0.595 -17.878   9.640  1.00  0.00    -0.744 OA
ENDBRANCH  92  96
ENDBRANCH  66  89
ENDBRANCH  40  41
ENDBRANCH  33  35
ENDBRANCH  32  33
ENDBRANCH  31  32
ENDBRANCH  30  31
ENDBRANCH  29  30
ENDBRANCH   1  29
TORSDOF 24
