REMARK SMILES CC(C)C[C@H](CNC(=O)N[C@@H](C)c1nccs1)C(=O)OCCOCCOCCOC(=O)c1ccc(-c2c3nc(c(-c4cc(S(=O)(=O)[O-])ccc4F)c4ccc([nH]4)c(-c4cc(S(=O)(=O)[O-])ccc4F)c4nc(c(-c5cc(S(=O)(=O)[O-])ccc5F)c5ccc2[nH]5)C=C4)C=C3)cc1
REMARK SMILES IDX 24 1 23 2 22 3 21 4 20 5 18 6 19 7 5 8 4 9 2 10 1 11 3 12
REMARK SMILES IDX 6 13 7 14 8 15 9 17 10 18 11 20 12 21 13 22 14 23 17 24
REMARK SMILES IDX 15 25 16 26 25 27 26 28 27 29 28 30 29 31 30 32 31 33 32 34
REMARK SMILES IDX 33 35 94 36 34 37 93 38 35 39 36 40 37 41 87 42 38 43 92 44
REMARK SMILES IDX 86 45 88 46 39 47 91 48 85 49 84 50 40 52 72 53 52 54 71 55
REMARK SMILES IDX 53 56 56 57 70 58 89 59 54 60 55 61 69 63 90 64 57 65 41 66
REMARK SMILES IDX 42 67 50 68 43 69 49 70 51 71 48 72 44 73 45 74 46 75 47 76
REMARK SMILES IDX 73 77 74 78 82 79 75 80 81 81 83 82 80 83 76 84 77 85 78 86
REMARK SMILES IDX 79 87 58 88 59 89 67 90 60 91 66 92 68 93 65 94 61 95 62 96
REMARK SMILES IDX 63 97 64 98
REMARK H PARENT 7 16 10 19 88 51 56 62
REMARK Flexibility Score: inf
ROOT
ATOM      1  C   UNL     1      -4.790   0.321   0.368  1.00  0.00     0.188 C 
ENDROOT
BRANCH   1   2
ATOM      2  O   UNL     1      -5.851   0.267  -0.580  1.00  0.00    -0.376 OA
BRANCH   2   3
ATOM      3  C   UNL     1      -5.929  -0.786  -1.524  1.00  0.00     0.202 C 
BRANCH   3   4
ATOM      4  C   UNL     1      -4.934  -0.757  -2.688  1.00  0.00     0.261 C 
BRANCH   4   5
ATOM      5  O   UNL     1      -3.556  -1.036  -2.357  1.00  0.00    -0.463 OA
BRANCH   5   6
ATOM      6  C   UNL     1      -2.747   0.054  -2.256  1.00  0.00     0.310 C 
ATOM      7  O   UNL     1      -3.154   1.209  -2.301  1.00  0.00    -0.252 OA
BRANCH   6   8
ATOM      8  C   UNL     1      -1.260  -0.279  -2.167  1.00  0.00     0.119 C 
BRANCH   8   9
ATOM      9  C   UNL     1      -0.655  -0.225  -3.587  1.00  0.00     0.020 C 
BRANCH   9  10
ATOM     10  C   UNL     1      -0.854   1.102  -4.352  1.00  0.00    -0.017 C 
ATOM     11  C   UNL     1      -0.293   2.308  -3.596  1.00  0.00     0.007 C 
ATOM     12  C   UNL     1      -0.196   1.003  -5.731  1.00  0.00     0.007 C 
ENDBRANCH   9  10
ENDBRANCH   8   9
BRANCH   8  13
ATOM     13  C   UNL     1      -0.947  -1.619  -1.473  1.00  0.00     0.133 C 
BRANCH  13  14
ATOM     14  N   UNL     1       0.478  -1.930  -1.430  1.00  0.00    -0.337 N 
ATOM     15  C   UNL     1       1.524  -1.588  -0.674  1.00  0.00     0.315 C 
ATOM     16  H   UNL     1       0.735  -2.555  -2.146  1.00  0.00     0.165 HD
ATOM     17  O   UNL     1       2.633  -1.969  -1.057  1.00  0.00    -0.249 OA
ATOM     18  N   UNL     1       1.465  -0.871   0.444  1.00  0.00    -0.329 N 
ATOM     19  H   UNL     1       2.356  -0.585   0.749  1.00  0.00     0.166 HD
BRANCH  18  20
ATOM     20  C   UNL     1       0.404  -0.405   1.326  1.00  0.00     0.140 C 
ATOM     21  C   UNL     1       0.194  -1.434   2.441  1.00  0.00     0.039 C 
BRANCH  20  22
ATOM     22  C   UNL     1       0.798   0.952   1.882  1.00  0.00     0.115 A 
ATOM     23  N   UNL     1       1.079   1.204   3.145  1.00  0.00    -0.247 NA
ATOM     24  S   UNL     1       0.869   2.326   0.836  1.00  0.00    -0.125 S 
ATOM     25  C   UNL     1       1.384   2.545   3.309  1.00  0.00     0.123 A 
ATOM     26  C   UNL     1       1.321   3.309   2.165  1.00  0.00     0.087 A 
ENDBRANCH  20  22
ENDBRANCH  18  20
ENDBRANCH  13  14
ENDBRANCH   8  13
ENDBRANCH   6   8
ENDBRANCH   5   6
ENDBRANCH   4   5
ENDBRANCH   3   4
ENDBRANCH   2   3
ENDBRANCH   1   2
BRANCH   1  27
ATOM     27  C   UNL     1      -3.989  -0.944   0.704  1.00  0.00     0.188 C 
BRANCH  27  28
ATOM     28  O   UNL     1      -4.739  -2.146   0.687  1.00  0.00    -0.376 OA
BRANCH  28  29
ATOM     29  C   UNL     1      -4.865  -2.804   1.940  1.00  0.00     0.202 C 
BRANCH  29  30
ATOM     30  C   UNL     1      -5.856  -2.103   2.876  1.00  0.00     0.261 C 
BRANCH  30  31
ATOM     31  O   UNL     1      -5.451  -0.787   3.300  1.00  0.00    -0.460 OA
BRANCH  31  32
ATOM     32  C   UNL     1      -4.340  -0.732   4.069  1.00  0.00     0.338 C 
ATOM     33  O   UNL     1      -3.677  -1.674   4.457  1.00  0.00    -0.246 OA
BRANCH  32  34
ATOM     34  C   UNL     1      -3.925   0.680   4.183  1.00  0.00     0.060 A 
ATOM     35  C   UNL     1      -2.756   1.076   3.533  1.00  0.00     0.016 A 
ATOM     36  C   UNL     1      -4.631   1.585   4.975  1.00  0.00     0.016 A 
ATOM     37  C   UNL     1      -2.256   2.359   3.715  1.00  0.00     0.010 A 
ATOM     38  C   UNL     1      -4.108   2.871   5.178  1.00  0.00     0.010 A 
ATOM     39  C   UNL     1      -2.885   3.247   4.590  1.00  0.00    -0.014 A 
BRANCH  39  40
ATOM     40  C   UNL     1      -2.105   4.412   5.089  1.00  0.00     0.031 A 
ATOM     41  C   UNL     1      -1.505   4.316   6.470  1.00  0.00     0.074 A 
ATOM     42  C   UNL     1      -1.807   5.470   4.312  1.00  0.00     0.049 A 
ATOM     43  N   UNL     1      -0.878   5.221   7.175  1.00  0.00    -0.248 NA
ATOM     44  C   UNL     1      -1.633   3.013   7.140  1.00  0.00     0.031 C 
ATOM     45  C   UNL     1      -2.193   5.631   2.912  1.00  0.00     0.029 A 
ATOM     46  N   UNL     1      -1.089   6.607   4.595  1.00  0.00    -0.354 N 
ATOM     47  C   UNL     1      -0.587   4.614   8.394  1.00  0.00     0.074 A 
ATOM     48  C   UNL     1      -1.112   3.267   8.328  1.00  0.00     0.031 C 
ATOM     49  C   UNL     1      -1.700   6.796   2.455  1.00  0.00     0.029 A 
ATOM     50  C   UNL     1      -1.017   7.492   3.545  1.00  0.00     0.049 A 
ATOM     51  H   UNL     1      -0.666   6.772   5.468  1.00  0.00     0.167 HD
ATOM     52  C   UNL     1       0.054   5.131   9.471  1.00  0.00     0.034 A 
ATOM     53  C   UNL     1      -0.492   8.734   3.483  1.00  0.00     0.034 A 
ATOM     54  C   UNL     1       0.610   6.461   9.511  1.00  0.00     0.049 A 
ATOM     55  C   UNL     1       0.143   9.328   4.720  1.00  0.00     0.074 A 
ATOM     56  C   UNL     1       1.259   7.095  10.556  1.00  0.00     0.029 A 
ATOM     57  N   UNL     1       0.590   7.361   8.454  1.00  0.00    -0.354 N 
ATOM     58  N   UNL     1       0.321   8.786   5.903  1.00  0.00    -0.248 NA
ATOM     59  C   UNL     1       0.640  10.707   4.611  1.00  0.00     0.031 C 
ATOM     60  C   UNL     1       1.583   8.394  10.149  1.00  0.00     0.029 A 
ATOM     61  C   UNL     1       1.200   8.548   8.826  1.00  0.00     0.049 A 
ATOM     62  H   UNL     1       0.200   7.181   7.568  1.00  0.00     0.167 HD
ATOM     63  C   UNL     1       0.978   9.750   6.667  1.00  0.00     0.074 A 
ATOM     64  C   UNL     1       1.174  10.899   5.808  1.00  0.00     0.031 C 
ATOM     65  C   UNL     1       1.387   9.689   7.961  1.00  0.00     0.034 A 
BRANCH  52  66
ATOM     66  C   UNL     1       0.099   4.277  10.715  1.00  0.00     0.023 A 
ATOM     67  C   UNL     1       0.796   3.058  10.765  1.00  0.00     0.031 A 
ATOM     68  C   UNL     1      -0.639   4.662  11.849  1.00  0.00     0.131 A 
ATOM     69  C   UNL     1       0.668   2.228  11.890  1.00  0.00     0.055 A 
ATOM     70  C   UNL     1      -0.692   3.872  12.998  1.00  0.00     0.041 A 
ATOM     71  F   UNL     1      -1.346   5.804  11.849  1.00  0.00    -0.206 F 
ATOM     72  C   UNL     1      -0.051   2.637  13.016  1.00  0.00     0.022 A 
BRANCH  69  73
ATOM     73  S   UNL     1       1.308   0.532  11.795  1.00  0.00     0.124 S 
ATOM     74  O   UNL     1       0.593   0.012  10.632  1.00  0.00    -0.237 OA
ATOM     75  O   UNL     1       2.740   0.747  11.623  1.00  0.00    -0.237 OA
ATOM     76  O   UNL     1       0.913  -0.055  13.073  1.00  0.00    -0.744 OA
ENDBRANCH  69  73
ENDBRANCH  52  66
BRANCH  53  77
ATOM     77  C   UNL     1      -0.590   9.542   2.233  1.00  0.00     0.023 A 
ATOM     78  C   UNL     1       0.560   9.952   1.540  1.00  0.00     0.031 A 
ATOM     79  C   UNL     1      -1.838   9.979   1.754  1.00  0.00     0.131 A 
ATOM     80  C   UNL     1       0.443  10.809   0.433  1.00  0.00     0.055 A 
ATOM     81  C   UNL     1      -1.953  10.789   0.623  1.00  0.00     0.041 A 
ATOM     82  F   UNL     1      -2.969   9.624   2.384  1.00  0.00    -0.206 F 
ATOM     83  C   UNL     1      -0.807  11.219  -0.037  1.00  0.00     0.022 A 
BRANCH  80  84
ATOM     84  S   UNL     1       1.956  11.445  -0.341  1.00  0.00     0.124 S 
ATOM     85  O   UNL     1       2.561  12.187   0.759  1.00  0.00    -0.237 OA
ATOM     86  O   UNL     1       2.634  10.214  -0.735  1.00  0.00    -0.237 OA
ATOM     87  O   UNL     1       1.456  12.260  -1.446  1.00  0.00    -0.744 OA
ENDBRANCH  80  84
ENDBRANCH  53  77
BRANCH  65  88
ATOM     88  C   UNL     1       2.142  10.880   8.502  1.00  0.00     0.023 A 
ATOM     89  C   UNL     1       1.525  12.128   8.696  1.00  0.00     0.031 A 
ATOM     90  C   UNL     1       3.508  10.762   8.815  1.00  0.00     0.131 A 
ATOM     91  C   UNL     1       2.285  13.223   9.137  1.00  0.00     0.055 A 
ATOM     92  C   UNL     1       4.247  11.839   9.306  1.00  0.00     0.041 A 
ATOM     93  F   UNL     1       4.148   9.593   8.648  1.00  0.00    -0.206 F 
ATOM     94  C   UNL     1       3.639  13.082   9.456  1.00  0.00     0.022 A 
BRANCH  91  95
ATOM     95  S   UNL     1       1.506  14.860   9.197  1.00  0.00     0.124 S 
ATOM     96  O   UNL     1       1.019  15.017   7.831  1.00  0.00    -0.237 OA
ATOM     97  O   UNL     1       0.484  14.681  10.222  1.00  0.00    -0.237 OA
ATOM     98  O   UNL     1       2.606  15.750   9.568  1.00  0.00    -0.744 OA
ENDBRANCH  91  95
ENDBRANCH  65  88
ENDBRANCH  39  40
ENDBRANCH  32  34
ENDBRANCH  31  32
ENDBRANCH  30  31
ENDBRANCH  29  30
ENDBRANCH  28  29
ENDBRANCH  27  28
ENDBRANCH   1  27
TORSDOF 26
