REMARK SMILES COc1cc2c(CC(=O)OCCOCCOCCOC(=O)c3ccc(-c4c5nc(c(-c6cc(S(=O)(=O)[O-])ccc6F)c6ccc([nH]6)c(-c6cc(S(=O)(=O)[O-])ccc6F)c6nc(c(-c7cc(S(=O)(=O)[O-])ccc7F)c7ccc4[nH]7)C=C6)C=C5)cc3)c(C)n(C(=O)c3ccc(Cl)cc3)c2cc1Cl
REMARK SMILES IDX 14 1 13 2 12 3 11 4 10 5 8 6 9 7 7 8 6 9 3 10 4 11 99 12
REMARK SMILES IDX 5 13 98 14 100 15 97 16 85 17 87 18 86 19 2 20 1 21 88 22
REMARK SMILES IDX 89 23 90 24 91 25 96 26 92 27 95 28 93 29 94 30 15 31 16 32
REMARK SMILES IDX 17 33 18 34 19 35 20 36 21 37 22 38 23 39 84 40 24 41 83 42
REMARK SMILES IDX 25 43 26 44 27 45 77 46 28 47 82 48 76 49 78 50 29 51 81 52
REMARK SMILES IDX 75 53 74 54 30 56 62 57 42 58 61 59 43 60 46 61 60 62 79 63
REMARK SMILES IDX 44 64 45 65 59 67 80 68 47 69 31 70 32 71 40 72 33 73 39 74
REMARK SMILES IDX 41 75 38 76 34 77 35 78 36 79 37 80 63 81 64 82 72 83 65 84
REMARK SMILES IDX 71 85 73 86 70 87 66 88 67 89 68 90 69 91 48 92 49 93 57 94
REMARK SMILES IDX 50 95 56 96 58 97 55 98 51 99 52 100 53 101 54 102
REMARK H PARENT 78 55 46 66
REMARK Flexibility Score: inf
ROOT
ATOM      1  C   UNL     1      -2.283  -4.746   2.630  1.00  0.00     0.188 C 
ENDROOT
BRANCH   1   2
ATOM      2  O   UNL     1      -2.703  -5.673   3.603  1.00  0.00    -0.376 OA
BRANCH   2   3
ATOM      3  C   UNL     1      -2.035  -6.912   3.708  1.00  0.00     0.202 C 
BRANCH   3   4
ATOM      4  C   UNL     1      -2.053  -7.856   2.498  1.00  0.00     0.261 C 
BRANCH   4   5
ATOM      5  O   UNL     1      -1.206  -7.456   1.377  1.00  0.00    -0.463 OA
BRANCH   5   6
ATOM      6  C   UNL     1      -1.915  -6.878   0.384  1.00  0.00     0.310 C 
ATOM      7  O   UNL     1      -3.136  -6.763   0.507  1.00  0.00    -0.252 OA
BRANCH   6   8
ATOM      8  C   UNL     1      -1.227  -6.277  -0.837  1.00  0.00     0.160 C 
BRANCH   8   9
ATOM      9  C   UNL     1       0.250  -6.146  -1.137  1.00  0.00    -0.008 A 
ATOM     10  C   UNL     1       1.906  -2.612  -0.817  1.00  0.00     0.138 A 
ATOM     11  C   UNL     1       1.010  -3.666  -0.544  1.00  0.00     0.058 A 
ATOM     12  C   UNL     1       2.957  -2.863  -1.672  1.00  0.00     0.085 A 
ATOM     13  C   UNL     1       1.090  -4.965  -1.096  1.00  0.00     0.008 A 
ATOM     14  C   UNL     1       3.088  -4.138  -2.241  1.00  0.00     0.051 A 
ATOM     15  Cl  UNL     1       4.230  -1.735  -1.978  1.00  0.00    -0.080 Cl
ATOM     16  C   UNL     1       2.199  -5.197  -1.902  1.00  0.00     0.058 A 
ATOM     17  C   UNL     1       0.937  -7.058  -1.935  1.00  0.00     0.028 A 
ATOM     18  N   UNL     1       2.223  -6.577  -2.149  1.00  0.00    -0.280 N 
ATOM     19  C   UNL     1       0.391  -8.316  -2.537  1.00  0.00     0.065 C 
BRANCH  10  20
ATOM     20  O   UNL     1       1.685  -1.463  -0.103  1.00  0.00    -0.495 OA
ATOM     21  C   UNL     1       1.712  -0.226  -0.821  1.00  0.00     0.278 C 
ENDBRANCH  10  20
BRANCH  18  22
ATOM     22  C   UNL     1       3.389  -7.327  -2.453  1.00  0.00     0.262 C 
ATOM     23  O   UNL     1       3.317  -8.541  -2.637  1.00  0.00    -0.268 OA
BRANCH  22  24
ATOM     24  C   UNL     1       4.726  -6.726  -2.403  1.00  0.00     0.040 A 
ATOM     25  C   UNL     1       5.245  -6.375  -1.148  1.00  0.00     0.015 A 
ATOM     26  C   UNL     1       5.333  -6.305  -3.589  1.00  0.00     0.015 A 
ATOM     27  C   UNL     1       6.354  -5.535  -1.082  1.00  0.00     0.021 A 
ATOM     28  C   UNL     1       6.439  -5.457  -3.512  1.00  0.00     0.021 A 
ATOM     29  C   UNL     1       6.933  -5.065  -2.263  1.00  0.00     0.041 A 
ATOM     30  Cl  UNL     1       8.237  -3.945  -2.175  1.00  0.00    -0.084 Cl
ENDBRANCH  22  24
ENDBRANCH  18  22
ENDBRANCH   8   9
ENDBRANCH   6   8
ENDBRANCH   5   6
ENDBRANCH   4   5
ENDBRANCH   3   4
ENDBRANCH   2   3
ENDBRANCH   1   2
BRANCH   1  31
ATOM     31  C   UNL     1      -0.804  -4.649   2.235  1.00  0.00     0.188 C 
BRANCH  31  32
ATOM     32  O   UNL     1       0.204  -4.825   3.201  1.00  0.00    -0.376 OA
BRANCH  32  33
ATOM     33  C   UNL     1       0.265  -3.825   4.204  1.00  0.00     0.202 C 
BRANCH  33  34
ATOM     34  C   UNL     1       0.065  -2.349   3.761  1.00  0.00     0.261 C 
BRANCH  34  35
ATOM     35  O   UNL     1      -1.263  -2.092   3.204  1.00  0.00    -0.460 OA
BRANCH  35  36
ATOM     36  C   UNL     1      -1.347  -1.230   2.142  1.00  0.00     0.338 C 
ATOM     37  O   UNL     1      -0.540  -0.342   1.914  1.00  0.00    -0.246 OA
BRANCH  36  38
ATOM     38  C   UNL     1      -2.322  -1.745   1.103  1.00  0.00     0.060 A 
ATOM     39  C   UNL     1      -3.670  -2.045   1.297  1.00  0.00     0.016 A 
ATOM     40  C   UNL     1      -1.781  -2.059  -0.146  1.00  0.00     0.016 A 
ATOM     41  C   UNL     1      -4.386  -2.783   0.308  1.00  0.00     0.010 A 
ATOM     42  C   UNL     1      -2.458  -2.851  -1.089  1.00  0.00     0.010 A 
ATOM     43  C   UNL     1      -3.763  -3.283  -0.861  1.00  0.00    -0.014 A 
BRANCH  43  44
ATOM     44  C   UNL     1      -4.537  -3.843  -2.012  1.00  0.00     0.031 A 
ATOM     45  C   UNL     1      -5.154  -2.745  -2.768  1.00  0.00     0.074 A 
ATOM     46  C   UNL     1      -4.707  -5.058  -2.599  1.00  0.00     0.049 A 
ATOM     47  N   UNL     1      -6.291  -2.221  -2.470  1.00  0.00    -0.248 NA
ATOM     48  C   UNL     1      -4.388  -2.026  -3.787  1.00  0.00     0.031 C 
ATOM     49  C   UNL     1      -4.090  -6.320  -2.287  1.00  0.00     0.029 A 
ATOM     50  N   UNL     1      -5.496  -5.431  -3.669  1.00  0.00    -0.354 N 
ATOM     51  C   UNL     1      -6.520  -1.284  -3.453  1.00  0.00     0.074 A 
ATOM     52  C   UNL     1      -5.223  -1.012  -4.029  1.00  0.00     0.031 C 
ATOM     53  C   UNL     1      -4.294  -7.260  -3.229  1.00  0.00     0.029 A 
ATOM     54  C   UNL     1      -5.275  -6.728  -4.140  1.00  0.00     0.049 A 
ATOM     55  H   UNL     1      -6.165  -4.828  -4.069  1.00  0.00     0.167 HD
ATOM     56  C   UNL     1      -7.791  -1.052  -3.889  1.00  0.00     0.034 A 
ATOM     57  C   UNL     1      -5.932  -7.468  -5.070  1.00  0.00     0.034 A 
ATOM     58  C   UNL     1      -8.755  -1.770  -3.074  1.00  0.00     0.049 A 
ATOM     59  C   UNL     1      -7.294  -6.921  -5.199  1.00  0.00     0.074 A 
ATOM     60  C   UNL     1      -9.012  -1.845  -1.716  1.00  0.00     0.029 A 
ATOM     61  N   UNL     1      -9.343  -2.891  -3.619  1.00  0.00    -0.354 N 
ATOM     62  N   UNL     1      -8.215  -7.057  -4.285  1.00  0.00    -0.248 NA
ATOM     63  C   UNL     1      -7.471  -5.812  -6.116  1.00  0.00     0.031 C 
ATOM     64  C   UNL     1      -9.304  -3.216  -1.464  1.00  0.00     0.029 A 
ATOM     65  C   UNL     1      -9.316  -3.894  -2.684  1.00  0.00     0.049 A 
ATOM     66  H   UNL     1      -9.718  -2.960  -4.526  1.00  0.00     0.167 HD
ATOM     67  C   UNL     1      -8.762  -5.789  -4.183  1.00  0.00     0.074 A 
ATOM     68  C   UNL     1      -8.347  -5.100  -5.406  1.00  0.00     0.031 C 
ATOM     69  C   UNL     1      -9.246  -5.311  -2.999  1.00  0.00     0.034 A 
BRANCH  56  70
ATOM     70  C   UNL     1      -8.126  -0.498  -5.249  1.00  0.00     0.023 A 
ATOM     71  C   UNL     1      -7.180  -0.330  -6.273  1.00  0.00     0.031 A 
ATOM     72  C   UNL     1      -9.467  -0.276  -5.614  1.00  0.00     0.131 A 
ATOM     73  C   UNL     1      -7.546   0.056  -7.566  1.00  0.00     0.055 A 
ATOM     74  C   UNL     1      -9.846   0.037  -6.924  1.00  0.00     0.041 A 
ATOM     75  F   UNL     1     -10.459  -0.411  -4.720  1.00  0.00    -0.206 F 
ATOM     76  C   UNL     1      -8.882   0.209  -7.910  1.00  0.00     0.022 A 
BRANCH  73  77
ATOM     77  S   UNL     1      -6.267   0.354  -8.817  1.00  0.00     0.124 S 
ATOM     78  O   UNL     1      -6.641  -0.591  -9.862  1.00  0.00    -0.237 OA
ATOM     79  O   UNL     1      -6.483   1.765  -9.127  1.00  0.00    -0.237 OA
ATOM     80  O   UNL     1      -5.021   0.061  -8.113  1.00  0.00    -0.744 OA
ENDBRANCH  73  77
ENDBRANCH  56  70
BRANCH  57  81
ATOM     81  C   UNL     1      -5.333  -8.407  -6.050  1.00  0.00     0.023 A 
ATOM     82  C   UNL     1      -3.970  -8.286  -6.382  1.00  0.00     0.031 A 
ATOM     83  C   UNL     1      -6.125  -9.214  -6.887  1.00  0.00     0.131 A 
ATOM     84  C   UNL     1      -3.462  -8.869  -7.551  1.00  0.00     0.055 A 
ATOM     85  C   UNL     1      -5.609  -9.820  -8.041  1.00  0.00     0.041 A 
ATOM     86  F   UNL     1      -7.435  -9.374  -6.642  1.00  0.00    -0.206 F 
ATOM     87  C   UNL     1      -4.275  -9.630  -8.390  1.00  0.00     0.022 A 
BRANCH  84  88
ATOM     88  S   UNL     1      -1.743  -8.557  -8.040  1.00  0.00     0.124 S 
ATOM     89  O   UNL     1      -1.315  -9.859  -8.547  1.00  0.00    -0.237 OA
ATOM     90  O   UNL     1      -1.906  -7.513  -9.046  1.00  0.00    -0.237 OA
ATOM     91  O   UNL     1      -1.105  -8.144  -6.793  1.00  0.00    -0.744 OA
ENDBRANCH  84  88
ENDBRANCH  57  81
BRANCH  69  92
ATOM     92  C   UNL     1      -9.526  -6.259  -1.847  1.00  0.00     0.023 A 
ATOM     93  C   UNL     1     -10.749  -6.069  -1.174  1.00  0.00     0.031 A 
ATOM     94  C   UNL     1      -8.601  -7.144  -1.261  1.00  0.00     0.131 A 
ATOM     95  C   UNL     1     -10.997  -6.682   0.059  1.00  0.00     0.055 A 
ATOM     96  C   UNL     1      -8.884  -7.816  -0.062  1.00  0.00     0.041 A 
ATOM     97  F   UNL     1      -7.373  -7.323  -1.769  1.00  0.00    -0.206 F 
ATOM     98  C   UNL     1     -10.075  -7.569   0.616  1.00  0.00     0.022 A 
BRANCH  95  99
ATOM     99  S   UNL     1     -12.439  -6.190   1.043  1.00  0.00     0.124 S 
ATOM    100  O   UNL     1     -13.264  -7.394   1.002  1.00  0.00    -0.237 OA
ATOM    101  O   UNL     1     -11.844  -5.883   2.342  1.00  0.00    -0.237 OA
ATOM    102  O   UNL     1     -12.979  -5.038   0.327  1.00  0.00    -0.744 OA
ENDBRANCH  95  99
ENDBRANCH  69  92
ENDBRANCH  43  44
ENDBRANCH  36  38
ENDBRANCH  35  36
ENDBRANCH  34  35
ENDBRANCH  33  34
ENDBRANCH  32  33
ENDBRANCH  31  32
ENDBRANCH   1  31
TORSDOF 24
