REMARK SMILES O=C(C[NH+]1CCN(c2nccc(N3CCCCC3)n2)CC1)OCCOCCOCCOC(=O)c1ccc(-c2c3nc(c(-c4cc(S(=O)(=O)[O-])ccc4F)c4ccc([nH]4)c(-c4cc(S(=O)(=O)[O-])ccc4F)c4nc(c(-c5cc(S(=O)(=O)[O-])ccc5F)c5ccc2[nH]5)C=C4)C=C3)cc1
REMARK SMILES IDX 26 1 25 2 24 3 23 4 22 5 2 6 1 7 3 8 4 9 5 10 21 11 6 13
REMARK SMILES IDX 20 14 7 15 8 16 9 17 19 18 10 19 12 20 11 21 13 22 14 23
REMARK SMILES IDX 18 24 15 25 17 26 16 27 27 28 28 29 29 30 30 31 31 32 32 33
REMARK SMILES IDX 33 34 34 35 35 36 96 37 36 38 95 39 37 40 38 41 39 42 89 43
REMARK SMILES IDX 40 44 94 45 88 46 90 47 41 48 93 49 87 50 86 51 42 53 74 54
REMARK SMILES IDX 54 55 73 56 55 57 58 58 72 59 91 60 56 61 57 62 71 64 92 65
REMARK SMILES IDX 59 66 43 67 44 68 52 69 45 70 51 71 53 72 50 73 46 74 47 75
REMARK SMILES IDX 48 76 49 77 75 78 76 79 84 80 77 81 83 82 85 83 82 84 78 85
REMARK SMILES IDX 79 86 80 87 81 88 60 89 61 90 69 91 62 92 68 93 70 94 67 95
REMARK SMILES IDX 63 96 64 97 65 98 66 99
REMARK H PARENT 4 12 90 52 58 63
REMARK Flexibility Score: inf
ROOT
ATOM      1  C   UNL     1       3.401   1.913  -1.369  1.00  0.00     0.188 C 
ENDROOT
BRANCH   1   2
ATOM      2  O   UNL     1       4.754   1.507  -1.411  1.00  0.00    -0.376 OA
BRANCH   2   3
ATOM      3  C   UNL     1       5.149   0.318  -0.763  1.00  0.00     0.202 C 
BRANCH   3   4
ATOM      4  C   UNL     1       4.255  -0.896  -0.945  1.00  0.00     0.261 C 
BRANCH   4   5
ATOM      5  O   UNL     1       2.898  -0.862  -0.428  1.00  0.00    -0.459 OA
BRANCH   5   6
ATOM      6  C   UNL     1       2.307  -0.389   0.688  1.00  0.00     0.361 C 
ATOM      7  O   UNL     1       1.091  -0.541   0.809  1.00  0.00    -0.245 OA
BRANCH   6   8
ATOM      8  C   UNL     1       3.095   0.384   1.732  1.00  0.00     0.386 C 
BRANCH   8   9
ATOM      9  N   UNL     1       3.729  -0.363   2.821  1.00  0.00    -0.323 N 
ATOM     10  C   UNL     1       2.767  -0.795   3.860  1.00  0.00     0.284 C 
ATOM     11  C   UNL     1       4.592  -1.481   2.423  1.00  0.00     0.284 C 
ATOM     12  H   UNL     1       4.362   0.331   3.219  1.00  0.00     0.348 HD
ATOM     13  C   UNL     1       1.964  -2.081   3.547  1.00  0.00     0.181 C 
ATOM     14  C   UNL     1       3.860  -2.783   2.071  1.00  0.00     0.181 C 
ATOM     15  N   UNL     1       2.893  -3.102   3.106  1.00  0.00    -0.329 N 
BRANCH  15  16
ATOM     16  C   UNL     1       2.631  -4.430   3.251  1.00  0.00     0.227 A 
ATOM     17  N   UNL     1       1.382  -4.900   3.259  1.00  0.00    -0.221 NA
ATOM     18  N   UNL     1       3.716  -5.203   3.342  1.00  0.00    -0.196 NA
ATOM     19  C   UNL     1       1.263  -6.238   3.284  1.00  0.00     0.119 A 
ATOM     20  C   UNL     1       3.581  -6.523   3.406  1.00  0.00     0.134 A 
ATOM     21  C   UNL     1       2.335  -7.101   3.337  1.00  0.00     0.067 A 
BRANCH  20  22
ATOM     22  N   UNL     1       4.734  -7.256   3.579  1.00  0.00    -0.356 N 
ATOM     23  C   UNL     1       5.747  -6.701   4.479  1.00  0.00     0.118 C 
ATOM     24  C   UNL     1       5.109  -8.247   2.585  1.00  0.00     0.118 C 
ATOM     25  C   UNL     1       7.030  -6.329   3.744  1.00  0.00     0.022 C 
ATOM     26  C   UNL     1       6.405  -7.850   1.872  1.00  0.00     0.022 C 
ATOM     27  C   UNL     1       7.502  -7.482   2.866  1.00  0.00     0.004 C 
ENDBRANCH  20  22
ENDBRANCH  15  16
ENDBRANCH   8   9
ENDBRANCH   6   8
ENDBRANCH   5   6
ENDBRANCH   4   5
ENDBRANCH   3   4
ENDBRANCH   2   3
ENDBRANCH   1   2
BRANCH   1  28
ATOM     28  C   UNL     1       2.527   1.481  -2.559  1.00  0.00     0.188 C 
BRANCH  28  29
ATOM     29  O   UNL     1       3.103   1.193  -3.827  1.00  0.00    -0.376 OA
BRANCH  29  30
ATOM     30  C   UNL     1       4.366   1.728  -4.178  1.00  0.00     0.202 C 
BRANCH  30  31
ATOM     31  C   UNL     1       4.504   3.251  -4.340  1.00  0.00     0.261 C 
BRANCH  31  32
ATOM     32  O   UNL     1       4.103   4.050  -3.211  1.00  0.00    -0.460 OA
BRANCH  32  33
ATOM     33  C   UNL     1       2.880   4.635  -3.316  1.00  0.00     0.338 C 
ATOM     34  O   UNL     1       2.132   4.566  -4.274  1.00  0.00    -0.246 OA
BRANCH  33  35
ATOM     35  C   UNL     1       2.460   5.240  -2.023  1.00  0.00     0.060 A 
ATOM     36  C   UNL     1       1.194   4.897  -1.528  1.00  0.00     0.016 A 
ATOM     37  C   UNL     1       3.249   6.159  -1.325  1.00  0.00     0.016 A 
ATOM     38  C   UNL     1       0.683   5.520  -0.387  1.00  0.00     0.010 A 
ATOM     39  C   UNL     1       2.726   6.800  -0.187  1.00  0.00     0.010 A 
ATOM     40  C   UNL     1       1.420   6.520   0.260  1.00  0.00    -0.014 A 
BRANCH  40  41
ATOM     41  C   UNL     1       0.720   7.403   1.239  1.00  0.00     0.031 A 
ATOM     42  C   UNL     1       0.208   8.742   0.761  1.00  0.00     0.074 A 
ATOM     43  C   UNL     1       0.449   7.000   2.495  1.00  0.00     0.049 A 
ATOM     44  N   UNL     1      -0.464   9.660   1.410  1.00  0.00    -0.248 NA
ATOM     45  C   UNL     1       0.493   9.086  -0.640  1.00  0.00     0.031 C 
ATOM     46  C   UNL     1       0.840   5.715   3.072  1.00  0.00     0.029 A 
ATOM     47  N   UNL     1      -0.228   7.631   3.513  1.00  0.00    -0.354 N 
ATOM     48  C   UNL     1      -0.694  10.682   0.494  1.00  0.00     0.074 A 
ATOM     49  C   UNL     1      -0.040  10.294  -0.738  1.00  0.00     0.031 C 
ATOM     50  C   UNL     1       0.402   5.656   4.343  1.00  0.00     0.029 A 
ATOM     51  C   UNL     1      -0.277   6.906   4.682  1.00  0.00     0.049 A 
ATOM     52  H   UNL     1      -0.639   8.520   3.413  1.00  0.00     0.167 HD
ATOM     53  C   UNL     1      -1.401  11.829   0.652  1.00  0.00     0.034 A 
ATOM     54  C   UNL     1      -0.794   7.220   5.890  1.00  0.00     0.034 A 
ATOM     55  C   UNL     1      -2.037  12.223   1.886  1.00  0.00     0.049 A 
ATOM     56  C   UNL     1      -1.501   8.546   6.069  1.00  0.00     0.074 A 
ATOM     57  C   UNL     1      -2.764  13.371   2.153  1.00  0.00     0.029 A 
ATOM     58  N   UNL     1      -2.017  11.487   3.063  1.00  0.00    -0.354 N 
ATOM     59  N   UNL     1      -1.712   9.500   5.190  1.00  0.00    -0.248 NA
ATOM     60  C   UNL     1      -2.057   8.826   7.400  1.00  0.00     0.031 C 
ATOM     61  C   UNL     1      -3.121  13.363   3.506  1.00  0.00     0.029 A 
ATOM     62  C   UNL     1      -2.693  12.170   4.065  1.00  0.00     0.049 A 
ATOM     63  H   UNL     1      -1.587  10.609   3.172  1.00  0.00     0.167 HD
ATOM     64  C   UNL     1      -2.447  10.478   5.859  1.00  0.00     0.074 A 
ATOM     65  C   UNL     1      -2.670   9.982   7.200  1.00  0.00     0.031 C 
ATOM     66  C   UNL     1      -2.895  11.679   5.409  1.00  0.00     0.034 A 
BRANCH  53  67
ATOM     67  C   UNL     1      -1.485  12.760  -0.536  1.00  0.00     0.023 A 
ATOM     68  C   UNL     1      -2.139  12.385  -1.724  1.00  0.00     0.031 A 
ATOM     69  C   UNL     1      -0.891  14.034  -0.487  1.00  0.00     0.131 A 
ATOM     70  C   UNL     1      -2.128  13.247  -2.832  1.00  0.00     0.055 A 
ATOM     71  C   UNL     1      -0.953  14.918  -1.565  1.00  0.00     0.041 A 
ATOM     72  F   UNL     1      -0.232  14.438   0.611  1.00  0.00    -0.206 F 
ATOM     73  C   UNL     1      -1.563  14.522  -2.751  1.00  0.00     0.022 A 
BRANCH  70  74
ATOM     74  S   UNL     1      -2.747  12.629  -4.420  1.00  0.00     0.124 S 
ATOM     75  O   UNL     1      -1.870  11.483  -4.652  1.00  0.00    -0.237 OA
ATOM     76  O   UNL     1      -4.139  12.318  -4.118  1.00  0.00    -0.237 OA
ATOM     77  O   UNL     1      -2.542  13.755  -5.330  1.00  0.00    -0.744 OA
ENDBRANCH  70  74
ENDBRANCH  53  67
BRANCH  54  78
ATOM     78  C   UNL     1      -0.626   6.296   7.054  1.00  0.00     0.023 A 
ATOM     79  C   UNL     1      -1.731   5.747   7.727  1.00  0.00     0.031 A 
ATOM     80  C   UNL     1       0.655   6.022   7.567  1.00  0.00     0.131 A 
ATOM     81  C   UNL     1      -1.537   5.003   8.903  1.00  0.00     0.055 A 
ATOM     82  C   UNL     1       0.846   5.229   8.700  1.00  0.00     0.041 A 
ATOM     83  F   UNL     1       1.748   6.528   6.972  1.00  0.00    -0.206 F 
ATOM     84  C   UNL     1      -0.255   4.728   9.385  1.00  0.00     0.022 A 
BRANCH  81  85
ATOM     85  S   UNL     1      -2.991   4.493   9.863  1.00  0.00     0.124 S 
ATOM     86  O   UNL     1      -3.640   5.773  10.122  1.00  0.00    -0.237 OA
ATOM     87  O   UNL     1      -3.673   3.604   8.928  1.00  0.00    -0.237 OA
ATOM     88  O   UNL     1      -2.412   3.837  11.034  1.00  0.00    -0.744 OA
ENDBRANCH  81  85
ENDBRANCH  54  78
BRANCH  66  89
ATOM     89  C   UNL     1      -3.702  12.519   6.375  1.00  0.00     0.023 A 
ATOM     90  C   UNL     1      -3.145  13.014   7.568  1.00  0.00     0.031 A 
ATOM     91  C   UNL     1      -5.059  12.792   6.122  1.00  0.00     0.131 A 
ATOM     92  C   UNL     1      -3.958  13.678   8.500  1.00  0.00     0.055 A 
ATOM     93  C   UNL     1      -5.845  13.519   7.019  1.00  0.00     0.041 A 
ATOM     94  F   UNL     1      -5.649  12.347   5.001  1.00  0.00    -0.206 F 
ATOM     95  C   UNL     1      -5.301  13.949   8.225  1.00  0.00     0.022 A 
BRANCH  92  96
ATOM     96  S   UNL     1      -3.272  14.060  10.136  1.00  0.00     0.124 S 
ATOM     97  O   UNL     1      -2.824  12.748  10.590  1.00  0.00    -0.237 OA
ATOM     98  O   UNL     1      -2.219  15.018   9.816  1.00  0.00    -0.237 OA
ATOM     99  O   UNL     1      -4.412  14.614  10.865  1.00  0.00    -0.744 OA
ENDBRANCH  92  96
ENDBRANCH  66  89
ENDBRANCH  40  41
ENDBRANCH  33  35
ENDBRANCH  32  33
ENDBRANCH  31  32
ENDBRANCH  30  31
ENDBRANCH  29  30
ENDBRANCH  28  29
ENDBRANCH   1  28
TORSDOF 23
