REMARK SMILES C[C@H]1CCC[C@H](C)N1C(=O)[C@H]1[C@@H](C(=O)OCCOCCOCCOC(=O)c2ccc(-c3c4nc(c(-c5cc(S(=O)(=O)[O-])ccc5F)c5ccc([nH]5)c(-c5cc(S(=O)(=O)[O-])ccc5F)c5nc(c(-c6cc(S(=O)(=O)[O-])ccc6F)c6ccc3[nH]6)C=C5)C=C4)cc2)[C@H]2CC[C@@H]1O2
REMARK SMILES IDX 20 1 19 2 18 3 17 4 16 5 15 6 13 7 14 8 12 9 11 10 93 11
REMARK SMILES IDX 90 12 92 13 94 14 91 15 9 16 1 17 2 18 3 19 8 20 4 21 6 22
REMARK SMILES IDX 5 23 7 24 10 25 21 26 22 27 23 28 24 29 25 30 26 31 27 32
REMARK SMILES IDX 28 33 89 34 29 35 88 36 30 37 31 38 32 39 82 40 33 41 87 42
REMARK SMILES IDX 81 43 83 44 34 45 86 46 80 47 79 48 35 50 67 51 47 52 66 53
REMARK SMILES IDX 48 54 51 55 65 56 84 57 49 58 50 59 64 61 85 62 52 63 36 64
REMARK SMILES IDX 37 65 45 66 38 67 44 68 46 69 43 70 39 71 40 72 41 73 42 74
REMARK SMILES IDX 68 75 69 76 77 77 70 78 76 79 78 80 75 81 71 82 72 83 73 84
REMARK SMILES IDX 74 85 53 86 54 87 62 88 55 89 61 90 63 91 60 92 56 93 57 94
REMARK SMILES IDX 58 95 59 96
REMARK H PARENT 83 49 51 60
REMARK Flexibility Score: inf
ROOT
ATOM      1  C   UNL     1      -1.778  -3.195  -4.762  1.00  0.00     0.188 C 
ENDROOT
BRANCH   1   2
ATOM      2  C   UNL     1      -1.041  -4.300  -3.997  1.00  0.00     0.188 C 
BRANCH   2   3
ATOM      3  O   UNL     1      -1.889  -5.324  -3.499  1.00  0.00    -0.376 OA
BRANCH   3   4
ATOM      4  C   UNL     1      -2.316  -5.152  -2.158  1.00  0.00     0.202 C 
BRANCH   4   5
ATOM      5  C   UNL     1      -3.512  -4.206  -1.983  1.00  0.00     0.261 C 
BRANCH   5   6
ATOM      6  O   UNL     1      -3.356  -2.791  -2.253  1.00  0.00    -0.463 OA
BRANCH   6   7
ATOM      7  C   UNL     1      -2.282  -2.126  -1.780  1.00  0.00     0.312 C 
ATOM      8  O   UNL     1      -1.409  -2.664  -1.109  1.00  0.00    -0.252 OA
BRANCH   7   9
ATOM      9  C   UNL     1      -2.159  -0.662  -2.230  1.00  0.00     0.143 C 
ATOM     10  C   UNL     1      -2.514   0.432  -1.220  1.00  0.00     0.124 C 
ATOM     11  C   UNL     1      -2.993   1.539  -2.160  1.00  0.00     0.132 C 
ATOM     12  C   UNL     1      -2.814  -0.187  -3.606  1.00  0.00     0.133 C 
ATOM     13  C   UNL     1      -4.369   1.526  -2.787  1.00  0.00     0.035 C 
ATOM     14  O   UNL     1      -2.251   1.132  -3.343  1.00  0.00    -0.373 OA
ATOM     15  C   UNL     1      -4.150   0.581  -3.953  1.00  0.00     0.036 C 
BRANCH  10  16
ATOM     16  C   UNL     1      -3.410  -0.007  -0.083  1.00  0.00     0.229 C 
ATOM     17  C   UNL     1      -0.332  -0.201   0.849  1.00  0.00     0.031 C 
ATOM     18  C   UNL     1      -1.476  -1.076   1.368  1.00  0.00     0.082 C 
ATOM     19  C   UNL     1      -1.255  -1.205   2.888  1.00  0.00     0.025 C 
ATOM     20  N   UNL     1      -2.899  -0.693   1.038  1.00  0.00    -0.337 N 
ATOM     21  C   UNL     1      -2.241  -2.175   3.505  1.00  0.00     0.004 C 
ATOM     22  C   UNL     1      -3.955  -1.409   1.810  1.00  0.00     0.082 C 
ATOM     23  C   UNL     1      -3.636  -1.631   3.290  1.00  0.00     0.025 C 
ATOM     24  C   UNL     1      -4.304  -2.737   1.130  1.00  0.00     0.031 C 
ATOM     25  O   UNL     1      -4.625   0.196  -0.185  1.00  0.00    -0.274 OA
ENDBRANCH  10  16
ENDBRANCH   7   9
ENDBRANCH   6   7
ENDBRANCH   5   6
ENDBRANCH   4   5
ENDBRANCH   3   4
ENDBRANCH   2   3
ENDBRANCH   1   2
BRANCH   1  26
ATOM     26  O   UNL     1      -3.080  -3.409  -5.279  1.00  0.00    -0.376 OA
BRANCH  26  27
ATOM     27  C   UNL     1      -3.332  -4.641  -5.939  1.00  0.00     0.202 C 
BRANCH  27  28
ATOM     28  C   UNL     1      -2.472  -5.020  -7.157  1.00  0.00     0.261 C 
BRANCH  28  29
ATOM     29  O   UNL     1      -1.058  -4.821  -6.987  1.00  0.00    -0.460 OA
BRANCH  29  30
ATOM     30  C   UNL     1      -0.533  -3.744  -7.633  1.00  0.00     0.338 C 
ATOM     31  O   UNL     1      -1.116  -3.017  -8.422  1.00  0.00    -0.246 OA
BRANCH  30  32
ATOM     32  C   UNL     1       0.783  -3.404  -7.032  1.00  0.00     0.060 A 
ATOM     33  C   UNL     1       0.991  -2.082  -6.596  1.00  0.00     0.016 A 
ATOM     34  C   UNL     1       1.782  -4.361  -6.855  1.00  0.00     0.016 A 
ATOM     35  C   UNL     1       2.199  -1.706  -6.008  1.00  0.00     0.010 A 
ATOM     36  C   UNL     1       3.014  -3.972  -6.316  1.00  0.00     0.010 A 
ATOM     37  C   UNL     1       3.241  -2.637  -5.927  1.00  0.00    -0.014 A 
BRANCH  37  38
ATOM     38  C   UNL     1       4.640  -2.162  -5.779  1.00  0.00     0.031 A 
ATOM     39  C   UNL     1       5.374  -1.822  -7.050  1.00  0.00     0.074 A 
ATOM     40  C   UNL     1       5.258  -2.057  -4.589  1.00  0.00     0.049 A 
ATOM     41  N   UNL     1       6.643  -1.583  -7.245  1.00  0.00    -0.248 NA
ATOM     42  C   UNL     1       4.553  -1.760  -8.271  1.00  0.00     0.031 C 
ATOM     43  C   UNL     1       4.634  -2.264  -3.285  1.00  0.00     0.029 A 
ATOM     44  N   UNL     1       6.569  -1.768  -4.294  1.00  0.00    -0.354 N 
ATOM     45  C   UNL     1       6.775  -1.365  -8.613  1.00  0.00     0.074 A 
ATOM     46  C   UNL     1       5.462  -1.515  -9.198  1.00  0.00     0.031 C 
ATOM     47  C   UNL     1       5.572  -2.127  -2.329  1.00  0.00     0.029 A 
ATOM     48  C   UNL     1       6.871  -1.879  -2.956  1.00  0.00     0.049 A 
ATOM     49  H   UNL     1       7.229  -1.505  -4.976  1.00  0.00     0.167 HD
ATOM     50  C   UNL     1       7.893  -1.076  -9.320  1.00  0.00     0.034 A 
ATOM     51  C   UNL     1       8.065  -1.837  -2.326  1.00  0.00     0.034 A 
ATOM     52  C   UNL     1       9.197  -0.955  -8.726  1.00  0.00     0.049 A 
ATOM     53  C   UNL     1       9.322  -1.631  -3.146  1.00  0.00     0.074 A 
ATOM     54  C   UNL     1      10.404  -0.682  -9.344  1.00  0.00     0.029 A 
ATOM     55  N   UNL     1       9.467  -1.115  -7.373  1.00  0.00    -0.354 N 
ATOM     56  N   UNL     1       9.446  -1.462  -4.443  1.00  0.00    -0.248 NA
ATOM     57  C   UNL     1      10.601  -1.620  -2.419  1.00  0.00     0.031 C 
ATOM     58  C   UNL     1      11.412  -0.746  -8.377  1.00  0.00     0.029 A 
ATOM     59  C   UNL     1      10.824  -0.976  -7.142  1.00  0.00     0.049 A 
ATOM     60  H   UNL     1       8.792  -1.299  -6.681  1.00  0.00     0.167 HD
ATOM     61  C   UNL     1      10.809  -1.284  -4.678  1.00  0.00     0.074 A 
ATOM     62  C   UNL     1      11.467  -1.372  -3.392  1.00  0.00     0.031 C 
ATOM     63  C   UNL     1      11.459  -1.058  -5.848  1.00  0.00     0.034 A 
BRANCH  50  64
ATOM     64  C   UNL     1       7.747  -0.957 -10.816  1.00  0.00     0.023 A 
ATOM     65  C   UNL     1       6.975   0.059 -11.407  1.00  0.00     0.031 A 
ATOM     66  C   UNL     1       8.341  -1.912 -11.659  1.00  0.00     0.131 A 
ATOM     67  C   UNL     1       6.758   0.052 -12.793  1.00  0.00     0.055 A 
ATOM     68  C   UNL     1       8.187  -1.865 -13.045  1.00  0.00     0.041 A 
ATOM     69  F   UNL     1       9.061  -2.922 -11.147  1.00  0.00    -0.206 F 
ATOM     70  C   UNL     1       7.379  -0.888 -13.619  1.00  0.00     0.022 A 
BRANCH  67  71
ATOM     71  S   UNL     1       5.530   1.195 -13.483  1.00  0.00     0.124 S 
ATOM     72  O   UNL     1       4.321   0.797 -12.766  1.00  0.00    -0.237 OA
ATOM     73  O   UNL     1       6.081   2.499 -13.132  1.00  0.00    -0.237 OA
ATOM     74  O   UNL     1       5.533   0.880 -14.910  1.00  0.00    -0.744 OA
ENDBRANCH  67  71
ENDBRANCH  50  64
BRANCH  51  75
ATOM     75  C   UNL     1       8.159  -2.070  -0.853  1.00  0.00     0.023 A 
ATOM     76  C   UNL     1       8.652  -1.079   0.012  1.00  0.00     0.031 A 
ATOM     77  C   UNL     1       7.824  -3.319  -0.298  1.00  0.00     0.131 A 
ATOM     78  C   UNL     1       8.837  -1.367   1.375  1.00  0.00     0.055 A 
ATOM     79  C   UNL     1       7.960  -3.583   1.067  1.00  0.00     0.041 A 
ATOM     80  F   UNL     1       7.358  -4.307  -1.078  1.00  0.00    -0.206 F 
ATOM     81  C   UNL     1       8.482  -2.607   1.910  1.00  0.00     0.022 A 
BRANCH  78  82
ATOM     82  S   UNL     1       9.636  -0.124   2.428  1.00  0.00     0.124 S 
ATOM     83  O   UNL     1      10.922   0.046   1.763  1.00  0.00    -0.237 OA
ATOM     84  O   UNL     1       8.707   0.998   2.329  1.00  0.00    -0.237 OA
ATOM     85  O   UNL     1       9.690  -0.771   3.737  1.00  0.00    -0.744 OA
ENDBRANCH  78  82
ENDBRANCH  51  75
BRANCH  63  86
ATOM     86  C   UNL     1      12.946  -0.812  -5.790  1.00  0.00     0.023 A 
ATOM     87  C   UNL     1      13.863  -1.835  -5.496  1.00  0.00     0.031 A 
ATOM     88  C   UNL     1      13.450   0.469  -6.085  1.00  0.00     0.131 A 
ATOM     89  C   UNL     1      15.238  -1.552  -5.478  1.00  0.00     0.055 A 
ATOM     90  C   UNL     1      14.819   0.731  -6.114  1.00  0.00     0.041 A 
ATOM     91  F   UNL     1      12.615   1.480  -6.375  1.00  0.00    -0.206 F 
ATOM     92  C   UNL     1      15.721  -0.281  -5.803  1.00  0.00     0.022 A 
BRANCH  89  93
ATOM     93  S   UNL     1      16.394  -2.858  -4.981  1.00  0.00     0.124 S 
ATOM     94  O   UNL     1      15.970  -3.134  -3.612  1.00  0.00    -0.237 OA
ATOM     95  O   UNL     1      16.122  -3.908  -5.957  1.00  0.00    -0.237 OA
ATOM     96  O   UNL     1      17.705  -2.223  -5.107  1.00  0.00    -0.744 OA
ENDBRANCH  89  93
ENDBRANCH  63  86
ENDBRANCH  37  38
ENDBRANCH  30  32
ENDBRANCH  29  30
ENDBRANCH  28  29
ENDBRANCH  27  28
ENDBRANCH  26  27
ENDBRANCH   1  26
TORSDOF 21
