REMARK SMILES COC(=O)c1ccc2c(c1)=N[C@H](c1cn(CCC(=O)OCCOCCOCCOC(=O)c3ccc(-c4c5nc(c(-c6cc(S(=O)(=O)[O-])ccc6F)c6ccc([nH]6)c(-c6cc(S(=O)(=O)[O-])ccc6F)c6nc(c(-c7cc(S(=O)(=O)[O-])ccc7F)c7ccc4[nH]7)C=C6)C=C5)cc3)c3ccccc13)N=2
REMARK SMILES IDX 24 1 23 2 22 3 21 4 20 5 18 6 19 7 17 8 16 9 15 10 13 11
REMARK SMILES IDX 14 12 100 13 95 14 99 15 96 16 98 17 97 18 12 19 5 20 6 21
REMARK SMILES IDX 10 22 7 23 9 24 8 25 11 26 101 27 3 28 4 29 2 30 1 31 25 32
REMARK SMILES IDX 26 33 27 34 28 35 29 36 30 37 31 38 32 39 33 40 94 41 34 42
REMARK SMILES IDX 93 43 35 44 36 45 37 46 87 47 38 48 92 49 86 50 88 51 39 52
REMARK SMILES IDX 91 53 85 54 84 55 40 57 72 58 52 59 71 60 53 61 56 62 70 63
REMARK SMILES IDX 89 64 54 65 55 66 69 68 90 69 57 70 41 71 42 72 50 73 43 74
REMARK SMILES IDX 49 75 51 76 48 77 44 78 45 79 46 80 47 81 73 82 74 83 82 84
REMARK SMILES IDX 75 85 81 86 83 87 80 88 76 89 77 90 78 91 79 92 58 93 59 94
REMARK SMILES IDX 67 95 60 96 66 97 68 98 65 99 61 100 62 101 63 102 64 103
REMARK H PARENT 88 56 56 67
REMARK Flexibility Score: inf
ROOT
ATOM      1  C   UNL     1      -2.223  -9.224 -10.329  1.00  0.00     0.188 C 
ENDROOT
BRANCH   1   2
ATOM      2  O   UNL     1      -3.572  -8.819 -10.272  1.00  0.00    -0.376 OA
BRANCH   2   3
ATOM      3  C   UNL     1      -4.233  -8.922  -9.012  1.00  0.00     0.202 C 
BRANCH   3   4
ATOM      4  C   UNL     1      -3.754  -9.968  -7.991  1.00  0.00     0.261 C 
BRANCH   4   5
ATOM      5  O   UNL     1      -2.464  -9.617  -7.431  1.00  0.00    -0.463 OA
BRANCH   5   6
ATOM      6  C   UNL     1      -1.741 -10.646  -6.929  1.00  0.00     0.307 C 
ATOM      7  O   UNL     1      -2.235 -11.762  -6.761  1.00  0.00    -0.252 OA
BRANCH   6   8
ATOM      8  C   UNL     1      -0.219 -10.450  -6.877  1.00  0.00     0.144 C 
BRANCH   8   9
ATOM      9  C   UNL     1       0.672  -9.245  -6.635  1.00  0.00     0.134 C 
BRANCH   9  10
ATOM     10  N   UNL     1       0.395  -8.635  -5.372  1.00  0.00    -0.346 N 
ATOM     11  C   UNL     1      -0.148  -8.775  -3.278  1.00  0.00     0.024 A 
ATOM     12  C   UNL     1       0.870  -9.079  -4.170  1.00  0.00     0.094 A 
ATOM     13  C   UNL     1      -1.309  -8.579  -4.087  1.00  0.00     0.007 A 
ATOM     14  C   UNL     1      -0.753  -7.920  -5.165  1.00  0.00     0.048 A 
ATOM     15  C   UNL     1      -2.699  -8.529  -3.929  1.00  0.00     0.011 A 
ATOM     16  C   UNL     1      -1.396  -6.913  -5.869  1.00  0.00     0.027 A 
ATOM     17  C   UNL     1      -3.416  -7.631  -4.728  1.00  0.00     0.001 A 
ATOM     18  C   UNL     1      -2.754  -6.761  -5.600  1.00  0.00     0.002 A 
BRANCH  11  19
ATOM     19  C   UNL     1       0.044  -8.284  -1.874  1.00  0.00     0.255 C 
ATOM     20  C   UNL     1       0.243  -3.772  -1.594  1.00  0.00     0.062 A 
ATOM     21  C   UNL     1      -1.166  -3.980  -1.277  1.00  0.00     0.018 A 
ATOM     22  C   UNL     1       1.062  -4.782  -1.936  1.00  0.00     0.046 A 
ATOM     23  C   UNL     1      -1.748  -5.188  -1.260  1.00  0.00     0.031 A 
ATOM     24  C   UNL     1       0.521  -6.147  -1.858  1.00  0.00     0.087 A 
ATOM     25  C   UNL     1      -0.900  -6.354  -1.519  1.00  0.00     0.086 A 
ATOM     26  N   UNL     1       1.150  -7.265  -1.940  1.00  0.00    -0.252 NA
ATOM     27  N   UNL     1      -1.201  -7.601  -1.402  1.00  0.00    -0.252 NA
BRANCH  20  28
ATOM     28  C   UNL     1       0.863  -2.409  -1.521  1.00  0.00     0.337 C 
ATOM     29  O   UNL     1       1.758  -2.010  -2.226  1.00  0.00    -0.246 OA
BRANCH  28  30
ATOM     30  O   UNL     1       0.291  -1.724  -0.485  1.00  0.00    -0.465 OA
ATOM     31  C   UNL     1       0.861  -0.437  -0.245  1.00  0.00     0.282 C 
ENDBRANCH  28  30
ENDBRANCH  20  28
ENDBRANCH  11  19
ENDBRANCH   9  10
ENDBRANCH   8   9
ENDBRANCH   6   8
ENDBRANCH   5   6
ENDBRANCH   4   5
ENDBRANCH   3   4
ENDBRANCH   2   3
ENDBRANCH   1   2
BRANCH   1  32
ATOM     32  C   UNL     1      -1.228  -8.441  -9.485  1.00  0.00     0.188 C 
BRANCH  32  33
ATOM     33  O   UNL     1      -1.565  -7.289  -8.760  1.00  0.00    -0.376 OA
BRANCH  33  34
ATOM     34  C   UNL     1      -2.042  -6.162  -9.459  1.00  0.00     0.202 C 
BRANCH  34  35
ATOM     35  C   UNL     1      -1.317  -5.654 -10.726  1.00  0.00     0.261 C 
BRANCH  35  36
ATOM     36  O   UNL     1      -0.645  -6.659 -11.510  1.00  0.00    -0.460 OA
BRANCH  36  37
ATOM     37  C   UNL     1       0.725  -6.610 -11.534  1.00  0.00     0.338 C 
ATOM     38  O   UNL     1       1.409  -5.632 -11.287  1.00  0.00    -0.246 OA
BRANCH  37  39
ATOM     39  C   UNL     1       1.246  -8.022 -11.545  1.00  0.00     0.060 A 
ATOM     40  C   UNL     1       0.602  -9.035 -12.269  1.00  0.00     0.016 A 
ATOM     41  C   UNL     1       2.118  -8.379 -10.500  1.00  0.00     0.016 A 
ATOM     42  C   UNL     1       0.742 -10.378 -11.871  1.00  0.00     0.010 A 
ATOM     43  C   UNL     1       2.242  -9.722 -10.101  1.00  0.00     0.010 A 
ATOM     44  C   UNL     1       1.521 -10.734 -10.753  1.00  0.00    -0.014 A 
BRANCH  44  45
ATOM     45  C   UNL     1       1.855 -12.162 -10.519  1.00  0.00     0.031 A 
ATOM     46  C   UNL     1       2.639 -12.732 -11.631  1.00  0.00     0.074 A 
ATOM     47  C   UNL     1       1.635 -12.987  -9.468  1.00  0.00     0.049 A 
ATOM     48  N   UNL     1       2.207 -13.645 -12.436  1.00  0.00    -0.248 NA
ATOM     49  C   UNL     1       3.909 -12.117 -12.016  1.00  0.00     0.031 C 
ATOM     50  C   UNL     1       0.812 -12.775  -8.310  1.00  0.00     0.029 A 
ATOM     51  N   UNL     1       2.164 -14.220  -9.174  1.00  0.00    -0.354 N 
ATOM     52  C   UNL     1       3.251 -13.888 -13.311  1.00  0.00     0.074 A 
ATOM     53  C   UNL     1       4.181 -12.800 -13.128  1.00  0.00     0.031 C 
ATOM     54  C   UNL     1       1.175 -13.560  -7.274  1.00  0.00     0.029 A 
ATOM     55  C   UNL     1       2.068 -14.563  -7.820  1.00  0.00     0.049 A 
ATOM     56  H   UNL     1       2.573 -14.807  -9.851  1.00  0.00     0.167 HD
ATOM     57  C   UNL     1       3.365 -15.085 -13.946  1.00  0.00     0.034 A 
ATOM     58  C   UNL     1       2.312 -15.723  -7.154  1.00  0.00     0.034 A 
ATOM     59  C   UNL     1       2.139 -15.839 -13.883  1.00  0.00     0.049 A 
ATOM     60  C   UNL     1       2.275 -16.809  -8.150  1.00  0.00     0.074 A 
ATOM     61  C   UNL     1       0.858 -15.658 -14.361  1.00  0.00     0.029 A 
ATOM     62  N   UNL     1       2.052 -16.844 -12.951  1.00  0.00    -0.354 N 
ATOM     63  N   UNL     1       1.165 -17.228  -8.694  1.00  0.00    -0.248 NA
ATOM     64  C   UNL     1       3.488 -17.044  -8.914  1.00  0.00     0.031 C 
ATOM     65  C   UNL     1       0.006 -16.236 -13.379  1.00  0.00     0.029 A 
ATOM     66  C   UNL     1       0.809 -16.791 -12.380  1.00  0.00     0.049 A 
ATOM     67  H   UNL     1       2.761 -17.491 -12.732  1.00  0.00     0.167 HD
ATOM     68  C   UNL     1       1.470 -17.329 -10.042  1.00  0.00     0.074 A 
ATOM     69  C   UNL     1       2.932 -17.265 -10.106  1.00  0.00     0.031 C 
ATOM     70  C   UNL     1       0.519 -17.164 -11.007  1.00  0.00     0.034 A 
BRANCH  57  71
ATOM     71  C   UNL     1       4.688 -15.703 -14.310  1.00  0.00     0.023 A 
ATOM     72  C   UNL     1       5.918 -15.209 -13.841  1.00  0.00     0.031 A 
ATOM     73  C   UNL     1       4.732 -16.951 -14.961  1.00  0.00     0.131 A 
ATOM     74  C   UNL     1       7.113 -15.911 -14.028  1.00  0.00     0.055 A 
ATOM     75  C   UNL     1       5.914 -17.688 -15.085  1.00  0.00     0.041 A 
ATOM     76  F   UNL     1       3.616 -17.521 -15.443  1.00  0.00    -0.206 F 
ATOM     77  C   UNL     1       7.115 -17.169 -14.618  1.00  0.00     0.022 A 
BRANCH  74  78
ATOM     78  S   UNL     1       8.687 -15.190 -13.492  1.00  0.00     0.124 S 
ATOM     79  O   UNL     1       9.145 -16.166 -12.509  1.00  0.00    -0.237 OA
ATOM     80  O   UNL     1       9.436 -15.153 -14.746  1.00  0.00    -0.237 OA
ATOM     81  O   UNL     1       8.304 -13.883 -12.964  1.00  0.00    -0.744 OA
ENDBRANCH  74  78
ENDBRANCH  57  71
BRANCH  58  82
ATOM     82  C   UNL     1       3.176 -15.760  -5.940  1.00  0.00     0.023 A 
ATOM     83  C   UNL     1       4.006 -14.664  -5.638  1.00  0.00     0.031 A 
ATOM     84  C   UNL     1       3.370 -16.934  -5.192  1.00  0.00     0.131 A 
ATOM     85  C   UNL     1       5.029 -14.776  -4.688  1.00  0.00     0.055 A 
ATOM     86  C   UNL     1       4.373 -17.035  -4.215  1.00  0.00     0.041 A 
ATOM     87  F   UNL     1       2.623 -18.024  -5.428  1.00  0.00    -0.206 F 
ATOM     88  C   UNL     1       5.221 -15.957  -3.971  1.00  0.00     0.022 A 
BRANCH  85  89
ATOM     89  S   UNL     1       6.183 -13.398  -4.440  1.00  0.00     0.124 S 
ATOM     90  O   UNL     1       6.289 -13.335  -2.984  1.00  0.00    -0.237 OA
ATOM     91  O   UNL     1       7.370 -13.881  -5.136  1.00  0.00    -0.237 OA
ATOM     92  O   UNL     1       5.499 -12.265  -5.058  1.00  0.00    -0.744 OA
ENDBRANCH  85  89
ENDBRANCH  58  82
BRANCH  70  93
ATOM     93  C   UNL     1      -0.945 -17.117 -10.626  1.00  0.00     0.023 A 
ATOM     94  C   UNL     1      -1.805 -17.968 -11.343  1.00  0.00     0.031 A 
ATOM     95  C   UNL     1      -1.532 -16.091  -9.862  1.00  0.00     0.131 A 
ATOM     96  C   UNL     1      -3.183 -17.726 -11.368  1.00  0.00     0.055 A 
ATOM     97  C   UNL     1      -2.920 -15.898  -9.828  1.00  0.00     0.041 A 
ATOM     98  F   UNL     1      -0.781 -15.188  -9.217  1.00  0.00    -0.206 F 
ATOM     99  C   UNL     1      -3.750 -16.700 -10.607  1.00  0.00     0.022 A 
BRANCH  96 100
ATOM    100  S   UNL     1      -4.235 -18.612 -12.548  1.00  0.00     0.124 S 
ATOM    101  O   UNL     1      -5.186 -19.287 -11.670  1.00  0.00    -0.237 OA
ATOM    102  O   UNL     1      -4.787 -17.521 -13.349  1.00  0.00    -0.237 OA
ATOM    103  O   UNL     1      -3.309 -19.491 -13.257  1.00  0.00    -0.744 OA
ENDBRANCH  96 100
ENDBRANCH  70  93
ENDBRANCH  44  45
ENDBRANCH  37  39
ENDBRANCH  36  37
ENDBRANCH  35  36
ENDBRANCH  34  35
ENDBRANCH  33  34
ENDBRANCH  32  33
ENDBRANCH   1  32
TORSDOF 25
