REMARK SMILES C[C@@H]1C(=O)O[C@@H]([C@@H]2CCC[C@H](CCC(=O)OCCOCCOCCOC(=O)c3ccc(-c4c5nc(c(-c6cc(S(=O)(=O)[O-])ccc6F)c6ccc([nH]6)c(-c6cc(S(=O)(=O)[O-])ccc6F)c6nc(c(-c7cc(S(=O)(=O)[O-])ccc7F)c7ccc4[nH]7)C=C6)C=C5)cc3)O2)[C@H]1O
REMARK SMILES IDX 20 1 19 2 18 3 17 4 16 5 14 6 15 7 13 8 12 9 11 10 7 11 8 12
REMARK SMILES IDX 91 13 9 14 10 15 6 16 1 17 2 18 3 19 92 20 4 21 5 22 93 23
REMARK SMILES IDX 21 25 22 26 23 27 24 28 25 29 26 30 27 31 28 32 29 33 90 34
REMARK SMILES IDX 30 35 89 36 31 37 32 38 33 39 83 40 34 41 88 42 82 43 84 44
REMARK SMILES IDX 35 45 87 46 81 47 80 48 36 50 68 51 48 52 67 53 49 54 52 55
REMARK SMILES IDX 66 56 85 57 50 58 51 59 65 61 86 62 53 63 37 64 38 65 46 66
REMARK SMILES IDX 39 67 45 68 47 69 44 70 40 71 41 72 42 73 43 74 69 75 70 76
REMARK SMILES IDX 78 77 71 78 77 79 79 80 76 81 72 82 73 83 74 84 75 85 54 86
REMARK SMILES IDX 55 87 63 88 56 89 62 90 64 91 61 92 57 93 58 94 59 95 60 96
REMARK H PARENT 93 24 84 49 52 60
REMARK Flexibility Score: inf
ROOT
ATOM      1  C   UNL     1       1.560   3.318   5.359  1.00  0.00     0.188 C 
ENDROOT
BRANCH   1   2
ATOM      2  O   UNL     1       2.555   3.441   6.373  1.00  0.00    -0.376 OA
BRANCH   2   3
ATOM      3  C   UNL     1       3.904   3.581   5.935  1.00  0.00     0.202 C 
BRANCH   3   4
ATOM      4  C   UNL     1       4.521   2.367   5.225  1.00  0.00     0.261 C 
BRANCH   4   5
ATOM      5  O   UNL     1       3.758   1.914   4.091  1.00  0.00    -0.463 OA
BRANCH   5   6
ATOM      6  C   UNL     1       3.391   0.609   4.119  1.00  0.00     0.305 C 
ATOM      7  O   UNL     1       3.802  -0.218   4.927  1.00  0.00    -0.252 OA
BRANCH   6   8
ATOM      8  C   UNL     1       2.334   0.247   3.104  1.00  0.00     0.125 C 
BRANCH   8   9
ATOM      9  C   UNL     1       1.986   1.234   1.997  1.00  0.00     0.044 C 
BRANCH   9  10
ATOM     10  C   UNL     1       3.008   1.481   0.875  1.00  0.00     0.119 C 
ATOM     11  C   UNL     1       2.023   1.012  -1.340  1.00  0.00     0.162 C 
ATOM     12  C   UNL     1       3.271   0.255  -1.776  1.00  0.00     0.036 C 
ATOM     13  O   UNL     1       2.316   1.935  -0.288  1.00  0.00    -0.371 OA
ATOM     14  C   UNL     1       3.984  -0.426  -0.624  1.00  0.00     0.005 C 
ATOM     15  C   UNL     1       4.139   0.481   0.590  1.00  0.00     0.032 C 
BRANCH  11  16
ATOM     16  C   UNL     1       0.721   0.171  -1.246  1.00  0.00     0.234 C 
ATOM     17  C   UNL     1      -1.624  -2.159  -1.061  1.00  0.00     0.023 C 
ATOM     18  C   UNL     1      -0.832  -1.267  -0.120  1.00  0.00     0.128 C 
ATOM     19  C   UNL     1      -1.301   0.161  -0.185  1.00  0.00     0.311 C 
ATOM     20  C   UNL     1       0.634  -1.163  -0.508  1.00  0.00     0.172 C 
ATOM     21  O   UNL     1      -2.391   0.554   0.197  1.00  0.00    -0.252 OA
ATOM     22  O   UNL     1      -0.359   0.967  -0.743  1.00  0.00    -0.457 OA
BRANCH  20  23
ATOM     23  O   UNL     1       1.416  -1.243   0.669  1.00  0.00    -0.388 OA
ATOM     24  H   UNL     1       1.132  -0.557   1.293  1.00  0.00     0.211 HD
ENDBRANCH  20  23
ENDBRANCH  11  16
ENDBRANCH   9  10
ENDBRANCH   8   9
ENDBRANCH   6   8
ENDBRANCH   5   6
ENDBRANCH   4   5
ENDBRANCH   3   4
ENDBRANCH   2   3
ENDBRANCH   1   2
BRANCH   1  25
ATOM     25  C   UNL     1       1.488   4.448   4.330  1.00  0.00     0.188 C 
BRANCH  25  26
ATOM     26  O   UNL     1       2.703   4.701   3.625  1.00  0.00    -0.376 OA
BRANCH  26  27
ATOM     27  C   UNL     1       2.579   5.575   2.495  1.00  0.00     0.202 C 
BRANCH  27  28
ATOM     28  C   UNL     1       1.934   6.946   2.785  1.00  0.00     0.261 C 
BRANCH  28  29
ATOM     29  O   UNL     1       0.553   6.863   3.190  1.00  0.00    -0.460 OA
BRANCH  29  30
ATOM     30  C   UNL     1      -0.298   6.274   2.313  1.00  0.00     0.338 C 
ATOM     31  O   UNL     1      -0.068   6.046   1.138  1.00  0.00    -0.246 OA
BRANCH  30  32
ATOM     32  C   UNL     1      -1.451   5.725   3.076  1.00  0.00     0.060 A 
ATOM     33  C   UNL     1      -1.966   4.476   2.701  1.00  0.00     0.016 A 
ATOM     34  C   UNL     1      -1.985   6.392   4.185  1.00  0.00     0.016 A 
ATOM     35  C   UNL     1      -3.045   3.920   3.397  1.00  0.00     0.010 A 
ATOM     36  C   UNL     1      -3.068   5.837   4.877  1.00  0.00     0.010 A 
ATOM     37  C   UNL     1      -3.631   4.616   4.464  1.00  0.00    -0.014 A 
BRANCH  37  38
ATOM     38  C   UNL     1      -4.956   4.196   4.996  1.00  0.00     0.031 A 
ATOM     39  C   UNL     1      -6.181   4.896   4.462  1.00  0.00     0.074 A 
ATOM     40  C   UNL     1      -5.093   3.213   5.905  1.00  0.00     0.049 A 
ATOM     41  N   UNL     1      -7.436   4.763   4.808  1.00  0.00    -0.248 NA
ATOM     42  C   UNL     1      -5.952   5.881   3.393  1.00  0.00     0.031 C 
ATOM     43  C   UNL     1      -4.004   2.415   6.465  1.00  0.00     0.029 A 
ATOM     44  N   UNL     1      -6.220   2.719   6.522  1.00  0.00    -0.354 N 
ATOM     45  C   UNL     1      -8.146   5.635   3.989  1.00  0.00     0.074 A 
ATOM     46  C   UNL     1      -7.177   6.330   3.170  1.00  0.00     0.031 C 
ATOM     47  C   UNL     1      -4.516   1.536   7.347  1.00  0.00     0.029 A 
ATOM     48  C   UNL     1      -5.963   1.731   7.446  1.00  0.00     0.049 A 
ATOM     49  H   UNL     1      -7.127   3.043   6.321  1.00  0.00     0.167 HD
ATOM     50  C   UNL     1      -9.486   5.828   3.909  1.00  0.00     0.034 A 
ATOM     51  C   UNL     1      -6.796   1.079   8.286  1.00  0.00     0.034 A 
ATOM     52  C   UNL     1     -10.452   5.153   4.737  1.00  0.00     0.049 A 
ATOM     53  C   UNL     1      -8.276   1.408   8.268  1.00  0.00     0.074 A 
ATOM     54  C   UNL     1     -11.828   5.305   4.755  1.00  0.00     0.029 A 
ATOM     55  N   UNL     1     -10.147   4.199   5.698  1.00  0.00    -0.354 N 
ATOM     56  N   UNL     1      -8.932   2.244   7.496  1.00  0.00    -0.248 NA
ATOM     57  C   UNL     1      -9.129   0.696   9.232  1.00  0.00     0.031 C 
ATOM     58  C   UNL     1     -12.348   4.490   5.765  1.00  0.00     0.029 A 
ATOM     59  C   UNL     1     -11.306   3.772   6.327  1.00  0.00     0.049 A 
ATOM     60  H   UNL     1      -9.240   3.873   5.902  1.00  0.00     0.167 HD
ATOM     61  C   UNL     1     -10.275   2.117   7.852  1.00  0.00     0.074 A 
ATOM     62  C   UNL     1     -10.338   1.119   8.896  1.00  0.00     0.031 C 
ATOM     63  C   UNL     1     -11.362   2.764   7.358  1.00  0.00     0.034 A 
BRANCH  50  64
ATOM     64  C   UNL     1      -9.976   6.841   2.906  1.00  0.00     0.023 A 
ATOM     65  C   UNL     1      -9.833   6.633   1.524  1.00  0.00     0.031 A 
ATOM     66  C   UNL     1     -10.582   8.033   3.338  1.00  0.00     0.131 A 
ATOM     67  C   UNL     1     -10.242   7.626   0.622  1.00  0.00     0.055 A 
ATOM     68  C   UNL     1     -11.055   8.985   2.433  1.00  0.00     0.041 A 
ATOM     69  F   UNL     1     -10.721   8.295   4.647  1.00  0.00    -0.206 F 
ATOM     70  C   UNL     1     -10.876   8.789   1.067  1.00  0.00     0.022 A 
BRANCH  67  71
ATOM     71  S   UNL     1      -9.834   7.430  -1.133  1.00  0.00     0.124 S 
ATOM     72  O   UNL     1      -8.374   7.402  -1.095  1.00  0.00    -0.237 OA
ATOM     73  O   UNL     1     -10.489   6.172  -1.473  1.00  0.00    -0.237 OA
ATOM     74  O   UNL     1     -10.410   8.620  -1.754  1.00  0.00    -0.744 OA
ENDBRANCH  67  71
ENDBRANCH  50  64
BRANCH  51  75
ATOM     75  C   UNL     1      -6.278   0.078   9.270  1.00  0.00     0.023 A 
ATOM     76  C   UNL     1      -6.740  -1.249   9.266  1.00  0.00     0.031 A 
ATOM     77  C   UNL     1      -5.415   0.468  10.309  1.00  0.00     0.131 A 
ATOM     78  C   UNL     1      -6.404  -2.113  10.322  1.00  0.00     0.055 A 
ATOM     79  C   UNL     1      -5.027  -0.415  11.319  1.00  0.00     0.041 A 
ATOM     80  F   UNL     1      -4.950   1.726  10.372  1.00  0.00    -0.206 F 
ATOM     81  C   UNL     1      -5.540  -1.708  11.341  1.00  0.00     0.022 A 
BRANCH  78  82
ATOM     82  S   UNL     1      -7.233  -3.725  10.423  1.00  0.00     0.124 S 
ATOM     83  O   UNL     1      -8.638  -3.336  10.414  1.00  0.00    -0.237 OA
ATOM     84  O   UNL     1      -6.743  -4.393   9.222  1.00  0.00    -0.237 OA
ATOM     85  O   UNL     1      -6.746  -4.279  11.685  1.00  0.00    -0.744 OA
ENDBRANCH  78  82
ENDBRANCH  51  75
BRANCH  63  86
ATOM     86  C   UNL     1     -12.718   2.357   7.886  1.00  0.00     0.023 A 
ATOM     87  C   UNL     1     -13.103   2.592   9.217  1.00  0.00     0.031 A 
ATOM     88  C   UNL     1     -13.640   1.719   7.035  1.00  0.00     0.131 A 
ATOM     89  C   UNL     1     -14.354   2.144   9.674  1.00  0.00     0.055 A 
ATOM     90  C   UNL     1     -14.904   1.329   7.479  1.00  0.00     0.041 A 
ATOM     91  F   UNL     1     -13.328   1.469   5.753  1.00  0.00    -0.206 F 
ATOM     92  C   UNL     1     -15.262   1.528   8.809  1.00  0.00     0.022 A 
BRANCH  89  93
ATOM     93  S   UNL     1     -14.749   2.301  11.438  1.00  0.00     0.124 S 
ATOM     94  O   UNL     1     -13.666   1.546  12.061  1.00  0.00    -0.237 OA
ATOM     95  O   UNL     1     -14.715   3.746  11.638  1.00  0.00    -0.237 OA
ATOM     96  O   UNL     1     -16.073   1.692  11.549  1.00  0.00    -0.744 OA
ENDBRANCH  89  93
ENDBRANCH  63  86
ENDBRANCH  37  38
ENDBRANCH  30  32
ENDBRANCH  29  30
ENDBRANCH  28  29
ENDBRANCH  27  28
ENDBRANCH  26  27
ENDBRANCH  25  26
ENDBRANCH   1  25
TORSDOF 24
