REMARK SMILES C[C@@H]1CN(S(=O)(=O)c2ccc(Cl)c(C(=O)OCCOCCOCCOC(=O)c3ccc(-c4c5nc(c(-c6cc(S(=O)(=O)[O-])ccc6F)c6ccc([nH]6)c(-c6cc(S(=O)(=O)[O-])ccc6F)c6nc(c(-c7cc(S(=O)(=O)[O-])ccc7F)c7ccc4[nH]7)C=C6)C=C5)cc3)c2Cl)C[C@H]1C
REMARK SMILES IDX 21 1 20 2 19 3 18 4 17 5 16 6 14 7 15 8 13 9 8 10 9 11 91 12
REMARK SMILES IDX 10 13 92 14 11 15 12 16 5 17 6 18 7 19 4 20 1 21 2 22 3 23
REMARK SMILES IDX 94 24 93 25 95 26 22 27 23 28 24 29 25 30 26 31 27 32 28 33
REMARK SMILES IDX 29 34 90 35 30 36 89 37 31 38 32 39 33 40 83 41 34 42 88 43
REMARK SMILES IDX 82 44 84 45 35 46 87 47 81 48 80 49 36 51 68 52 48 53 67 54
REMARK SMILES IDX 49 55 52 56 66 57 85 58 50 59 51 60 65 62 86 63 53 64 37 65
REMARK SMILES IDX 38 66 46 67 39 68 45 69 47 70 44 71 40 72 41 73 42 74 43 75
REMARK SMILES IDX 69 76 70 77 78 78 71 79 77 80 79 81 76 82 72 83 73 84 74 85
REMARK SMILES IDX 75 86 54 87 55 88 63 89 56 90 62 91 64 92 61 93 57 94 58 95
REMARK SMILES IDX 59 96 60 97
REMARK H PARENT 84 50 52 61
REMARK Flexibility Score: inf
ROOT
ATOM      1  C   UNL     1       0.458   5.705   8.603  1.00  0.00     0.188 C 
ENDROOT
BRANCH   1   2
ATOM      2  C   UNL     1       1.365   4.894   9.555  1.00  0.00     0.188 C 
BRANCH   2   3
ATOM      3  O   UNL     1       2.130   5.580  10.524  1.00  0.00    -0.376 OA
BRANCH   3   4
ATOM      4  C   UNL     1       3.248   6.366  10.145  1.00  0.00     0.202 C 
BRANCH   4   5
ATOM      5  C   UNL     1       4.006   6.196   8.819  1.00  0.00     0.261 C 
BRANCH   5   6
ATOM      6  O   UNL     1       3.208   5.745   7.723  1.00  0.00    -0.460 OA
BRANCH   6   7
ATOM      7  C   UNL     1       3.781   4.844   6.885  1.00  0.00     0.341 C 
ATOM      8  O   UNL     1       4.923   4.427   6.917  1.00  0.00    -0.246 OA
BRANCH   7   9
ATOM      9  C   UNL     1       2.756   4.415   5.911  1.00  0.00     0.098 A 
ATOM     10  C   UNL     1       1.222   2.753   5.024  1.00  0.00     0.102 A 
ATOM     11  C   UNL     1       0.692   3.739   4.171  1.00  0.00     0.025 A 
ATOM     12  C   UNL     1       2.255   3.089   5.917  1.00  0.00     0.077 A 
ATOM     13  C   UNL     1       1.220   5.027   4.147  1.00  0.00     0.023 A 
ATOM     14  Cl  UNL     1       2.929   1.953   7.034  1.00  0.00    -0.082 Cl
ATOM     15  C   UNL     1       2.257   5.367   5.009  1.00  0.00     0.057 A 
ATOM     16  Cl  UNL     1       2.878   6.977   4.895  1.00  0.00    -0.083 Cl
BRANCH  10  17
ATOM     17  S   UNL     1       0.412   1.154   4.955  1.00  0.00     0.244 S 
ATOM     18  O   UNL     1      -0.928   1.391   4.458  1.00  0.00    -0.207 OA
ATOM     19  O   UNL     1       0.600   0.467   6.211  1.00  0.00    -0.207 OA
BRANCH  17  20
ATOM     20  N   UNL     1       1.264   0.332   3.728  1.00  0.00    -0.197 NA
ATOM     21  C   UNL     1       1.054  -0.148   0.024  1.00  0.00     0.009 C 
ATOM     22  C   UNL     1       0.629  -0.276   1.480  1.00  0.00     0.005 C 
ATOM     23  C   UNL     1       1.160   0.868   2.342  1.00  0.00     0.106 C 
ATOM     24  C   UNL     1       1.180  -1.510   2.190  1.00  0.00     0.005 C 
ATOM     25  C   UNL     1       0.983  -1.141   3.665  1.00  0.00     0.106 C 
ATOM     26  C   UNL     1       0.467  -2.797   1.797  1.00  0.00     0.009 C 
ENDBRANCH  17  20
ENDBRANCH  10  17
ENDBRANCH   7   9
ENDBRANCH   6   7
ENDBRANCH   5   6
ENDBRANCH   4   5
ENDBRANCH   3   4
ENDBRANCH   2   3
ENDBRANCH   1   2
BRANCH   1  27
ATOM     27  O   UNL     1       0.393   7.117   8.675  1.00  0.00    -0.376 OA
BRANCH  27  28
ATOM     28  C   UNL     1       0.090   7.747   9.909  1.00  0.00     0.202 C 
BRANCH  28  29
ATOM     29  C   UNL     1      -1.020   7.248  10.847  1.00  0.00     0.261 C 
BRANCH  29  30
ATOM     30  O   UNL     1      -1.113   5.829  11.016  1.00  0.00    -0.460 OA
BRANCH  30  31
ATOM     31  C   UNL     1      -2.204   5.256  10.445  1.00  0.00     0.338 C 
ATOM     32  O   UNL     1      -3.084   5.818   9.817  1.00  0.00    -0.246 OA
BRANCH  31  33
ATOM     33  C   UNL     1      -2.079   3.789  10.531  1.00  0.00     0.060 A 
ATOM     34  C   UNL     1      -1.994   3.055   9.340  1.00  0.00     0.016 A 
ATOM     35  C   UNL     1      -2.086   3.141  11.767  1.00  0.00     0.016 A 
ATOM     36  C   UNL     1      -1.933   1.663   9.379  1.00  0.00     0.010 A 
ATOM     37  C   UNL     1      -2.055   1.744  11.803  1.00  0.00     0.010 A 
ATOM     38  C   UNL     1      -2.008   0.999  10.610  1.00  0.00    -0.014 A 
BRANCH  38  39
ATOM     39  C   UNL     1      -2.237  -0.467  10.640  1.00  0.00     0.031 A 
ATOM     40  C   UNL     1      -3.646  -0.965  10.813  1.00  0.00     0.074 A 
ATOM     41  C   UNL     1      -1.222  -1.337  10.498  1.00  0.00     0.049 A 
ATOM     42  N   UNL     1      -4.090  -2.188  10.935  1.00  0.00    -0.248 NA
ATOM     43  C   UNL     1      -4.697   0.065  10.858  1.00  0.00     0.031 C 
ATOM     44  C   UNL     1       0.174  -0.975  10.260  1.00  0.00     0.029 A 
ATOM     45  N   UNL     1      -1.213  -2.709  10.541  1.00  0.00    -0.354 N 
ATOM     46  C   UNL     1      -5.469  -2.078  11.074  1.00  0.00     0.074 A 
ATOM     47  C   UNL     1      -5.782  -0.665  11.063  1.00  0.00     0.031 C 
ATOM     48  C   UNL     1       0.909  -2.100  10.195  1.00  0.00     0.029 A 
ATOM     49  C   UNL     1       0.043  -3.256  10.423  1.00  0.00     0.049 A 
ATOM     50  H   UNL     1      -2.028  -3.250  10.647  1.00  0.00     0.167 HD
ATOM     51  C   UNL     1      -6.390  -3.066  11.191  1.00  0.00     0.034 A 
ATOM     52  C   UNL     1       0.447  -4.540  10.515  1.00  0.00     0.034 A 
ATOM     53  C   UNL     1      -6.059  -4.470  11.216  1.00  0.00     0.049 A 
ATOM     54  C   UNL     1      -0.586  -5.618  10.754  1.00  0.00     0.074 A 
ATOM     55  C   UNL     1      -6.912  -5.555  11.323  1.00  0.00     0.029 A 
ATOM     56  N   UNL     1      -4.770  -4.985  11.150  1.00  0.00    -0.354 N 
ATOM     57  N   UNL     1      -1.889  -5.506  10.879  1.00  0.00    -0.248 NA
ATOM     58  C   UNL     1      -0.091  -6.998  10.855  1.00  0.00     0.031 C 
ATOM     59  C   UNL     1      -6.137  -6.716  11.400  1.00  0.00     0.029 A 
ATOM     60  C   UNL     1      -4.804  -6.368  11.253  1.00  0.00     0.049 A 
ATOM     61  H   UNL     1      -3.953  -4.447  11.046  1.00  0.00     0.167 HD
ATOM     62  C   UNL     1      -2.370  -6.804  11.037  1.00  0.00     0.074 A 
ATOM     63  C   UNL     1      -1.220  -7.682  10.980  1.00  0.00     0.031 C 
ATOM     64  C   UNL     1      -3.648  -7.233  11.204  1.00  0.00     0.034 A 
BRANCH  51  65
ATOM     65  C   UNL     1      -7.832  -2.651  11.359  1.00  0.00     0.023 A 
ATOM     66  C   UNL     1      -8.526  -1.952  10.355  1.00  0.00     0.031 A 
ATOM     67  C   UNL     1      -8.512  -2.927  12.558  1.00  0.00     0.131 A 
ATOM     68  C   UNL     1      -9.830  -1.493  10.595  1.00  0.00     0.055 A 
ATOM     69  C   UNL     1      -9.838  -2.538  12.760  1.00  0.00     0.041 A 
ATOM     70  F   UNL     1      -7.894  -3.568  13.563  1.00  0.00    -0.206 F 
ATOM     71  C   UNL     1     -10.500  -1.803  11.781  1.00  0.00     0.022 A 
BRANCH  68  72
ATOM     72  S   UNL     1     -10.587  -0.360   9.397  1.00  0.00     0.124 S 
ATOM     73  O   UNL     1      -9.629   0.743   9.386  1.00  0.00    -0.237 OA
ATOM     74  O   UNL     1     -10.643  -1.171   8.187  1.00  0.00    -0.237 OA
ATOM     75  O   UNL     1     -11.882  -0.043   9.996  1.00  0.00    -0.744 OA
ENDBRANCH  68  72
ENDBRANCH  51  65
BRANCH  52  76
ATOM     76  C   UNL     1       1.896  -4.886  10.431  1.00  0.00     0.023 A 
ATOM     77  C   UNL     1       2.389  -5.710   9.406  1.00  0.00     0.031 A 
ATOM     78  C   UNL     1       2.798  -4.453  11.419  1.00  0.00     0.131 A 
ATOM     79  C   UNL     1       3.734  -6.115   9.420  1.00  0.00     0.055 A 
ATOM     80  C   UNL     1       4.147  -4.812  11.397  1.00  0.00     0.041 A 
ATOM     81  F   UNL     1       2.379  -3.672  12.427  1.00  0.00    -0.206 F 
ATOM     82  C   UNL     1       4.619  -5.661  10.400  1.00  0.00     0.022 A 
BRANCH  79  83
ATOM     83  S   UNL     1       4.289  -7.328   8.190  1.00  0.00     0.124 S 
ATOM     84  O   UNL     1       3.402  -8.454   8.461  1.00  0.00    -0.237 OA
ATOM     85  O   UNL     1       4.059  -6.619   6.936  1.00  0.00    -0.237 OA
ATOM     86  O   UNL     1       5.693  -7.544   8.533  1.00  0.00    -0.744 OA
ENDBRANCH  79  83
ENDBRANCH  52  76
BRANCH  64  87
ATOM     87  C   UNL     1      -3.872  -8.726  11.284  1.00  0.00     0.023 A 
ATOM     88  C   UNL     1      -3.390  -9.496  12.357  1.00  0.00     0.031 A 
ATOM     89  C   UNL     1      -4.581  -9.387  10.264  1.00  0.00     0.131 A 
ATOM     90  C   UNL     1      -3.577 -10.888  12.359  1.00  0.00     0.055 A 
ATOM     91  C   UNL     1      -4.819 -10.761  10.304  1.00  0.00     0.041 A 
ATOM     92  F   UNL     1      -5.063  -8.704   9.213  1.00  0.00    -0.206 F 
ATOM     93  C   UNL     1      -4.305 -11.522  11.349  1.00  0.00     0.022 A 
BRANCH  90  94
ATOM     94  S   UNL     1      -2.778 -11.875  13.655  1.00  0.00     0.124 S 
ATOM     95  O   UNL     1      -1.371 -11.539  13.468  1.00  0.00    -0.237 OA
ATOM     96  O   UNL     1      -3.401 -11.360  14.870  1.00  0.00    -0.237 OA
ATOM     97  O   UNL     1      -3.139 -13.249  13.310  1.00  0.00    -0.744 OA
ENDBRANCH  90  94
ENDBRANCH  64  87
ENDBRANCH  38  39
ENDBRANCH  31  33
ENDBRANCH  30  31
ENDBRANCH  29  30
ENDBRANCH  28  29
ENDBRANCH  27  28
ENDBRANCH   1  27
TORSDOF 22
