REMARK SMILES C[C@H]1CN(C(=O)N[C@@H]2CCCCC[C@@H]2C(=O)OCCOCCOCCOC(=O)c2ccc(-c3c4nc(c(-c5cc(S(=O)(=O)[O-])ccc5F)c5ccc([nH]5)c(-c5cc(S(=O)(=O)[O-])ccc5F)c5nc(c(-c6cc(S(=O)(=O)[O-])ccc6F)c6ccc3[nH]6)C=C5)C=C4)cc2)C[C@H](C)O1
REMARK SMILES IDX 21 1 20 2 19 3 18 4 17 5 15 6 16 7 14 8 8 9 7 10 1 11 2 12
REMARK SMILES IDX 3 13 95 14 4 15 93 16 5 17 92 18 94 19 6 20 9 22 10 23 11 24
REMARK SMILES IDX 13 26 12 27 22 29 23 30 24 31 25 32 26 33 27 34 28 35 29 36
REMARK SMILES IDX 30 37 91 38 31 39 90 40 32 41 33 42 34 43 84 44 35 45 89 46
REMARK SMILES IDX 83 47 85 48 36 49 88 50 82 51 81 52 37 54 69 55 49 56 68 57
REMARK SMILES IDX 50 58 53 59 67 60 86 61 51 62 52 63 66 65 87 66 54 67 38 68
REMARK SMILES IDX 39 69 47 70 40 71 46 72 48 73 45 74 41 75 42 76 43 77 44 78
REMARK SMILES IDX 70 79 71 80 79 81 72 82 78 83 80 84 77 85 73 86 74 87 75 88
REMARK SMILES IDX 76 89 55 90 56 91 64 92 57 93 63 94 65 95 62 96 58 97 59 98
REMARK SMILES IDX 60 99 61 100
REMARK H PARENT 7 21 85 53 53 64
REMARK Flexibility Score: 90.00
ROOT
ATOM      1  C   UNL     1      -5.968   0.691  -2.200  1.00  0.00     0.188 C 
ENDROOT
BRANCH   1   2
ATOM      2  O   UNL     1      -7.133   0.770  -1.376  1.00  0.00    -0.376 OA
BRANCH   2   3
ATOM      3  C   UNL     1      -7.207   1.794  -0.398  1.00  0.00     0.202 C 
BRANCH   3   4
ATOM      4  C   UNL     1      -6.167   1.728   0.732  1.00  0.00     0.261 C 
BRANCH   4   5
ATOM      5  O   UNL     1      -5.055   0.862   0.419  1.00  0.00    -0.463 OA
BRANCH   5   6
ATOM      6  C   UNL     1      -4.812  -0.171   1.244  1.00  0.00     0.311 C 
ATOM      7  O   UNL     1      -5.360  -0.315   2.334  1.00  0.00    -0.252 OA
BRANCH   6   8
ATOM      8  C   UNL     1      -3.920  -1.255   0.646  1.00  0.00     0.121 C 
BRANCH   8   9
ATOM      9  C   UNL     1      -2.519  -0.974   0.038  1.00  0.00     0.098 C 
BRANCH   9  10
ATOM     10  N   UNL     1      -2.414   0.111  -0.941  1.00  0.00    -0.334 N 
ATOM     11  C   UNL     1       0.827   0.350   2.670  1.00  0.00     0.040 C 
ATOM     12  C   UNL     1       0.455   1.005   1.349  1.00  0.00     0.135 C 
ATOM     13  C   UNL     1      -0.986   1.534   1.345  1.00  0.00     0.153 C 
ATOM     14  O   UNL     1       1.360   2.109   1.106  1.00  0.00    -0.372 OA
ATOM     15  N   UNL     1      -1.240   1.983  -0.014  1.00  0.00    -0.320 N 
ATOM     16  C   UNL     1       1.086   2.834  -0.120  1.00  0.00     0.135 C 
ATOM     17  C   UNL     1      -1.790   1.301  -1.054  1.00  0.00     0.317 C 
ATOM     18  C   UNL     1      -0.416   3.162  -0.313  1.00  0.00     0.153 C 
ATOM     19  C   UNL     1       1.687   2.106  -1.318  1.00  0.00     0.040 C 
ATOM     20  O   UNL     1      -1.754   1.753  -2.204  1.00  0.00    -0.249 OA
ATOM     21  H   UNL     1      -2.950  -0.085  -1.743  1.00  0.00     0.165 HD
ENDBRANCH   9  10
BRANCH   9  22
ATOM     22  C   UNL     1      -1.906  -2.238  -0.628  1.00  0.00     0.026 C 
BRANCH  22  23
ATOM     23  C   UNL     1      -2.013  -3.508   0.219  1.00  0.00     0.002 C 
BRANCH  23  24
ATOM     24  C   UNL     1      -3.285  -4.320  -0.042  1.00  0.00     0.000 CG0
ATOM     25  G   UNL     1      -4.612  -3.664   0.336  1.00  0.00     0.000 G0
ENDBRANCH  23  24
ENDBRANCH  22  23
ENDBRANCH   9  22
ENDBRANCH   8   9
BRANCH   8  26
ATOM     26  C   UNL     1      -4.787  -2.232  -0.173  1.00  0.00     0.017 C 
BRANCH  26  27
ATOM     27  C   UNL     1      -4.612  -3.664   0.336  1.00  0.00     0.001 CG0
ATOM     28  G   UNL     1      -3.285  -4.320  -0.042  1.00  0.00     0.000 G0
ENDBRANCH  26  27
ENDBRANCH   8  26
ENDBRANCH   6   8
ENDBRANCH   5   6
ENDBRANCH   4   5
ENDBRANCH   3   4
ENDBRANCH   2   3
ENDBRANCH   1   2
BRANCH   1  29
ATOM     29  C   UNL     1      -4.959   1.851  -2.245  1.00  0.00     0.188 C 
BRANCH  29  30
ATOM     30  O   UNL     1      -5.599   3.117  -2.252  1.00  0.00    -0.376 OA
BRANCH  30  31
ATOM     31  C   UNL     1      -5.219   3.952  -3.328  1.00  0.00     0.202 C 
BRANCH  31  32
ATOM     32  C   UNL     1      -5.923   3.571  -4.636  1.00  0.00     0.261 C 
BRANCH  32  33
ATOM     33  O   UNL     1      -5.877   2.172  -4.983  1.00  0.00    -0.460 OA
BRANCH  33  34
ATOM     34  C   UNL     1      -4.736   1.707  -5.538  1.00  0.00     0.338 C 
ATOM     35  O   UNL     1      -3.732   2.363  -5.782  1.00  0.00    -0.246 OA
BRANCH  34  36
ATOM     36  C   UNL     1      -4.836   0.233  -5.678  1.00  0.00     0.060 A 
ATOM     37  C   UNL     1      -3.929  -0.594  -5.001  1.00  0.00     0.016 A 
ATOM     38  C   UNL     1      -5.808  -0.334  -6.507  1.00  0.00     0.016 A 
ATOM     39  C   UNL     1      -3.973  -1.986  -5.176  1.00  0.00     0.010 A 
ATOM     40  C   UNL     1      -5.839  -1.723  -6.694  1.00  0.00     0.010 A 
ATOM     41  C   UNL     1      -4.904  -2.561  -6.055  1.00  0.00    -0.014 A 
BRANCH  41  42
ATOM     42  C   UNL     1      -4.809  -3.997  -6.450  1.00  0.00     0.031 A 
ATOM     43  C   UNL     1      -4.205  -4.340  -7.790  1.00  0.00     0.074 A 
ATOM     44  C   UNL     1      -5.256  -4.989  -5.655  1.00  0.00     0.049 A 
ATOM     45  N   UNL     1      -4.127  -5.495  -8.403  1.00  0.00    -0.248 NA
ATOM     46  C   UNL     1      -3.617  -3.221  -8.541  1.00  0.00     0.031 C 
ATOM     47  C   UNL     1      -5.813  -4.813  -4.316  1.00  0.00     0.029 A 
ATOM     48  N   UNL     1      -5.329  -6.347  -5.872  1.00  0.00    -0.354 N 
ATOM     49  C   UNL     1      -3.496  -5.240  -9.617  1.00  0.00     0.074 A 
ATOM     50  C   UNL     1      -3.242  -3.815  -9.663  1.00  0.00     0.031 C 
ATOM     51  C   UNL     1      -6.186  -6.014  -3.837  1.00  0.00     0.029 A 
ATOM     52  C   UNL     1      -5.943  -7.040  -4.852  1.00  0.00     0.049 A 
ATOM     53  H   UNL     1      -4.974  -6.782  -6.680  1.00  0.00     0.167 HD
ATOM     54  C   UNL     1      -3.156  -6.111 -10.601  1.00  0.00     0.034 A 
ATOM     55  C   UNL     1      -6.304  -8.339  -4.763  1.00  0.00     0.034 A 
ATOM     56  C   UNL     1      -3.420  -7.529 -10.552  1.00  0.00     0.049 A 
ATOM     57  C   UNL     1      -6.008  -9.275  -5.915  1.00  0.00     0.074 A 
ATOM     58  C   UNL     1      -3.098  -8.497 -11.489  1.00  0.00     0.029 A 
ATOM     59  N   UNL     1      -4.084  -8.183  -9.523  1.00  0.00    -0.354 N 
ATOM     60  N   UNL     1      -5.409  -9.022  -7.057  1.00  0.00    -0.248 NA
ATOM     61  C   UNL     1      -6.435 -10.674  -5.764  1.00  0.00     0.031 C 
ATOM     62  C   UNL     1      -3.642  -9.715 -11.069  1.00  0.00     0.029 A 
ATOM     63  C   UNL     1      -4.216  -9.531  -9.822  1.00  0.00     0.049 A 
ATOM     64  H   UNL     1      -4.412  -7.753  -8.700  1.00  0.00     0.167 HD
ATOM     65  C   UNL     1      -5.355 -10.238  -7.738  1.00  0.00     0.074 A 
ATOM     66  C   UNL     1      -5.970 -11.224  -6.876  1.00  0.00     0.031 C 
ATOM     67  C   UNL     1      -4.835 -10.515  -8.962  1.00  0.00     0.034 A 
BRANCH  54  68
ATOM     68  C   UNL     1      -2.512  -5.541 -11.844  1.00  0.00     0.023 A 
ATOM     69  C   UNL     1      -1.260  -4.903 -11.809  1.00  0.00     0.031 A 
ATOM     70  C   UNL     1      -3.171  -5.625 -13.085  1.00  0.00     0.131 A 
ATOM     71  C   UNL     1      -0.741  -4.314 -12.973  1.00  0.00     0.055 A 
ATOM     72  C   UNL     1      -2.610  -5.112 -14.255  1.00  0.00     0.041 A 
ATOM     73  F   UNL     1      -4.380  -6.202 -13.178  1.00  0.00    -0.206 F 
ATOM     74  C   UNL     1      -1.394  -4.438 -14.201  1.00  0.00     0.022 A 
BRANCH  71  75
ATOM     75  S   UNL     1       0.725  -3.255 -12.829  1.00  0.00     0.124 S 
ATOM     76  O   UNL     1       0.273  -2.256 -11.863  1.00  0.00    -0.237 OA
ATOM     77  O   UNL     1       1.742  -4.187 -12.356  1.00  0.00    -0.237 OA
ATOM     78  O   UNL     1       0.920  -2.753 -14.188  1.00  0.00    -0.744 OA
ENDBRANCH  71  75
ENDBRANCH  54  68
BRANCH  55  79
ATOM     79  C   UNL     1      -7.041  -8.842  -3.563  1.00  0.00     0.023 A 
ATOM     80  C   UNL     1      -6.505  -9.852  -2.747  1.00  0.00     0.031 A 
ATOM     81  C   UNL     1      -8.333  -8.373  -3.261  1.00  0.00     0.131 A 
ATOM     82  C   UNL     1      -7.273 -10.392  -1.702  1.00  0.00     0.055 A 
ATOM     83  C   UNL     1      -9.067  -8.869  -2.182  1.00  0.00     0.041 A 
ATOM     84  F   UNL     1      -8.902  -7.418  -4.014  1.00  0.00    -0.206 F 
ATOM     85  C   UNL     1      -8.543  -9.896  -1.404  1.00  0.00     0.022 A 
BRANCH  82  86
ATOM     86  S   UNL     1      -6.627 -11.829  -0.801  1.00  0.00     0.124 S 
ATOM     87  O   UNL     1      -6.451 -12.798  -1.876  1.00  0.00    -0.237 OA
ATOM     88  O   UNL     1      -5.405 -11.292  -0.212  1.00  0.00    -0.237 OA
ATOM     89  O   UNL     1      -7.691 -12.139   0.152  1.00  0.00    -0.744 OA
ENDBRANCH  82  86
ENDBRANCH  55  79
BRANCH  67  90
ATOM     90  C   UNL     1      -4.851 -11.957  -9.421  1.00  0.00     0.023 A 
ATOM     91  C   UNL     1      -6.047 -12.651  -9.673  1.00  0.00     0.031 A 
ATOM     92  C   UNL     1      -3.639 -12.649  -9.606  1.00  0.00     0.131 A 
ATOM     93  C   UNL     1      -6.008 -14.006 -10.041  1.00  0.00     0.055 A 
ATOM     94  C   UNL     1      -3.605 -13.976 -10.039  1.00  0.00     0.041 A 
ATOM     95  F   UNL     1      -2.463 -12.043  -9.376  1.00  0.00    -0.206 F 
ATOM     96  C   UNL     1      -4.794 -14.666 -10.245  1.00  0.00     0.022 A 
BRANCH  93  97
ATOM     97  S   UNL     1      -7.567 -14.928 -10.149  1.00  0.00     0.124 S 
ATOM     98  O   UNL     1      -8.117 -14.752  -8.809  1.00  0.00    -0.237 OA
ATOM     99  O   UNL     1      -8.268 -14.231 -11.223  1.00  0.00    -0.237 OA
ATOM    100  O   UNL     1      -7.141 -16.288 -10.470  1.00  0.00    -0.744 OA
ENDBRANCH  93  97
ENDBRANCH  67  90
ENDBRANCH  41  42
ENDBRANCH  34  36
ENDBRANCH  33  34
ENDBRANCH  32  33
ENDBRANCH  31  32
ENDBRANCH  30  31
ENDBRANCH  29  30
ENDBRANCH   1  29
TORSDOF 21
