REMARK SMILES Cc1cc(C(=O)Nc2cccc(C(=O)NCC(=O)OCCOCCOCCOC(=O)c3ccc(-c4c5nc(c(-c6cc(S(=O)(=O)[O-])ccc6F)c6ccc([nH]6)c(-c6cc(S(=O)(=O)[O-])ccc6F)c6nc(c(-c7cc(S(=O)(=O)[O-])ccc7F)c7ccc4[nH]7)C=C6)C=C5)cc3)c2)no1
REMARK SMILES IDX 23 1 22 2 21 3 20 4 19 5 17 6 18 7 16 8 15 9 13 10 14 11
REMARK SMILES IDX 12 13 8 14 9 15 94 16 10 17 11 18 7 19 5 20 6 21 4 23 1 24
REMARK SMILES IDX 2 25 3 26 96 27 95 28 24 29 25 30 26 31 27 32 28 33 29 34
REMARK SMILES IDX 30 35 31 36 32 37 93 38 33 39 92 40 34 41 35 42 36 43 86 44
REMARK SMILES IDX 37 45 91 46 85 47 87 48 38 49 90 50 84 51 83 52 39 54 71 55
REMARK SMILES IDX 51 56 70 57 52 58 55 59 69 60 88 61 53 62 54 63 68 65 89 66
REMARK SMILES IDX 56 67 40 68 41 69 49 70 42 71 48 72 50 73 47 74 43 75 44 76
REMARK SMILES IDX 45 77 46 78 72 79 73 80 81 81 74 82 80 83 82 84 79 85 75 86
REMARK SMILES IDX 76 87 77 88 78 89 57 90 58 91 66 92 59 93 65 94 67 95 64 96
REMARK SMILES IDX 60 97 61 98 62 99 63 100
REMARK H PARENT 15 12 7 22 87 53 55 64
REMARK Flexibility Score: inf
ROOT
ATOM      1  C   UNL     1       0.213  -0.278   6.084  1.00  0.00     0.188 C 
ENDROOT
BRANCH   1   2
ATOM      2  O   UNL     1      -0.841  -0.621   6.974  1.00  0.00    -0.376 OA
BRANCH   2   3
ATOM      3  C   UNL     1      -1.487  -1.885   6.847  1.00  0.00     0.202 C 
BRANCH   3   4
ATOM      4  C   UNL     1      -1.974  -2.358   5.465  1.00  0.00     0.261 C 
BRANCH   4   5
ATOM      5  O   UNL     1      -0.930  -2.480   4.478  1.00  0.00    -0.462 OA
BRANCH   5   6
ATOM      6  C   UNL     1      -1.027  -1.661   3.399  1.00  0.00     0.325 C 
ATOM      7  O   UNL     1      -1.999  -0.958   3.153  1.00  0.00    -0.250 OA
BRANCH   6   8
ATOM      8  C   UNL     1       0.275  -1.582   2.579  1.00  0.00     0.239 C 
BRANCH   8   9
ATOM      9  N   UNL     1       1.260  -2.665   2.655  1.00  0.00    -0.341 N 
ATOM     10  C   UNL     1       1.425  -3.825   1.948  1.00  0.00     0.251 C 
ATOM     11  O   UNL     1       2.442  -4.485   2.165  1.00  0.00    -0.269 OA
ATOM     12  H   UNL     1       1.938  -2.531   3.356  1.00  0.00     0.164 HD
BRANCH  10  13
ATOM     13  C   UNL     1       0.483  -4.282   0.892  1.00  0.00     0.041 A 
ATOM     14  C   UNL     1      -1.498  -3.981  -0.470  1.00  0.00     0.042 A 
ATOM     15  C   UNL     1      -1.135  -5.052  -1.276  1.00  0.00     0.026 A 
ATOM     16  C   UNL     1      -0.765  -3.711   0.678  1.00  0.00     0.040 A 
ATOM     17  C   UNL     1       0.066  -5.717  -1.024  1.00  0.00     0.003 A 
ATOM     18  C   UNL     1       0.894  -5.302   0.025  1.00  0.00     0.014 A 
BRANCH  14  19
ATOM     19  N   UNL     1      -2.574  -3.160  -0.827  1.00  0.00    -0.321 N 
ATOM     20  C   UNL     1      -2.706  -1.780  -0.677  1.00  0.00     0.277 C 
ATOM     21  O   UNL     1      -3.849  -1.321  -0.728  1.00  0.00    -0.267 OA
ATOM     22  H   UNL     1      -3.341  -3.619  -1.240  1.00  0.00     0.170 HD
BRANCH  20  23
ATOM     23  C   UNL     1      -1.506  -0.916  -0.575  1.00  0.00     0.171 A 
ATOM     24  C   UNL     1       1.995   0.250  -0.426  1.00  0.00     0.091 C 
ATOM     25  C   UNL     1       0.556  -0.069  -0.531  1.00  0.00     0.134 A 
ATOM     26  C   UNL     1      -0.165  -1.131  -1.027  1.00  0.00     0.082 A 
ATOM     27  O   UNL     1      -0.302   0.801   0.059  1.00  0.00    -0.361 OA
ATOM     28  N   UNL     1      -1.583   0.288   0.021  1.00  0.00    -0.074 NA
ENDBRANCH  20  23
ENDBRANCH  14  19
ENDBRANCH  10  13
ENDBRANCH   8   9
ENDBRANCH   6   8
ENDBRANCH   5   6
ENDBRANCH   4   5
ENDBRANCH   3   4
ENDBRANCH   2   3
ENDBRANCH   1   2
BRANCH   1  29
ATOM     29  C   UNL     1       1.306  -1.315   5.803  1.00  0.00     0.188 C 
BRANCH  29  30
ATOM     30  O   UNL     1       1.117  -2.567   6.406  1.00  0.00    -0.376 OA
BRANCH  30  31
ATOM     31  C   UNL     1       1.995  -2.959   7.441  1.00  0.00     0.202 C 
BRANCH  31  32
ATOM     32  C   UNL     1       2.525  -1.958   8.489  1.00  0.00     0.261 C 
BRANCH  32  33
ATOM     33  O   UNL     1       2.734  -0.592   8.090  1.00  0.00    -0.460 OA
BRANCH  33  34
ATOM     34  C   UNL     1       3.860  -0.307   7.391  1.00  0.00     0.338 C 
ATOM     35  O   UNL     1       4.728  -1.104   7.061  1.00  0.00    -0.246 OA
BRANCH  34  36
ATOM     36  C   UNL     1       3.720   1.070   6.849  1.00  0.00     0.060 A 
ATOM     37  C   UNL     1       3.722   1.272   5.458  1.00  0.00     0.016 A 
ATOM     38  C   UNL     1       3.558   2.154   7.711  1.00  0.00     0.016 A 
ATOM     39  C   UNL     1       3.590   2.561   4.928  1.00  0.00     0.010 A 
ATOM     40  C   UNL     1       3.459   3.445   7.181  1.00  0.00     0.010 A 
ATOM     41  C   UNL     1       3.506   3.660   5.790  1.00  0.00    -0.014 A 
BRANCH  41  42
ATOM     42  C   UNL     1       3.713   5.044   5.284  1.00  0.00     0.031 A 
ATOM     43  C   UNL     1       5.087   5.641   5.433  1.00  0.00     0.074 A 
ATOM     44  C   UNL     1       2.720   5.769   4.739  1.00  0.00     0.049 A 
ATOM     45  N   UNL     1       5.489   6.871   5.249  1.00  0.00    -0.248 NA
ATOM     46  C   UNL     1       6.147   4.717   5.866  1.00  0.00     0.031 C 
ATOM     47  C   UNL     1       1.367   5.289   4.471  1.00  0.00     0.029 A 
ATOM     48  N   UNL     1       2.697   7.083   4.334  1.00  0.00    -0.354 N 
ATOM     49  C   UNL     1       6.844   6.875   5.565  1.00  0.00     0.074 A 
ATOM     50  C   UNL     1       7.184   5.531   5.980  1.00  0.00     0.031 C 
ATOM     51  C   UNL     1       0.638   6.303   3.968  1.00  0.00     0.029 A 
ATOM     52  C   UNL     1       1.454   7.516   3.932  1.00  0.00     0.049 A 
ATOM     53  H   UNL     1       3.495   7.660   4.332  1.00  0.00     0.167 HD
ATOM     54  C   UNL     1       7.723   7.905   5.514  1.00  0.00     0.034 A 
ATOM     55  C   UNL     1       1.019   8.755   3.616  1.00  0.00     0.034 A 
ATOM     56  C   UNL     1       7.366   9.243   5.113  1.00  0.00     0.049 A 
ATOM     57  C   UNL     1       1.990   9.915   3.671  1.00  0.00     0.074 A 
ATOM     58  C   UNL     1       8.177  10.360   5.021  1.00  0.00     0.029 A 
ATOM     59  N   UNL     1       6.088   9.651   4.750  1.00  0.00    -0.354 N 
ATOM     60  N   UNL     1       3.266   9.916   3.987  1.00  0.00    -0.248 NA
ATOM     61  C   UNL     1       1.461  11.243   3.327  1.00  0.00     0.031 C 
ATOM     62  C   UNL     1       7.377  11.457   4.686  1.00  0.00     0.029 A 
ATOM     63  C   UNL     1       6.084  11.008   4.468  1.00  0.00     0.049 A 
ATOM     64  H   UNL     1       5.301   9.062   4.700  1.00  0.00     0.167 HD
ATOM     65  C   UNL     1       3.697  11.233   3.834  1.00  0.00     0.074 A 
ATOM     66  C   UNL     1       2.549  11.997   3.394  1.00  0.00     0.031 C 
ATOM     67  C   UNL     1       4.933  11.762   4.028  1.00  0.00     0.034 A 
BRANCH  54  68
ATOM     68  C   UNL     1       9.138   7.632   5.966  1.00  0.00     0.023 A 
ATOM     69  C   UNL     1       9.967   6.713   5.299  1.00  0.00     0.031 A 
ATOM     70  C   UNL     1       9.654   8.276   7.105  1.00  0.00     0.131 A 
ATOM     71  C   UNL     1      11.234   6.409   5.818  1.00  0.00     0.055 A 
ATOM     72  C   UNL     1      10.950   8.036   7.565  1.00  0.00     0.041 A 
ATOM     73  F   UNL     1       8.900   9.142   7.801  1.00  0.00    -0.206 F 
ATOM     74  C   UNL     1      11.743   7.085   6.930  1.00  0.00     0.022 A 
BRANCH  71  75
ATOM     75  S   UNL     1      12.143   5.006   5.114  1.00  0.00     0.124 S 
ATOM     76  O   UNL     1      11.196   3.911   5.314  1.00  0.00    -0.237 OA
ATOM     77  O   UNL     1      12.352   5.426   3.734  1.00  0.00    -0.237 OA
ATOM     78  O   UNL     1      13.350   4.933   5.935  1.00  0.00    -0.744 OA
ENDBRANCH  71  75
ENDBRANCH  54  68
BRANCH  55  79
ATOM     79  C   UNL     1      -0.415   8.993   3.269  1.00  0.00     0.023 A 
ATOM     80  C   UNL     1      -0.784   9.501   2.013  1.00  0.00     0.031 A 
ATOM     81  C   UNL     1      -1.434   8.787   4.217  1.00  0.00     0.131 A 
ATOM     82  C   UNL     1      -2.124   9.835   1.756  1.00  0.00     0.055 A 
ATOM     83  C   UNL     1      -2.774   9.059   3.935  1.00  0.00     0.041 A 
ATOM     84  F   UNL     1      -1.139   8.317   5.440  1.00  0.00    -0.206 F 
ATOM     85  C   UNL     1      -3.124   9.600   2.702  1.00  0.00     0.022 A 
BRANCH  82  86
ATOM     86  S   UNL     1      -2.525  10.685   0.204  1.00  0.00     0.124 S 
ATOM     87  O   UNL     1      -1.698  11.883   0.302  1.00  0.00    -0.237 OA
ATOM     88  O   UNL     1      -2.117   9.704  -0.795  1.00  0.00    -0.237 OA
ATOM     89  O   UNL     1      -3.966  10.912   0.302  1.00  0.00    -0.744 OA
ENDBRANCH  82  86
ENDBRANCH  55  79
BRANCH  67  90
ATOM     90  C   UNL     1       5.130  13.224   3.694  1.00  0.00     0.023 A 
ATOM     91  C   UNL     1       4.495  14.252   4.413  1.00  0.00     0.031 A 
ATOM     92  C   UNL     1       5.981  13.591   2.635  1.00  0.00     0.131 A 
ATOM     93  C   UNL     1       4.681  15.591   4.031  1.00  0.00     0.055 A 
ATOM     94  C   UNL     1       6.214  14.926   2.303  1.00  0.00     0.041 A 
ATOM     95  F   UNL     1       6.612  12.654   1.909  1.00  0.00    -0.206 F 
ATOM     96  C   UNL     1       5.552  15.935   2.994  1.00  0.00     0.022 A 
BRANCH  93  97
ATOM     97  S   UNL     1       3.693  16.877   4.844  1.00  0.00     0.124 S 
ATOM     98  O   UNL     1       2.331  16.430   4.574  1.00  0.00    -0.237 OA
ATOM     99  O   UNL     1       4.133  16.778   6.232  1.00  0.00    -0.237 OA
ATOM    100  O   UNL     1       4.091  18.103   4.155  1.00  0.00    -0.744 OA
ENDBRANCH  93  97
ENDBRANCH  67  90
ENDBRANCH  41  42
ENDBRANCH  34  36
ENDBRANCH  33  34
ENDBRANCH  32  33
ENDBRANCH  31  32
ENDBRANCH  30  31
ENDBRANCH  29  30
ENDBRANCH   1  29
TORSDOF 24
