REMARK SMILES C[C@H]([N@H+](CCC(=O)OCCOCCOCCOC(=O)c1ccc(-c2c3nc(c(-c4cc(S(=O)(=O)[O-])ccc4F)c4ccc([nH]4)c(-c4cc(S(=O)(=O)[O-])ccc4F)c4nc(c(-c5cc(S(=O)(=O)[O-])ccc5F)c5ccc2[nH]5)C=C4)C=C3)cc1)C(C)(C)C)C1(C)CC1
REMARK SMILES IDX 12 1 11 2 10 3 9 4 8 5 6 6 7 7 5 8 4 9 3 10 2 12 1 13 87 14
REMARK SMILES IDX 88 15 89 16 90 17 83 18 84 19 85 20 86 21 13 22 14 23 15 24
REMARK SMILES IDX 16 25 17 26 18 27 19 28 20 29 21 30 82 31 22 32 81 33 23 34
REMARK SMILES IDX 24 35 25 36 75 37 26 38 80 39 74 40 76 41 27 42 79 43 73 44
REMARK SMILES IDX 72 45 28 47 60 48 40 49 59 50 41 51 44 52 58 53 77 54 42 55
REMARK SMILES IDX 43 56 57 58 78 59 45 60 29 61 30 62 38 63 31 64 37 65 39 66
REMARK SMILES IDX 36 67 32 68 33 69 34 70 35 71 61 72 62 73 70 74 63 75 69 76
REMARK SMILES IDX 71 77 68 78 64 79 65 80 66 81 67 82 46 83 47 84 55 85 48 86
REMARK SMILES IDX 54 87 56 88 53 89 49 90 50 91 51 92 52 93
REMARK H PARENT 3 11 76 46 44 57
REMARK Flexibility Score: inf
ROOT
ATOM      1  C   UNL     1      -0.791  -2.163  -3.700  1.00  0.00     0.188 C 
ENDROOT
BRANCH   1   2
ATOM      2  O   UNL     1      -0.964  -3.574  -3.639  1.00  0.00    -0.376 OA
BRANCH   2   3
ATOM      3  C   UNL     1      -0.329  -4.150  -2.493  1.00  0.00     0.202 C 
BRANCH   3   4
ATOM      4  C   UNL     1       1.204  -4.254  -2.647  1.00  0.00     0.261 C 
BRANCH   4   5
ATOM      5  O   UNL     1       1.903  -3.158  -1.998  1.00  0.00    -0.463 OA
BRANCH   5   6
ATOM      6  C   UNL     1       2.204  -2.011  -2.656  1.00  0.00     0.311 C 
ATOM      7  O   UNL     1       2.175  -1.896  -3.874  1.00  0.00    -0.252 OA
BRANCH   6   8
ATOM      8  C   UNL     1       2.526  -0.863  -1.692  1.00  0.00     0.184 C 
BRANCH   8   9
ATOM      9  C   UNL     1       1.322  -0.059  -1.086  1.00  0.00     0.274 C 
BRANCH   9  10
ATOM     10  N   UNL     1       1.146   0.026   0.401  1.00  0.00    -0.328 N 
ATOM     11  H   UNL     1       2.125   0.010   0.687  1.00  0.00     0.348 HD
BRANCH  10  12
ATOM     12  C   UNL     1       0.654   1.349   0.941  1.00  0.00     0.187 C 
ATOM     13  C   UNL     1       1.437   2.578   0.429  1.00  0.00     0.076 C 
BRANCH  12  14
ATOM     14  C   UNL     1      -0.869   1.669   1.021  1.00  0.00     0.019 C 
ATOM     15  C   UNL     1      -1.435   1.703   2.434  1.00  0.00     0.018 C 
ATOM     16  C   UNL     1      -1.483   2.768   0.144  1.00  0.00     0.013 C 
ATOM     17  C   UNL     1      -1.818   1.344  -0.123  1.00  0.00     0.013 C 
ENDBRANCH  12  14
ENDBRANCH  10  12
BRANCH  10  18
ATOM     18  C   UNL     1       0.620  -1.190   1.109  1.00  0.00     0.089 C 
ATOM     19  C   UNL     1       1.335  -2.475   0.680  1.00  0.00     0.078 C 
ATOM     20  C   UNL     1       0.877  -1.169   2.633  1.00  0.00     0.078 C 
ATOM     21  C   UNL     1      -0.876  -1.452   0.838  1.00  0.00     0.078 C 
ENDBRANCH  10  18
ENDBRANCH   9  10
ENDBRANCH   8   9
ENDBRANCH   6   8
ENDBRANCH   5   6
ENDBRANCH   4   5
ENDBRANCH   3   4
ENDBRANCH   2   3
ENDBRANCH   1   2
BRANCH   1  22
ATOM     22  C   UNL     1      -2.064  -1.415  -3.387  1.00  0.00     0.188 C 
BRANCH  22  23
ATOM     23  O   UNL     1      -2.530  -1.702  -2.068  1.00  0.00    -0.376 OA
BRANCH  23  24
ATOM     24  C   UNL     1      -3.886  -2.138  -2.028  1.00  0.00     0.202 C 
BRANCH  24  25
ATOM     25  C   UNL     1      -4.906  -1.001  -2.186  1.00  0.00     0.261 C 
BRANCH  25  26
ATOM     26  O   UNL     1      -4.723  -0.312  -3.438  1.00  0.00    -0.460 OA
BRANCH  26  27
ATOM     27  C   UNL     1      -4.173   0.926  -3.346  1.00  0.00     0.338 C 
ATOM     28  O   UNL     1      -4.060   1.595  -2.330  1.00  0.00    -0.246 OA
BRANCH  27  29
ATOM     29  C   UNL     1      -3.515   1.280  -4.629  1.00  0.00     0.060 A 
ATOM     30  C   UNL     1      -2.300   1.983  -4.569  1.00  0.00     0.016 A 
ATOM     31  C   UNL     1      -4.035   0.891  -5.867  1.00  0.00     0.016 A 
ATOM     32  C   UNL     1      -1.635   2.343  -5.741  1.00  0.00     0.010 A 
ATOM     33  C   UNL     1      -3.374   1.264  -7.042  1.00  0.00     0.010 A 
ATOM     34  C   UNL     1      -2.195   2.029  -6.985  1.00  0.00    -0.014 A 
BRANCH  34  35
ATOM     35  C   UNL     1      -1.682   2.703  -8.205  1.00  0.00     0.031 A 
ATOM     36  C   UNL     1      -2.428   3.914  -8.702  1.00  0.00     0.074 A 
ATOM     37  C   UNL     1      -0.565   2.286  -8.828  1.00  0.00     0.049 A 
ATOM     38  N   UNL     1      -2.216   4.651  -9.761  1.00  0.00    -0.248 NA
ATOM     39  C   UNL     1      -3.579   4.345  -7.891  1.00  0.00     0.031 C 
ATOM     40  C   UNL     1       0.265   1.157  -8.412  1.00  0.00     0.029 A 
ATOM     41  N   UNL     1       0.062   2.767  -9.952  1.00  0.00    -0.354 N 
ATOM     42  C   UNL     1      -3.200   5.634  -9.740  1.00  0.00     0.074 A 
ATOM     43  C   UNL     1      -4.042   5.365  -8.595  1.00  0.00     0.031 C 
ATOM     44  C   UNL     1       1.285   1.023  -9.279  1.00  0.00     0.029 A 
ATOM     45  C   UNL     1       1.163   2.033 -10.329  1.00  0.00     0.049 A 
ATOM     46  H   UNL     1      -0.248   3.563 -10.441  1.00  0.00     0.167 HD
ATOM     47  C   UNL     1      -3.376   6.677 -10.587  1.00  0.00     0.034 A 
ATOM     48  C   UNL     1       1.959   2.150 -11.412  1.00  0.00     0.034 A 
ATOM     49  C   UNL     1      -2.539   6.920 -11.736  1.00  0.00     0.049 A 
ATOM     50  C   UNL     1       1.691   3.271 -12.393  1.00  0.00     0.074 A 
ATOM     51  C   UNL     1      -2.633   7.932 -12.674  1.00  0.00     0.029 A 
ATOM     52  N   UNL     1      -1.454   6.135 -12.107  1.00  0.00    -0.354 N 
ATOM     53  N   UNL     1       0.754   4.194 -12.363  1.00  0.00    -0.248 NA
ATOM     54  C   UNL     1       2.597   3.374 -13.543  1.00  0.00     0.031 C 
ATOM     55  C   UNL     1      -1.651   7.720 -13.648  1.00  0.00     0.029 A 
ATOM     56  C   UNL     1      -0.888   6.625 -13.274  1.00  0.00     0.049 A 
ATOM     57  H   UNL     1      -1.135   5.345 -11.614  1.00  0.00     0.167 HD
ATOM     58  C   UNL     1       0.981   5.002 -13.477  1.00  0.00     0.074 A 
ATOM     59  C   UNL     1       2.160   4.476 -14.133  1.00  0.00     0.031 C 
ATOM     60  C   UNL     1       0.280   6.077 -13.924  1.00  0.00     0.034 A 
BRANCH  47  61
ATOM     61  C   UNL     1      -4.542   7.599 -10.320  1.00  0.00     0.023 A 
ATOM     62  C   UNL     1      -4.617   8.375  -9.149  1.00  0.00     0.031 A 
ATOM     63  C   UNL     1      -5.606   7.686 -11.235  1.00  0.00     0.131 A 
ATOM     64  C   UNL     1      -5.756   9.153  -8.895  1.00  0.00     0.055 A 
ATOM     65  C   UNL     1      -6.701   8.524 -11.014  1.00  0.00     0.041 A 
ATOM     66  F   UNL     1      -5.606   6.947 -12.356  1.00  0.00    -0.206 F 
ATOM     67  C   UNL     1      -6.787   9.254  -9.833  1.00  0.00     0.022 A 
BRANCH  64  68
ATOM     68  S   UNL     1      -5.935   9.926  -7.264  1.00  0.00     0.124 S 
ATOM     69  O   UNL     1      -5.917   8.762  -6.382  1.00  0.00    -0.237 OA
ATOM     70  O   UNL     1      -4.768  10.797  -7.197  1.00  0.00    -0.237 OA
ATOM     71  O   UNL     1      -7.223  10.613  -7.350  1.00  0.00    -0.744 OA
ENDBRANCH  64  68
ENDBRANCH  47  61
BRANCH  48  72
ATOM     72  C   UNL     1       3.053   1.164 -11.669  1.00  0.00     0.023 A 
ATOM     73  C   UNL     1       4.397   1.564 -11.760  1.00  0.00     0.031 A 
ATOM     74  C   UNL     1       2.756  -0.190 -11.912  1.00  0.00     0.131 A 
ATOM     75  C   UNL     1       5.381   0.637 -12.143  1.00  0.00     0.055 A 
ATOM     76  C   UNL     1       3.747  -1.121 -12.227  1.00  0.00     0.041 A 
ATOM     77  F   UNL     1       1.489  -0.629 -11.850  1.00  0.00    -0.206 F 
ATOM     78  C   UNL     1       5.068  -0.705 -12.361  1.00  0.00     0.022 A 
BRANCH  75  79
ATOM     79  S   UNL     1       7.063   1.238 -12.469  1.00  0.00     0.124 S 
ATOM     80  O   UNL     1       6.823   2.257 -13.484  1.00  0.00    -0.237 OA
ATOM     81  O   UNL     1       7.471   1.724 -11.155  1.00  0.00    -0.237 OA
ATOM     82  O   UNL     1       7.766   0.045 -12.936  1.00  0.00    -0.744 OA
ENDBRANCH  75  79
ENDBRANCH  48  72
BRANCH  60  83
ATOM     83  C   UNL     1       0.805   6.769 -15.161  1.00  0.00     0.023 A 
ATOM     84  C   UNL     1       0.869   6.111 -16.402  1.00  0.00     0.031 A 
ATOM     85  C   UNL     1       1.290   8.087 -15.089  1.00  0.00     0.131 A 
ATOM     86  C   UNL     1       1.486   6.738 -17.495  1.00  0.00     0.055 A 
ATOM     87  C   UNL     1       1.829   8.735 -16.201  1.00  0.00     0.041 A 
ATOM     88  F   UNL     1       1.256   8.767 -13.931  1.00  0.00    -0.206 F 
ATOM     89  C   UNL     1       1.950   8.052 -17.408  1.00  0.00     0.022 A 
BRANCH  86  90
ATOM     90  S   UNL     1       1.807   5.758 -18.988  1.00  0.00     0.124 S 
ATOM     91  O   UNL     1       2.577   4.639 -18.455  1.00  0.00    -0.237 OA
ATOM     92  O   UNL     1       0.459   5.442 -19.448  1.00  0.00    -0.237 OA
ATOM     93  O   UNL     1       2.557   6.675 -19.845  1.00  0.00    -0.744 OA
ENDBRANCH  86  90
ENDBRANCH  60  83
ENDBRANCH  34  35
ENDBRANCH  27  29
ENDBRANCH  26  27
ENDBRANCH  25  26
ENDBRANCH  24  25
ENDBRANCH  23  24
ENDBRANCH  22  23
ENDBRANCH   1  22
TORSDOF 25
