REMARK SMILES COC(=O)c1ccc([C@H]([NH3+])CC(=O)OCCOCCOCCOC(=O)c2ccc(-c3c4nc(c(-c5cc(S(=O)(=O)[O-])ccc5F)c5ccc([nH]5)c(-c5cc(S(=O)(=O)[O-])ccc5F)c5nc(c(-c6cc(S(=O)(=O)[O-])ccc6F)c6ccc3[nH]6)C=C5)C=C4)cc2)cc1
REMARK SMILES IDX 18 1 17 2 16 3 15 4 14 5 12 6 13 7 11 8 9 9 8 10 5 11 6 12
REMARK SMILES IDX 90 13 7 14 89 15 3 16 4 17 2 18 1 19 10 20 19 24 20 25 21 26
REMARK SMILES IDX 22 27 23 28 24 29 25 30 26 31 27 32 88 33 28 34 87 35 29 36
REMARK SMILES IDX 30 37 31 38 81 39 32 40 86 41 80 42 82 43 33 44 85 45 79 46
REMARK SMILES IDX 78 47 34 49 66 50 46 51 65 52 47 53 50 54 64 55 83 56 48 57
REMARK SMILES IDX 49 58 63 60 84 61 51 62 35 63 36 64 44 65 37 66 43 67 45 68
REMARK SMILES IDX 42 69 38 70 39 71 40 72 41 73 67 74 68 75 76 76 69 77 75 78
REMARK SMILES IDX 77 79 74 80 70 81 71 82 72 83 73 84 52 85 53 86 61 87 54 88
REMARK SMILES IDX 60 89 62 90 59 91 55 92 56 93 57 94 58 95
REMARK H PARENT 10 21 10 22 10 23 82 48 50 59
REMARK Flexibility Score: inf
ROOT
ATOM      1  C   UNL     1      -1.844   1.863  -8.033  1.00  0.00     0.188 C 
ENDROOT
BRANCH   1   2
ATOM      2  O   UNL     1      -1.510   0.480  -7.979  1.00  0.00    -0.376 OA
BRANCH   2   3
ATOM      3  C   UNL     1      -0.609   0.039  -6.961  1.00  0.00     0.202 C 
BRANCH   3   4
ATOM      4  C   UNL     1       0.681   0.848  -6.742  1.00  0.00     0.261 C 
BRANCH   4   5
ATOM      5  O   UNL     1       0.412   2.216  -6.379  1.00  0.00    -0.463 OA
BRANCH   5   6
ATOM      6  C   UNL     1       1.251   3.155  -6.886  1.00  0.00     0.312 C 
ATOM      7  O   UNL     1       2.343   2.906  -7.382  1.00  0.00    -0.252 OA
BRANCH   6   8
ATOM      8  C   UNL     1       0.617   4.529  -6.932  1.00  0.00     0.192 C 
BRANCH   8   9
ATOM      9  C   UNL     1       0.009   5.142  -5.642  1.00  0.00     0.223 C 
BRANCH   9  10
ATOM     10  C   UNL     1       0.550   6.546  -5.418  1.00  0.00     0.010 A 
ATOM     11  C   UNL     1       1.539   9.164  -5.414  1.00  0.00     0.060 A 
ATOM     12  C   UNL     1       0.165   8.949  -5.280  1.00  0.00     0.016 A 
ATOM     13  C   UNL     1       2.423   8.079  -5.452  1.00  0.00     0.016 A 
ATOM     14  C   UNL     1      -0.327   7.641  -5.288  1.00  0.00     0.011 A 
ATOM     15  C   UNL     1       1.932   6.780  -5.429  1.00  0.00     0.011 A 
BRANCH  11  16
ATOM     16  C   UNL     1       2.066  10.534  -5.543  1.00  0.00     0.337 C 
ATOM     17  O   UNL     1       1.664  11.503  -4.907  1.00  0.00    -0.246 OA
BRANCH  16  18
ATOM     18  O   UNL     1       3.042  10.517  -6.480  1.00  0.00    -0.465 OA
ATOM     19  C   UNL     1       3.719  11.752  -6.690  1.00  0.00     0.282 C 
ENDBRANCH  16  18
ENDBRANCH  11  16
ENDBRANCH   9  10
BRANCH   9  20
ATOM     20  N   UNL     1       0.074   4.364  -4.409  1.00  0.00    -0.351 N 
ATOM     21  H   UNL     1       1.044   4.290  -4.104  1.00  0.00     0.345 HD
ATOM     22  H   UNL     1      -0.303   3.430  -4.575  1.00  0.00     0.345 HD
ATOM     23  H   UNL     1      -0.475   4.827  -3.685  1.00  0.00     0.345 HD
ENDBRANCH   9  20
ENDBRANCH   8   9
ENDBRANCH   6   8
ENDBRANCH   5   6
ENDBRANCH   4   5
ENDBRANCH   3   4
ENDBRANCH   2   3
ENDBRANCH   1   2
BRANCH   1  24
ATOM     24  C   UNL     1      -2.331   2.536  -6.741  1.00  0.00     0.188 C 
BRANCH  24  25
ATOM     25  O   UNL     1      -2.289   1.709  -5.602  1.00  0.00    -0.376 OA
BRANCH  25  26
ATOM     26  C   UNL     1      -3.485   1.513  -4.866  1.00  0.00     0.202 C 
BRANCH  26  27
ATOM     27  C   UNL     1      -4.753   1.039  -5.602  1.00  0.00     0.261 C 
BRANCH  27  28
ATOM     28  O   UNL     1      -5.122   1.733  -6.807  1.00  0.00    -0.460 OA
BRANCH  28  29
ATOM     29  C   UNL     1      -5.557   3.015  -6.695  1.00  0.00     0.338 C 
ATOM     30  O   UNL     1      -5.713   3.637  -5.657  1.00  0.00    -0.246 OA
BRANCH  29  31
ATOM     31  C   UNL     1      -5.514   3.606  -8.059  1.00  0.00     0.060 A 
ATOM     32  C   UNL     1      -4.701   4.727  -8.297  1.00  0.00     0.016 A 
ATOM     33  C   UNL     1      -6.195   3.004  -9.118  1.00  0.00     0.016 A 
ATOM     34  C   UNL     1      -4.563   5.241  -9.592  1.00  0.00     0.010 A 
ATOM     35  C   UNL     1      -6.081   3.538 -10.406  1.00  0.00     0.010 A 
ATOM     36  C   UNL     1      -5.273   4.664 -10.652  1.00  0.00    -0.014 A 
BRANCH  36  37
ATOM     37  C   UNL     1      -5.331   5.319 -11.986  1.00  0.00     0.031 A 
ATOM     38  C   UNL     1      -6.523   6.181 -12.301  1.00  0.00     0.074 A 
ATOM     39  C   UNL     1      -4.377   5.131 -12.917  1.00  0.00     0.049 A 
ATOM     40  N   UNL     1      -6.891   6.715 -13.436  1.00  0.00    -0.248 NA
ATOM     41  C   UNL     1      -7.425   6.468 -11.175  1.00  0.00     0.031 C 
ATOM     42  C   UNL     1      -3.139   4.380 -12.722  1.00  0.00     0.029 A 
ATOM     43  N   UNL     1      -4.315   5.545 -14.227  1.00  0.00    -0.354 N 
ATOM     44  C   UNL     1      -8.075   7.392 -13.167  1.00  0.00     0.074 A 
ATOM     45  C   UNL     1      -8.375   7.173 -11.767  1.00  0.00     0.031 C 
ATOM     46  C   UNL     1      -2.451   4.367 -13.878  1.00  0.00     0.029 A 
ATOM     47  C   UNL     1      -3.223   5.059 -14.910  1.00  0.00     0.049 A 
ATOM     48  H   UNL     1      -4.989   6.134 -14.638  1.00  0.00     0.167 HD
ATOM     49  C   UNL     1      -8.841   8.128 -14.009  1.00  0.00     0.034 A 
ATOM     50  C   UNL     1      -2.909   5.124 -16.222  1.00  0.00     0.034 A 
ATOM     51  C   UNL     1      -8.543   8.321 -15.406  1.00  0.00     0.049 A 
ATOM     52  C   UNL     1      -3.848   5.835 -17.174  1.00  0.00     0.074 A 
ATOM     53  C   UNL     1      -9.248   9.055 -16.343  1.00  0.00     0.029 A 
ATOM     54  N   UNL     1      -7.462   7.761 -16.074  1.00  0.00    -0.354 N 
ATOM     55  N   UNL     1      -4.970   6.467 -16.913  1.00  0.00    -0.248 NA
ATOM     56  C   UNL     1      -3.481   5.835 -18.598  1.00  0.00     0.031 C 
ATOM     57  C   UNL     1      -8.643   8.870 -17.591  1.00  0.00     0.029 A 
ATOM     58  C   UNL     1      -7.508   8.095 -17.419  1.00  0.00     0.049 A 
ATOM     59  H   UNL     1      -6.764   7.207 -15.654  1.00  0.00     0.167 HD
ATOM     60  C   UNL     1      -5.422   6.964 -18.135  1.00  0.00     0.074 A 
ATOM     61  C   UNL     1      -4.448   6.568 -19.130  1.00  0.00     0.031 C 
ATOM     62  C   UNL     1      -6.537   7.688 -18.408  1.00  0.00     0.034 A 
BRANCH  49  63
ATOM     63  C   UNL     1     -10.109   8.723 -13.447  1.00  0.00     0.023 A 
ATOM     64  C   UNL     1     -10.084   9.684 -12.421  1.00  0.00     0.031 A 
ATOM     65  C   UNL     1     -11.363   8.298 -13.921  1.00  0.00     0.131 A 
ATOM     66  C   UNL     1     -11.286  10.130 -11.852  1.00  0.00     0.055 A 
ATOM     67  C   UNL     1     -12.556   8.810 -13.410  1.00  0.00     0.041 A 
ATOM     68  F   UNL     1     -11.449   7.363 -14.881  1.00  0.00    -0.206 F 
ATOM     69  C   UNL     1     -12.522   9.720 -12.357  1.00  0.00     0.022 A 
BRANCH  66  70
ATOM     70  S   UNL     1     -11.208  11.128 -10.340  1.00  0.00     0.124 S 
ATOM     71  O   UNL     1     -10.464  10.246  -9.443  1.00  0.00    -0.237 OA
ATOM     72  O   UNL     1     -10.505  12.324 -10.788  1.00  0.00    -0.237 OA
ATOM     73  O   UNL     1     -12.612  11.323  -9.986  1.00  0.00    -0.744 OA
ENDBRANCH  66  70
ENDBRANCH  49  63
BRANCH  50  74
ATOM     74  C   UNL     1      -1.685   4.446 -16.747  1.00  0.00     0.023 A 
ATOM     75  C   UNL     1      -0.661   5.178 -17.371  1.00  0.00     0.031 A 
ATOM     76  C   UNL     1      -1.556   3.046 -16.701  1.00  0.00     0.131 A 
ATOM     77  C   UNL     1       0.422   4.505 -17.961  1.00  0.00     0.055 A 
ATOM     78  C   UNL     1      -0.448   2.386 -17.236  1.00  0.00     0.041 A 
ATOM     79  F   UNL     1      -2.511   2.294 -16.130  1.00  0.00    -0.206 F 
ATOM     80  C   UNL     1       0.543   3.116 -17.883  1.00  0.00     0.022 A 
BRANCH  77  81
ATOM     81  S   UNL     1       1.624   5.467 -18.921  1.00  0.00     0.124 S 
ATOM     82  O   UNL     1       0.774   6.065 -19.945  1.00  0.00    -0.237 OA
ATOM     83  O   UNL     1       2.155   6.380 -17.915  1.00  0.00    -0.237 OA
ATOM     84  O   UNL     1       2.563   4.456 -19.401  1.00  0.00    -0.744 OA
ENDBRANCH  77  81
ENDBRANCH  50  74
BRANCH  62  85
ATOM     85  C   UNL     1      -6.745   8.144 -19.834  1.00  0.00     0.023 A 
ATOM     86  C   UNL     1      -7.019   7.238 -20.873  1.00  0.00     0.031 A 
ATOM     87  C   UNL     1      -6.692   9.514 -20.151  1.00  0.00     0.131 A 
ATOM     88  C   UNL     1      -7.191   7.709 -22.185  1.00  0.00     0.055 A 
ATOM     89  C   UNL     1      -6.922   9.982 -21.445  1.00  0.00     0.041 A 
ATOM     90  F   UNL     1      -6.431  10.426 -19.200  1.00  0.00    -0.206 F 
ATOM     91  C   UNL     1      -7.164   9.076 -22.474  1.00  0.00     0.022 A 
BRANCH  88  92
ATOM     92  S   UNL     1      -7.382   6.505 -23.529  1.00  0.00     0.124 S 
ATOM     93  O   UNL     1      -6.133   5.755 -23.444  1.00  0.00    -0.237 OA
ATOM     94  O   UNL     1      -8.587   5.784 -23.135  1.00  0.00    -0.237 OA
ATOM     95  O   UNL     1      -7.523   7.340 -24.721  1.00  0.00    -0.744 OA
ENDBRANCH  88  92
ENDBRANCH  62  85
ENDBRANCH  36  37
ENDBRANCH  29  31
ENDBRANCH  28  29
ENDBRANCH  27  28
ENDBRANCH  26  27
ENDBRANCH  25  26
ENDBRANCH  24  25
ENDBRANCH   1  24
TORSDOF 25
