REMARK SMILES O=C(OCCOCCOCCOC(=O)c1ccc2c(=O)n(CCC[NH+]3CCOCC3)c(=O)[nH]c2c1)c1ccc(-c2c3nc(c(-c4cc(S(=O)(=O)[O-])ccc4F)c4ccc([nH]4)c(-c4cc(S(=O)(=O)[O-])ccc4F)c4nc(c(-c5cc(S(=O)(=O)[O-])ccc5F)c5ccc2[nH]5)C=C4)C=C3)cc1
REMARK SMILES IDX 8 1 7 2 6 3 5 4 4 5 3 6 2 7 1 8 36 9 37 10 98 11 38 12 97 13
REMARK SMILES IDX 39 14 40 15 41 16 91 17 42 18 96 19 90 20 92 21 43 22 95 23
REMARK SMILES IDX 89 24 88 25 44 27 76 28 56 29 75 30 57 31 60 32 74 33 93 34
REMARK SMILES IDX 58 35 59 36 73 38 94 39 61 40 45 41 46 42 54 43 47 44 53 45
REMARK SMILES IDX 55 46 52 47 48 48 49 49 50 50 51 51 77 52 78 53 86 54 79 55
REMARK SMILES IDX 85 56 87 57 84 58 80 59 81 60 82 61 83 62 62 63 63 64 71 65
REMARK SMILES IDX 64 66 70 67 72 68 69 69 65 70 66 71 67 72 68 73 9 74 10 75
REMARK SMILES IDX 11 76 12 77 13 78 14 79 15 80 16 81 35 82 17 83 34 84 18 85
REMARK SMILES IDX 33 86 19 87 31 88 20 90 21 91 32 92 22 93 23 94 24 95 25 96
REMARK SMILES IDX 26 97 30 98 27 100 29 101 28 102
REMARK H PARENT 92 26 60 37 33 89 25 99
REMARK Flexibility Score: inf
ROOT
ATOM      1  C   UNL     1       2.101  -2.832   1.289  1.00  0.00     0.188 C 
ENDROOT
BRANCH   1   2
ATOM      2  C   UNL     1       2.650  -1.413   1.455  1.00  0.00     0.188 C 
BRANCH   2   3
ATOM      3  O   UNL     1       3.842  -1.224   0.680  1.00  0.00    -0.376 OA
BRANCH   3   4
ATOM      4  C   UNL     1       4.833  -0.446   1.355  1.00  0.00     0.202 C 
BRANCH   4   5
ATOM      5  C   UNL     1       4.692   1.068   1.160  1.00  0.00     0.261 C 
BRANCH   5   6
ATOM      6  O   UNL     1       3.352   1.477   0.854  1.00  0.00    -0.460 OA
BRANCH   6   7
ATOM      7  C   UNL     1       2.697   1.455  -0.332  1.00  0.00     0.338 C 
ATOM      8  O   UNL     1       1.507   1.776  -0.321  1.00  0.00    -0.246 OA
BRANCH   7   9
ATOM      9  C   UNL     1       3.296   1.072  -1.659  1.00  0.00     0.060 A 
ATOM     10  C   UNL     1       2.495   1.306  -2.796  1.00  0.00     0.016 A 
ATOM     11  C   UNL     1       4.553   0.505  -1.876  1.00  0.00     0.016 A 
ATOM     12  C   UNL     1       2.947   1.010  -4.090  1.00  0.00     0.010 A 
ATOM     13  C   UNL     1       5.028   0.247  -3.166  1.00  0.00     0.010 A 
ATOM     14  C   UNL     1       4.234   0.498  -4.284  1.00  0.00    -0.014 A 
BRANCH  14  15
ATOM     15  C   UNL     1       4.839   0.406  -5.632  1.00  0.00     0.031 A 
ATOM     16  C   UNL     1       5.183  -0.910  -6.271  1.00  0.00     0.074 A 
ATOM     17  C   UNL     1       5.245   1.557  -6.203  1.00  0.00     0.049 A 
ATOM     18  N   UNL     1       5.583  -1.147  -7.493  1.00  0.00    -0.248 NA
ATOM     19  C   UNL     1       5.105  -2.112  -5.428  1.00  0.00     0.031 C 
ATOM     20  C   UNL     1       5.152   2.880  -5.576  1.00  0.00     0.029 A 
ATOM     21  N   UNL     1       5.872   1.797  -7.395  1.00  0.00    -0.354 N 
ATOM     22  C   UNL     1       5.701  -2.531  -7.597  1.00  0.00     0.074 A 
ATOM     23  C   UNL     1       5.479  -3.067  -6.274  1.00  0.00     0.031 C 
ATOM     24  C   UNL     1       5.749   3.781  -6.368  1.00  0.00     0.029 A 
ATOM     25  C   UNL     1       6.246   3.108  -7.564  1.00  0.00     0.049 A 
ATOM     26  H   UNL     1       6.040   1.097  -8.067  1.00  0.00     0.167 HD
ATOM     27  C   UNL     1       5.901  -3.267  -8.721  1.00  0.00     0.034 A 
ATOM     28  C   UNL     1       6.913   3.703  -8.573  1.00  0.00     0.034 A 
ATOM     29  C   UNL     1       6.117  -2.645 -10.002  1.00  0.00     0.049 A 
ATOM     30  C   UNL     1       7.207   2.881  -9.799  1.00  0.00     0.074 A 
ATOM     31  C   UNL     1       6.056  -3.207 -11.262  1.00  0.00     0.029 A 
ATOM     32  N   UNL     1       6.478  -1.315 -10.171  1.00  0.00    -0.354 N 
ATOM     33  N   UNL     1       6.951   1.610 -10.011  1.00  0.00    -0.248 NA
ATOM     34  C   UNL     1       7.831   3.565 -10.937  1.00  0.00     0.031 C 
ATOM     35  C   UNL     1       6.468  -2.238 -12.184  1.00  0.00     0.029 A 
ATOM     36  C   UNL     1       6.742  -1.059 -11.504  1.00  0.00     0.049 A 
ATOM     37  H   UNL     1       6.538  -0.650  -9.447  1.00  0.00     0.167 HD
ATOM     38  C   UNL     1       7.342   1.350 -11.319  1.00  0.00     0.074 A 
ATOM     39  C   UNL     1       7.855   2.599 -11.849  1.00  0.00     0.031 C 
ATOM     40  C   UNL     1       7.264   0.188 -12.019  1.00  0.00     0.034 A 
BRANCH  27  41
ATOM     41  C   UNL     1       5.781  -4.779  -8.669  1.00  0.00     0.023 A 
ATOM     42  C   UNL     1       6.801  -5.634  -9.118  1.00  0.00     0.031 A 
ATOM     43  C   UNL     1       4.557  -5.379  -8.326  1.00  0.00     0.131 A 
ATOM     44  C   UNL     1       6.568  -7.021  -9.192  1.00  0.00     0.055 A 
ATOM     45  C   UNL     1       4.346  -6.757  -8.337  1.00  0.00     0.041 A 
ATOM     46  F   UNL     1       3.508  -4.618  -8.015  1.00  0.00    -0.206 F 
ATOM     47  C   UNL     1       5.358  -7.588  -8.778  1.00  0.00     0.022 A 
BRANCH  44  48
ATOM     48  S   UNL     1       7.800  -8.155  -9.887  1.00  0.00     0.124 S 
ATOM     49  O   UNL     1       7.835  -9.220  -8.885  1.00  0.00    -0.237 OA
ATOM     50  O   UNL     1       7.184  -8.519 -11.160  1.00  0.00    -0.237 OA
ATOM     51  O   UNL     1       9.009  -7.345  -9.969  1.00  0.00    -0.744 OA
ENDBRANCH  44  48
ENDBRANCH  27  41
BRANCH  28  52
ATOM     52  C   UNL     1       7.227   5.155  -8.460  1.00  0.00     0.023 A 
ATOM     53  C   UNL     1       8.085   5.627  -7.447  1.00  0.00     0.031 A 
ATOM     54  C   UNL     1       6.551   6.101  -9.246  1.00  0.00     0.131 A 
ATOM     55  C   UNL     1       8.190   7.003  -7.204  1.00  0.00     0.055 A 
ATOM     56  C   UNL     1       6.704   7.474  -9.040  1.00  0.00     0.041 A 
ATOM     57  F   UNL     1       5.705   5.700 -10.207  1.00  0.00    -0.206 F 
ATOM     58  C   UNL     1       7.513   7.930  -8.002  1.00  0.00     0.022 A 
BRANCH  55  59
ATOM     59  S   UNL     1       9.089   7.630  -5.756  1.00  0.00     0.124 S 
ATOM     60  O   UNL     1      10.152   8.417  -6.375  1.00  0.00    -0.237 OA
ATOM     61  O   UNL     1       8.055   8.398  -5.068  1.00  0.00    -0.237 OA
ATOM     62  O   UNL     1       9.521   6.419  -5.066  1.00  0.00    -0.744 OA
ENDBRANCH  55  59
ENDBRANCH  28  52
BRANCH  40  63
ATOM     63  C   UNL     1       7.765   0.180 -13.439  1.00  0.00     0.023 A 
ATOM     64  C   UNL     1       6.872  -0.055 -14.501  1.00  0.00     0.031 A 
ATOM     65  C   UNL     1       9.138   0.258 -13.723  1.00  0.00     0.131 A 
ATOM     66  C   UNL     1       7.370  -0.264 -15.792  1.00  0.00     0.055 A 
ATOM     67  C   UNL     1       9.625   0.101 -15.020  1.00  0.00     0.041 A 
ATOM     68  F   UNL     1      10.025   0.484 -12.740  1.00  0.00    -0.206 F 
ATOM     69  C   UNL     1       8.741  -0.180 -16.058  1.00  0.00     0.022 A 
BRANCH  66  70
ATOM     70  S   UNL     1       6.268  -0.752 -17.147  1.00  0.00     0.124 S 
ATOM     71  O   UNL     1       6.403   0.375 -18.066  1.00  0.00    -0.237 OA
ATOM     72  O   UNL     1       6.871  -2.003 -17.600  1.00  0.00    -0.237 OA
ATOM     73  O   UNL     1       4.962  -0.883 -16.509  1.00  0.00    -0.744 OA
ENDBRANCH  66  70
ENDBRANCH  40  63
ENDBRANCH  14  15
ENDBRANCH   7   9
ENDBRANCH   6   7
ENDBRANCH   5   6
ENDBRANCH   4   5
ENDBRANCH   3   4
ENDBRANCH   2   3
ENDBRANCH   1   2
BRANCH   1  74
ATOM     74  O   UNL     1       2.863  -3.863   1.919  1.00  0.00    -0.376 OA
BRANCH  74  75
ATOM     75  C   UNL     1       4.191  -4.074   1.445  1.00  0.00     0.202 C 
BRANCH  75  76
ATOM     76  C   UNL     1       4.339  -4.782   0.095  1.00  0.00     0.261 C 
BRANCH  76  77
ATOM     77  O   UNL     1       3.701  -4.110  -1.000  1.00  0.00    -0.460 OA
BRANCH  77  78
ATOM     78  C   UNL     1       2.586  -4.717  -1.470  1.00  0.00     0.338 C 
ATOM     79  O   UNL     1       1.996  -5.679  -1.003  1.00  0.00    -0.246 OA
BRANCH  78  80
ATOM     80  C   UNL     1       2.232  -4.115  -2.758  1.00  0.00     0.062 A 
ATOM     81  C   UNL     1       2.652  -4.810  -3.893  1.00  0.00     0.016 A 
ATOM     82  C   UNL     1       1.461  -2.943  -2.857  1.00  0.00     0.042 A 
ATOM     83  C   UNL     1       2.372  -4.284  -5.143  1.00  0.00     0.017 A 
ATOM     84  C   UNL     1       1.140  -2.461  -4.127  1.00  0.00     0.056 A 
ATOM     85  C   UNL     1       1.654  -3.092  -5.245  1.00  0.00     0.064 A 
ATOM     86  N   UNL     1       0.277  -1.382  -4.327  1.00  0.00    -0.307 N 
ATOM     87  C   UNL     1       1.492  -2.407  -6.526  1.00  0.00     0.264 A 
ATOM     88  C   UNL     1      -0.190  -1.000  -5.569  1.00  0.00     0.328 A 
ATOM     89  H   UNL     1      -0.014  -0.866  -3.541  1.00  0.00     0.171 HD
ATOM     90  O   UNL     1       2.408  -2.497  -7.328  1.00  0.00    -0.268 OA
ATOM     91  N   UNL     1       0.379  -1.619  -6.676  1.00  0.00    -0.260 N 
ATOM     92  O   UNL     1      -1.063  -0.136  -5.628  1.00  0.00    -0.248 OA
BRANCH  91  93
ATOM     93  C   UNL     1      -0.124  -1.262  -8.014  1.00  0.00     0.137 C 
BRANCH  93  94
ATOM     94  C   UNL     1       0.716  -1.484  -9.286  1.00  0.00     0.083 C 
BRANCH  94  95
ATOM     95  C   UNL     1       1.063  -2.893  -9.821  1.00  0.00     0.264 C 
BRANCH  95  96
ATOM     96  N   UNL     1      -0.060  -3.796 -10.153  1.00  0.00    -0.331 N 
ATOM     97  C   UNL     1      -0.570  -4.540  -8.980  1.00  0.00     0.291 C 
ATOM     98  C   UNL     1       0.403  -4.818 -11.142  1.00  0.00     0.291 C 
ATOM     99  H   UNL     1      -0.806  -3.204 -10.520  1.00  0.00     0.348 HD
ATOM    100  C   UNL     1       0.348  -5.653  -8.445  1.00  0.00     0.221 C 
ATOM    101  C   UNL     1       1.328  -5.907 -10.562  1.00  0.00     0.221 C 
ATOM    102  O   UNL     1       0.693  -6.589  -9.469  1.00  0.00    -0.370 OA
ENDBRANCH  95  96
ENDBRANCH  94  95
ENDBRANCH  93  94
ENDBRANCH  91  93
ENDBRANCH  78  80
ENDBRANCH  77  78
ENDBRANCH  76  77
ENDBRANCH  75  76
ENDBRANCH  74  75
ENDBRANCH   1  74
TORSDOF 24
