REMARK SMILES O=C(OCCOCCOCCOC(=O)c1coc2c1/C(=N\Nc1ccccc1)CCC2)c1ccc(-c2c3nc(c(-c4cc(S(=O)(=O)[O-])ccc4F)c4ccc([nH]4)c(-c4cc(S(=O)(=O)[O-])ccc4F)c4nc(c(-c5cc(S(=O)(=O)[O-])ccc5F)c5ccc2[nH]5)C=C4)C=C3)cc1
REMARK SMILES IDX 7 1 6 2 5 3 4 4 3 5 2 6 1 7 32 8 33 9 94 10 34 11 93 12
REMARK SMILES IDX 35 13 36 14 37 15 87 16 38 17 92 18 86 19 88 20 39 21 91 22
REMARK SMILES IDX 85 23 84 24 40 26 72 27 52 28 71 29 53 30 56 31 70 32 89 33
REMARK SMILES IDX 54 34 55 35 69 37 90 38 57 39 41 40 42 41 50 42 43 43 49 44
REMARK SMILES IDX 51 45 48 46 44 47 45 48 46 49 47 50 73 51 74 52 82 53 75 54
REMARK SMILES IDX 81 55 83 56 80 57 76 58 77 59 78 60 79 61 58 62 59 63 67 64
REMARK SMILES IDX 60 65 66 66 68 67 65 68 61 69 62 70 63 71 64 72 8 73 9 74
REMARK SMILES IDX 10 75 11 76 12 77 13 78 14 79 15 80 16 81 19 82 17 83 18 84
REMARK SMILES IDX 20 85 31 86 21 87 29 88 30 89 22 90 23 92 24 93 28 94 25 95
REMARK SMILES IDX 27 96 26 97
REMARK H PARENT 88 25 56 36 22 91
REMARK Flexibility Score: inf
ROOT
ATOM      1  C   UNL     1       3.766  -0.800  -0.710  1.00  0.00     0.188 C 
ENDROOT
BRANCH   1   2
ATOM      2  O   UNL     1       5.143  -0.962  -0.531  1.00  0.00    -0.376 OA
BRANCH   2   3
ATOM      3  C   UNL     1       5.731  -0.244   0.526  1.00  0.00     0.202 C 
BRANCH   3   4
ATOM      4  C   UNL     1       4.996  -0.012   1.864  1.00  0.00     0.261 C 
BRANCH   4   5
ATOM      5  O   UNL     1       3.577  -0.259   1.968  1.00  0.00    -0.460 OA
BRANCH   5   6
ATOM      6  C   UNL     1       2.466   0.478   1.737  1.00  0.00     0.338 C 
ATOM      7  O   UNL     1       1.372  -0.017   2.011  1.00  0.00    -0.246 OA
BRANCH   6   8
ATOM      8  C   UNL     1       2.457   1.804   1.048  1.00  0.00     0.060 A 
ATOM      9  C   UNL     1       3.560   2.637   0.872  1.00  0.00     0.016 A 
ATOM     10  C   UNL     1       1.194   2.250   0.611  1.00  0.00     0.016 A 
ATOM     11  C   UNL     1       3.350   3.985   0.638  1.00  0.00     0.010 A 
ATOM     12  C   UNL     1       0.981   3.587   0.355  1.00  0.00     0.010 A 
ATOM     13  C   UNL     1       2.041   4.457   0.539  1.00  0.00    -0.014 A 
BRANCH  13  14
ATOM     14  C   UNL     1       1.792   5.886   0.563  1.00  0.00     0.031 A 
ATOM     15  C   UNL     1       2.250   6.538  -0.683  1.00  0.00     0.074 A 
ATOM     16  C   UNL     1       1.172   6.486   1.607  1.00  0.00     0.049 A 
ATOM     17  N   UNL     1       3.355   7.186  -0.847  1.00  0.00    -0.248 NA
ATOM     18  C   UNL     1       1.575   6.200  -1.948  1.00  0.00     0.031 C 
ATOM     19  C   UNL     1       0.569   5.870   2.794  1.00  0.00     0.029 A 
ATOM     20  N   UNL     1       0.900   7.811   1.804  1.00  0.00    -0.354 N 
ATOM     21  C   UNL     1       3.331   7.620  -2.165  1.00  0.00     0.074 A 
ATOM     22  C   UNL     1       2.392   6.767  -2.839  1.00  0.00     0.031 C 
ATOM     23  C   UNL     1      -0.192   6.780   3.452  1.00  0.00     0.029 A 
ATOM     24  C   UNL     1      -0.027   8.081   2.827  1.00  0.00     0.049 A 
ATOM     25  H   UNL     1       1.322   8.523   1.270  1.00  0.00     0.167 HD
ATOM     26  C   UNL     1       3.828   8.844  -2.488  1.00  0.00     0.034 A 
ATOM     27  C   UNL     1      -0.622   9.289   3.091  1.00  0.00     0.034 A 
ATOM     28  C   UNL     1       4.664   9.349  -1.419  1.00  0.00     0.049 A 
ATOM     29  C   UNL     1       0.287  10.317   2.509  1.00  0.00     0.074 A 
ATOM     30  C   UNL     1       5.820   8.910  -0.805  1.00  0.00     0.029 A 
ATOM     31  N   UNL     1       4.093  10.250  -0.546  1.00  0.00    -0.354 N 
ATOM     32  N   UNL     1       1.492  10.524   2.974  1.00  0.00    -0.248 NA
ATOM     33  C   UNL     1       0.097  10.656   1.104  1.00  0.00     0.031 C 
ATOM     34  C   UNL     1       5.620   9.176   0.582  1.00  0.00     0.029 A 
ATOM     35  C   UNL     1       4.422   9.876   0.735  1.00  0.00     0.049 A 
ATOM     36  H   UNL     1       3.544  11.028  -0.797  1.00  0.00     0.167 HD
ATOM     37  C   UNL     1       2.304  10.580   1.850  1.00  0.00     0.074 A 
ATOM     38  C   UNL     1       1.378  10.699   0.720  1.00  0.00     0.031 C 
ATOM     39  C   UNL     1       3.616  10.197   1.901  1.00  0.00     0.034 A 
BRANCH  26  40
ATOM     40  C   UNL     1       3.225   9.766  -3.525  1.00  0.00     0.023 A 
ATOM     41  C   UNL     1       3.867  11.003  -3.717  1.00  0.00     0.031 A 
ATOM     42  C   UNL     1       1.933   9.649  -4.085  1.00  0.00     0.131 A 
ATOM     43  C   UNL     1       3.194  12.077  -4.323  1.00  0.00     0.055 A 
ATOM     44  C   UNL     1       1.293  10.701  -4.745  1.00  0.00     0.041 A 
ATOM     45  F   UNL     1       1.173   8.556  -3.951  1.00  0.00    -0.206 F 
ATOM     46  C   UNL     1       1.909  11.935  -4.838  1.00  0.00     0.022 A 
BRANCH  43  47
ATOM     47  S   UNL     1       3.966  13.712  -4.259  1.00  0.00     0.124 S 
ATOM     48  O   UNL     1       4.129  13.900  -2.822  1.00  0.00    -0.237 OA
ATOM     49  O   UNL     1       5.190  13.495  -5.024  1.00  0.00    -0.237 OA
ATOM     50  O   UNL     1       2.978  14.577  -4.897  1.00  0.00    -0.744 OA
ENDBRANCH  43  47
ENDBRANCH  26  40
BRANCH  27  51
ATOM     51  C   UNL     1      -2.075   9.555   3.390  1.00  0.00     0.023 A 
ATOM     52  C   UNL     1      -2.592  10.777   3.904  1.00  0.00     0.031 A 
ATOM     53  C   UNL     1      -3.037   8.637   2.909  1.00  0.00     0.131 A 
ATOM     54  C   UNL     1      -3.997  11.022   3.919  1.00  0.00     0.055 A 
ATOM     55  C   UNL     1      -4.412   8.890   2.913  1.00  0.00     0.041 A 
ATOM     56  F   UNL     1      -2.665   7.484   2.331  1.00  0.00    -0.206 F 
ATOM     57  C   UNL     1      -4.898  10.086   3.409  1.00  0.00     0.022 A 
BRANCH  54  58
ATOM     58  S   UNL     1      -4.707  12.592   4.550  1.00  0.00     0.124 S 
ATOM     59  O   UNL     1      -4.384  12.535   5.971  1.00  0.00    -0.237 OA
ATOM     60  O   UNL     1      -4.007  13.600   3.763  1.00  0.00    -0.237 OA
ATOM     61  O   UNL     1      -6.136  12.471   4.247  1.00  0.00    -0.744 OA
ENDBRANCH  54  58
ENDBRANCH  27  51
BRANCH  39  62
ATOM     62  C   UNL     1       4.251   9.952   3.259  1.00  0.00     0.023 A 
ATOM     63  C   UNL     1       3.840   8.985   4.211  1.00  0.00     0.031 A 
ATOM     64  C   UNL     1       5.425  10.675   3.534  1.00  0.00     0.131 A 
ATOM     65  C   UNL     1       4.600   8.789   5.386  1.00  0.00     0.055 A 
ATOM     66  C   UNL     1       6.185  10.458   4.680  1.00  0.00     0.041 A 
ATOM     67  F   UNL     1       5.879  11.588   2.660  1.00  0.00    -0.206 F 
ATOM     68  C   UNL     1       5.772   9.518   5.615  1.00  0.00     0.022 A 
BRANCH  65  69
ATOM     69  S   UNL     1       4.071   7.601   6.669  1.00  0.00     0.124 S 
ATOM     70  O   UNL     1       2.659   7.913   6.856  1.00  0.00    -0.237 OA
ATOM     71  O   UNL     1       4.365   6.313   6.046  1.00  0.00    -0.237 OA
ATOM     72  O   UNL     1       4.926   7.931   7.811  1.00  0.00    -0.744 OA
ENDBRANCH  65  69
ENDBRANCH  39  62
ENDBRANCH  13  14
ENDBRANCH   6   8
ENDBRANCH   5   6
ENDBRANCH   4   5
ENDBRANCH   3   4
ENDBRANCH   2   3
ENDBRANCH   1   2
BRANCH   1  73
ATOM     73  C   UNL     1       2.914  -2.056  -0.478  1.00  0.00     0.188 C 
BRANCH  73  74
ATOM     74  O   UNL     1       3.542  -3.220   0.030  1.00  0.00    -0.376 OA
BRANCH  74  75
ATOM     75  C   UNL     1       4.764  -3.606  -0.576  1.00  0.00     0.202 C 
BRANCH  75  76
ATOM     76  C   UNL     1       4.981  -3.579  -2.115  1.00  0.00     0.261 C 
BRANCH  76  77
ATOM     77  O   UNL     1       4.258  -2.602  -2.921  1.00  0.00    -0.460 OA
BRANCH  77  78
ATOM     78  C   UNL     1       3.336  -3.080  -4.054  1.00  0.00     0.342 C 
ATOM     79  O   UNL     1       3.348  -4.339  -3.903  1.00  0.00    -0.246 OA
BRANCH  78  80
ATOM     80  C   UNL     1       2.283  -1.863  -5.410  1.00  0.00     0.107 A 
ATOM     81  C   UNL     1       2.409  -1.543  -6.836  1.00  0.00     0.211 A 
ATOM     82  C   UNL     1       1.026  -0.721  -5.184  1.00  0.00     0.054 A 
ATOM     83  O   UNL     1       1.673  -0.512  -7.315  1.00  0.00    -0.468 OA
ATOM     84  C   UNL     1       0.895  -0.016  -6.352  1.00  0.00     0.113 A 
ATOM     85  C   UNL     1       0.194  -0.214  -4.028  1.00  0.00     0.072 C 
ATOM     86  C   UNL     1       0.104   1.218  -6.612  1.00  0.00     0.076 C 
ATOM     87  N   UNL     1      -0.116  -0.862  -2.941  1.00  0.00    -0.179 NA
ATOM     88  C   UNL     1      -0.349   1.204  -4.131  1.00  0.00     0.059 C 
ATOM     89  C   UNL     1      -0.956   1.406  -5.515  1.00  0.00     0.014 C 
BRANCH  87  90
ATOM     90  N   UNL     1       0.355  -2.100  -2.816  1.00  0.00    -0.278 N 
ATOM     91  H   UNL     1      -0.088  -2.770  -2.248  1.00  0.00     0.190 HD
BRANCH  90  92
ATOM     92  C   UNL     1       1.504  -2.391  -3.529  1.00  0.00     0.056 A 
ATOM     93  C   UNL     1       1.450  -3.709  -4.776  1.00  0.00     0.027 A 
ATOM     94  C   UNL     1       2.841  -1.106  -3.599  1.00  0.00     0.027 A 
ATOM     95  C   UNL     1       2.844  -3.890  -5.939  1.00  0.00     0.002 A 
ATOM     96  C   UNL     1       4.229  -1.307  -4.771  1.00  0.00     0.002 A 
ATOM     97  C   UNL     1       4.268  -2.753  -5.858  1.00  0.00     0.000 A 
ENDBRANCH  90  92
ENDBRANCH  87  90
ENDBRANCH  78  80
ENDBRANCH  77  78
ENDBRANCH  76  77
ENDBRANCH  75  76
ENDBRANCH  74  75
ENDBRANCH  73  74
ENDBRANCH   1  73
TORSDOF 22
