REMARK SMILES Cc1cc(SCC(=O)OCCOCCOCCOC(=O)c2ccc(-c3c4nc(c(-c5cc(S(=O)(=O)[O-])ccc5F)c5ccc([nH]5)c(-c5cc(S(=O)(=O)[O-])ccc5F)c5nc(c(-c6cc(S(=O)(=O)[O-])ccc6F)c6ccc3[nH]6)C=C5)C=C4)cc2)c2cc(C(F)(F)F)ccc2n1
REMARK SMILES IDX 13 1 12 2 11 3 10 4 9 5 7 6 8 7 6 8 5 9 4 10 1 11 2 12 3 13
REMARK SMILES IDX 94 14 93 15 84 16 92 17 85 18 91 19 86 20 87 21 88 22 89 23
REMARK SMILES IDX 90 24 14 25 15 26 16 27 17 28 18 29 19 30 20 31 21 32 22 33
REMARK SMILES IDX 83 34 23 35 82 36 24 37 25 38 26 39 76 40 27 41 81 42 75 43
REMARK SMILES IDX 77 44 28 45 80 46 74 47 73 48 29 50 61 51 41 52 60 53 42 54
REMARK SMILES IDX 45 55 59 56 78 57 43 58 44 59 58 61 79 62 46 63 30 64 31 65
REMARK SMILES IDX 39 66 32 67 38 68 40 69 37 70 33 71 34 72 35 73 36 74 62 75
REMARK SMILES IDX 63 76 71 77 64 78 70 79 72 80 69 81 65 82 66 83 67 84 68 85
REMARK SMILES IDX 47 86 48 87 56 88 49 89 55 90 57 91 54 92 50 93 51 94 52 95
REMARK SMILES IDX 53 96
REMARK H PARENT 77 49 45 60
REMARK Flexibility Score: inf
ROOT
ATOM      1  C   UNL     1      -3.585   2.244  -2.558  1.00  0.00     0.188 C 
ENDROOT
BRANCH   1   2
ATOM      2  O   UNL     1      -3.874   2.974  -3.747  1.00  0.00    -0.376 OA
BRANCH   2   3
ATOM      3  C   UNL     1      -2.989   4.028  -4.119  1.00  0.00     0.202 C 
BRANCH   3   4
ATOM      4  C   UNL     1      -2.820   5.131  -3.071  1.00  0.00     0.261 C 
BRANCH   4   5
ATOM      5  O   UNL     1      -1.942   4.667  -2.026  1.00  0.00    -0.463 OA
BRANCH   5   6
ATOM      6  C   UNL     1      -2.072   5.256  -0.809  1.00  0.00     0.316 C 
ATOM      7  O   UNL     1      -2.715   6.282  -0.620  1.00  0.00    -0.251 OA
BRANCH   6   8
ATOM      8  C   UNL     1      -1.539   4.381   0.321  1.00  0.00     0.197 C 
BRANCH   8   9
ATOM      9  S   UNL     1       0.175   3.770   0.078  1.00  0.00    -0.114 SA
BRANCH   9  10
ATOM     10  C   UNL     1       0.160   2.019   0.598  1.00  0.00     0.019 A 
ATOM     11  C   UNL     1      -1.792  -0.506   2.643  1.00  0.00     0.067 C 
ATOM     12  C   UNL     1      -0.870   0.118   1.645  1.00  0.00     0.039 A 
ATOM     13  C   UNL     1      -0.880   1.478   1.360  1.00  0.00     0.039 A 
ATOM     14  N   UNL     1       0.044  -0.722   1.133  1.00  0.00    -0.253 NA
ATOM     15  C   UNL     1       1.105  -0.214   0.520  1.00  0.00     0.072 A 
ATOM     16  C   UNL     1       1.265   1.167   0.274  1.00  0.00     0.014 A 
ATOM     17  C   UNL     1       2.111  -1.112   0.212  1.00  0.00     0.029 A 
ATOM     18  C   UNL     1       2.542   1.589  -0.189  1.00  0.00     0.024 A 
ATOM     19  C   UNL     1       3.364  -0.681  -0.205  1.00  0.00     0.015 A 
ATOM     20  C   UNL     1       3.609   0.684  -0.356  1.00  0.00     0.056 A 
BRANCH  20  21
ATOM     21  C   UNL     1       5.011   1.189  -0.585  1.00  0.00     0.416 C 
ATOM     22  F   UNL     1       5.123   1.961  -1.699  1.00  0.00    -0.166 F 
ATOM     23  F   UNL     1       5.455   1.959   0.449  1.00  0.00    -0.166 F 
ATOM     24  F   UNL     1       5.936   0.197  -0.725  1.00  0.00    -0.166 F 
ENDBRANCH  20  21
ENDBRANCH   9  10
ENDBRANCH   8   9
ENDBRANCH   6   8
ENDBRANCH   5   6
ENDBRANCH   4   5
ENDBRANCH   3   4
ENDBRANCH   2   3
ENDBRANCH   1   2
BRANCH   1  25
ATOM     25  C   UNL     1      -2.141   1.751  -2.330  1.00  0.00     0.188 C 
BRANCH  25  26
ATOM     26  O   UNL     1      -1.343   1.461  -3.466  1.00  0.00    -0.376 OA
BRANCH  26  27
ATOM     27  C   UNL     1      -1.903   0.549  -4.402  1.00  0.00     0.202 C 
BRANCH  27  28
ATOM     28  C   UNL     1      -2.170  -0.849  -3.846  1.00  0.00     0.261 C 
BRANCH  28  29
ATOM     29  O   UNL     1      -3.151  -0.826  -2.788  1.00  0.00    -0.460 OA
BRANCH  29  30
ATOM     30  C   UNL     1      -3.076  -1.899  -1.961  1.00  0.00     0.338 C 
ATOM     31  O   UNL     1      -2.380  -2.882  -2.144  1.00  0.00    -0.246 OA
BRANCH  30  32
ATOM     32  C   UNL     1      -3.967  -1.764  -0.779  1.00  0.00     0.060 A 
ATOM     33  C   UNL     1      -4.090  -0.584  -0.044  1.00  0.00     0.016 A 
ATOM     34  C   UNL     1      -4.565  -2.927  -0.291  1.00  0.00     0.016 A 
ATOM     35  C   UNL     1      -4.687  -0.604   1.226  1.00  0.00     0.010 A 
ATOM     36  C   UNL     1      -5.214  -2.928   0.950  1.00  0.00     0.010 A 
ATOM     37  C   UNL     1      -5.209  -1.788   1.771  1.00  0.00    -0.014 A 
BRANCH  37  38
ATOM     38  C   UNL     1      -5.601  -1.899   3.218  1.00  0.00     0.031 A 
ATOM     39  C   UNL     1      -5.005  -3.001   4.080  1.00  0.00     0.074 A 
ATOM     40  C   UNL     1      -6.432  -1.018   3.813  1.00  0.00     0.049 A 
ATOM     41  N   UNL     1      -5.395  -3.451   5.247  1.00  0.00    -0.248 NA
ATOM     42  C   UNL     1      -3.814  -3.686   3.551  1.00  0.00     0.031 C 
ATOM     43  C   UNL     1      -7.008   0.172   3.187  1.00  0.00     0.029 A 
ATOM     44  N   UNL     1      -6.939  -0.991   5.094  1.00  0.00    -0.354 N 
ATOM     45  C   UNL     1      -4.547  -4.514   5.556  1.00  0.00     0.074 A 
ATOM     46  C   UNL     1      -3.612  -4.630   4.458  1.00  0.00     0.031 C 
ATOM     47  C   UNL     1      -7.751   0.830   4.088  1.00  0.00     0.029 A 
ATOM     48  C   UNL     1      -7.826   0.040   5.313  1.00  0.00     0.049 A 
ATOM     49  H   UNL     1      -6.692  -1.645   5.786  1.00  0.00     0.167 HD
ATOM     50  C   UNL     1      -4.556  -5.328   6.643  1.00  0.00     0.034 A 
ATOM     51  C   UNL     1      -8.673   0.287   6.334  1.00  0.00     0.034 A 
ATOM     52  C   UNL     1      -5.460  -5.177   7.759  1.00  0.00     0.049 A 
ATOM     53  C   UNL     1      -8.746  -0.681   7.486  1.00  0.00     0.074 A 
ATOM     54  C   UNL     1      -5.566  -5.962   8.897  1.00  0.00     0.029 A 
ATOM     55  N   UNL     1      -6.405  -4.169   7.891  1.00  0.00    -0.354 N 
ATOM     56  N   UNL     1      -8.048  -1.772   7.695  1.00  0.00    -0.248 NA
ATOM     57  C   UNL     1      -9.744  -0.395   8.526  1.00  0.00     0.031 C 
ATOM     58  C   UNL     1      -6.614  -5.466   9.681  1.00  0.00     0.029 A 
ATOM     59  C   UNL     1      -7.112  -4.326   9.074  1.00  0.00     0.049 A 
ATOM     60  H   UNL     1      -6.551  -3.446   7.238  1.00  0.00     0.167 HD
ATOM     61  C   UNL     1      -8.522  -2.300   8.894  1.00  0.00     0.074 A 
ATOM     62  C   UNL     1      -9.543  -1.392   9.374  1.00  0.00     0.031 C 
ATOM     63  C   UNL     1      -8.149  -3.436   9.537  1.00  0.00     0.034 A 
BRANCH  50  64
ATOM     64  C   UNL     1      -3.620  -6.516   6.641  1.00  0.00     0.023 A 
ATOM     65  C   UNL     1      -2.223  -6.385   6.716  1.00  0.00     0.031 A 
ATOM     66  C   UNL     1      -4.155  -7.817   6.562  1.00  0.00     0.131 A 
ATOM     67  C   UNL     1      -1.410  -7.531   6.664  1.00  0.00     0.055 A 
ATOM     68  C   UNL     1      -3.346  -8.953   6.581  1.00  0.00     0.041 A 
ATOM     69  F   UNL     1      -5.481  -8.004   6.465  1.00  0.00    -0.206 F 
ATOM     70  C   UNL     1      -1.963  -8.814   6.622  1.00  0.00     0.022 A 
BRANCH  67  71
ATOM     71  S   UNL     1       0.388  -7.323   6.533  1.00  0.00     0.124 S 
ATOM     72  O   UNL     1       0.505  -6.507   5.327  1.00  0.00    -0.237 OA
ATOM     73  O   UNL     1       0.719  -6.660   7.789  1.00  0.00    -0.237 OA
ATOM     74  O   UNL     1       0.883  -8.691   6.400  1.00  0.00    -0.744 OA
ENDBRANCH  67  71
ENDBRANCH  50  64
BRANCH  51  75
ATOM     75  C   UNL     1      -9.619   1.440   6.256  1.00  0.00     0.023 A 
ATOM     76  C   UNL     1      -9.576   2.487   7.189  1.00  0.00     0.031 A 
ATOM     77  C   UNL     1     -10.610   1.486   5.257  1.00  0.00     0.131 A 
ATOM     78  C   UNL     1     -10.520   3.525   7.114  1.00  0.00     0.055 A 
ATOM     79  C   UNL     1     -11.504   2.551   5.150  1.00  0.00     0.041 A 
ATOM     80  F   UNL     1     -10.706   0.502   4.348  1.00  0.00    -0.206 F 
ATOM     81  C   UNL     1     -11.468   3.575   6.089  1.00  0.00     0.022 A 
BRANCH  78  82
ATOM     82  S   UNL     1     -10.541   4.779   8.424  1.00  0.00     0.124 S 
ATOM     83  O   UNL     1     -10.789   3.966   9.609  1.00  0.00    -0.237 OA
ATOM     84  O   UNL     1      -9.206   5.358   8.310  1.00  0.00    -0.237 OA
ATOM     85  O   UNL     1     -11.637   5.663   8.031  1.00  0.00    -0.744 OA
ENDBRANCH  78  82
ENDBRANCH  51  75
BRANCH  63  86
ATOM     86  C   UNL     1      -8.831  -3.731  10.851  1.00  0.00     0.023 A 
ATOM     87  C   UNL     1     -10.200  -4.046  10.918  1.00  0.00     0.031 A 
ATOM     88  C   UNL     1      -8.112  -3.650  12.057  1.00  0.00     0.131 A 
ATOM     89  C   UNL     1     -10.822  -4.200  12.166  1.00  0.00     0.055 A 
ATOM     90  C   UNL     1      -8.723  -3.864  13.293  1.00  0.00     0.041 A 
ATOM     91  F   UNL     1      -6.803  -3.350  12.053  1.00  0.00    -0.206 F 
ATOM     92  C   UNL     1     -10.089  -4.125  13.354  1.00  0.00     0.022 A 
BRANCH  89  93
ATOM     93  S   UNL     1     -12.626  -4.388  12.224  1.00  0.00     0.124 S 
ATOM     94  O   UNL     1     -13.078  -3.191  11.522  1.00  0.00    -0.237 OA
ATOM     95  O   UNL     1     -12.830  -5.652  11.525  1.00  0.00    -0.237 OA
ATOM     96  O   UNL     1     -12.922  -4.416  13.655  1.00  0.00    -0.744 OA
ENDBRANCH  89  93
ENDBRANCH  63  86
ENDBRANCH  37  38
ENDBRANCH  30  32
ENDBRANCH  29  30
ENDBRANCH  28  29
ENDBRANCH  27  28
ENDBRANCH  26  27
ENDBRANCH  25  26
ENDBRANCH   1  25
TORSDOF 23
