REMARK SMILES CC(C)N1C[C@@]2(CCCN(c3ccc(C(=O)OCCOCCOCCOC(=O)c4ccc(-c5c6nc(c(-c7cc(S(=O)(=O)[O-])ccc7F)c7ccc([nH]7)c(-c7cc(S(=O)(=O)[O-])ccc7F)c7nc(c(-c8cc(S(=O)(=O)[O-])ccc8F)c8ccc5[nH]8)C=C7)C=C6)cc4)cn3)C2)CCC1=O
REMARK SMILES IDX 22 1 21 2 20 3 19 4 18 5 17 6 15 7 16 8 14 9 11 10 12 11
REMARK SMILES IDX 93 12 13 13 92 14 10 15 4 16 5 17 97 18 6 19 96 20 98 21
REMARK SMILES IDX 7 22 94 23 95 24 8 25 9 26 2 27 1 28 3 29 23 30 24 31 25 32
REMARK SMILES IDX 26 33 27 34 28 35 29 36 30 37 91 38 31 39 90 40 32 41 33 42
REMARK SMILES IDX 34 43 84 44 35 45 89 46 83 47 85 48 36 49 88 50 82 51 81 52
REMARK SMILES IDX 37 54 69 55 49 56 68 57 50 58 53 59 67 60 86 61 51 62 52 63
REMARK SMILES IDX 66 65 87 66 54 67 38 68 39 69 47 70 40 71 46 72 48 73 45 74
REMARK SMILES IDX 41 75 42 76 43 77 44 78 70 79 71 80 79 81 72 82 78 83 80 84
REMARK SMILES IDX 77 85 73 86 74 87 75 88 76 89 55 90 56 91 64 92 57 93 63 94
REMARK SMILES IDX 65 95 62 96 58 97 59 98 60 99 61 100
REMARK H PARENT 85 53 53 64
REMARK Flexibility Score: inf
ROOT
ATOM      1  C   UNL     1      -5.122  -3.400   1.963  1.00  0.00     0.188 C 
ENDROOT
BRANCH   1   2
ATOM      2  C   UNL     1      -5.438  -3.540   3.466  1.00  0.00     0.188 C 
BRANCH   2   3
ATOM      3  O   UNL     1      -6.640  -4.155   3.918  1.00  0.00    -0.376 OA
BRANCH   3   4
ATOM      4  C   UNL     1      -7.809  -4.115   3.122  1.00  0.00     0.202 C 
BRANCH   4   5
ATOM      5  C   UNL     1      -8.518  -2.768   2.983  1.00  0.00     0.261 C 
BRANCH   5   6
ATOM      6  O   UNL     1      -7.680  -1.703   2.519  1.00  0.00    -0.460 OA
BRANCH   6   7
ATOM      7  C   UNL     1      -7.261  -0.823   3.463  1.00  0.00     0.339 C 
ATOM      8  O   UNL     1      -7.497  -0.836   4.657  1.00  0.00    -0.246 OA
BRANCH   7   9
ATOM      9  C   UNL     1      -6.377   0.142   2.806  1.00  0.00     0.078 A 
ATOM     10  C   UNL     1      -4.585   1.798   1.500  1.00  0.00     0.128 A 
ATOM     11  C   UNL     1      -5.926   1.754   1.106  1.00  0.00     0.048 A 
ATOM     12  N   UNL     1      -4.162   1.060   2.548  1.00  0.00    -0.238 NA
ATOM     13  C   UNL     1      -6.819   0.886   1.725  1.00  0.00     0.021 A 
ATOM     14  C   UNL     1      -5.065   0.295   3.215  1.00  0.00     0.129 A 
BRANCH  10  15
ATOM     15  N   UNL     1      -3.651   2.529   0.793  1.00  0.00    -0.356 N 
ATOM     16  N   UNL     1      -0.908  -0.318  -1.398  1.00  0.00    -0.340 N 
ATOM     17  C   UNL     1      -1.442   0.947  -1.879  1.00  0.00     0.128 C 
ATOM     18  C   UNL     1      -1.725  -1.355  -0.968  1.00  0.00     0.222 C 
ATOM     19  C   UNL     1      -2.747   1.411  -1.211  1.00  0.00     0.006 C 
ATOM     20  C   UNL     1      -3.172  -1.021  -0.652  1.00  0.00     0.101 C 
ATOM     21  O   UNL     1      -1.320  -2.492  -0.739  1.00  0.00    -0.275 OA
ATOM     22  C   UNL     1      -3.255   2.644  -2.023  1.00  0.00     0.012 C 
ATOM     23  C   UNL     1      -2.480   1.827   0.268  1.00  0.00     0.127 C 
ATOM     24  C   UNL     1      -3.715   0.220  -1.341  1.00  0.00     0.020 C 
ATOM     25  C   UNL     1      -4.301   3.521  -1.329  1.00  0.00     0.022 C 
ATOM     26  C   UNL     1      -3.975   3.781   0.138  1.00  0.00     0.118 C 
BRANCH  16  27
ATOM     27  C   UNL     1       0.564  -0.449  -1.421  1.00  0.00     0.078 C 
ATOM     28  C   UNL     1       1.123  -0.195  -0.023  1.00  0.00     0.031 C 
ATOM     29  C   UNL     1       1.109  -1.747  -2.018  1.00  0.00     0.031 C 
ENDBRANCH  16  27
ENDBRANCH  10  15
ENDBRANCH   7   9
ENDBRANCH   6   7
ENDBRANCH   5   6
ENDBRANCH   4   5
ENDBRANCH   3   4
ENDBRANCH   2   3
ENDBRANCH   1   2
BRANCH   1  30
ATOM     30  O   UNL     1      -5.728  -4.381   1.130  1.00  0.00    -0.376 OA
BRANCH  30  31
ATOM     31  C   UNL     1      -4.845  -5.354   0.584  1.00  0.00     0.202 C 
BRANCH  31  32
ATOM     32  C   UNL     1      -4.460  -6.452   1.581  1.00  0.00     0.261 C 
BRANCH  32  33
ATOM     33  O   UNL     1      -3.713  -5.986   2.716  1.00  0.00    -0.460 OA
BRANCH  33  34
ATOM     34  C   UNL     1      -2.466  -5.520   2.468  1.00  0.00     0.338 C 
ATOM     35  O   UNL     1      -1.901  -5.503   1.391  1.00  0.00    -0.246 OA
BRANCH  34  36
ATOM     36  C   UNL     1      -1.960  -4.899   3.710  1.00  0.00     0.060 A 
ATOM     37  C   UNL     1      -1.569  -3.555   3.695  1.00  0.00     0.016 A 
ATOM     38  C   UNL     1      -1.883  -5.644   4.890  1.00  0.00     0.016 A 
ATOM     39  C   UNL     1      -1.070  -2.962   4.861  1.00  0.00     0.010 A 
ATOM     40  C   UNL     1      -1.372  -5.053   6.050  1.00  0.00     0.010 A 
ATOM     41  C   UNL     1      -0.935  -3.717   6.036  1.00  0.00    -0.014 A 
BRANCH  41  42
ATOM     42  C   UNL     1      -0.173  -3.178   7.195  1.00  0.00     0.031 A 
ATOM     43  C   UNL     1       1.277  -3.560   7.337  1.00  0.00     0.074 A 
ATOM     44  C   UNL     1      -0.746  -2.372   8.107  1.00  0.00     0.049 A 
ATOM     45  N   UNL     1       2.132  -3.256   8.280  1.00  0.00    -0.248 NA
ATOM     46  C   UNL     1       1.832  -4.408   6.271  1.00  0.00     0.031 C 
ATOM     47  C   UNL     1      -2.131  -1.907   8.073  1.00  0.00     0.029 A 
ATOM     48  N   UNL     1      -0.231  -1.809   9.250  1.00  0.00    -0.354 N 
ATOM     49  C   UNL     1       3.327  -3.871   7.920  1.00  0.00     0.074 A 
ATOM     50  C   UNL     1       3.070  -4.601   6.696  1.00  0.00     0.031 C 
ATOM     51  C   UNL     1      -2.357  -1.134   9.152  1.00  0.00     0.029 A 
ATOM     52  C   UNL     1      -1.146  -1.076   9.970  1.00  0.00     0.049 A 
ATOM     53  H   UNL     1       0.708  -1.919   9.528  1.00  0.00     0.167 HD
ATOM     54  C   UNL     1       4.531  -3.824   8.543  1.00  0.00     0.034 A 
ATOM     55  C   UNL     1      -1.027  -0.451  11.161  1.00  0.00     0.034 A 
ATOM     56  C   UNL     1       4.773  -3.113   9.775  1.00  0.00     0.049 A 
ATOM     57  C   UNL     1       0.301  -0.485  11.885  1.00  0.00     0.074 A 
ATOM     58  C   UNL     1       5.958  -2.991  10.481  1.00  0.00     0.029 A 
ATOM     59  N   UNL     1       3.811  -2.416  10.495  1.00  0.00    -0.354 N 
ATOM     60  N   UNL     1       1.430  -1.052  11.522  1.00  0.00    -0.248 NA
ATOM     61  C   UNL     1       0.372   0.214  13.176  1.00  0.00     0.031 C 
ATOM     62  C   UNL     1       5.697  -2.284  11.660  1.00  0.00     0.029 A 
ATOM     63  C   UNL     1       4.367  -1.893  11.653  1.00  0.00     0.049 A 
ATOM     64  H   UNL     1       2.871  -2.309  10.223  1.00  0.00     0.167 HD
ATOM     65  C   UNL     1       2.349  -0.746  12.525  1.00  0.00     0.074 A 
ATOM     66  C   UNL     1       1.647   0.062  13.499  1.00  0.00     0.031 C 
ATOM     67  C   UNL     1       3.658  -1.095  12.626  1.00  0.00     0.034 A 
BRANCH  54  68
ATOM     68  C   UNL     1       5.660  -4.609   7.920  1.00  0.00     0.023 A 
ATOM     69  C   UNL     1       6.169  -4.288   6.648  1.00  0.00     0.031 A 
ATOM     70  C   UNL     1       6.210  -5.715   8.590  1.00  0.00     0.131 A 
ATOM     71  C   UNL     1       7.144  -5.106   6.058  1.00  0.00     0.055 A 
ATOM     72  C   UNL     1       7.236  -6.479   8.030  1.00  0.00     0.041 A 
ATOM     73  F   UNL     1       5.750  -6.082   9.796  1.00  0.00    -0.206 F 
ATOM     74  C   UNL     1       7.699  -6.185   6.751  1.00  0.00     0.022 A 
BRANCH  71  75
ATOM     75  S   UNL     1       7.578  -4.825   4.319  1.00  0.00     0.124 S 
ATOM     76  O   UNL     1       6.284  -4.988   3.661  1.00  0.00    -0.237 OA
ATOM     77  O   UNL     1       8.117  -3.470   4.343  1.00  0.00    -0.237 OA
ATOM     78  O   UNL     1       8.551  -5.878   4.034  1.00  0.00    -0.744 OA
ENDBRANCH  71  75
ENDBRANCH  54  68
BRANCH  55  79
ATOM     79  C   UNL     1      -2.200   0.232  11.782  1.00  0.00     0.023 A 
ATOM     80  C   UNL     1      -2.199   1.617  12.017  1.00  0.00     0.031 A 
ATOM     81  C   UNL     1      -3.314  -0.508  12.219  1.00  0.00     0.131 A 
ATOM     82  C   UNL     1      -3.265   2.211  12.713  1.00  0.00     0.055 A 
ATOM     83  C   UNL     1      -4.396   0.095  12.861  1.00  0.00     0.041 A 
ATOM     84  F   UNL     1      -3.363  -1.836  12.028  1.00  0.00    -0.206 F 
ATOM     85  C   UNL     1      -4.370   1.461  13.123  1.00  0.00     0.022 A 
BRANCH  82  86
ATOM     86  S   UNL     1      -3.147   3.966  13.158  1.00  0.00     0.124 S 
ATOM     87  O   UNL     1      -1.932   3.987  13.965  1.00  0.00    -0.237 OA
ATOM     88  O   UNL     1      -3.059   4.607  11.850  1.00  0.00    -0.237 OA
ATOM     89  O   UNL     1      -4.387   4.218  13.889  1.00  0.00    -0.744 OA
ENDBRANCH  82  86
ENDBRANCH  55  79
BRANCH  67  90
ATOM     90  C   UNL     1       4.429  -0.556  13.809  1.00  0.00     0.023 A 
ATOM     91  C   UNL     1       4.150  -0.957  15.128  1.00  0.00     0.031 A 
ATOM     92  C   UNL     1       5.460   0.381  13.610  1.00  0.00     0.131 A 
ATOM     93  C   UNL     1       4.854  -0.384  16.198  1.00  0.00     0.055 A 
ATOM     94  C   UNL     1       6.197   0.903  14.673  1.00  0.00     0.041 A 
ATOM     95  F   UNL     1       5.771   0.802  12.373  1.00  0.00    -0.206 F 
ATOM     96  C   UNL     1       5.887   0.532  15.978  1.00  0.00     0.022 A 
BRANCH  93  97
ATOM     97  S   UNL     1       4.346  -0.781  17.894  1.00  0.00     0.124 S 
ATOM     98  O   UNL     1       2.948  -0.362  17.899  1.00  0.00    -0.237 OA
ATOM     99  O   UNL     1       4.581  -2.220  17.962  1.00  0.00    -0.237 OA
ATOM    100  O   UNL     1       5.238   0.030  18.720  1.00  0.00    -0.744 OA
ENDBRANCH  93  97
ENDBRANCH  67  90
ENDBRANCH  41  42
ENDBRANCH  34  36
ENDBRANCH  33  34
ENDBRANCH  32  33
ENDBRANCH  31  32
ENDBRANCH  30  31
ENDBRANCH   1  30
TORSDOF 22
