REMARK SMILES N#C[C@H]1CN(c2cc(C(=O)OCCOCCOCCOC(=O)c3ccc(-c4c5nc(c(-c6cc(S(=O)(=O)[O-])ccc6F)c6ccc([nH]6)c(-c6cc(S(=O)(=O)[O-])ccc6F)c6nc(c(-c7cc(S(=O)(=O)[O-])ccc7F)c7ccc4[nH]7)C=C6)C=C5)cc3)c(N)cc2F)CCO1
REMARK SMILES IDX 16 1 15 2 14 3 13 4 12 5 11 6 9 7 10 8 8 9 6 10 7 11 89 12
REMARK SMILES IDX 88 13 90 14 86 15 5 16 3 17 4 18 93 19 92 20 91 21 2 22 1 23
REMARK SMILES IDX 87 24 17 27 18 28 19 29 20 30 21 31 22 32 23 33 24 34 85 35
REMARK SMILES IDX 25 36 84 37 26 38 27 39 28 40 78 41 29 42 83 43 77 44 79 45
REMARK SMILES IDX 30 46 82 47 76 48 75 49 31 51 63 52 43 53 62 54 44 55 47 56
REMARK SMILES IDX 61 57 80 58 45 59 46 60 60 62 81 63 48 64 32 65 33 66 41 67
REMARK SMILES IDX 34 68 40 69 42 70 39 71 35 72 36 73 37 74 38 75 64 76 65 77
REMARK SMILES IDX 73 78 66 79 72 80 74 81 71 82 67 83 68 84 69 85 70 86 49 87
REMARK SMILES IDX 50 88 58 89 51 90 57 91 59 92 56 93 52 94 53 95 54 96 55 97
REMARK H PARENT 87 25 87 26 79 50 47 61
REMARK Flexibility Score: inf
ROOT
ATOM      1  C   UNL     1       2.386   5.921  -3.477  1.00  0.00     0.188 C 
ENDROOT
BRANCH   1   2
ATOM      2  C   UNL     1       3.923   6.057  -3.498  1.00  0.00     0.188 C 
BRANCH   2   3
ATOM      3  O   UNL     1       4.504   7.174  -4.145  1.00  0.00    -0.376 OA
BRANCH   3   4
ATOM      4  C   UNL     1       4.275   7.407  -5.526  1.00  0.00     0.202 C 
BRANCH   4   5
ATOM      5  C   UNL     1       4.015   6.293  -6.561  1.00  0.00     0.261 C 
BRANCH   5   6
ATOM      6  O   UNL     1       3.275   5.150  -6.114  1.00  0.00    -0.460 OA
BRANCH   6   7
ATOM      7  C   UNL     1       3.986   3.997  -5.976  1.00  0.00     0.340 C 
ATOM      8  O   UNL     1       5.165   3.847  -6.250  1.00  0.00    -0.246 OA
BRANCH   7   9
ATOM      9  C   UNL     1       3.183   2.971  -5.255  1.00  0.00     0.085 A 
ATOM     10  C   UNL     1       3.223   1.208  -3.552  1.00  0.00     0.074 A 
ATOM     11  C   UNL     1       3.857   2.239  -4.251  1.00  0.00     0.047 A 
ATOM     12  C   UNL     1       1.900   0.916  -3.909  1.00  0.00     0.148 A 
ATOM     13  C   UNL     1       1.208   1.660  -4.866  1.00  0.00     0.067 A 
ATOM     14  F   UNL     1       1.260  -0.103  -3.312  1.00  0.00    -0.205 F 
ATOM     15  C   UNL     1       1.817   2.742  -5.508  1.00  0.00     0.049 A 
BRANCH  10  16
ATOM     16  N   UNL     1       3.897   0.475  -2.606  1.00  0.00    -0.363 N 
ATOM     17  C   UNL     1       3.731  -0.076  -0.193  1.00  0.00     0.240 C 
ATOM     18  C   UNL     1       4.185   0.966  -1.249  1.00  0.00     0.164 C 
ATOM     19  O   UNL     1       4.258  -1.388  -0.489  1.00  0.00    -0.360 OA
ATOM     20  C   UNL     1       3.818  -1.833  -1.781  1.00  0.00     0.183 C 
ATOM     21  C   UNL     1       4.311  -0.900  -2.895  1.00  0.00     0.145 C 
BRANCH  17  22
ATOM     22  C   UNL     1       4.134   0.354   1.154  1.00  0.00     0.096 C 
ATOM     23  N   UNL     1       4.386   0.744   2.220  1.00  0.00    -0.195 NA
ENDBRANCH  17  22
ENDBRANCH  10  16
BRANCH  15  24
ATOM     24  N   UNL     1       1.086   3.452  -6.462  1.00  0.00    -0.398 N 
ATOM     25  H   UNL     1       1.496   4.218  -6.926  1.00  0.00     0.156 HD
ATOM     26  H   UNL     1       0.161   3.188  -6.671  1.00  0.00     0.156 HD
ENDBRANCH  15  24
ENDBRANCH   7   9
ENDBRANCH   6   7
ENDBRANCH   5   6
ENDBRANCH   4   5
ENDBRANCH   3   4
ENDBRANCH   2   3
ENDBRANCH   1   2
BRANCH   1  27
ATOM     27  O   UNL     1       1.692   6.782  -4.349  1.00  0.00    -0.376 OA
BRANCH  27  28
ATOM     28  C   UNL     1       1.338   8.079  -3.899  1.00  0.00     0.202 C 
BRANCH  28  29
ATOM     29  C   UNL     1       1.845   8.775  -2.611  1.00  0.00     0.261 C 
BRANCH  29  30
ATOM     30  O   UNL     1       2.748   8.084  -1.741  1.00  0.00    -0.460 OA
BRANCH  30  31
ATOM     31  C   UNL     1       2.190   7.481  -0.660  1.00  0.00     0.338 C 
ATOM     32  O   UNL     1       1.003   7.436  -0.389  1.00  0.00    -0.246 OA
BRANCH  31  33
ATOM     33  C   UNL     1       3.223   6.685   0.040  1.00  0.00     0.060 A 
ATOM     34  C   UNL     1       3.132   5.288  -0.005  1.00  0.00     0.016 A 
ATOM     35  C   UNL     1       4.241   7.300   0.772  1.00  0.00     0.016 A 
ATOM     36  C   UNL     1       4.048   4.507   0.697  1.00  0.00     0.010 A 
ATOM     37  C   UNL     1       5.152   6.508   1.488  1.00  0.00     0.010 A 
ATOM     38  C   UNL     1       5.048   5.106   1.472  1.00  0.00    -0.014 A 
BRANCH  38  39
ATOM     39  C   UNL     1       5.867   4.248   2.369  1.00  0.00     0.031 A 
ATOM     40  C   UNL     1       5.524   4.186   3.834  1.00  0.00     0.074 A 
ATOM     41  C   UNL     1       6.845   3.465   1.875  1.00  0.00     0.049 A 
ATOM     42  N   UNL     1       6.099   3.517   4.801  1.00  0.00    -0.248 NA
ATOM     43  C   UNL     1       4.383   5.005   4.265  1.00  0.00     0.031 C 
ATOM     44  C   UNL     1       7.229   3.382   0.467  1.00  0.00     0.029 A 
ATOM     45  N   UNL     1       7.682   2.577   2.503  1.00  0.00    -0.354 N 
ATOM     46  C   UNL     1       5.381   3.821   5.953  1.00  0.00     0.074 A 
ATOM     47  C   UNL     1       4.374   4.790   5.571  1.00  0.00     0.031 C 
ATOM     48  C   UNL     1       8.216   2.479   0.338  1.00  0.00     0.029 A 
ATOM     49  C   UNL     1       8.570   1.957   1.657  1.00  0.00     0.049 A 
ATOM     50  H   UNL     1       7.650   2.401   3.471  1.00  0.00     0.167 HD
ATOM     51  C   UNL     1       5.537   3.329   7.208  1.00  0.00     0.034 A 
ATOM     52  C   UNL     1       9.567   1.086   1.918  1.00  0.00     0.034 A 
ATOM     53  C   UNL     1       6.553   2.369   7.574  1.00  0.00     0.049 A 
ATOM     54  C   UNL     1       9.803   0.646   3.345  1.00  0.00     0.074 A 
ATOM     55  C   UNL     1       6.809   1.815   8.816  1.00  0.00     0.029 A 
ATOM     56  N   UNL     1       7.490   1.825   6.702  1.00  0.00    -0.354 N 
ATOM     57  N   UNL     1       9.138   0.962   4.433  1.00  0.00    -0.248 NA
ATOM     58  C   UNL     1      10.924  -0.273   3.573  1.00  0.00     0.031 C 
ATOM     59  C   UNL     1       7.956   1.020   8.718  1.00  0.00     0.029 A 
ATOM     60  C   UNL     1       8.357   0.987   7.392  1.00  0.00     0.049 A 
ATOM     61  H   UNL     1       7.532   2.007   5.735  1.00  0.00     0.167 HD
ATOM     62  C   UNL     1       9.740   0.249   5.468  1.00  0.00     0.074 A 
ATOM     63  C   UNL     1      10.805  -0.527   4.867  1.00  0.00     0.031 C 
ATOM     64  C   UNL     1       9.438   0.234   6.794  1.00  0.00     0.034 A 
BRANCH  51  65
ATOM     65  C   UNL     1       4.630   3.882   8.285  1.00  0.00     0.023 A 
ATOM     66  C   UNL     1       3.232   3.738   8.232  1.00  0.00     0.031 A 
ATOM     67  C   UNL     1       5.172   4.612   9.360  1.00  0.00     0.131 A 
ATOM     68  C   UNL     1       2.424   4.388   9.178  1.00  0.00     0.055 A 
ATOM     69  C   UNL     1       4.367   5.172  10.353  1.00  0.00     0.041 A 
ATOM     70  F   UNL     1       6.497   4.810   9.454  1.00  0.00    -0.206 F 
ATOM     71  C   UNL     1       2.983   5.079  10.255  1.00  0.00     0.022 A 
BRANCH  68  72
ATOM     72  S   UNL     1       0.636   4.478   8.877  1.00  0.00     0.124 S 
ATOM     73  O   UNL     1       0.588   5.103   7.558  1.00  0.00    -0.237 OA
ATOM     74  O   UNL     1       0.233   3.079   8.938  1.00  0.00    -0.237 OA
ATOM     75  O   UNL     1       0.146   5.317   9.970  1.00  0.00    -0.744 OA
ENDBRANCH  68  72
ENDBRANCH  51  65
BRANCH  52  76
ATOM     76  C   UNL     1      10.456   0.601   0.820  1.00  0.00     0.023 A 
ATOM     77  C   UNL     1      10.544  -0.763   0.498  1.00  0.00     0.031 A 
ATOM     78  C   UNL     1      11.280   1.497   0.115  1.00  0.00     0.131 A 
ATOM     79  C   UNL     1      11.463  -1.196  -0.471  1.00  0.00     0.055 A 
ATOM     80  C   UNL     1      12.147   1.069  -0.892  1.00  0.00     0.041 A 
ATOM     81  F   UNL     1      11.249   2.811   0.390  1.00  0.00    -0.206 F 
ATOM     82  C   UNL     1      12.251  -0.287  -1.182  1.00  0.00     0.022 A 
BRANCH  79  83
ATOM     83  S   UNL     1      11.685  -2.978  -0.731  1.00  0.00     0.124 S 
ATOM     84  O   UNL     1      12.098  -3.423   0.595  1.00  0.00    -0.237 OA
ATOM     85  O   UNL     1      10.353  -3.391  -1.162  1.00  0.00    -0.237 OA
ATOM     86  O   UNL     1      12.718  -3.046  -1.763  1.00  0.00    -0.744 OA
ENDBRANCH  79  83
ENDBRANCH  52  76
BRANCH  64  87
ATOM     87  C   UNL     1      10.257  -0.685   7.676  1.00  0.00     0.023 A 
ATOM     88  C   UNL     1      11.648  -0.530   7.818  1.00  0.00     0.031 A 
ATOM     89  C   UNL     1       9.649  -1.764   8.343  1.00  0.00     0.131 A 
ATOM     90  C   UNL     1      12.394  -1.489   8.521  1.00  0.00     0.055 A 
ATOM     91  C   UNL     1      10.384  -2.663   9.118  1.00  0.00     0.041 A 
ATOM     92  F   UNL     1       8.326  -1.972   8.247  1.00  0.00    -0.206 F 
ATOM     93  C   UNL     1      11.768  -2.543   9.191  1.00  0.00     0.022 A 
BRANCH  90  94
ATOM     94  S   UNL     1      14.204  -1.435   8.407  1.00  0.00     0.124 S 
ATOM     95  O   UNL     1      14.416  -1.474   6.963  1.00  0.00    -0.237 OA
ATOM     96  O   UNL     1      14.521  -0.172   9.064  1.00  0.00    -0.237 OA
ATOM     97  O   UNL     1      14.629  -2.633   9.128  1.00  0.00    -0.744 OA
ENDBRANCH  90  94
ENDBRANCH  64  87
ENDBRANCH  38  39
ENDBRANCH  31  33
ENDBRANCH  30  31
ENDBRANCH  29  30
ENDBRANCH  28  29
ENDBRANCH  27  28
ENDBRANCH   1  27
TORSDOF 23
