REMARK SMILES O=C(C[C@@H]1COCCN1C(=O)c1csc(Cc2ccccc2)n1)OCCOCCOCCOC(=O)c1ccc(-c2c3nc(c(-c4cc(S(=O)(=O)[O-])ccc4F)c4ccc([nH]4)c(-c4cc(S(=O)(=O)[O-])ccc4F)c4nc(c(-c5cc(S(=O)(=O)[O-])ccc5F)c5ccc2[nH]5)C=C4)C=C3)cc1
REMARK SMILES IDX 28 1 27 2 26 3 25 4 24 5 2 6 1 7 3 8 4 9 5 10 9 11 6 12 8 13
REMARK SMILES IDX 7 14 10 15 11 16 12 17 13 18 23 19 14 20 15 21 16 22 17 23
REMARK SMILES IDX 18 24 22 25 19 26 21 27 20 28 29 29 30 30 31 31 32 32 33 33
REMARK SMILES IDX 34 34 35 35 36 36 37 37 98 38 38 39 97 40 39 41 40 42 41 43
REMARK SMILES IDX 91 44 42 45 96 46 90 47 92 48 43 49 95 50 89 51 88 52 44 54
REMARK SMILES IDX 76 55 56 56 75 57 57 58 60 59 74 60 93 61 58 62 59 63 73 65
REMARK SMILES IDX 94 66 61 67 45 68 46 69 54 70 47 71 53 72 55 73 52 74 48 75
REMARK SMILES IDX 49 76 50 77 51 78 77 79 78 80 86 81 79 82 85 83 87 84 84 85
REMARK SMILES IDX 80 86 81 87 82 88 83 89 62 90 63 91 71 92 64 93 70 94 72 95
REMARK SMILES IDX 69 96 65 97 66 98 67 99 68 100
REMARK H PARENT 92 53 60 64
REMARK Flexibility Score: inf
ROOT
ATOM      1  C   UNL     1       3.340   0.450   2.258  1.00  0.00     0.188 C 
ENDROOT
BRANCH   1   2
ATOM      2  O   UNL     1       4.693   0.844   2.115  1.00  0.00    -0.376 OA
BRANCH   2   3
ATOM      3  C   UNL     1       5.406   0.442   0.968  1.00  0.00     0.202 C 
BRANCH   3   4
ATOM      4  C   UNL     1       5.022   1.206  -0.306  1.00  0.00     0.261 C 
BRANCH   4   5
ATOM      5  O   UNL     1       3.617   1.348  -0.601  1.00  0.00    -0.463 OA
BRANCH   5   6
ATOM      6  C   UNL     1       2.825   0.399  -1.139  1.00  0.00     0.308 C 
ATOM      7  O   UNL     1       1.810   0.716  -1.752  1.00  0.00    -0.252 OA
BRANCH   6   8
ATOM      8  C   UNL     1       3.167  -1.042  -0.884  1.00  0.00     0.150 C 
BRANCH   8   9
ATOM      9  C   UNL     1       3.578  -1.828  -2.105  1.00  0.00     0.122 C 
ATOM     10  C   UNL     1       3.418  -1.119  -3.469  1.00  0.00     0.185 C 
ATOM     11  N   UNL     1       3.224  -3.268  -2.244  1.00  0.00    -0.329 N 
ATOM     12  O   UNL     1       4.270  -1.743  -4.449  1.00  0.00    -0.377 OA
ATOM     13  C   UNL     1       4.059  -3.895  -3.290  1.00  0.00     0.148 C 
ATOM     14  C   UNL     1       3.936  -3.129  -4.611  1.00  0.00     0.181 C 
BRANCH  11  15
ATOM     15  C   UNL     1       2.256  -4.114  -1.663  1.00  0.00     0.273 C 
ATOM     16  O   UNL     1       2.248  -5.302  -2.003  1.00  0.00    -0.267 OA
BRANCH  15  17
ATOM     17  C   UNL     1       1.303  -3.723  -0.601  1.00  0.00     0.139 A 
ATOM     18  C   UNL     1       0.918  -4.664   0.343  1.00  0.00     0.101 A 
ATOM     19  N   UNL     1       0.622  -2.508  -0.457  1.00  0.00    -0.236 NA
ATOM     20  S   UNL     1      -0.160  -4.007   1.479  1.00  0.00    -0.126 S 
ATOM     21  C   UNL     1      -0.109  -2.502   0.652  1.00  0.00     0.098 A 
BRANCH  21  22
ATOM     22  C   UNL     1      -0.730  -1.259   1.262  1.00  0.00     0.103 C 
BRANCH  22  23
ATOM     23  C   UNL     1      -2.049  -1.424   1.995  1.00  0.00    -0.041 A 
ATOM     24  C   UNL     1      -3.263  -1.129   1.363  1.00  0.00     0.004 A 
ATOM     25  C   UNL     1      -2.087  -1.869   3.327  1.00  0.00     0.004 A 
ATOM     26  C   UNL     1      -4.476  -1.293   2.039  1.00  0.00     0.000 A 
ATOM     27  C   UNL     1      -3.298  -2.058   3.995  1.00  0.00     0.000 A 
ATOM     28  C   UNL     1      -4.494  -1.769   3.350  1.00  0.00     0.000 A 
ENDBRANCH  22  23
ENDBRANCH  21  22
ENDBRANCH  15  17
ENDBRANCH  11  15
ENDBRANCH   8   9
ENDBRANCH   6   8
ENDBRANCH   5   6
ENDBRANCH   4   5
ENDBRANCH   3   4
ENDBRANCH   2   3
ENDBRANCH   1   2
BRANCH   1  29
ATOM     29  C   UNL     1       2.506   1.485   3.034  1.00  0.00     0.188 C 
BRANCH  29  30
ATOM     30  O   UNL     1       3.100   2.741   3.338  1.00  0.00    -0.376 OA
BRANCH  30  31
ATOM     31  C   UNL     1       4.379   2.749   3.966  1.00  0.00     0.202 C 
BRANCH  31  32
ATOM     32  C   UNL     1       4.602   1.879   5.216  1.00  0.00     0.261 C 
BRANCH  32  33
ATOM     33  O   UNL     1       4.345   0.464   5.060  1.00  0.00    -0.460 OA
BRANCH  33  34
ATOM     34  C   UNL     1       3.364  -0.029   5.856  1.00  0.00     0.338 C 
ATOM     35  O   UNL     1       2.687   0.609   6.653  1.00  0.00    -0.246 OA
BRANCH  34  36
ATOM     36  C   UNL     1       3.074  -1.451   5.574  1.00  0.00     0.060 A 
ATOM     37  C   UNL     1       1.810  -1.774   5.066  1.00  0.00     0.016 A 
ATOM     38  C   UNL     1       3.932  -2.466   6.009  1.00  0.00     0.016 A 
ATOM     39  C   UNL     1       1.383  -3.103   5.043  1.00  0.00     0.010 A 
ATOM     40  C   UNL     1       3.489  -3.801   6.003  1.00  0.00     0.010 A 
ATOM     41  C   UNL     1       2.193  -4.121   5.561  1.00  0.00    -0.014 A 
BRANCH  41  42
ATOM     42  C   UNL     1       1.559  -5.437   5.858  1.00  0.00     0.031 A 
ATOM     43  C   UNL     1       0.929  -5.640   7.212  1.00  0.00     0.074 A 
ATOM     44  C   UNL     1       1.428  -6.394   4.921  1.00  0.00     0.049 A 
ATOM     45  N   UNL     1       0.304  -6.683   7.695  1.00  0.00    -0.248 NA
ATOM     46  C   UNL     1       1.019  -4.504   8.141  1.00  0.00     0.031 C 
ATOM     47  C   UNL     1       1.916  -6.293   3.550  1.00  0.00     0.029 A 
ATOM     48  N   UNL     1       0.818  -7.625   4.971  1.00  0.00    -0.354 N 
ATOM     49  C   UNL     1      -0.056  -6.340   8.995  1.00  0.00     0.074 A 
ATOM     50  C   UNL     1       0.429  -4.994   9.219  1.00  0.00     0.031 C 
ATOM     51  C   UNL     1       1.549  -7.398   2.877  1.00  0.00     0.029 A 
ATOM     52  C   UNL     1       0.846  -8.309   3.778  1.00  0.00     0.049 A 
ATOM     53  H   UNL     1       0.400  -7.984   5.787  1.00  0.00     0.167 HD
ATOM     54  C   UNL     1      -0.714  -7.082   9.921  1.00  0.00     0.034 A 
ATOM     55  C   UNL     1       0.375  -9.533   3.452  1.00  0.00     0.034 A 
ATOM     56  C   UNL     1      -1.168  -8.433   9.700  1.00  0.00     0.049 A 
ATOM     57  C   UNL     1      -0.280 -10.375   4.524  1.00  0.00     0.074 A 
ATOM     58  C   UNL     1      -1.786  -9.295  10.591  1.00  0.00     0.029 A 
ATOM     59  N   UNL     1      -1.044  -9.128   8.504  1.00  0.00    -0.354 N 
ATOM     60  N   UNL     1      -0.549 -10.067   5.772  1.00  0.00    -0.248 NA
ATOM     61  C   UNL     1      -0.672 -11.741   4.147  1.00  0.00     0.031 C 
ATOM     62  C   UNL     1      -1.972 -10.528   9.956  1.00  0.00     0.029 A 
ATOM     63  C   UNL     1      -1.545 -10.415   8.642  1.00  0.00     0.049 A 
ATOM     64  H   UNL     1      -0.657  -8.761   7.676  1.00  0.00     0.167 HD
ATOM     65  C   UNL     1      -1.154 -11.196   6.321  1.00  0.00     0.074 A 
ATOM     66  C   UNL     1      -1.233 -12.181   5.263  1.00  0.00     0.031 C 
ATOM     67  C   UNL     1      -1.602 -11.401   7.587  1.00  0.00     0.034 A 
BRANCH  54  68
ATOM     68  C   UNL     1      -0.873  -6.463  11.290  1.00  0.00     0.023 A 
ATOM     69  C   UNL     1      -1.637  -5.301  11.497  1.00  0.00     0.031 A 
ATOM     70  C   UNL     1      -0.162  -6.988  12.384  1.00  0.00     0.131 A 
ATOM     71  C   UNL     1      -1.592  -4.649  12.739  1.00  0.00     0.055 A 
ATOM     72  C   UNL     1      -0.194  -6.384  13.642  1.00  0.00     0.041 A 
ATOM     73  F   UNL     1       0.606  -8.080  12.240  1.00  0.00    -0.206 F 
ATOM     74  C   UNL     1      -0.894  -5.195  13.819  1.00  0.00     0.022 A 
BRANCH  71  75
ATOM     75  S   UNL     1      -2.292  -2.979  12.866  1.00  0.00     0.124 S 
ATOM     76  O   UNL     1      -1.567  -2.276  11.809  1.00  0.00    -0.237 OA
ATOM     77  O   UNL     1      -3.710  -3.214  12.623  1.00  0.00    -0.237 OA
ATOM     78  O   UNL     1      -1.949  -2.567  14.225  1.00  0.00    -0.744 OA
ENDBRANCH  71  75
ENDBRANCH  54  68
BRANCH  55  79
ATOM     79  C   UNL     1       0.549 -10.080   2.071  1.00  0.00     0.023 A 
ATOM     80  C   UNL     1      -0.558 -10.438   1.281  1.00  0.00     0.031 A 
ATOM     81  C   UNL     1       1.832 -10.321   1.546  1.00  0.00     0.131 A 
ATOM     82  C   UNL     1      -0.361 -11.052   0.032  1.00  0.00     0.055 A 
ATOM     83  C   UNL     1       2.022 -10.874   0.278  1.00  0.00     0.041 A 
ATOM     84  F   UNL     1       2.927 -10.016   2.260  1.00  0.00    -0.206 F 
ATOM     85  C   UNL     1       0.921 -11.255  -0.482  1.00  0.00     0.022 A 
BRANCH  82  86
ATOM     86  S   UNL     1      -1.804 -11.671  -0.879  1.00  0.00     0.124 S 
ATOM     87  O   UNL     1      -2.339 -12.659   0.052  1.00  0.00    -0.237 OA
ATOM     88  O   UNL     1      -2.598 -10.460  -1.055  1.00  0.00    -0.237 OA
ATOM     89  O   UNL     1      -1.225 -12.218  -2.104  1.00  0.00    -0.744 OA
ENDBRANCH  82  86
ENDBRANCH  55  79
BRANCH  67  90
ATOM     90  C   UNL     1      -2.248 -12.734   7.885  1.00  0.00     0.023 A 
ATOM     91  C   UNL     1      -1.515 -13.936   7.873  1.00  0.00     0.031 A 
ATOM     92  C   UNL     1      -3.622 -12.803   8.177  1.00  0.00     0.131 A 
ATOM     93  C   UNL     1      -2.170 -15.158   8.097  1.00  0.00     0.055 A 
ATOM     94  C   UNL     1      -4.256 -14.016   8.454  1.00  0.00     0.041 A 
ATOM     95  F   UNL     1      -4.371 -11.690   8.202  1.00  0.00    -0.206 F 
ATOM     96  C   UNL     1      -3.532 -15.203   8.402  1.00  0.00     0.022 A 
BRANCH  93  97
ATOM     97  S   UNL     1      -1.235 -16.701   7.900  1.00  0.00     0.124 S 
ATOM     98  O   UNL     1      -0.751 -16.592   6.528  1.00  0.00    -0.237 OA
ATOM     99  O   UNL     1      -0.222 -16.588   8.944  1.00  0.00    -0.237 OA
ATOM    100  O   UNL     1      -2.238 -17.741   8.123  1.00  0.00    -0.744 OA
ENDBRANCH  93  97
ENDBRANCH  67  90
ENDBRANCH  41  42
ENDBRANCH  34  36
ENDBRANCH  33  34
ENDBRANCH  32  33
ENDBRANCH  31  32
ENDBRANCH  30  31
ENDBRANCH  29  30
ENDBRANCH   1  29
TORSDOF 25
