REMARK SMILES O=C(OCCOCCOCCOC(=O)c1cc(OC[C@@H]2Cc3cc(F)ccc3O2)cs1)c1ccc(-c2c3nc(c(-c4cc(S(=O)(=O)[O-])ccc4F)c4ccc([nH]4)c(-c4cc(S(=O)(=O)[O-])ccc4F)c4nc(c(-c5cc(S(=O)(=O)[O-])ccc5F)c5ccc2[nH]5)C=C4)C=C3)cc1
REMARK SMILES IDX 7 1 6 2 5 3 4 4 3 5 2 6 1 7 32 8 33 9 94 10 34 11 93 12
REMARK SMILES IDX 35 13 36 14 37 15 87 16 38 17 92 18 86 19 88 20 39 21 91 22
REMARK SMILES IDX 85 23 84 24 40 26 72 27 52 28 71 29 53 30 56 31 70 32 89 33
REMARK SMILES IDX 54 34 55 35 69 37 90 38 57 39 41 40 42 41 50 42 43 43 49 44
REMARK SMILES IDX 51 45 48 46 44 47 45 48 46 49 47 50 73 51 74 52 82 53 75 54
REMARK SMILES IDX 81 55 83 56 80 57 76 58 77 59 78 60 79 61 58 62 59 63 67 64
REMARK SMILES IDX 60 65 66 66 68 67 65 68 61 69 62 70 63 71 64 72 8 73 9 74
REMARK SMILES IDX 10 75 11 76 12 77 13 78 14 79 15 80 16 81 31 82 17 83 30 84
REMARK SMILES IDX 18 85 19 86 20 87 21 88 29 89 22 90 28 91 23 92 27 93 24 94
REMARK SMILES IDX 26 95 25 96
REMARK H PARENT 88 25 56 36
REMARK Flexibility Score: inf
ROOT
ATOM      1  C   UNL     1       2.540  -0.997  -1.295  1.00  0.00     0.188 C 
ENDROOT
BRANCH   1   2
ATOM      2  O   UNL     1       3.929  -0.694  -1.234  1.00  0.00    -0.376 OA
BRANCH   2   3
ATOM      3  C   UNL     1       4.658  -1.119  -0.093  1.00  0.00     0.202 C 
BRANCH   3   4
ATOM      4  C   UNL     1       4.427  -0.354   1.214  1.00  0.00     0.261 C 
BRANCH   4   5
ATOM      5  O   UNL     1       3.084   0.099   1.426  1.00  0.00    -0.460 OA
BRANCH   5   6
ATOM      6  C   UNL     1       2.591   1.347   1.220  1.00  0.00     0.338 C 
ATOM      7  O   UNL     1       1.610   1.691   1.881  1.00  0.00    -0.246 OA
BRANCH   6   8
ATOM      8  C   UNL     1       3.039   2.253   0.104  1.00  0.00     0.060 A 
ATOM      9  C   UNL     1       2.102   3.207  -0.349  1.00  0.00     0.016 A 
ATOM     10  C   UNL     1       4.292   2.252  -0.508  1.00  0.00     0.016 A 
ATOM     11  C   UNL     1       2.402   4.114  -1.380  1.00  0.00     0.010 A 
ATOM     12  C   UNL     1       4.591   3.150  -1.542  1.00  0.00     0.010 A 
ATOM     13  C   UNL     1       3.655   4.086  -1.994  1.00  0.00    -0.014 A 
BRANCH  13  14
ATOM     14  C   UNL     1       4.089   5.101  -2.987  1.00  0.00     0.031 A 
ATOM     15  C   UNL     1       3.883   4.925  -4.461  1.00  0.00     0.074 A 
ATOM     16  C   UNL     1       4.786   6.161  -2.541  1.00  0.00     0.049 A 
ATOM     17  N   UNL     1       4.374   5.627  -5.452  1.00  0.00    -0.248 NA
ATOM     18  C   UNL     1       3.008   3.825  -4.873  1.00  0.00     0.031 C 
ATOM     19  C   UNL     1       5.027   6.460  -1.132  1.00  0.00     0.029 A 
ATOM     20  N   UNL     1       5.440   7.157  -3.221  1.00  0.00    -0.354 N 
ATOM     21  C   UNL     1       3.913   5.018  -6.617  1.00  0.00     0.074 A 
ATOM     22  C   UNL     1       3.042   3.952  -6.194  1.00  0.00     0.031 C 
ATOM     23  C   UNL     1       5.800   7.552  -1.050  1.00  0.00     0.029 A 
ATOM     24  C   UNL     1       6.137   8.009  -2.400  1.00  0.00     0.049 A 
ATOM     25  H   UNL     1       5.412   7.252  -4.200  1.00  0.00     0.167 HD
ATOM     26  C   UNL     1       4.224   5.298  -7.908  1.00  0.00     0.034 A 
ATOM     27  C   UNL     1       6.966   9.033  -2.691  1.00  0.00     0.034 A 
ATOM     28  C   UNL     1       5.059   6.404  -8.300  1.00  0.00     0.049 A 
ATOM     29  C   UNL     1       7.186   9.426  -4.128  1.00  0.00     0.074 A 
ATOM     30  C   UNL     1       5.402   6.798  -9.583  1.00  0.00     0.029 A 
ATOM     31  N   UNL     1       5.657   7.298  -7.433  1.00  0.00    -0.354 N 
ATOM     32  N   UNL     1       6.765   8.824  -5.213  1.00  0.00    -0.248 NA
ATOM     33  C   UNL     1       7.964  10.647  -4.391  1.00  0.00     0.031 C 
ATOM     34  C   UNL     1       6.279   7.872  -9.489  1.00  0.00     0.029 A 
ATOM     35  C   UNL     1       6.362   8.240  -8.156  1.00  0.00     0.049 A 
ATOM     36  H   UNL     1       5.590   7.269  -6.451  1.00  0.00     0.167 HD
ATOM     37  C   UNL     1       7.197   9.606  -6.280  1.00  0.00     0.074 A 
ATOM     38  C   UNL     1       7.903  10.733  -5.715  1.00  0.00     0.031 C 
ATOM     39  C   UNL     1       7.019   9.396  -7.605  1.00  0.00     0.034 A 
BRANCH  26  40
ATOM     40  C   UNL     1       3.731   4.423  -9.040  1.00  0.00     0.023 A 
ATOM     41  C   UNL     1       4.681   3.808  -9.887  1.00  0.00     0.031 A 
ATOM     42  C   UNL     1       2.381   4.355  -9.412  1.00  0.00     0.131 A 
ATOM     43  C   UNL     1       4.278   3.198 -11.082  1.00  0.00     0.055 A 
ATOM     44  C   UNL     1       1.978   3.715 -10.589  1.00  0.00     0.041 A 
ATOM     45  F   UNL     1       1.432   4.920  -8.649  1.00  0.00    -0.206 F 
ATOM     46  C   UNL     1       2.929   3.151 -11.440  1.00  0.00     0.022 A 
BRANCH  43  47
ATOM     47  S   UNL     1       5.476   2.370 -12.162  1.00  0.00     0.124 S 
ATOM     48  O   UNL     1       4.990   0.991 -12.130  1.00  0.00    -0.237 OA
ATOM     49  O   UNL     1       5.298   3.072 -13.428  1.00  0.00    -0.237 OA
ATOM     50  O   UNL     1       6.756   2.574 -11.493  1.00  0.00    -0.744 OA
ENDBRANCH  43  47
ENDBRANCH  26  40
BRANCH  27  51
ATOM     51  C   UNL     1       7.557   9.794  -1.557  1.00  0.00     0.023 A 
ATOM     52  C   UNL     1       8.435   9.169  -0.652  1.00  0.00     0.031 A 
ATOM     53  C   UNL     1       7.101  11.088  -1.260  1.00  0.00     0.131 A 
ATOM     54  C   UNL     1       8.760   9.809   0.550  1.00  0.00     0.055 A 
ATOM     55  C   UNL     1       7.488  11.752  -0.097  1.00  0.00     0.041 A 
ATOM     56  F   UNL     1       6.242  11.708  -2.084  1.00  0.00    -0.206 F 
ATOM     57  C   UNL     1       8.303  11.102   0.826  1.00  0.00     0.022 A 
BRANCH  54  58
ATOM     58  S   UNL     1       9.618   8.910   1.873  1.00  0.00     0.124 S 
ATOM     59  O   UNL     1      10.894   9.615   1.939  1.00  0.00    -0.237 OA
ATOM     60  O   UNL     1       8.723   9.116   3.009  1.00  0.00    -0.237 OA
ATOM     61  O   UNL     1       9.676   7.539   1.376  1.00  0.00    -0.744 OA
ENDBRANCH  54  58
ENDBRANCH  27  51
BRANCH  39  62
ATOM     62  C   UNL     1       7.533  10.387  -8.620  1.00  0.00     0.023 A 
ATOM     63  C   UNL     1       6.612  10.996  -9.499  1.00  0.00     0.031 A 
ATOM     64  C   UNL     1       8.902  10.485  -8.911  1.00  0.00     0.131 A 
ATOM     65  C   UNL     1       7.069  11.605 -10.673  1.00  0.00     0.055 A 
ATOM     66  C   UNL     1       9.355  11.139 -10.059  1.00  0.00     0.041 A 
ATOM     67  F   UNL     1       9.812   9.897  -8.119  1.00  0.00    -0.206 F 
ATOM     68  C   UNL     1       8.437  11.681 -10.957  1.00  0.00     0.022 A 
BRANCH  65  69
ATOM     69  S   UNL     1       5.905  12.184 -11.940  1.00  0.00     0.124 S 
ATOM     70  O   UNL     1       6.227  13.607 -12.017  1.00  0.00    -0.237 OA
ATOM     71  O   UNL     1       6.296  11.393 -13.103  1.00  0.00    -0.237 OA
ATOM     72  O   UNL     1       4.592  11.874 -11.382  1.00  0.00    -0.744 OA
ENDBRANCH  65  69
ENDBRANCH  39  62
ENDBRANCH  13  14
ENDBRANCH   6   8
ENDBRANCH   5   6
ENDBRANCH   4   5
ENDBRANCH   3   4
ENDBRANCH   2   3
ENDBRANCH   1   2
BRANCH   1  73
ATOM     73  C   UNL     1       2.091  -2.464  -1.208  1.00  0.00     0.188 C 
BRANCH  73  74
ATOM     74  O   UNL     1       3.139  -3.424  -1.161  1.00  0.00    -0.376 OA
BRANCH  74  75
ATOM     75  C   UNL     1       3.380  -4.122  -2.378  1.00  0.00     0.202 C 
BRANCH  75  76
ATOM     76  C   UNL     1       4.093  -3.291  -3.441  1.00  0.00     0.261 C 
BRANCH  76  77
ATOM     77  O   UNL     1       3.334  -2.202  -3.976  1.00  0.00    -0.459 OA
BRANCH  77  78
ATOM     78  C   UNL     1       2.187  -2.479  -4.654  1.00  0.00     0.348 C 
ATOM     79  O   UNL     1       1.636  -3.556  -4.717  1.00  0.00    -0.245 OA
BRANCH  78  80
ATOM     80  C   UNL     1       1.845  -1.294  -5.387  1.00  0.00     0.116 A 
ATOM     81  C   UNL     1       2.461  -0.883  -6.542  1.00  0.00     0.074 A 
ATOM     82  S   UNL     1       0.665  -0.195  -4.852  1.00  0.00    -0.133 S 
ATOM     83  C   UNL     1       2.094   0.429  -6.900  1.00  0.00     0.131 A 
ATOM     84  C   UNL     1       1.082   0.912  -6.096  1.00  0.00     0.112 A 
BRANCH  83  85
ATOM     85  O   UNL     1       2.608   1.204  -7.879  1.00  0.00    -0.489 OA
BRANCH  85  86
ATOM     86  C   UNL     1       3.694   0.652  -8.626  1.00  0.00     0.275 C 
BRANCH  86  87
ATOM     87  C   UNL     1       5.119   0.856  -8.052  1.00  0.00     0.215 C 
ATOM     88  C   UNL     1       5.783  -0.458  -7.604  1.00  0.00     0.088 C 
ATOM     89  O   UNL     1       5.189   1.824  -6.974  1.00  0.00    -0.486 OA
ATOM     90  C   UNL     1       6.045  -0.164  -6.180  1.00  0.00     0.001 A 
ATOM     91  C   UNL     1       5.775   1.169  -5.927  1.00  0.00     0.123 A 
ATOM     92  C   UNL     1       6.568  -0.984  -5.195  1.00  0.00     0.047 A 
ATOM     93  C   UNL     1       6.097   1.755  -4.718  1.00  0.00     0.050 A 
ATOM     94  C   UNL     1       6.853  -0.414  -3.957  1.00  0.00     0.123 A 
ATOM     95  C   UNL     1       6.650   0.948  -3.720  1.00  0.00     0.043 A 
ATOM     96  F   UNL     1       7.356  -1.184  -2.981  1.00  0.00    -0.207 F 
ENDBRANCH  86  87
ENDBRANCH  85  86
ENDBRANCH  83  85
ENDBRANCH  78  80
ENDBRANCH  77  78
ENDBRANCH  76  77
ENDBRANCH  75  76
ENDBRANCH  74  75
ENDBRANCH  73  74
ENDBRANCH   1  73
TORSDOF 23
