REMARK SMILES CC(=O)NCCc1c[nH]c2ccc(C(=O)OCCOCCOCCOC(=O)c3ccc(-c4c5nc(c(-c6cc(S(=O)(=O)[O-])ccc6F)c6ccc([nH]6)c(-c6cc(S(=O)(=O)[O-])ccc6F)c6nc(c(-c7cc(S(=O)(=O)[O-])ccc7F)c7ccc4[nH]7)C=C6)C=C5)cc3)cc12
REMARK SMILES IDX 20 1 19 2 18 3 17 4 16 5 14 6 15 7 13 8 7 9 8 10 92 11 9 12
REMARK SMILES IDX 10 13 91 14 11 16 12 17 6 18 5 19 4 20 1 21 2 22 3 23 21 25
REMARK SMILES IDX 22 26 23 27 24 28 25 29 26 30 27 31 28 32 29 33 90 34 30 35
REMARK SMILES IDX 89 36 31 37 32 38 33 39 83 40 34 41 88 42 82 43 84 44 35 45
REMARK SMILES IDX 87 46 81 47 80 48 36 50 68 51 48 52 67 53 49 54 52 55 66 56
REMARK SMILES IDX 85 57 50 58 51 59 65 61 86 62 53 63 37 64 38 65 46 66 39 67
REMARK SMILES IDX 45 68 47 69 44 70 40 71 41 72 42 73 43 74 69 75 70 76 78 77
REMARK SMILES IDX 71 78 77 79 79 80 76 81 72 82 73 83 74 84 75 85 54 86 55 87
REMARK SMILES IDX 63 88 56 89 62 90 64 91 61 92 57 93 58 94 59 95 60 96
REMARK H PARENT 9 15 4 24 84 49 52 60
REMARK Flexibility Score: inf
ROOT
ATOM      1  C   UNL     1       2.281   8.540  -2.593  1.00  0.00     0.188 C 
ENDROOT
BRANCH   1   2
ATOM      2  O   UNL     1       2.949   9.753  -2.282  1.00  0.00    -0.376 OA
BRANCH   2   3
ATOM      3  C   UNL     1       3.599  10.490  -3.307  1.00  0.00     0.202 C 
BRANCH   3   4
ATOM      4  C   UNL     1       4.555   9.800  -4.288  1.00  0.00     0.261 C 
BRANCH   4   5
ATOM      5  O   UNL     1       4.026   8.620  -4.908  1.00  0.00    -0.460 OA
BRANCH   5   6
ATOM      6  C   UNL     1       4.710   7.476  -4.642  1.00  0.00     0.338 C 
ATOM      7  O   UNL     1       5.741   7.373  -4.008  1.00  0.00    -0.246 OA
BRANCH   6   8
ATOM      8  C   UNL     1       3.934   6.304  -5.111  1.00  0.00     0.060 A 
ATOM      9  C   UNL     1       2.834   2.791  -4.041  1.00  0.00    -0.021 A 
ATOM     10  C   UNL     1       2.224   2.023  -5.016  1.00  0.00     0.087 A 
ATOM     11  C   UNL     1       3.142   4.051  -4.655  1.00  0.00     0.003 A 
ATOM     12  N   UNL     1       2.054   2.791  -6.133  1.00  0.00    -0.361 N 
ATOM     13  C   UNL     1       2.596   4.039  -5.940  1.00  0.00     0.046 A 
ATOM     14  C   UNL     1       3.834   5.206  -4.238  1.00  0.00     0.026 A 
ATOM     15  H   UNL     1       1.607   2.492  -6.958  1.00  0.00     0.166 HD
ATOM     16  C   UNL     1       2.651   5.141  -6.807  1.00  0.00     0.027 A 
ATOM     17  C   UNL     1       3.327   6.283  -6.367  1.00  0.00     0.018 A 
BRANCH   9  18
ATOM     18  C   UNL     1       3.131   2.358  -2.628  1.00  0.00     0.059 C 
BRANCH  18  19
ATOM     19  C   UNL     1       1.875   2.267  -1.745  1.00  0.00     0.120 C 
BRANCH  19  20
ATOM     20  N   UNL     1       0.995   1.176  -2.135  1.00  0.00    -0.356 N 
ATOM     21  C   UNL     1       1.108  -0.082  -0.017  1.00  0.00     0.114 C 
ATOM     22  C   UNL     1       0.643   0.058  -1.439  1.00  0.00     0.216 C 
ATOM     23  O   UNL     1      -0.043  -0.797  -1.999  1.00  0.00    -0.275 OA
ATOM     24  H   UNL     1       0.595   1.257  -3.031  1.00  0.00     0.163 HD
ENDBRANCH  19  20
ENDBRANCH  18  19
ENDBRANCH   9  18
ENDBRANCH   6   8
ENDBRANCH   5   6
ENDBRANCH   4   5
ENDBRANCH   3   4
ENDBRANCH   2   3
ENDBRANCH   1   2
BRANCH   1  25
ATOM     25  C   UNL     1       1.253   8.487  -3.742  1.00  0.00     0.188 C 
BRANCH  25  26
ATOM     26  O   UNL     1       1.071   9.658  -4.503  1.00  0.00    -0.376 OA
BRANCH  26  27
ATOM     27  C   UNL     1       0.214  10.696  -4.061  1.00  0.00     0.202 C 
BRANCH  27  28
ATOM     28  C   UNL     1      -0.588  10.738  -2.746  1.00  0.00     0.261 C 
BRANCH  28  29
ATOM     29  O   UNL     1      -0.357   9.724  -1.771  1.00  0.00    -0.460 OA
BRANCH  29  30
ATOM     30  C   UNL     1      -1.315   8.767  -1.697  1.00  0.00     0.338 C 
ATOM     31  O   UNL     1      -2.295   8.652  -2.411  1.00  0.00    -0.246 OA
BRANCH  30  32
ATOM     32  C   UNL     1      -0.898   7.761  -0.705  1.00  0.00     0.060 A 
ATOM     33  C   UNL     1      -0.618   6.465  -1.149  1.00  0.00     0.016 A 
ATOM     34  C   UNL     1      -0.824   8.083   0.652  1.00  0.00     0.016 A 
ATOM     35  C   UNL     1      -0.284   5.475  -0.227  1.00  0.00     0.010 A 
ATOM     36  C   UNL     1      -0.500   7.084   1.576  1.00  0.00     0.010 A 
ATOM     37  C   UNL     1      -0.251   5.769   1.143  1.00  0.00    -0.014 A 
BRANCH  37  38
ATOM     38  C   UNL     1      -0.137   4.662   2.124  1.00  0.00     0.031 A 
ATOM     39  C   UNL     1      -1.398   4.110   2.728  1.00  0.00     0.074 A 
ATOM     40  C   UNL     1       1.058   4.135   2.447  1.00  0.00     0.049 A 
ATOM     41  N   UNL     1      -1.548   3.193   3.646  1.00  0.00    -0.248 NA
ATOM     42  C   UNL     1      -2.659   4.675   2.223  1.00  0.00     0.031 C 
ATOM     43  C   UNL     1       2.344   4.546   1.887  1.00  0.00     0.029 A 
ATOM     44  N   UNL     1       1.381   3.142   3.339  1.00  0.00    -0.354 N 
ATOM     45  C   UNL     1      -2.921   3.070   3.834  1.00  0.00     0.074 A 
ATOM     46  C   UNL     1      -3.554   4.032   2.956  1.00  0.00     0.031 C 
ATOM     47  C   UNL     1       3.321   3.824   2.465  1.00  0.00     0.029 A 
ATOM     48  C   UNL     1       2.735   2.932   3.465  1.00  0.00     0.049 A 
ATOM     49  H   UNL     1       0.708   2.629   3.842  1.00  0.00     0.167 HD
ATOM     50  C   UNL     1      -3.593   2.228   4.658  1.00  0.00     0.034 A 
ATOM     51  C   UNL     1       3.420   2.140   4.316  1.00  0.00     0.034 A 
ATOM     52  C   UNL     1      -2.949   1.291   5.545  1.00  0.00     0.049 A 
ATOM     53  C   UNL     1       2.656   1.290   5.306  1.00  0.00     0.074 A 
ATOM     54  C   UNL     1      -3.532   0.392   6.421  1.00  0.00     0.029 A 
ATOM     55  N   UNL     1      -1.574   1.141   5.681  1.00  0.00    -0.354 N 
ATOM     56  N   UNL     1       1.358   1.182   5.476  1.00  0.00    -0.248 NA
ATOM     57  C   UNL     1       3.451   0.453   6.215  1.00  0.00     0.031 C 
ATOM     58  C   UNL     1      -2.513  -0.245   7.139  1.00  0.00     0.029 A 
ATOM     59  C   UNL     1      -1.292   0.191   6.651  1.00  0.00     0.049 A 
ATOM     60  H   UNL     1      -0.899   1.636   5.164  1.00  0.00     0.167 HD
ATOM     61  C   UNL     1       1.184   0.238   6.488  1.00  0.00     0.074 A 
ATOM     62  C   UNL     1       2.508  -0.198   6.880  1.00  0.00     0.031 C 
ATOM     63  C   UNL     1       0.034  -0.232   7.037  1.00  0.00     0.034 A 
BRANCH  50  64
ATOM     64  C   UNL     1      -5.098   2.339   4.679  1.00  0.00     0.023 A 
ATOM     65  C   UNL     1      -5.879   2.044   3.547  1.00  0.00     0.031 A 
ATOM     66  C   UNL     1      -5.759   2.784   5.837  1.00  0.00     0.131 A 
ATOM     67  C   UNL     1      -7.264   2.268   3.576  1.00  0.00     0.055 A 
ATOM     68  C   UNL     1      -7.146   2.926   5.885  1.00  0.00     0.041 A 
ATOM     69  F   UNL     1      -5.063   3.106   6.939  1.00  0.00    -0.206 F 
ATOM     70  C   UNL     1      -7.906   2.683   4.745  1.00  0.00     0.022 A 
BRANCH  67  71
ATOM     71  S   UNL     1      -8.194   2.156   2.022  1.00  0.00     0.124 S 
ATOM     72  O   UNL     1      -7.505   3.142   1.194  1.00  0.00    -0.237 OA
ATOM     73  O   UNL     1      -8.009   0.760   1.644  1.00  0.00    -0.237 OA
ATOM     74  O   UNL     1      -9.555   2.522   2.411  1.00  0.00    -0.744 OA
ENDBRANCH  67  71
ENDBRANCH  50  64
BRANCH  51  75
ATOM     75  C   UNL     1       4.912   2.141   4.320  1.00  0.00     0.023 A 
ATOM     76  C   UNL     1       5.641   0.981   4.014  1.00  0.00     0.031 A 
ATOM     77  C   UNL     1       5.631   3.289   4.701  1.00  0.00     0.131 A 
ATOM     78  C   UNL     1       7.039   0.980   4.141  1.00  0.00     0.055 A 
ATOM     79  C   UNL     1       7.025   3.298   4.772  1.00  0.00     0.041 A 
ATOM     80  F   UNL     1       4.983   4.424   5.009  1.00  0.00    -0.206 F 
ATOM     81  C   UNL     1       7.737   2.133   4.505  1.00  0.00     0.022 A 
BRANCH  78  82
ATOM     82  S   UNL     1       7.929  -0.584   3.909  1.00  0.00     0.124 S 
ATOM     83  O   UNL     1       7.318  -1.426   4.931  1.00  0.00    -0.237 OA
ATOM     84  O   UNL     1       7.601  -0.914   2.526  1.00  0.00    -0.237 OA
ATOM     85  O   UNL     1       9.324  -0.221   4.148  1.00  0.00    -0.744 OA
ENDBRANCH  78  82
ENDBRANCH  51  75
BRANCH  63  86
ATOM     86  C   UNL     1       0.159  -1.318   8.081  1.00  0.00     0.023 A 
ATOM     87  C   UNL     1       0.742  -1.082   9.338  1.00  0.00     0.031 A 
ATOM     88  C   UNL     1      -0.317  -2.614   7.808  1.00  0.00     0.131 A 
ATOM     89  C   UNL     1       0.883  -2.138  10.253  1.00  0.00     0.055 A 
ATOM     90  C   UNL     1      -0.231  -3.644   8.745  1.00  0.00     0.041 A 
ATOM     91  F   UNL     1      -0.882  -2.898   6.623  1.00  0.00    -0.206 F 
ATOM     92  C   UNL     1       0.384  -3.412   9.971  1.00  0.00     0.022 A 
BRANCH  89  93
ATOM     93  S   UNL     1       1.808  -1.847  11.787  1.00  0.00     0.124 S 
ATOM     94  O   UNL     1       3.107  -1.416  11.280  1.00  0.00    -0.237 OA
ATOM     95  O   UNL     1       1.008  -0.820  12.445  1.00  0.00    -0.237 OA
ATOM     96  O   UNL     1       1.801  -3.153  12.445  1.00  0.00    -0.744 OA
ENDBRANCH  89  93
ENDBRANCH  63  86
ENDBRANCH  37  38
ENDBRANCH  30  32
ENDBRANCH  29  30
ENDBRANCH  28  29
ENDBRANCH  27  28
ENDBRANCH  26  27
ENDBRANCH  25  26
ENDBRANCH   1  25
TORSDOF 23
