REMARK SMILES CC(C)Cn1c([C@@H](O)[C@@H](O)C(=O)OCCOCCOCCOC(=O)c2ccc(-c3c4nc(c(-c5cc(S(=O)(=O)[O-])ccc5F)c5ccc([nH]5)c(-c5cc(S(=O)(=O)[O-])ccc5F)c5nc(c(-c6cc(S(=O)(=O)[O-])ccc6F)c6ccc3[nH]6)C=C5)C=C4)cc2)nc2cc(Cl)ccc21
REMARK SMILES IDX 17 1 16 2 15 3 14 4 13 5 11 6 12 7 9 8 7 9 6 10 5 11 95 12
REMARK SMILES IDX 88 13 89 14 94 15 90 16 93 17 91 18 92 19 4 20 2 21 1 22
REMARK SMILES IDX 3 23 8 24 10 26 18 28 19 29 20 30 21 31 22 32 23 33 24 34
REMARK SMILES IDX 25 35 26 36 87 37 27 38 86 39 28 40 29 41 30 42 80 43 31 44
REMARK SMILES IDX 85 45 79 46 81 47 32 48 84 49 78 50 77 51 33 53 65 54 45 55
REMARK SMILES IDX 64 56 46 57 49 58 63 59 82 60 47 61 48 62 62 64 83 65 50 66
REMARK SMILES IDX 34 67 35 68 43 69 36 70 42 71 44 72 41 73 37 74 38 75 39 76
REMARK SMILES IDX 40 77 66 78 67 79 75 80 68 81 74 82 76 83 73 84 69 85 70 86
REMARK SMILES IDX 71 87 72 88 51 89 52 90 60 91 53 92 59 93 61 94 58 95 54 96
REMARK SMILES IDX 55 97 56 98 57 99
REMARK H PARENT 8 25 10 27 81 52 49 63
REMARK Flexibility Score: inf
ROOT
ATOM      1  C   UNL     1       0.634  -7.423   2.466  1.00  0.00     0.188 C 
ENDROOT
BRANCH   1   2
ATOM      2  O   UNL     1       1.476  -7.703   3.566  1.00  0.00    -0.376 OA
BRANCH   2   3
ATOM      3  C   UNL     1       2.070  -6.621   4.272  1.00  0.00     0.202 C 
BRANCH   3   4
ATOM      4  C   UNL     1       2.674  -5.439   3.499  1.00  0.00     0.261 C 
BRANCH   4   5
ATOM      5  O   UNL     1       1.697  -4.498   2.970  1.00  0.00    -0.461 OA
BRANCH   5   6
ATOM      6  C   UNL     1       1.788  -4.312   1.628  1.00  0.00     0.338 C 
ATOM      7  O   UNL     1       2.703  -4.822   0.977  1.00  0.00    -0.249 OA
BRANCH   6   8
ATOM      8  C   UNL     1       0.675  -3.497   0.914  1.00  0.00     0.260 C 
BRANCH   8   9
ATOM      9  C   UNL     1      -0.670  -2.925   1.410  1.00  0.00     0.220 C 
BRANCH   9  10
ATOM     10  C   UNL     1      -1.317  -2.128   0.264  1.00  0.00     0.142 A 
ATOM     11  N   UNL     1      -1.463  -0.760   0.245  1.00  0.00    -0.325 N 
ATOM     12  C   UNL     1      -2.116  -0.401  -0.915  1.00  0.00     0.068 A 
ATOM     13  N   UNL     1      -1.804  -2.646  -0.851  1.00  0.00    -0.230 NA
ATOM     14  C   UNL     1      -2.269  -1.595  -1.613  1.00  0.00     0.090 A 
ATOM     15  C   UNL     1      -2.553   0.827  -1.429  1.00  0.00     0.030 A 
ATOM     16  C   UNL     1      -2.859  -1.589  -2.891  1.00  0.00     0.051 A 
ATOM     17  C   UNL     1      -3.181   0.814  -2.680  1.00  0.00     0.023 A 
ATOM     18  C   UNL     1      -3.328  -0.372  -3.399  1.00  0.00     0.043 A 
ATOM     19  Cl  UNL     1      -4.137  -0.335  -4.924  1.00  0.00    -0.084 Cl
BRANCH  11  20
ATOM     20  C   UNL     1      -1.003   0.142   1.283  1.00  0.00     0.127 C 
BRANCH  20  21
ATOM     21  C   UNL     1       0.524   0.170   1.428  1.00  0.00     0.003 C 
ATOM     22  C   UNL     1       1.223   0.668   0.164  1.00  0.00     0.009 C 
ATOM     23  C   UNL     1       0.959   0.921   2.674  1.00  0.00     0.009 C 
ENDBRANCH  20  21
ENDBRANCH  11  20
ENDBRANCH   9  10
BRANCH   9  24
ATOM     24  O   UNL     1      -1.656  -3.900   1.747  1.00  0.00    -0.382 OA
ATOM     25  H   UNL     1      -1.888  -4.412   0.957  1.00  0.00     0.211 HD
ENDBRANCH   9  24
ENDBRANCH   8   9
BRANCH   8  26
ATOM     26  O   UNL     1       1.461  -2.418   0.362  1.00  0.00    -0.379 OA
ATOM     27  H   UNL     1       1.803  -1.866   1.082  1.00  0.00     0.211 HD
ENDBRANCH   8  26
ENDBRANCH   6   8
ENDBRANCH   5   6
ENDBRANCH   4   5
ENDBRANCH   3   4
ENDBRANCH   2   3
ENDBRANCH   1   2
BRANCH   1  28
ATOM     28  C   UNL     1      -0.401  -6.317   2.624  1.00  0.00     0.188 C 
BRANCH  28  29
ATOM     29  O   UNL     1      -0.801  -5.867   3.891  1.00  0.00    -0.376 OA
BRANCH  29  30
ATOM     30  C   UNL     1      -1.560  -6.765   4.671  1.00  0.00     0.202 C 
BRANCH  30  31
ATOM     31  C   UNL     1      -2.569  -7.771   4.045  1.00  0.00     0.261 C 
BRANCH  31  32
ATOM     32  O   UNL     1      -2.326  -8.197   2.683  1.00  0.00    -0.460 OA
BRANCH  32  33
ATOM     33  C   UNL     1      -3.220  -7.798   1.724  1.00  0.00     0.338 C 
ATOM     34  O   UNL     1      -4.374  -7.447   1.938  1.00  0.00    -0.246 OA
BRANCH  33  35
ATOM     35  C   UNL     1      -2.484  -7.521   0.433  1.00  0.00     0.060 A 
ATOM     36  C   UNL     1      -1.385  -8.275   0.009  1.00  0.00     0.016 A 
ATOM     37  C   UNL     1      -2.715  -6.286  -0.190  1.00  0.00     0.016 A 
ATOM     38  C   UNL     1      -0.464  -7.734  -0.918  1.00  0.00     0.010 A 
ATOM     39  C   UNL     1      -1.799  -5.765  -1.129  1.00  0.00     0.010 A 
ATOM     40  C   UNL     1      -0.621  -6.441  -1.462  1.00  0.00    -0.014 A 
BRANCH  40  41
ATOM     41  C   UNL     1       0.207  -6.005  -2.632  1.00  0.00     0.031 A 
ATOM     42  C   UNL     1      -0.007  -6.899  -3.775  1.00  0.00     0.074 A 
ATOM     43  C   UNL     1       1.073  -4.990  -2.897  1.00  0.00     0.049 A 
ATOM     44  N   UNL     1       0.845  -7.792  -4.149  1.00  0.00    -0.248 NA
ATOM     45  C   UNL     1      -1.309  -6.957  -4.431  1.00  0.00     0.031 C 
ATOM     46  C   UNL     1       1.612  -4.016  -1.994  1.00  0.00     0.029 A 
ATOM     47  N   UNL     1       1.699  -4.598  -4.066  1.00  0.00    -0.354 N 
ATOM     48  C   UNL     1       0.282  -8.389  -5.255  1.00  0.00     0.074 A 
ATOM     49  C   UNL     1      -1.103  -7.976  -5.267  1.00  0.00     0.031 C 
ATOM     50  C   UNL     1       2.176  -2.964  -2.621  1.00  0.00     0.029 A 
ATOM     51  C   UNL     1       2.266  -3.315  -4.021  1.00  0.00     0.049 A 
ATOM     52  H   UNL     1       1.743  -5.171  -4.865  1.00  0.00     0.167 HD
ATOM     53  C   UNL     1       1.074  -8.983  -6.187  1.00  0.00     0.034 A 
ATOM     54  C   UNL     1       3.139  -2.656  -4.831  1.00  0.00     0.034 A 
ATOM     55  C   UNL     1       2.412  -9.211  -5.689  1.00  0.00     0.049 A 
ATOM     56  C   UNL     1       3.868  -3.658  -5.622  1.00  0.00     0.074 A 
ATOM     57  C   UNL     1       2.944  -9.904  -4.619  1.00  0.00     0.029 A 
ATOM     58  N   UNL     1       3.418  -8.384  -6.126  1.00  0.00    -0.354 N 
ATOM     59  N   UNL     1       4.830  -4.388  -5.137  1.00  0.00    -0.248 NA
ATOM     60  C   UNL     1       3.192  -4.178  -6.794  1.00  0.00     0.031 C 
ATOM     61  C   UNL     1       4.058  -9.132  -4.183  1.00  0.00     0.029 A 
ATOM     62  C   UNL     1       4.190  -8.044  -5.044  1.00  0.00     0.049 A 
ATOM     63  H   UNL     1       3.562  -8.088  -7.054  1.00  0.00     0.167 HD
ATOM     64  C   UNL     1       4.534  -5.657  -5.602  1.00  0.00     0.074 A 
ATOM     65  C   UNL     1       3.568  -5.452  -6.683  1.00  0.00     0.031 C 
ATOM     66  C   UNL     1       4.871  -6.773  -4.894  1.00  0.00     0.034 A 
BRANCH  53  67
ATOM     67  C   UNL     1       0.710  -9.032  -7.642  1.00  0.00     0.023 A 
ATOM     68  C   UNL     1      -0.324  -8.253  -8.194  1.00  0.00     0.031 A 
ATOM     69  C   UNL     1       1.531  -9.710  -8.559  1.00  0.00     0.131 A 
ATOM     70  C   UNL     1      -0.547  -8.196  -9.572  1.00  0.00     0.055 A 
ATOM     71  C   UNL     1       1.360  -9.591  -9.943  1.00  0.00     0.041 A 
ATOM     72  F   UNL     1       2.560 -10.462  -8.141  1.00  0.00    -0.206 F 
ATOM     73  C   UNL     1       0.312  -8.835 -10.456  1.00  0.00     0.022 A 
BRANCH  70  74
ATOM     74  S   UNL     1      -1.967  -7.279 -10.227  1.00  0.00     0.124 S 
ATOM     75  O   UNL     1      -1.318  -6.293 -11.083  1.00  0.00    -0.237 OA
ATOM     76  O   UNL     1      -2.703  -8.335 -10.918  1.00  0.00    -0.237 OA
ATOM     77  O   UNL     1      -2.619  -6.755  -9.030  1.00  0.00    -0.744 OA
ENDBRANCH  70  74
ENDBRANCH  53  67
BRANCH  54  78
ATOM     78  C   UNL     1       2.949  -1.261  -5.311  1.00  0.00     0.023 A 
ATOM     79  C   UNL     1       1.716  -0.614  -5.133  1.00  0.00     0.031 A 
ATOM     80  C   UNL     1       3.876  -0.644  -6.174  1.00  0.00     0.131 A 
ATOM     81  C   UNL     1       1.399   0.532  -5.878  1.00  0.00     0.055 A 
ATOM     82  C   UNL     1       3.566   0.518  -6.894  1.00  0.00     0.041 A 
ATOM     83  F   UNL     1       5.082  -1.192  -6.386  1.00  0.00    -0.206 F 
ATOM     84  C   UNL     1       2.311   1.100  -6.766  1.00  0.00     0.022 A 
BRANCH  81  85
ATOM     85  S   UNL     1      -0.249   1.258  -5.727  1.00  0.00     0.124 S 
ATOM     86  O   UNL     1       0.002   2.688  -5.897  1.00  0.00    -0.237 OA
ATOM     87  O   UNL     1      -0.959   0.609  -6.821  1.00  0.00    -0.237 OA
ATOM     88  O   UNL     1      -0.638   0.870  -4.377  1.00  0.00    -0.744 OA
ENDBRANCH  81  85
ENDBRANCH  54  78
BRANCH  66  89
ATOM     89  C   UNL     1       5.831  -6.663  -3.726  1.00  0.00     0.023 A 
ATOM     90  C   UNL     1       6.879  -7.601  -3.686  1.00  0.00     0.031 A 
ATOM     91  C   UNL     1       5.626  -5.872  -2.579  1.00  0.00     0.131 A 
ATOM     92  C   UNL     1       7.634  -7.781  -2.522  1.00  0.00     0.055 A 
ATOM     93  C   UNL     1       6.427  -6.010  -1.436  1.00  0.00     0.041 A 
ATOM     94  F   UNL     1       4.604  -5.009  -2.496  1.00  0.00    -0.206 F 
ATOM     95  C   UNL     1       7.422  -6.983  -1.396  1.00  0.00     0.022 A 
BRANCH  92  96
ATOM     96  S   UNL     1       8.791  -9.170  -2.396  1.00  0.00     0.124 S 
ATOM     97  O   UNL     1      10.076  -8.492  -2.246  1.00  0.00    -0.237 OA
ATOM     98  O   UNL     1       8.311  -9.871  -1.206  1.00  0.00    -0.237 OA
ATOM     99  O   UNL     1       8.613  -9.896  -3.650  1.00  0.00    -0.744 OA
ENDBRANCH  92  96
ENDBRANCH  66  89
ENDBRANCH  40  41
ENDBRANCH  33  35
ENDBRANCH  32  33
ENDBRANCH  31  32
ENDBRANCH  30  31
ENDBRANCH  29  30
ENDBRANCH  28  29
ENDBRANCH   1  28
TORSDOF 26
