REMARK SMILES O=C(OCCOCCOCCOC(=O)c1cccc2c(C(F)(F)F)cc(Br)nc12)c1ccc(-c2c3nc(c(-c4cc(S(=O)(=O)[O-])ccc4F)c4ccc([nH]4)c(-c4cc(S(=O)(=O)[O-])ccc4F)c4nc(c(-c5cc(S(=O)(=O)[O-])ccc5F)c5ccc2[nH]5)C=C4)C=C3)cc1
REMARK SMILES IDX 7 1 6 2 5 3 4 4 3 5 2 6 1 7 30 8 31 9 92 10 32 11 91 12
REMARK SMILES IDX 33 13 34 14 35 15 85 16 36 17 90 18 84 19 86 20 37 21 89 22
REMARK SMILES IDX 83 23 82 24 38 26 70 27 50 28 69 29 51 30 54 31 68 32 87 33
REMARK SMILES IDX 52 34 53 35 67 37 88 38 55 39 39 40 40 41 48 42 41 43 47 44
REMARK SMILES IDX 49 45 46 46 42 47 43 48 44 49 45 50 71 51 72 52 80 53 73 54
REMARK SMILES IDX 79 55 81 56 78 57 74 58 75 59 76 60 77 61 56 62 57 63 65 64
REMARK SMILES IDX 58 65 64 66 66 67 63 68 59 69 60 70 61 71 62 72 8 73 9 74
REMARK SMILES IDX 10 75 11 76 12 77 13 78 14 79 15 80 16 81 29 82 17 83 19 84
REMARK SMILES IDX 28 85 18 86 20 87 26 88 25 89 27 90 21 91 22 92 23 93 24 94
REMARK H PARENT 86 25 54 36
REMARK Flexibility Score: inf
ROOT
ATOM      1  C   UNL     1       2.755   1.061  -1.163  1.00  0.00     0.188 C 
ENDROOT
BRANCH   1   2
ATOM      2  O   UNL     1       4.137   0.737  -1.042  1.00  0.00    -0.376 OA
BRANCH   2   3
ATOM      3  C   UNL     1       4.518  -0.450  -1.726  1.00  0.00     0.202 C 
BRANCH   3   4
ATOM      4  C   UNL     1       4.620  -1.642  -0.779  1.00  0.00     0.261 C 
BRANCH   4   5
ATOM      5  O   UNL     1       3.367  -1.957  -0.144  1.00  0.00    -0.460 OA
BRANCH   5   6
ATOM      6  C   UNL     1       2.804  -1.521   1.006  1.00  0.00     0.338 C 
ATOM      7  O   UNL     1       1.746  -2.057   1.344  1.00  0.00    -0.246 OA
BRANCH   6   8
ATOM      8  C   UNL     1       3.310  -0.403   1.877  1.00  0.00     0.060 A 
ATOM      9  C   UNL     1       2.394   0.104   2.825  1.00  0.00     0.016 A 
ATOM     10  C   UNL     1       4.596   0.142   1.881  1.00  0.00     0.016 A 
ATOM     11  C   UNL     1       2.762   1.080   3.761  1.00  0.00     0.010 A 
ATOM     12  C   UNL     1       4.973   1.117   2.817  1.00  0.00     0.010 A 
ATOM     13  C   UNL     1       4.070   1.570   3.781  1.00  0.00    -0.014 A 
BRANCH  13  14
ATOM     14  C   UNL     1       4.566   2.375   4.921  1.00  0.00     0.031 A 
ATOM     15  C   UNL     1       4.785   3.851   4.819  1.00  0.00     0.074 A 
ATOM     16  C   UNL     1       4.907   1.714   6.045  1.00  0.00     0.049 A 
ATOM     17  N   UNL     1       5.131   4.689   5.760  1.00  0.00    -0.248 NA
ATOM     18  C   UNL     1       4.610   4.468   3.496  1.00  0.00     0.031 C 
ATOM     19  C   UNL     1       4.814   0.263   6.218  1.00  0.00     0.029 A 
ATOM     20  N   UNL     1       5.417   2.160   7.238  1.00  0.00    -0.354 N 
ATOM     21  C   UNL     1       5.176   5.940   5.161  1.00  0.00     0.074 A 
ATOM     22  C   UNL     1       4.890   5.741   3.756  1.00  0.00     0.031 C 
ATOM     23  C   UNL     1       5.255  -0.062   7.441  1.00  0.00     0.029 A 
ATOM     24  C   UNL     1       5.665   1.153   8.140  1.00  0.00     0.049 A 
ATOM     25  H   UNL     1       5.590   3.110   7.429  1.00  0.00     0.167 HD
ATOM     26  C   UNL     1       5.412   7.140   5.742  1.00  0.00     0.034 A 
ATOM     27  C   UNL     1       6.150   1.199   9.397  1.00  0.00     0.034 A 
ATOM     28  C   UNL     1       5.750   7.306   7.133  1.00  0.00     0.049 A 
ATOM     29  C   UNL     1       6.417   2.544  10.018  1.00  0.00     0.074 A 
ATOM     30  C   UNL     1       5.960   8.485   7.827  1.00  0.00     0.029 A 
ATOM     31  N   UNL     1       5.948   6.271   8.035  1.00  0.00    -0.354 N 
ATOM     32  N   UNL     1       6.284   3.736   9.485  1.00  0.00    -0.248 NA
ATOM     33  C   UNL     1       6.863   2.560  11.417  1.00  0.00     0.031 C 
ATOM     34  C   UNL     1       6.338   8.162   9.131  1.00  0.00     0.029 A 
ATOM     35  C   UNL     1       6.304   6.783   9.271  1.00  0.00     0.049 A 
ATOM     36  H   UNL     1       5.850   5.313   7.827  1.00  0.00     0.167 HD
ATOM     37  C   UNL     1       6.582   4.644  10.496  1.00  0.00     0.074 A 
ATOM     38  C   UNL     1       6.897   3.862  11.674  1.00  0.00     0.031 C 
ATOM     39  C   UNL     1       6.587   6.000  10.450  1.00  0.00     0.034 A 
BRANCH  26  40
ATOM     40  C   UNL     1       5.263   8.391   4.917  1.00  0.00     0.023 A 
ATOM     41  C   UNL     1       6.370   9.215   4.648  1.00  0.00     0.031 A 
ATOM     42  C   UNL     1       3.985   8.849   4.551  1.00  0.00     0.131 A 
ATOM     43  C   UNL     1       6.172  10.468   4.052  1.00  0.00     0.055 A 
ATOM     44  C   UNL     1       3.797  10.085   3.931  1.00  0.00     0.041 A 
ATOM     45  F   UNL     1       2.898   8.101   4.798  1.00  0.00    -0.206 F 
ATOM     46  C   UNL     1       4.893  10.904   3.687  1.00  0.00     0.022 A 
BRANCH  43  47
ATOM     47  S   UNL     1       7.553  11.612   3.783  1.00  0.00     0.124 S 
ATOM     48  O   UNL     1       7.490  11.818   2.337  1.00  0.00    -0.237 OA
ATOM     49  O   UNL     1       7.161  12.761   4.594  1.00  0.00    -0.237 OA
ATOM     50  O   UNL     1       8.718  10.871   4.253  1.00  0.00    -0.744 OA
ENDBRANCH  43  47
ENDBRANCH  26  40
BRANCH  27  51
ATOM     51  C   UNL     1       6.278  -0.073  10.164  1.00  0.00     0.023 A 
ATOM     52  C   UNL     1       7.166  -1.085   9.753  1.00  0.00     0.031 A 
ATOM     53  C   UNL     1       5.412  -0.346  11.236  1.00  0.00     0.131 A 
ATOM     54  C   UNL     1       7.124  -2.341  10.375  1.00  0.00     0.055 A 
ATOM     55  C   UNL     1       5.417  -1.578  11.891  1.00  0.00     0.041 A 
ATOM     56  F   UNL     1       4.533   0.581  11.647  1.00  0.00    -0.206 F 
ATOM     57  C   UNL     1       6.264  -2.588  11.449  1.00  0.00     0.022 A 
BRANCH  54  58
ATOM     58  S   UNL     1       8.081  -3.737   9.717  1.00  0.00     0.124 S 
ATOM     59  O   UNL     1       9.002  -4.015  10.814  1.00  0.00    -0.237 OA
ATOM     60  O   UNL     1       7.040  -4.739   9.498  1.00  0.00    -0.237 OA
ATOM     61  O   UNL     1       8.685  -3.198   8.503  1.00  0.00    -0.744 OA
ENDBRANCH  54  58
ENDBRANCH  27  51
BRANCH  39  62
ATOM     62  C   UNL     1       6.913   6.764  11.709  1.00  0.00     0.023 A 
ATOM     63  C   UNL     1       5.946   7.614  12.280  1.00  0.00     0.031 A 
ATOM     64  C   UNL     1       8.210   6.773  12.250  1.00  0.00     0.131 A 
ATOM     65  C   UNL     1       6.299   8.462  13.336  1.00  0.00     0.055 A 
ATOM     66  C   UNL     1       8.546   7.589  13.331  1.00  0.00     0.041 A 
ATOM     67  F   UNL     1       9.170   5.991  11.730  1.00  0.00    -0.206 F 
ATOM     68  C   UNL     1       7.592   8.449  13.868  1.00  0.00     0.022 A 
BRANCH  65  69
ATOM     69  S   UNL     1       5.125   9.684  13.986  1.00  0.00     0.124 S 
ATOM     70  O   UNL     1       4.905   9.194  15.345  1.00  0.00    -0.237 OA
ATOM     71  O   UNL     1       5.885  10.927  13.886  1.00  0.00    -0.237 OA
ATOM     72  O   UNL     1       3.977   9.580  13.092  1.00  0.00    -0.744 OA
ENDBRANCH  65  69
ENDBRANCH  39  62
ENDBRANCH  13  14
ENDBRANCH   6   8
ENDBRANCH   5   6
ENDBRANCH   4   5
ENDBRANCH   3   4
ENDBRANCH   2   3
ENDBRANCH   1   2
BRANCH   1  73
ATOM     73  C   UNL     1       2.311   1.732  -2.473  1.00  0.00     0.188 C 
BRANCH  73  74
ATOM     74  O   UNL     1       3.288   1.976  -3.476  1.00  0.00    -0.376 OA
BRANCH  74  75
ATOM     75  C   UNL     1       4.415   2.776  -3.129  1.00  0.00     0.202 C 
BRANCH  75  76
ATOM     76  C   UNL     1       4.156   4.198  -2.631  1.00  0.00     0.261 C 
BRANCH  76  77
ATOM     77  O   UNL     1       3.559   4.257  -1.323  1.00  0.00    -0.460 OA
BRANCH  77  78
ATOM     78  C   UNL     1       2.385   4.934  -1.267  1.00  0.00     0.340 C 
ATOM     79  O   UNL     1       1.733   5.364  -2.205  1.00  0.00    -0.246 OA
BRANCH  78  80
ATOM     80  C   UNL     1       2.047   5.263   0.120  1.00  0.00     0.086 A 
ATOM     81  C   UNL     1       2.583   6.458   0.613  1.00  0.00     0.018 A 
ATOM     82  C   UNL     1       1.081   4.519   0.806  1.00  0.00     0.087 A 
ATOM     83  C   UNL     1       2.131   6.949   1.823  1.00  0.00     0.002 A 
ATOM     84  C   UNL     1       0.601   5.046   2.031  1.00  0.00     0.013 A 
ATOM     85  N   UNL     1       0.612   3.353   0.308  1.00  0.00    -0.240 NA
ATOM     86  C   UNL     1       1.148   6.255   2.523  1.00  0.00     0.011 A 
ATOM     87  C   UNL     1      -0.436   4.344   2.696  1.00  0.00     0.068 A 
ATOM     88  C   UNL     1      -0.325   2.673   0.996  1.00  0.00     0.107 A 
ATOM     89  C   UNL     1      -0.881   3.125   2.171  1.00  0.00     0.049 A 
ATOM     90  Br  UNL     1      -0.914   1.020   0.279  1.00  0.00    -0.029 Br
BRANCH  87  91
ATOM     91  C   UNL     1      -1.120   4.899   3.923  1.00  0.00     0.417 C 
ATOM     92  F   UNL     1      -0.287   5.045   4.983  1.00  0.00    -0.166 F 
ATOM     93  F   UNL     1      -1.678   6.121   3.695  1.00  0.00    -0.166 F 
ATOM     94  F   UNL     1      -2.147   4.114   4.361  1.00  0.00    -0.166 F 
ENDBRANCH  87  91
ENDBRANCH  78  80
ENDBRANCH  77  78
ENDBRANCH  76  77
ENDBRANCH  75  76
ENDBRANCH  74  75
ENDBRANCH  73  74
ENDBRANCH   1  73
TORSDOF 21
