REMARK SMILES CC1(C)[C@H]2CC[C@]1(C)[C@](O)(CC(=O)OCCOCCOCCOC(=O)c1ccc(-c3c4nc(c(-c5cc(S(=O)(=O)[O-])ccc5F)c5ccc([nH]5)c(-c5cc(S(=O)(=O)[O-])ccc5F)c5nc(c(-c6cc(S(=O)(=O)[O-])ccc6F)c6ccc3[nH]6)C=C5)C=C4)cc1)C2
REMARK SMILES IDX 19 1 18 2 17 3 16 4 15 5 14 6 12 7 13 8 11 9 9 10 1 11 2 12
REMARK SMILES IDX 3 13 4 14 7 15 5 16 89 17 6 18 8 19 10 20 20 22 21 23 22 24
REMARK SMILES IDX 23 25 24 26 25 27 26 28 27 29 88 30 28 31 87 32 29 33 30 34
REMARK SMILES IDX 31 35 81 36 32 37 86 38 80 39 82 40 33 41 85 42 79 43 78 44
REMARK SMILES IDX 34 46 66 47 46 48 65 49 47 50 50 51 64 52 83 53 48 54 49 55
REMARK SMILES IDX 63 57 84 58 51 59 35 60 36 61 44 62 37 63 43 64 45 65 42 66
REMARK SMILES IDX 38 67 39 68 40 69 41 70 67 71 68 72 76 73 69 74 75 75 77 76
REMARK SMILES IDX 74 77 70 78 71 79 72 80 73 81 52 82 53 83 61 84 54 85 60 86
REMARK SMILES IDX 62 87 59 88 55 89 56 90 57 91 58 92
REMARK H PARENT 10 21 82 45 50 56
REMARK Flexibility Score: inf
ROOT
ATOM      1  C   UNL     1      -1.347  -5.596   3.788  1.00  0.00     0.188 C 
ENDROOT
BRANCH   1   2
ATOM      2  C   UNL     1      -2.866  -5.451   3.920  1.00  0.00     0.188 C 
BRANCH   2   3
ATOM      3  O   UNL     1      -3.626  -6.293   3.052  1.00  0.00    -0.376 OA
BRANCH   3   4
ATOM      4  C   UNL     1      -3.393  -6.129   1.652  1.00  0.00     0.202 C 
BRANCH   4   5
ATOM      5  C   UNL     1      -3.757  -4.749   1.089  1.00  0.00     0.261 C 
BRANCH   5   6
ATOM      6  O   UNL     1      -2.956  -3.697   1.666  1.00  0.00    -0.463 OA
BRANCH   6   7
ATOM      7  C   UNL     1      -3.593  -2.523   1.894  1.00  0.00     0.308 C 
ATOM      8  O   UNL     1      -4.739  -2.277   1.534  1.00  0.00    -0.252 OA
BRANCH   7   9
ATOM      9  C   UNL     1      -2.801  -1.575   2.766  1.00  0.00     0.158 C 
BRANCH   9  10
ATOM     10  C   UNL     1      -1.304  -1.333   2.488  1.00  0.00     0.081 C 
ATOM     11  C   UNL     1       1.075   0.414  -0.116  1.00  0.00     0.012 C 
ATOM     12  C   UNL     1       0.489  -0.171   1.197  1.00  0.00    -0.024 C 
ATOM     13  C   UNL     1       1.681  -0.791   1.956  1.00  0.00     0.012 C 
ATOM     14  C   UNL     1      -0.317   0.857   2.022  1.00  0.00    -0.002 C 
ATOM     15  C   UNL     1      -0.790  -1.082   1.011  1.00  0.00     0.002 C 
ATOM     16  C   UNL     1      -1.509   1.219   1.100  1.00  0.00     0.005 C 
ATOM     17  C   UNL     1      -0.891   0.011   3.182  1.00  0.00     0.040 C 
ATOM     18  C   UNL     1      -1.769  -0.088   0.334  1.00  0.00     0.010 C 
ATOM     19  C   UNL     1      -0.525  -2.324   0.170  1.00  0.00     0.015 C 
BRANCH  10  20
ATOM     20  O   UNL     1      -0.574  -2.382   3.123  1.00  0.00    -0.389 OA
ATOM     21  H   UNL     1       0.375  -2.257   2.966  1.00  0.00     0.211 HD
ENDBRANCH  10  20
ENDBRANCH   9  10
ENDBRANCH   7   9
ENDBRANCH   6   7
ENDBRANCH   5   6
ENDBRANCH   4   5
ENDBRANCH   3   4
ENDBRANCH   2   3
ENDBRANCH   1   2
BRANCH   1  22
ATOM     22  O   UNL     1      -0.846  -5.238   2.501  1.00  0.00    -0.376 OA
BRANCH  22  23
ATOM     23  C   UNL     1       0.522  -5.519   2.189  1.00  0.00     0.202 C 
BRANCH  23  24
ATOM     24  C   UNL     1       1.308  -6.555   3.009  1.00  0.00     0.261 C 
BRANCH  24  25
ATOM     25  O   UNL     1       1.283  -6.350   4.429  1.00  0.00    -0.460 OA
BRANCH  25  26
ATOM     26  C   UNL     1       1.643  -5.124   4.896  1.00  0.00     0.338 C 
ATOM     27  O   UNL     1       2.215  -4.259   4.276  1.00  0.00    -0.246 OA
BRANCH  26  28
ATOM     28  C   UNL     1       0.984  -4.960   6.225  1.00  0.00     0.060 A 
ATOM     29  C   UNL     1       0.458  -3.705   6.562  1.00  0.00     0.016 A 
ATOM     30  C   UNL     1       0.777  -6.053   7.075  1.00  0.00     0.016 A 
ATOM     31  C   UNL     1      -0.229  -3.534   7.769  1.00  0.00     0.010 A 
ATOM     32  C   UNL     1       0.086  -5.882   8.278  1.00  0.00     0.010 A 
ATOM     33  C   UNL     1      -0.388  -4.613   8.651  1.00  0.00    -0.014 A 
BRANCH  33  34
ATOM     34  C   UNL     1      -0.851  -4.382  10.045  1.00  0.00     0.031 A 
ATOM     35  C   UNL     1       0.193  -4.308  11.129  1.00  0.00     0.074 A 
ATOM     36  C   UNL     1      -2.152  -4.229  10.354  1.00  0.00     0.049 A 
ATOM     37  N   UNL     1       0.046  -4.157  12.420  1.00  0.00    -0.248 NA
ATOM     38  C   UNL     1       1.592  -4.428  10.691  1.00  0.00     0.031 C 
ATOM     39  C   UNL     1      -3.257  -4.245   9.397  1.00  0.00     0.029 A 
ATOM     40  N   UNL     1      -2.764  -4.034  11.569  1.00  0.00    -0.354 N 
ATOM     41  C   UNL     1       1.333  -4.165  12.948  1.00  0.00     0.074 A 
ATOM     42  C   UNL     1       2.241  -4.384  11.843  1.00  0.00     0.031 C 
ATOM     43  C   UNL     1      -4.412  -4.068  10.064  1.00  0.00     0.029 A 
ATOM     44  C   UNL     1      -4.136  -3.966  11.498  1.00  0.00     0.049 A 
ATOM     45  H   UNL     1      -2.265  -3.950  12.414  1.00  0.00     0.167 HD
ATOM     46  C   UNL     1       1.725  -3.990  14.234  1.00  0.00     0.034 A 
ATOM     47  C   UNL     1      -5.061  -3.858  12.476  1.00  0.00     0.034 A 
ATOM     48  C   UNL     1       0.813  -3.786  15.331  1.00  0.00     0.049 A 
ATOM     49  C   UNL     1      -4.606  -3.763  13.917  1.00  0.00     0.074 A 
ATOM     50  C   UNL     1       1.108  -3.583  16.668  1.00  0.00     0.029 A 
ATOM     51  N   UNL     1      -0.572  -3.776  15.226  1.00  0.00    -0.354 N 
ATOM     52  N   UNL     1      -3.385  -3.752  14.402  1.00  0.00    -0.248 NA
ATOM     53  C   UNL     1      -5.655  -3.657  14.941  1.00  0.00     0.031 C 
ATOM     54  C   UNL     1      -0.094  -3.536  17.380  1.00  0.00     0.029 A 
ATOM     55  C   UNL     1      -1.143  -3.612  16.479  1.00  0.00     0.049 A 
ATOM     56  H   UNL     1      -1.074  -3.871  14.384  1.00  0.00     0.167 HD
ATOM     57  C   UNL     1      -3.523  -3.602  15.781  1.00  0.00     0.074 A 
ATOM     58  C   UNL     1      -4.943  -3.514  16.049  1.00  0.00     0.031 C 
ATOM     59  C   UNL     1      -2.562  -3.534  16.740  1.00  0.00     0.034 A 
BRANCH  46  60
ATOM     60  C   UNL     1       3.205  -4.071  14.522  1.00  0.00     0.023 A 
ATOM     61  C   UNL     1       4.119  -3.149  13.982  1.00  0.00     0.031 A 
ATOM     62  C   UNL     1       3.713  -5.108  15.324  1.00  0.00     0.131 A 
ATOM     63  C   UNL     1       5.495  -3.324  14.191  1.00  0.00     0.055 A 
ATOM     64  C   UNL     1       5.076  -5.227  15.599  1.00  0.00     0.041 A 
ATOM     65  F   UNL     1       2.892  -6.035  15.844  1.00  0.00    -0.206 F 
ATOM     66  C   UNL     1       5.978  -4.340  15.019  1.00  0.00     0.022 A 
BRANCH  63  67
ATOM     67  S   UNL     1       6.654  -2.298  13.245  1.00  0.00     0.124 S 
ATOM     68  O   UNL     1       6.272  -2.614  11.870  1.00  0.00    -0.237 OA
ATOM     69  O   UNL     1       6.332  -0.952  13.704  1.00  0.00    -0.237 OA
ATOM     70  O   UNL     1       7.965  -2.800  13.649  1.00  0.00    -0.744 OA
ENDBRANCH  63  67
ENDBRANCH  46  60
BRANCH  47  71
ATOM     71  C   UNL     1      -6.520  -3.881  12.151  1.00  0.00     0.023 A 
ATOM     72  C   UNL     1      -7.355  -2.792  12.451  1.00  0.00     0.031 A 
ATOM     73  C   UNL     1      -7.115  -5.032  11.602  1.00  0.00     0.131 A 
ATOM     74  C   UNL     1      -8.741  -2.894  12.248  1.00  0.00     0.055 A 
ATOM     75  C   UNL     1      -8.486  -5.106  11.346  1.00  0.00     0.041 A 
ATOM     76  F   UNL     1      -6.368  -6.107  11.306  1.00  0.00    -0.206 F 
ATOM     77  C   UNL     1      -9.310  -4.037  11.682  1.00  0.00     0.022 A 
BRANCH  74  78
ATOM     78  S   UNL     1      -9.810  -1.546  12.828  1.00  0.00     0.124 S 
ATOM     79  O   UNL     1      -9.497  -1.512  14.252  1.00  0.00    -0.237 OA
ATOM     80  O   UNL     1      -9.331  -0.417  12.037  1.00  0.00    -0.237 OA
ATOM     81  O   UNL     1     -11.155  -2.010  12.495  1.00  0.00    -0.744 OA
ENDBRANCH  74  78
ENDBRANCH  47  71
BRANCH  59  82
ATOM     82  C   UNL     1      -3.013  -3.302  18.165  1.00  0.00     0.023 A 
ATOM     83  C   UNL     1      -3.772  -4.250  18.873  1.00  0.00     0.031 A 
ATOM     84  C   UNL     1      -2.670  -2.107  18.826  1.00  0.00     0.131 A 
ATOM     85  C   UNL     1      -4.208  -3.965  20.177  1.00  0.00     0.055 A 
ATOM     86  C   UNL     1      -3.050  -1.858  20.145  1.00  0.00     0.041 A 
ATOM     87  F   UNL     1      -1.948  -1.163  18.200  1.00  0.00    -0.206 F 
ATOM     88  C   UNL     1      -3.836  -2.784  20.824  1.00  0.00     0.022 A 
BRANCH  85  89
ATOM     89  S   UNL     1      -5.353  -5.117  20.987  1.00  0.00     0.124 S 
ATOM     90  O   UNL     1      -6.469  -5.146  20.048  1.00  0.00    -0.237 OA
ATOM     91  O   UNL     1      -4.558  -6.338  21.073  1.00  0.00    -0.237 OA
ATOM     92  O   UNL     1      -5.638  -4.473  22.268  1.00  0.00    -0.744 OA
ENDBRANCH  85  89
ENDBRANCH  59  82
ENDBRANCH  33  34
ENDBRANCH  26  28
ENDBRANCH  25  26
ENDBRANCH  24  25
ENDBRANCH  23  24
ENDBRANCH  22  23
ENDBRANCH   1  22
TORSDOF 22
