REMARK SMILES C[NH2+][C@@]1(C(=O)OCCOCCOCCOC(=O)c2ccc(-c3c4nc(c(-c5cc(S(=O)(=O)[O-])ccc5F)c5ccc([nH]5)c(-c5cc(S(=O)(=O)[O-])ccc5F)c5nc(c(-c6cc(S(=O)(=O)[O-])ccc6F)c6ccc3[nH]6)C=C5)C=C4)cc2)CC[C@H](Sc2ccc(C)c(C)c2)C1
REMARK SMILES IDX 11 1 10 2 9 3 8 4 7 5 6 6 4 7 5 8 3 9 81 10 93 11 82 12
REMARK SMILES IDX 83 13 2 14 1 15 84 18 85 19 86 20 92 21 87 22 90 23 88 24
REMARK SMILES IDX 91 25 89 26 12 27 13 28 14 29 15 30 16 31 17 32 18 33 19 34
REMARK SMILES IDX 80 35 20 36 79 37 21 38 22 39 23 40 73 41 24 42 78 43 72 44
REMARK SMILES IDX 74 45 25 46 77 47 71 48 70 49 26 51 58 52 38 53 57 54 39 55
REMARK SMILES IDX 42 56 56 57 75 58 40 59 41 60 55 62 76 63 43 64 27 65 28 66
REMARK SMILES IDX 36 67 29 68 35 69 37 70 34 71 30 72 31 73 32 74 33 75 59 76
REMARK SMILES IDX 60 77 68 78 61 79 67 80 69 81 66 82 62 83 63 84 64 85 65 86
REMARK SMILES IDX 44 87 45 88 53 89 46 90 52 91 54 92 51 93 47 94 48 95 49 96
REMARK SMILES IDX 50 97
REMARK H PARENT 2 16 2 17 74 50 42 61
REMARK Flexibility Score: inf
ROOT
ATOM      1  C   UNL     1      -0.950  -3.195   1.809  1.00  0.00     0.188 C 
ENDROOT
BRANCH   1   2
ATOM      2  C   UNL     1      -0.423  -1.936   2.507  1.00  0.00     0.188 C 
BRANCH   2   3
ATOM      3  O   UNL     1      -1.127  -1.518   3.674  1.00  0.00    -0.376 OA
BRANCH   3   4
ATOM      4  C   UNL     1      -2.514  -1.215   3.507  1.00  0.00     0.202 C 
BRANCH   4   5
ATOM      5  C   UNL     1      -2.905  -0.290   2.341  1.00  0.00     0.261 C 
BRANCH   5   6
ATOM      6  O   UNL     1      -2.483  -0.749   1.035  1.00  0.00    -0.459 OA
BRANCH   6   7
ATOM      7  C   UNL     1      -1.797   0.153   0.286  1.00  0.00     0.368 C 
ATOM      8  O   UNL     1      -1.610   1.317   0.640  1.00  0.00    -0.245 OA
BRANCH   7   9
ATOM      9  C   UNL     1      -1.246  -0.392  -1.077  1.00  0.00     0.195 C 
ATOM     10  C   UNL     1      -1.754   0.592  -2.142  1.00  0.00     0.082 C 
ATOM     11  C   UNL     1      -1.825  -1.702  -1.649  1.00  0.00     0.096 C 
ATOM     12  C   UNL     1      -3.225   0.170  -2.297  1.00  0.00     0.022 C 
ATOM     13  C   UNL     1      -3.205  -1.364  -2.237  1.00  0.00     0.059 C 
BRANCH   9  14
ATOM     14  N   UNL     1       0.225  -0.597  -1.036  1.00  0.00    -0.335 N 
ATOM     15  C   UNL     1       1.012   0.451  -0.404  1.00  0.00     0.331 C 
ATOM     16  H   UNL     1       0.402  -1.465  -0.531  1.00  0.00     0.347 HD
ATOM     17  H   UNL     1       0.522  -0.605  -2.012  1.00  0.00     0.347 HD
ENDBRANCH   9  14
BRANCH  13  18
ATOM     18  S   UNL     1      -4.403  -2.221  -1.160  1.00  0.00    -0.122 SA
BRANCH  18  19
ATOM     19  C   UNL     1      -6.028  -1.754  -1.673  1.00  0.00     0.008 A 
ATOM     20  C   UNL     1      -6.359  -0.943  -2.748  1.00  0.00     0.015 A 
ATOM     21  C   UNL     1      -7.058  -2.255  -0.863  1.00  0.00     0.018 A 
ATOM     22  C   UNL     1      -7.693  -0.584  -2.966  1.00  0.00     0.005 A 
ATOM     23  C   UNL     1      -8.402  -1.922  -1.075  1.00  0.00    -0.047 A 
ATOM     24  C   UNL     1      -8.723  -1.056  -2.132  1.00  0.00    -0.048 A 
ATOM     25  C   UNL     1      -9.435  -2.497  -0.148  1.00  0.00     0.044 C 
ATOM     26  C   UNL     1     -10.121  -0.578  -2.400  1.00  0.00     0.044 C 
ENDBRANCH  18  19
ENDBRANCH  13  18
ENDBRANCH   7   9
ENDBRANCH   6   7
ENDBRANCH   5   6
ENDBRANCH   4   5
ENDBRANCH   3   4
ENDBRANCH   2   3
ENDBRANCH   1   2
BRANCH   1  27
ATOM     27  O   UNL     1      -2.341  -3.409   1.977  1.00  0.00    -0.376 OA
BRANCH  27  28
ATOM     28  C   UNL     1      -2.842  -4.739   1.932  1.00  0.00     0.202 C 
BRANCH  28  29
ATOM     29  C   UNL     1      -2.250  -5.734   2.953  1.00  0.00     0.261 C 
BRANCH  29  30
ATOM     30  O   UNL     1      -0.838  -6.006   2.842  1.00  0.00    -0.460 OA
BRANCH  30  31
ATOM     31  C   UNL     1      -0.361  -6.353   1.620  1.00  0.00     0.338 C 
ATOM     32  O   UNL     1      -1.028  -6.715   0.665  1.00  0.00    -0.246 OA
BRANCH  31  33
ATOM     33  C   UNL     1       1.070  -5.946   1.548  1.00  0.00     0.060 A 
ATOM     34  C   UNL     1       1.511  -5.266   0.402  1.00  0.00     0.016 A 
ATOM     35  C   UNL     1       1.948  -6.136   2.620  1.00  0.00     0.016 A 
ATOM     36  C   UNL     1       2.836  -4.826   0.303  1.00  0.00     0.010 A 
ATOM     37  C   UNL     1       3.277  -5.706   2.515  1.00  0.00     0.010 A 
ATOM     38  C   UNL     1       3.741  -5.082   1.341  1.00  0.00    -0.014 A 
BRANCH  38  39
ATOM     39  C   UNL     1       5.205  -4.920   1.119  1.00  0.00     0.031 A 
ATOM     40  C   UNL     1       5.999  -6.152   0.765  1.00  0.00     0.074 A 
ATOM     41  C   UNL     1       5.827  -3.730   1.211  1.00  0.00     0.049 A 
ATOM     42  N   UNL     1       7.289  -6.301   0.607  1.00  0.00    -0.248 NA
ATOM     43  C   UNL     1       5.222  -7.386   0.570  1.00  0.00     0.031 C 
ATOM     44  C   UNL     1       5.176  -2.451   1.489  1.00  0.00     0.029 A 
ATOM     45  N   UNL     1       7.159  -3.408   1.090  1.00  0.00    -0.354 N 
ATOM     46  C   UNL     1       7.479  -7.646   0.305  1.00  0.00     0.074 A 
ATOM     47  C   UNL     1       6.176  -8.274   0.341  1.00  0.00     0.031 C 
ATOM     48  C   UNL     1       6.112  -1.486   1.531  1.00  0.00     0.029 A 
ATOM     49  C   UNL     1       7.434  -2.079   1.326  1.00  0.00     0.049 A 
ATOM     50  H   UNL     1       7.852  -4.066   0.855  1.00  0.00     0.167 HD
ATOM     51  C   UNL     1       8.632  -8.298   0.014  1.00  0.00     0.034 A 
ATOM     52  C   UNL     1       8.616  -1.427   1.399  1.00  0.00     0.034 A 
ATOM     53  C   UNL     1       9.929  -7.668  -0.006  1.00  0.00     0.049 A 
ATOM     54  C   UNL     1       9.901  -2.196   1.177  1.00  0.00     0.074 A 
ATOM     55  C   UNL     1      11.157  -8.237  -0.296  1.00  0.00     0.029 A 
ATOM     56  N   UNL     1      10.171  -6.333   0.289  1.00  0.00    -0.354 N 
ATOM     57  N   UNL     1      10.069  -3.468   0.890  1.00  0.00    -0.248 NA
ATOM     58  C   UNL     1      11.157  -1.439   1.285  1.00  0.00     0.031 C 
ATOM     59  C   UNL     1      12.146  -7.270  -0.097  1.00  0.00     0.029 A 
ATOM     60  C   UNL     1      11.531  -6.071   0.225  1.00  0.00     0.049 A 
ATOM     61  H   UNL     1       9.478  -5.670   0.511  1.00  0.00     0.167 HD
ATOM     62  C   UNL     1      11.445  -3.649   0.747  1.00  0.00     0.074 A 
ATOM     63  C   UNL     1      12.059  -2.357   0.967  1.00  0.00     0.031 C 
ATOM     64  C   UNL     1      12.138  -4.779   0.452  1.00  0.00     0.034 A 
BRANCH  51  65
ATOM     65  C   UNL     1       8.538  -9.783  -0.246  1.00  0.00     0.023 A 
ATOM     66  C   UNL     1       7.817 -10.302  -1.336  1.00  0.00     0.031 A 
ATOM     67  C   UNL     1       9.152 -10.695   0.632  1.00  0.00     0.131 A 
ATOM     68  C   UNL     1       7.666 -11.690  -1.477  1.00  0.00     0.055 A 
ATOM     69  C   UNL     1       9.069 -12.074   0.437  1.00  0.00     0.041 A 
ATOM     70  F   UNL     1       9.831 -10.259   1.705  1.00  0.00    -0.206 F 
ATOM     71  C   UNL     1       8.310 -12.580  -0.614  1.00  0.00     0.022 A 
BRANCH  68  72
ATOM     72  S   UNL     1       6.493 -12.312  -2.712  1.00  0.00     0.124 S 
ATOM     73  O   UNL     1       5.249 -11.675  -2.285  1.00  0.00    -0.237 OA
ATOM     74  O   UNL     1       7.063 -11.826  -3.963  1.00  0.00    -0.237 OA
ATOM     75  O   UNL     1       6.537 -13.761  -2.527  1.00  0.00    -0.744 OA
ENDBRANCH  68  72
ENDBRANCH  51  65
BRANCH  52  76
ATOM     76  C   UNL     1       8.665   0.026   1.747  1.00  0.00     0.023 A 
ATOM     77  C   UNL     1       9.201   0.973   0.858  1.00  0.00     0.031 A 
ATOM     78  C   UNL     1       8.247   0.478   3.012  1.00  0.00     0.131 A 
ATOM     79  C   UNL     1       9.351   2.310   1.263  1.00  0.00     0.055 A 
ATOM     80  C   UNL     1       8.343   1.819   3.388  1.00  0.00     0.041 A 
ATOM     81  F   UNL     1       7.739  -0.384   3.907  1.00  0.00    -0.206 F 
ATOM     82  C   UNL     1       8.911   2.742   2.515  1.00  0.00     0.022 A 
BRANCH  79  83
ATOM     83  S   UNL     1      10.222   3.461   0.163  1.00  0.00     0.124 S 
ATOM     84  O   UNL     1      11.521   2.814   0.026  1.00  0.00    -0.237 OA
ATOM     85  O   UNL     1       9.371   3.450  -1.022  1.00  0.00    -0.237 OA
ATOM     86  O   UNL     1      10.224   4.715   0.914  1.00  0.00    -0.744 OA
ENDBRANCH  79  83
ENDBRANCH  52  76
BRANCH  64  87
ATOM     87  C   UNL     1      13.637  -4.659   0.290  1.00  0.00     0.023 A 
ATOM     88  C   UNL     1      14.481  -4.325   1.365  1.00  0.00     0.031 A 
ATOM     89  C   UNL     1      14.230  -4.886  -0.966  1.00  0.00     0.131 A 
ATOM     90  C   UNL     1      15.861  -4.174   1.151  1.00  0.00     0.055 A 
ATOM     91  C   UNL     1      15.610  -4.799  -1.157  1.00  0.00     0.041 A 
ATOM     92  F   UNL     1      13.476  -5.205  -2.030  1.00  0.00    -0.206 F 
ATOM     93  C   UNL     1      16.432  -4.428  -0.099  1.00  0.00     0.022 A 
BRANCH  90  94
ATOM     94  S   UNL     1      16.892  -3.546   2.505  1.00  0.00     0.124 S 
ATOM     95  O   UNL     1      16.257  -2.266   2.801  1.00  0.00    -0.237 OA
ATOM     96  O   UNL     1      16.740  -4.583   3.520  1.00  0.00    -0.237 OA
ATOM     97  O   UNL     1      18.223  -3.454   1.909  1.00  0.00    -0.744 OA
ENDBRANCH  90  94
ENDBRANCH  64  87
ENDBRANCH  38  39
ENDBRANCH  31  33
ENDBRANCH  30  31
ENDBRANCH  29  30
ENDBRANCH  28  29
ENDBRANCH  27  28
ENDBRANCH   1  27
TORSDOF 23
