REMARK SMILES O=C(C[C@H]1C[N@@H+](Cc2c(F)cccc2F)CCO1)OCCOCCOCCOC(=O)c1ccc(-c2c3nc(c(-c4cc(S(=O)(=O)[O-])ccc4F)c4ccc([nH]4)c(-c4cc(S(=O)(=O)[O-])ccc4F)c4nc(c(-c5cc(S(=O)(=O)[O-])ccc5F)c5ccc2[nH]5)C=C4)C=C3)cc1
REMARK SMILES IDX 23 1 22 2 21 3 20 4 19 5 2 6 1 7 3 8 4 9 5 10 18 11 6 12
REMARK SMILES IDX 17 13 16 14 7 16 8 17 9 18 14 19 10 20 11 21 13 22 15 23
REMARK SMILES IDX 12 24 24 25 25 26 26 27 27 28 28 29 29 30 30 31 31 32 32 33
REMARK SMILES IDX 93 34 33 35 92 36 34 37 35 38 36 39 86 40 37 41 91 42 85 43
REMARK SMILES IDX 87 44 38 45 90 46 84 47 83 48 39 50 71 51 51 52 70 53 52 54
REMARK SMILES IDX 55 55 69 56 88 57 53 58 54 59 68 61 89 62 56 63 40 64 41 65
REMARK SMILES IDX 49 66 42 67 48 68 50 69 47 70 43 71 44 72 45 73 46 74 72 75
REMARK SMILES IDX 73 76 81 77 74 78 80 79 82 80 79 81 75 82 76 83 77 84 78 85
REMARK SMILES IDX 57 86 58 87 66 88 59 89 65 90 67 91 64 92 60 93 61 94 62 95
REMARK SMILES IDX 63 96
REMARK H PARENT 6 15 87 49 55 60
REMARK Flexibility Score: inf
ROOT
ATOM      1  C   UNL     1       5.370  -1.665  -1.040  1.00  0.00     0.188 C 
ENDROOT
BRANCH   1   2
ATOM      2  O   UNL     1       4.080  -2.175  -1.384  1.00  0.00    -0.376 OA
BRANCH   2   3
ATOM      3  C   UNL     1       3.174  -1.272  -2.007  1.00  0.00     0.202 C 
BRANCH   3   4
ATOM      4  C   UNL     1       2.607  -0.213  -1.060  1.00  0.00     0.261 C 
BRANCH   4   5
ATOM      5  O   UNL     1       3.642   0.670  -0.607  1.00  0.00    -0.463 OA
BRANCH   5   6
ATOM      6  C   UNL     1       3.416   1.361   0.543  1.00  0.00     0.308 C 
ATOM      7  O   UNL     1       3.136   2.553   0.522  1.00  0.00    -0.252 OA
BRANCH   6   8
ATOM      8  C   UNL     1       3.812   0.621   1.806  1.00  0.00     0.160 C 
BRANCH   8   9
ATOM      9  C   UNL     1       2.820  -0.444   2.270  1.00  0.00     0.184 C 
ATOM     10  C   UNL     1       3.330  -1.897   2.070  1.00  0.00     0.295 C 
ATOM     11  O   UNL     1       2.362  -0.233   3.619  1.00  0.00    -0.366 OA
ATOM     12  N   UNL     1       4.219  -2.433   3.096  1.00  0.00    -0.327 N 
ATOM     13  C   UNL     1       3.305  -0.657   4.611  1.00  0.00     0.222 C 
ATOM     14  C   UNL     1       3.712  -2.130   4.432  1.00  0.00     0.291 C 
ATOM     15  H   UNL     1       4.161  -3.445   2.976  1.00  0.00     0.348 HD
BRANCH  12  16
ATOM     16  C   UNL     1       5.674  -2.436   2.886  1.00  0.00     0.305 C 
BRANCH  16  17
ATOM     17  C   UNL     1       6.453  -1.154   3.046  1.00  0.00     0.078 A 
ATOM     18  C   UNL     1       6.561  -0.483   4.263  1.00  0.00     0.135 A 
ATOM     19  C   UNL     1       7.181  -0.605   1.987  1.00  0.00     0.135 A 
ATOM     20  F   UNL     1       6.088  -1.042   5.384  1.00  0.00    -0.206 F 
ATOM     21  C   UNL     1       7.202   0.751   4.382  1.00  0.00     0.040 A 
ATOM     22  C   UNL     1       7.849   0.617   2.083  1.00  0.00     0.040 A 
ATOM     23  F   UNL     1       7.250  -1.253   0.821  1.00  0.00    -0.206 F 
ATOM     24  C   UNL     1       7.836   1.315   3.282  1.00  0.00     0.006 A 
ENDBRANCH  16  17
ENDBRANCH  12  16
ENDBRANCH   8   9
ENDBRANCH   6   8
ENDBRANCH   5   6
ENDBRANCH   4   5
ENDBRANCH   3   4
ENDBRANCH   2   3
ENDBRANCH   1   2
BRANCH   1  25
ATOM     25  C   UNL     1       6.217  -1.031  -2.150  1.00  0.00     0.188 C 
BRANCH  25  26
ATOM     26  O   UNL     1       6.567  -1.804  -3.296  1.00  0.00    -0.376 OA
BRANCH  26  27
ATOM     27  C   UNL     1       6.255  -3.186  -3.305  1.00  0.00     0.202 C 
BRANCH  27  28
ATOM     28  C   UNL     1       7.301  -4.130  -2.695  1.00  0.00     0.261 C 
BRANCH  28  29
ATOM     29  O   UNL     1       7.737  -3.828  -1.356  1.00  0.00    -0.460 OA
BRANCH  29  30
ATOM     30  C   UNL     1       8.947  -3.213  -1.275  1.00  0.00     0.338 C 
ATOM     31  O   UNL     1       9.592  -2.780  -2.215  1.00  0.00    -0.246 OA
BRANCH  30  32
ATOM     32  C   UNL     1       9.427  -3.106   0.132  1.00  0.00     0.060 A 
ATOM     33  C   UNL     1      10.188  -1.982   0.474  1.00  0.00     0.016 A 
ATOM     34  C   UNL     1       9.229  -4.113   1.086  1.00  0.00     0.016 A 
ATOM     35  C   UNL     1      10.756  -1.865   1.749  1.00  0.00     0.010 A 
ATOM     36  C   UNL     1       9.817  -4.004   2.362  1.00  0.00     0.010 A 
ATOM     37  C   UNL     1      10.604  -2.888   2.697  1.00  0.00    -0.014 A 
BRANCH  37  38
ATOM     38  C   UNL     1      11.390  -2.813   3.966  1.00  0.00     0.031 A 
ATOM     39  C   UNL     1      12.782  -3.366   3.998  1.00  0.00     0.074 A 
ATOM     40  C   UNL     1      10.918  -2.193   5.064  1.00  0.00     0.049 A 
ATOM     41  N   UNL     1      13.681  -3.285   4.944  1.00  0.00    -0.248 NA
ATOM     42  C   UNL     1      13.210  -4.116   2.810  1.00  0.00     0.031 C 
ATOM     43  C   UNL     1       9.578  -1.650   5.173  1.00  0.00     0.029 A 
ATOM     44  N   UNL     1      11.488  -1.904   6.282  1.00  0.00    -0.354 N 
ATOM     45  C   UNL     1      14.801  -3.940   4.454  1.00  0.00     0.074 A 
ATOM     46  C   UNL     1      14.441  -4.466   3.152  1.00  0.00     0.031 C 
ATOM     47  C   UNL     1       9.424  -1.066   6.372  1.00  0.00     0.029 A 
ATOM     48  C   UNL     1      10.656  -1.213   7.138  1.00  0.00     0.049 A 
ATOM     49  H   UNL     1      12.406  -2.167   6.521  1.00  0.00     0.167 HD
ATOM     50  C   UNL     1      16.021  -4.076   5.029  1.00  0.00     0.034 A 
ATOM     51  C   UNL     1      10.851  -0.754   8.393  1.00  0.00     0.034 A 
ATOM     52  C   UNL     1      16.351  -3.610   6.355  1.00  0.00     0.049 A 
ATOM     53  C   UNL     1      12.197  -0.980   9.039  1.00  0.00     0.074 A 
ATOM     54  C   UNL     1      17.548  -3.736   7.039  1.00  0.00     0.029 A 
ATOM     55  N   UNL     1      15.479  -2.947   7.210  1.00  0.00    -0.354 N 
ATOM     56  N   UNL     1      13.261  -1.567   8.542  1.00  0.00    -0.248 NA
ATOM     57  C   UNL     1      12.372  -0.476  10.408  1.00  0.00     0.031 C 
ATOM     58  C   UNL     1      17.380  -3.211   8.326  1.00  0.00     0.029 A 
ATOM     59  C   UNL     1      16.104  -2.682   8.422  1.00  0.00     0.049 A 
ATOM     60  H   UNL     1      14.552  -2.701   6.989  1.00  0.00     0.167 HD
ATOM     61  C   UNL     1      14.236  -1.486   9.532  1.00  0.00     0.074 A 
ATOM     62  C   UNL     1      13.645  -0.760  10.637  1.00  0.00     0.031 C 
ATOM     63  C   UNL     1      15.503  -1.974   9.530  1.00  0.00     0.034 A 
BRANCH  50  64
ATOM     64  C   UNL     1      17.065  -4.801   4.221  1.00  0.00     0.023 A 
ATOM     65  C   UNL     1      17.535  -4.275   3.003  1.00  0.00     0.031 A 
ATOM     66  C   UNL     1      17.555  -6.051   4.634  1.00  0.00     0.131 A 
ATOM     67  C   UNL     1      18.405  -5.031   2.205  1.00  0.00     0.055 A 
ATOM     68  C   UNL     1      18.484  -6.763   3.873  1.00  0.00     0.041 A 
ATOM     69  F   UNL     1      17.121  -6.613   5.773  1.00  0.00    -0.206 F 
ATOM     70  C   UNL     1      18.902  -6.261   2.643  1.00  0.00     0.022 A 
BRANCH  67  71
ATOM     71  S   UNL     1      18.757  -4.453   0.523  1.00  0.00     0.124 S 
ATOM     72  O   UNL     1      17.421  -4.436  -0.067  1.00  0.00    -0.237 OA
ATOM     73  O   UNL     1      19.369  -3.150   0.758  1.00  0.00    -0.237 OA
ATOM     74  O   UNL     1      19.654  -5.477  -0.010  1.00  0.00    -0.744 OA
ENDBRANCH  67  71
ENDBRANCH  50  64
BRANCH  51  75
ATOM     75  C   UNL     1       9.753  -0.075   9.154  1.00  0.00     0.023 A 
ATOM     76  C   UNL     1       9.891   1.238   9.637  1.00  0.00     0.031 A 
ATOM     77  C   UNL     1       8.575  -0.770   9.487  1.00  0.00     0.131 A 
ATOM     78  C   UNL     1       8.902   1.790  10.472  1.00  0.00     0.055 A 
ATOM     79  C   UNL     1       7.567  -0.195  10.263  1.00  0.00     0.041 A 
ATOM     80  F   UNL     1       8.387  -2.030   9.062  1.00  0.00    -0.206 F 
ATOM     81  C   UNL     1       7.735   1.087  10.776  1.00  0.00     0.022 A 
BRANCH  78  82
ATOM     82  S   UNL     1       9.212   3.401  11.251  1.00  0.00     0.124 S 
ATOM     83  O   UNL     1      10.468   3.157  11.950  1.00  0.00    -0.237 OA
ATOM     84  O   UNL     1       9.282   4.286  10.093  1.00  0.00    -0.237 OA
ATOM     85  O   UNL     1       8.045   3.593  12.110  1.00  0.00    -0.744 OA
ENDBRANCH  78  82
ENDBRANCH  51  75
BRANCH  63  86
ATOM     86  C   UNL     1      16.341  -1.701  10.758  1.00  0.00     0.023 A 
ATOM     87  C   UNL     1      16.002  -2.225  12.019  1.00  0.00     0.031 A 
ATOM     88  C   UNL     1      17.473  -0.870  10.674  1.00  0.00     0.131 A 
ATOM     89  C   UNL     1      16.738  -1.853  13.154  1.00  0.00     0.055 A 
ATOM     90  C   UNL     1      18.244  -0.561  11.796  1.00  0.00     0.041 A 
ATOM     91  F   UNL     1      17.844  -0.337   9.500  1.00  0.00    -0.206 F 
ATOM     92  C   UNL     1      17.867  -1.038  13.048  1.00  0.00     0.022 A 
BRANCH  89  93
ATOM     93  S   UNL     1      16.125  -2.347  14.790  1.00  0.00     0.124 S 
ATOM     94  O   UNL     1      14.777  -1.790  14.790  1.00  0.00    -0.237 OA
ATOM     95  O   UNL     1      16.214  -3.803  14.728  1.00  0.00    -0.237 OA
ATOM     96  O   UNL     1      17.061  -1.708  15.713  1.00  0.00    -0.744 OA
ENDBRANCH  89  93
ENDBRANCH  63  86
ENDBRANCH  37  38
ENDBRANCH  30  32
ENDBRANCH  29  30
ENDBRANCH  28  29
ENDBRANCH  27  28
ENDBRANCH  26  27
ENDBRANCH  25  26
ENDBRANCH   1  25
TORSDOF 23
