REMARK SMILES Cc1cc(C(=O)OCCOCCOCCOC(=O)c2ccc(-c3c4nc(c(-c5cc(S(=O)(=O)[O-])ccc5F)c5ccc([nH]5)c(-c5cc(S(=O)(=O)[O-])ccc5F)c5nc(c(-c6cc(S(=O)(=O)[O-])ccc6F)c6ccc3[nH]6)C=C5)C=C4)cc2)nn1[C@H]1CCS(=O)(=O)C1
REMARK SMILES IDX 12 1 11 2 10 3 9 4 8 5 7 6 5 7 6 8 4 9 1 10 2 11 3 12 83 13
REMARK SMILES IDX 82 14 84 15 85 16 90 17 86 18 87 19 88 20 89 21 13 22 14 23
REMARK SMILES IDX 15 24 16 25 17 26 18 27 19 28 20 29 81 30 21 31 80 32 22 33
REMARK SMILES IDX 23 34 24 35 74 36 25 37 79 38 73 39 75 40 26 41 78 42 72 43
REMARK SMILES IDX 71 44 27 46 59 47 39 48 58 49 40 50 43 51 57 52 76 53 41 54
REMARK SMILES IDX 42 55 56 57 77 58 44 59 28 60 29 61 37 62 30 63 36 64 38 65
REMARK SMILES IDX 35 66 31 67 32 68 33 69 34 70 60 71 61 72 69 73 62 74 68 75
REMARK SMILES IDX 70 76 67 77 63 78 64 79 65 80 66 81 45 82 46 83 54 84 47 85
REMARK SMILES IDX 53 86 55 87 52 88 48 89 49 90 50 91 51 92
REMARK H PARENT 75 45 43 56
REMARK Flexibility Score: inf
ROOT
ATOM      1  C   UNL     1      -0.639   2.212  -7.894  1.00  0.00     0.188 C 
ENDROOT
BRANCH   1   2
ATOM      2  C   UNL     1       0.667   1.415  -8.106  1.00  0.00     0.188 C 
BRANCH   2   3
ATOM      3  O   UNL     1       0.972   0.833  -9.368  1.00  0.00    -0.376 OA
BRANCH   3   4
ATOM      4  C   UNL     1      -0.036   0.194 -10.137  1.00  0.00     0.202 C 
BRANCH   4   5
ATOM      5  C   UNL     1      -0.957  -0.879  -9.520  1.00  0.00     0.261 C 
BRANCH   5   6
ATOM      6  O   UNL     1      -1.535  -0.567  -8.245  1.00  0.00    -0.458 OA
BRANCH   6   7
ATOM      7  C   UNL     1      -0.988  -1.196  -7.162  1.00  0.00     0.358 C 
ATOM      8  O   UNL     1      -0.155  -2.096  -7.239  1.00  0.00    -0.244 OA
BRANCH   7   9
ATOM      9  C   UNL     1      -1.436  -0.605  -5.888  1.00  0.00     0.170 A 
ATOM     10  C   UNL     1      -3.764   0.798  -3.402  1.00  0.00     0.066 C 
ATOM     11  C   UNL     1      -2.632   0.327  -4.238  1.00  0.00     0.037 A 
ATOM     12  C   UNL     1      -2.703  -0.069  -5.564  1.00  0.00     0.061 A 
ATOM     13  N   UNL     1      -1.310   0.176  -3.886  1.00  0.00    -0.265 N 
ATOM     14  N   UNL     1      -0.601  -0.458  -4.846  1.00  0.00    -0.165 NA
BRANCH  13  15
ATOM     15  C   UNL     1      -0.541   0.534  -2.707  1.00  0.00     0.123 C 
ATOM     16  C   UNL     1       0.369   1.763  -2.916  1.00  0.00     0.044 C 
ATOM     17  C   UNL     1      -1.276   0.826  -1.411  1.00  0.00     0.164 C 
ATOM     18  C   UNL     1       1.106   1.989  -1.593  1.00  0.00     0.139 C 
ATOM     19  S   UNL     1       0.014   1.370  -0.319  1.00  0.00     0.152 S 
ATOM     20  O   UNL     1       0.608   0.195   0.284  1.00  0.00    -0.229 OA
ATOM     21  O   UNL     1      -0.496   2.469   0.473  1.00  0.00    -0.229 OA
ENDBRANCH  13  15
ENDBRANCH   7   9
ENDBRANCH   6   7
ENDBRANCH   5   6
ENDBRANCH   4   5
ENDBRANCH   3   4
ENDBRANCH   2   3
ENDBRANCH   1   2
BRANCH   1  22
ATOM     22  O   UNL     1      -1.579   2.080  -8.942  1.00  0.00    -0.376 OA
BRANCH  22  23
ATOM     23  C   UNL     1      -1.819   3.172  -9.815  1.00  0.00     0.202 C 
BRANCH  23  24
ATOM     24  C   UNL     1      -0.677   3.975 -10.440  1.00  0.00     0.261 C 
BRANCH  24  25
ATOM     25  O   UNL     1       0.539   4.018  -9.717  1.00  0.00    -0.460 OA
BRANCH  25  26
ATOM     26  C   UNL     1       0.578   4.959  -8.751  1.00  0.00     0.338 C 
ATOM     27  O   UNL     1      -0.375   5.495  -8.213  1.00  0.00    -0.246 OA
BRANCH  26  28
ATOM     28  C   UNL     1       1.977   5.305  -8.506  1.00  0.00     0.060 A 
ATOM     29  C   UNL     1       2.287   5.951  -7.308  1.00  0.00     0.016 A 
ATOM     30  C   UNL     1       2.874   5.246  -9.582  1.00  0.00     0.016 A 
ATOM     31  C   UNL     1       3.432   6.715  -7.261  1.00  0.00     0.010 A 
ATOM     32  C   UNL     1       4.000   6.029  -9.542  1.00  0.00     0.010 A 
ATOM     33  C   UNL     1       4.217   6.817  -8.415  1.00  0.00    -0.014 A 
BRANCH  33  34
ATOM     34  C   UNL     1       5.337   7.733  -8.405  1.00  0.00     0.031 A 
ATOM     35  C   UNL     1       6.496   7.218  -7.650  1.00  0.00     0.074 A 
ATOM     36  C   UNL     1       5.337   8.872  -9.124  1.00  0.00     0.049 A 
ATOM     37  N   UNL     1       6.983   7.679  -6.549  1.00  0.00    -0.248 NA
ATOM     38  C   UNL     1       7.067   5.926  -8.064  1.00  0.00     0.031 C 
ATOM     39  C   UNL     1       4.337   9.322 -10.095  1.00  0.00     0.029 A 
ATOM     40  N   UNL     1       6.305   9.823  -9.220  1.00  0.00    -0.354 N 
ATOM     41  C   UNL     1       8.086   6.883  -6.274  1.00  0.00     0.074 A 
ATOM     42  C   UNL     1       7.945   5.707  -7.086  1.00  0.00     0.031 C 
ATOM     43  C   UNL     1       4.860  10.324 -10.839  1.00  0.00     0.029 A 
ATOM     44  C   UNL     1       6.181  10.659 -10.326  1.00  0.00     0.049 A 
ATOM     45  H   UNL     1       7.032   9.912  -8.563  1.00  0.00     0.167 HD
ATOM     46  C   UNL     1       9.163   7.387  -5.615  1.00  0.00     0.034 A 
ATOM     47  C   UNL     1       7.127  11.501 -10.825  1.00  0.00     0.034 A 
ATOM     48  C   UNL     1       8.816   8.594  -4.898  1.00  0.00     0.049 A 
ATOM     49  C   UNL     1       8.108  11.749  -9.737  1.00  0.00     0.074 A 
ATOM     50  C   UNL     1       7.872   8.900  -3.935  1.00  0.00     0.029 A 
ATOM     51  N   UNL     1       9.208   9.806  -5.425  1.00  0.00    -0.354 N 
ATOM     52  N   UNL     1       7.818  12.415  -8.654  1.00  0.00    -0.248 NA
ATOM     53  C   UNL     1       9.242  10.843  -9.613  1.00  0.00     0.031 C 
ATOM     54  C   UNL     1       7.386  10.192  -4.291  1.00  0.00     0.029 A 
ATOM     55  C   UNL     1       8.118  10.644  -5.391  1.00  0.00     0.049 A 
ATOM     56  H   UNL     1      10.105  10.030  -5.764  1.00  0.00     0.167 HD
ATOM     57  C   UNL     1       8.406  11.699  -7.623  1.00  0.00     0.074 A 
ATOM     58  C   UNL     1       9.358  10.805  -8.281  1.00  0.00     0.031 C 
ATOM     59  C   UNL     1       7.861  11.685  -6.369  1.00  0.00     0.034 A 
BRANCH  46  60
ATOM     60  C   UNL     1      10.591   7.000  -5.924  1.00  0.00     0.023 A 
ATOM     61  C   UNL     1      11.598   7.579  -5.134  1.00  0.00     0.031 A 
ATOM     62  C   UNL     1      11.034   6.340  -7.096  1.00  0.00     0.131 A 
ATOM     63  C   UNL     1      12.938   7.574  -5.557  1.00  0.00     0.055 A 
ATOM     64  C   UNL     1      12.376   6.272  -7.473  1.00  0.00     0.041 A 
ATOM     65  F   UNL     1      10.198   5.809  -7.996  1.00  0.00    -0.206 F 
ATOM     66  C   UNL     1      13.336   6.920  -6.720  1.00  0.00     0.022 A 
BRANCH  63  67
ATOM     67  S   UNL     1      14.123   8.599  -4.653  1.00  0.00     0.124 S 
ATOM     68  O   UNL     1      13.466   9.901  -4.683  1.00  0.00    -0.237 OA
ATOM     69  O   UNL     1      14.170   7.929  -3.358  1.00  0.00    -0.237 OA
ATOM     70  O   UNL     1      15.340   8.495  -5.454  1.00  0.00    -0.744 OA
ENDBRANCH  63  67
ENDBRANCH  46  60
BRANCH  47  71
ATOM     71  C   UNL     1       7.389  11.841 -12.253  1.00  0.00     0.023 A 
ATOM     72  C   UNL     1       8.143  12.968 -12.648  1.00  0.00     0.031 A 
ATOM     73  C   UNL     1       7.090  10.897 -13.262  1.00  0.00     0.131 A 
ATOM     74  C   UNL     1       8.561  13.112 -13.994  1.00  0.00     0.055 A 
ATOM     75  C   UNL     1       7.499  11.047 -14.589  1.00  0.00     0.041 A 
ATOM     76  F   UNL     1       6.464   9.745 -12.976  1.00  0.00    -0.206 F 
ATOM     77  C   UNL     1       8.246  12.152 -14.959  1.00  0.00     0.022 A 
BRANCH  74  78
ATOM     78  S   UNL     1       9.620  14.510 -14.497  1.00  0.00     0.124 S 
ATOM     79  O   UNL     1       8.701  15.640 -14.420  1.00  0.00    -0.237 OA
ATOM     80  O   UNL     1      10.688  14.470 -13.506  1.00  0.00    -0.237 OA
ATOM     81  O   UNL     1      10.036  14.151 -15.855  1.00  0.00    -0.744 OA
ENDBRANCH  74  78
ENDBRANCH  47  71
BRANCH  59  82
ATOM     82  C   UNL     1       6.763  12.688  -6.053  1.00  0.00     0.023 A 
ATOM     83  C   UNL     1       5.577  12.857  -6.809  1.00  0.00     0.031 A 
ATOM     84  C   UNL     1       6.889  13.445  -4.875  1.00  0.00     0.131 A 
ATOM     85  C   UNL     1       4.594  13.776  -6.391  1.00  0.00     0.055 A 
ATOM     86  C   UNL     1       5.902  14.334  -4.450  1.00  0.00     0.041 A 
ATOM     87  F   UNL     1       7.974  13.314  -4.093  1.00  0.00    -0.206 F 
ATOM     88  C   UNL     1       4.754  14.511  -5.213  1.00  0.00     0.022 A 
BRANCH  85  89
ATOM     89  S   UNL     1       3.100  14.064  -7.395  1.00  0.00     0.124 S 
ATOM     90  O   UNL     1       3.611  14.152  -8.758  1.00  0.00    -0.237 OA
ATOM     91  O   UNL     1       2.288  12.887  -7.092  1.00  0.00    -0.237 OA
ATOM     92  O   UNL     1       2.570  15.320  -6.860  1.00  0.00    -0.744 OA
ENDBRANCH  85  89
ENDBRANCH  59  82
ENDBRANCH  33  34
ENDBRANCH  26  28
ENDBRANCH  25  26
ENDBRANCH  24  25
ENDBRANCH  23  24
ENDBRANCH  22  23
ENDBRANCH   1  22
TORSDOF 21
