REMARK SMILES Cc1cc(NC(=O)CC(C)(C)CC(=O)OCCOCCOCCOC(=O)c2ccc(-c3c4nc(c(-c5cc(S(=O)(=O)[O-])ccc5F)c5ccc([nH]5)c(-c5cc(S(=O)(=O)[O-])ccc5F)c5nc(c(-c6cc(S(=O)(=O)[O-])ccc6F)c6ccc3[nH]6)C=C5)C=C4)cc2)ncc1Br
REMARK SMILES IDX 19 1 18 2 17 3 16 4 15 5 13 6 14 7 12 8 9 9 10 10 11 11 8 12
REMARK SMILES IDX 6 13 5 14 7 16 4 17 1 18 2 19 3 20 92 21 91 22 93 23 90 24
REMARK SMILES IDX 20 25 21 26 22 27 23 28 24 29 25 30 26 31 27 32 28 33 89 34
REMARK SMILES IDX 29 35 88 36 30 37 31 38 32 39 82 40 33 41 87 42 81 43 83 44
REMARK SMILES IDX 34 45 86 46 80 47 79 48 35 50 67 51 47 52 66 53 48 54 51 55
REMARK SMILES IDX 65 56 84 57 49 58 50 59 64 61 85 62 52 63 36 64 37 65 45 66
REMARK SMILES IDX 38 67 44 68 46 69 43 70 39 71 40 72 41 73 42 74 68 75 69 76
REMARK SMILES IDX 77 77 70 78 76 79 78 80 75 81 71 82 72 83 73 84 74 85 53 86
REMARK SMILES IDX 54 87 62 88 55 89 61 90 63 91 60 92 56 93 57 94 58 95 59 96
REMARK H PARENT 5 15 83 49 51 60
REMARK Flexibility Score: inf
ROOT
ATOM      1  C   UNL     1      -3.168   5.350   8.165  1.00  0.00     0.188 C 
ENDROOT
BRANCH   1   2
ATOM      2  O   UNL     1      -2.992   6.359   9.153  1.00  0.00    -0.376 OA
BRANCH   2   3
ATOM      3  C   UNL     1      -2.051   7.391   8.846  1.00  0.00     0.202 C 
BRANCH   3   4
ATOM      4  C   UNL     1      -0.635   6.936   8.451  1.00  0.00     0.261 C 
BRANCH   4   5
ATOM      5  O   UNL     1      -0.634   6.150   7.243  1.00  0.00    -0.463 OA
BRANCH   5   6
ATOM      6  C   UNL     1       0.237   5.103   7.204  1.00  0.00     0.306 C 
ATOM      7  O   UNL     1       1.168   4.934   7.979  1.00  0.00    -0.252 OA
BRANCH   6   8
ATOM      8  C   UNL     1      -0.147   4.120   6.110  1.00  0.00     0.129 C 
BRANCH   8   9
ATOM      9  C   UNL     1       0.256   4.471   4.650  1.00  0.00    -0.016 C 
ATOM     10  C   UNL     1       1.451   3.583   4.255  1.00  0.00     0.012 C 
ATOM     11  C   UNL     1       0.711   5.936   4.502  1.00  0.00     0.012 C 
BRANCH   9  12
ATOM     12  C   UNL     1      -0.950   4.270   3.680  1.00  0.00     0.107 C 
BRANCH  12  13
ATOM     13  C   UNL     1      -1.516   2.861   3.633  1.00  0.00     0.226 C 
ATOM     14  N   UNL     1      -1.062   1.876   2.835  1.00  0.00    -0.311 N 
ATOM     15  H   UNL     1      -1.435   0.987   3.034  1.00  0.00     0.171 HD
ATOM     16  O   UNL     1      -2.398   2.529   4.429  1.00  0.00    -0.275 OA
BRANCH  14  17
ATOM     17  C   UNL     1      -0.163   1.896   1.783  1.00  0.00     0.132 A 
ATOM     18  C   UNL     1       1.529  -0.741  -0.332  1.00  0.00     0.046 C 
ATOM     19  C   UNL     1       1.112   0.600   0.194  1.00  0.00    -0.032 A 
ATOM     20  C   UNL     1       0.237   0.660   1.285  1.00  0.00     0.051 A 
ATOM     21  C   UNL     1       1.548   1.806  -0.357  1.00  0.00     0.039 A 
ATOM     22  C   UNL     1       1.098   2.991   0.206  1.00  0.00     0.129 A 
ATOM     23  Br  UNL     1       2.721   1.894  -1.838  1.00  0.00    -0.049 Br
ATOM     24  N   UNL     1       0.262   3.057   1.266  1.00  0.00    -0.238 NA
ENDBRANCH  14  17
ENDBRANCH  12  13
ENDBRANCH   9  12
ENDBRANCH   8   9
ENDBRANCH   6   8
ENDBRANCH   5   6
ENDBRANCH   4   5
ENDBRANCH   3   4
ENDBRANCH   2   3
ENDBRANCH   1   2
BRANCH   1  25
ATOM     25  C   UNL     1      -3.720   5.799   6.804  1.00  0.00     0.188 C 
BRANCH  25  26
ATOM     26  O   UNL     1      -3.273   7.066   6.329  1.00  0.00    -0.376 OA
BRANCH  26  27
ATOM     27  C   UNL     1      -3.708   7.398   5.006  1.00  0.00     0.202 C 
BRANCH  27  28
ATOM     28  C   UNL     1      -5.226   7.624   4.864  1.00  0.00     0.261 C 
BRANCH  28  29
ATOM     29  O   UNL     1      -6.035   6.454   5.101  1.00  0.00    -0.460 OA
BRANCH  29  30
ATOM     30  C   UNL     1      -5.810   5.407   4.267  1.00  0.00     0.338 C 
ATOM     31  O   UNL     1      -5.152   5.429   3.251  1.00  0.00    -0.246 OA
BRANCH  30  32
ATOM     32  C   UNL     1      -6.240   4.168   4.961  1.00  0.00     0.060 A 
ATOM     33  C   UNL     1      -7.518   3.944   5.453  1.00  0.00     0.016 A 
ATOM     34  C   UNL     1      -5.261   3.195   5.133  1.00  0.00     0.016 A 
ATOM     35  C   UNL     1      -7.796   2.723   6.094  1.00  0.00     0.010 A 
ATOM     36  C   UNL     1      -5.536   1.969   5.731  1.00  0.00     0.010 A 
ATOM     37  C   UNL     1      -6.814   1.712   6.220  1.00  0.00    -0.014 A 
BRANCH  37  38
ATOM     38  C   UNL     1      -7.156   0.355   6.736  1.00  0.00     0.031 A 
ATOM     39  C   UNL     1      -6.503  -0.237   7.959  1.00  0.00     0.074 A 
ATOM     40  C   UNL     1      -8.023  -0.392   6.024  1.00  0.00     0.049 A 
ATOM     41  N   UNL     1      -6.803  -1.345   8.592  1.00  0.00    -0.248 NA
ATOM     42  C   UNL     1      -5.346   0.473   8.527  1.00  0.00     0.031 C 
ATOM     43  C   UNL     1      -8.586  -0.002   4.730  1.00  0.00     0.029 A 
ATOM     44  N   UNL     1      -8.590  -1.617   6.276  1.00  0.00    -0.354 N 
ATOM     45  C   UNL     1      -5.888  -1.455   9.635  1.00  0.00     0.074 A 
ATOM     46  C   UNL     1      -4.969  -0.347   9.499  1.00  0.00     0.031 C 
ATOM     47  C   UNL     1      -9.472  -0.927   4.339  1.00  0.00     0.029 A 
ATOM     48  C   UNL     1      -9.526  -1.991   5.338  1.00  0.00     0.049 A 
ATOM     49  H   UNL     1      -8.350  -2.173   7.052  1.00  0.00     0.167 HD
ATOM     50  C   UNL     1      -5.846  -2.373  10.633  1.00  0.00     0.034 A 
ATOM     51  C   UNL     1     -10.364  -3.047   5.303  1.00  0.00     0.034 A 
ATOM     52  C   UNL     1      -6.784  -3.464  10.746  1.00  0.00     0.049 A 
ATOM     53  C   UNL     1     -10.377  -3.999   6.470  1.00  0.00     0.074 A 
ATOM     54  C   UNL     1      -6.894  -4.398  11.762  1.00  0.00     0.029 A 
ATOM     55  N   UNL     1      -7.772  -3.768   9.819  1.00  0.00    -0.354 N 
ATOM     56  N   UNL     1      -9.621  -3.995   7.543  1.00  0.00    -0.248 NA
ATOM     57  C   UNL     1     -11.373  -5.078   6.447  1.00  0.00     0.031 C 
ATOM     58  C   UNL     1      -7.902  -5.300  11.420  1.00  0.00     0.029 A 
ATOM     59  C   UNL     1      -8.484  -4.881  10.234  1.00  0.00     0.049 A 
ATOM     60  H   UNL     1      -7.941  -3.265   8.990  1.00  0.00     0.167 HD
ATOM     61  C   UNL     1     -10.075  -5.043   8.338  1.00  0.00     0.074 A 
ATOM     62  C   UNL     1     -11.184  -5.647   7.631  1.00  0.00     0.031 C 
ATOM     63  C   UNL     1      -9.611  -5.462   9.543  1.00  0.00     0.034 A 
BRANCH  50  64
ATOM     64  C   UNL     1      -4.812  -2.226  11.729  1.00  0.00     0.023 A 
ATOM     65  C   UNL     1      -3.908  -3.270  12.009  1.00  0.00     0.031 A 
ATOM     66  C   UNL     1      -4.831  -1.121  12.601  1.00  0.00     0.131 A 
ATOM     67  C   UNL     1      -3.093  -3.203  13.149  1.00  0.00     0.055 A 
ATOM     68  C   UNL     1      -3.981  -1.036  13.705  1.00  0.00     0.041 A 
ATOM     69  F   UNL     1      -5.683  -0.103  12.394  1.00  0.00    -0.206 F 
ATOM     70  C   UNL     1      -3.118  -2.088  13.992  1.00  0.00     0.022 A 
BRANCH  67  71
ATOM     71  S   UNL     1      -2.029  -4.592  13.632  1.00  0.00     0.124 S 
ATOM     72  O   UNL     1      -0.707  -3.969  13.642  1.00  0.00    -0.237 OA
ATOM     73  O   UNL     1      -2.562  -4.944  14.946  1.00  0.00    -0.237 OA
ATOM     74  O   UNL     1      -2.241  -5.580  12.580  1.00  0.00    -0.744 OA
ENDBRANCH  67  71
ENDBRANCH  50  64
BRANCH  51  75
ATOM     75  C   UNL     1     -11.348  -3.144   4.184  1.00  0.00     0.023 A 
ATOM     76  C   UNL     1     -10.920  -3.289   2.852  1.00  0.00     0.031 A 
ATOM     77  C   UNL     1     -12.719  -2.946   4.420  1.00  0.00     0.131 A 
ATOM     78  C   UNL     1     -11.846  -3.164   1.806  1.00  0.00     0.055 A 
ATOM     79  C   UNL     1     -13.648  -2.897   3.379  1.00  0.00     0.041 A 
ATOM     80  F   UNL     1     -13.173  -2.776   5.672  1.00  0.00    -0.206 F 
ATOM     81  C   UNL     1     -13.209  -2.987   2.062  1.00  0.00     0.022 A 
BRANCH  78  82
ATOM     82  S   UNL     1     -11.292  -3.075   0.080  1.00  0.00     0.124 S 
ATOM     83  O   UNL     1     -11.966  -4.224  -0.515  1.00  0.00    -0.237 OA
ATOM     84  O   UNL     1     -11.797  -1.766  -0.328  1.00  0.00    -0.237 OA
ATOM     85  O   UNL     1      -9.840  -3.176   0.178  1.00  0.00    -0.744 OA
ENDBRANCH  78  82
ENDBRANCH  51  75
BRANCH  63  86
ATOM     86  C   UNL     1     -10.300  -6.619  10.228  1.00  0.00     0.023 A 
ATOM     87  C   UNL     1     -10.880  -6.428  11.499  1.00  0.00     0.031 A 
ATOM     88  C   UNL     1     -10.236  -7.926   9.718  1.00  0.00     0.131 A 
ATOM     89  C   UNL     1     -11.329  -7.531  12.235  1.00  0.00     0.055 A 
ATOM     90  C   UNL     1     -10.734  -9.017  10.433  1.00  0.00     0.041 A 
ATOM     91  F   UNL     1      -9.678  -8.165   8.520  1.00  0.00    -0.206 F 
ATOM     92  C   UNL     1     -11.268  -8.824  11.704  1.00  0.00     0.022 A 
BRANCH  89  93
ATOM     93  S   UNL     1     -11.906  -7.344  13.944  1.00  0.00     0.124 S 
ATOM     94  O   UNL     1     -13.290  -7.801  13.847  1.00  0.00    -0.237 OA
ATOM     95  O   UNL     1     -11.006  -8.235  14.672  1.00  0.00    -0.237 OA
ATOM     96  O   UNL     1     -11.739  -5.921  14.220  1.00  0.00    -0.744 OA
ENDBRANCH  89  93
ENDBRANCH  63  86
ENDBRANCH  37  38
ENDBRANCH  30  32
ENDBRANCH  29  30
ENDBRANCH  28  29
ENDBRANCH  27  28
ENDBRANCH  26  27
ENDBRANCH  25  26
ENDBRANCH   1  25
TORSDOF 24
