REMARK SMILES O=C(C[C@H](c1ccsc1)n1cccc1)OCCOCCOCCOC(=O)c1ccc(-c2c3nc(c(-c4cc(S(=O)(=O)[O-])ccc4F)c4ccc([nH]4)c(-c4cc(S(=O)(=O)[O-])ccc4F)c4nc(c(-c5cc(S(=O)(=O)[O-])ccc5F)c5ccc2[nH]5)C=C4)C=C3)cc1
REMARK SMILES IDX 20 1 19 2 18 3 17 4 16 5 15 6 2 7 1 8 3 9 4 10 10 11 11 12
REMARK SMILES IDX 14 13 12 14 13 15 5 16 6 17 9 18 7 19 8 20 21 21 22 22 23 23
REMARK SMILES IDX 24 24 25 25 26 26 27 27 28 28 89 29 29 30 88 31 30 32 31 33
REMARK SMILES IDX 32 34 82 35 33 36 87 37 81 38 83 39 34 40 86 41 80 42 79 43
REMARK SMILES IDX 35 45 67 46 47 47 66 48 48 49 51 50 65 51 84 52 49 53 50 54
REMARK SMILES IDX 64 56 85 57 52 58 36 59 37 60 45 61 38 62 44 63 46 64 43 65
REMARK SMILES IDX 39 66 40 67 41 68 42 69 68 70 69 71 77 72 70 73 76 74 78 75
REMARK SMILES IDX 75 76 71 77 72 78 73 79 74 80 53 81 54 82 62 83 55 84 61 85
REMARK SMILES IDX 63 86 60 87 56 88 57 89 58 90 59 91
REMARK H PARENT 83 44 51 55
REMARK Flexibility Score: inf
ROOT
ATOM      1  C   UNL     1       6.048   1.067   2.474  1.00  0.00     0.188 C 
ENDROOT
BRANCH   1   2
ATOM      2  C   UNL     1       5.631   1.714   1.142  1.00  0.00     0.188 C 
BRANCH   2   3
ATOM      3  O   UNL     1       4.262   1.881   0.806  1.00  0.00    -0.376 OA
BRANCH   3   4
ATOM      4  C   UNL     1       3.297   0.895   1.131  1.00  0.00     0.202 C 
BRANCH   4   5
ATOM      5  C   UNL     1       3.648  -0.597   1.105  1.00  0.00     0.261 C 
BRANCH   5   6
ATOM      6  O   UNL     1       4.894  -1.007   0.514  1.00  0.00    -0.463 OA
BRANCH   6   7
ATOM      7  C   UNL     1       5.244  -0.965  -0.785  1.00  0.00     0.308 C 
ATOM      8  O   UNL     1       6.286  -1.506  -1.146  1.00  0.00    -0.252 OA
BRANCH   7   9
ATOM      9  C   UNL     1       4.382  -0.211  -1.751  1.00  0.00     0.153 C 
BRANCH   9  10
ATOM     10  C   UNL     1       3.568  -1.132  -2.662  1.00  0.00     0.128 C 
BRANCH  10  11
ATOM     11  N   UNL     1       4.406  -1.909  -3.594  1.00  0.00    -0.346 N 
ATOM     12  C   UNL     1       5.328  -1.324  -4.439  1.00  0.00     0.086 A 
ATOM     13  C   UNL     1       4.413  -3.260  -3.824  1.00  0.00     0.086 A 
ATOM     14  C   UNL     1       6.009  -2.322  -5.097  1.00  0.00     0.019 A 
ATOM     15  C   UNL     1       5.431  -3.547  -4.706  1.00  0.00     0.019 A 
ENDBRANCH  10  11
BRANCH  10  16
ATOM     16  C   UNL     1       2.533  -1.928  -1.874  1.00  0.00    -0.014 A 
ATOM     17  C   UNL     1       2.783  -3.086  -1.050  1.00  0.00     0.017 A 
ATOM     18  C   UNL     1       1.205  -1.545  -1.755  1.00  0.00     0.070 A 
ATOM     19  C   UNL     1       1.665  -3.519  -0.372  1.00  0.00     0.065 A 
ATOM     20  S   UNL     1       0.300  -2.554  -0.711  1.00  0.00    -0.152 S 
ENDBRANCH  10  16
ENDBRANCH   9  10
ENDBRANCH   7   9
ENDBRANCH   6   7
ENDBRANCH   5   6
ENDBRANCH   4   5
ENDBRANCH   3   4
ENDBRANCH   2   3
ENDBRANCH   1   2
BRANCH   1  21
ATOM     21  O   UNL     1       4.973   0.525   3.230  1.00  0.00    -0.376 OA
BRANCH  21  22
ATOM     22  C   UNL     1       4.738   1.099   4.506  1.00  0.00     0.202 C 
BRANCH  22  23
ATOM     23  C   UNL     1       3.873   2.362   4.484  1.00  0.00     0.261 C 
BRANCH  23  24
ATOM     24  O   UNL     1       4.242   3.343   3.518  1.00  0.00    -0.460 OA
BRANCH  24  25
ATOM     25  C   UNL     1       5.435   3.903   3.736  1.00  0.00     0.338 C 
ATOM     26  O   UNL     1       6.321   3.512   4.510  1.00  0.00    -0.246 OA
BRANCH  25  27
ATOM     27  C   UNL     1       5.539   5.163   3.034  1.00  0.00     0.060 A 
ATOM     28  C   UNL     1       6.776   5.514   2.482  1.00  0.00     0.016 A 
ATOM     29  C   UNL     1       4.530   6.097   3.289  1.00  0.00     0.016 A 
ATOM     30  C   UNL     1       7.064   6.851   2.320  1.00  0.00     0.010 A 
ATOM     31  C   UNL     1       4.843   7.433   3.184  1.00  0.00     0.010 A 
ATOM     32  C   UNL     1       6.126   7.797   2.750  1.00  0.00    -0.014 A 
BRANCH  32  33
ATOM     33  C   UNL     1       6.490   9.218   2.716  1.00  0.00     0.031 A 
ATOM     34  C   UNL     1       6.063   9.874   1.403  1.00  0.00     0.074 A 
ATOM     35  C   UNL     1       7.130   9.684   3.834  1.00  0.00     0.049 A 
ATOM     36  N   UNL     1       6.501  10.950   0.831  1.00  0.00    -0.248 NA
ATOM     37  C   UNL     1       5.050   9.190   0.544  1.00  0.00     0.031 C 
ATOM     38  C   UNL     1       7.484   8.861   5.021  1.00  0.00     0.029 A 
ATOM     39  N   UNL     1       7.613  10.917   4.215  1.00  0.00    -0.354 N 
ATOM     40  C   UNL     1       5.656  11.209  -0.268  1.00  0.00     0.074 A 
ATOM     41  C   UNL     1       4.894  10.021  -0.486  1.00  0.00     0.031 C 
ATOM     42  C   UNL     1       8.172   9.586   5.932  1.00  0.00     0.029 A 
ATOM     43  C   UNL     1       8.295  10.952   5.464  1.00  0.00     0.049 A 
ATOM     44  H   UNL     1       7.493  11.722   3.660  1.00  0.00     0.167 HD
ATOM     45  C   UNL     1       5.516  12.445  -0.825  1.00  0.00     0.034 A 
ATOM     46  C   UNL     1       8.929  12.003   6.072  1.00  0.00     0.034 A 
ATOM     47  C   UNL     1       6.391  13.369  -0.186  1.00  0.00     0.049 A 
ATOM     48  C   UNL     1       8.591  13.171   5.243  1.00  0.00     0.074 A 
ATOM     49  C   UNL     1       7.750  13.533  -0.203  1.00  0.00     0.029 A 
ATOM     50  N   UNL     1       5.864  14.117   0.842  1.00  0.00    -0.354 N 
ATOM     51  N   UNL     1       7.429  13.748   5.218  1.00  0.00    -0.248 NA
ATOM     52  C   UNL     1       9.602  13.701   4.322  1.00  0.00     0.031 C 
ATOM     53  C   UNL     1       8.045  14.028   1.084  1.00  0.00     0.029 A 
ATOM     54  C   UNL     1       6.853  14.266   1.782  1.00  0.00     0.049 A 
ATOM     55  H   UNL     1       4.950  14.478   0.893  1.00  0.00     0.167 HD
ATOM     56  C   UNL     1       7.484  14.491   4.066  1.00  0.00     0.074 A 
ATOM     57  C   UNL     1       8.888  14.678   3.769  1.00  0.00     0.031 C 
ATOM     58  C   UNL     1       6.464  14.417   3.172  1.00  0.00     0.034 A 
BRANCH  45  59
ATOM     59  C   UNL     1       4.491  13.014  -1.768  1.00  0.00     0.023 A 
ATOM     60  C   UNL     1       4.807  14.271  -2.337  1.00  0.00     0.031 A 
ATOM     61  C   UNL     1       3.162  12.589  -1.894  1.00  0.00     0.131 A 
ATOM     62  C   UNL     1       3.818  15.103  -2.871  1.00  0.00     0.055 A 
ATOM     63  C   UNL     1       2.185  13.393  -2.501  1.00  0.00     0.041 A 
ATOM     64  F   UNL     1       2.735  11.436  -1.363  1.00  0.00    -0.206 F 
ATOM     65  C   UNL     1       2.501  14.671  -2.958  1.00  0.00     0.022 A 
BRANCH  62  66
ATOM     66  S   UNL     1       4.269  16.817  -3.264  1.00  0.00     0.124 S 
ATOM     67  O   UNL     1       4.858  17.277  -2.011  1.00  0.00    -0.237 OA
ATOM     68  O   UNL     1       5.197  16.638  -4.377  1.00  0.00    -0.237 OA
ATOM     69  O   UNL     1       2.990  17.431  -3.613  1.00  0.00    -0.744 OA
ENDBRANCH  62  66
ENDBRANCH  45  59
BRANCH  46  70
ATOM     70  C   UNL     1       9.838  12.277   7.261  1.00  0.00     0.023 A 
ATOM     71  C   UNL     1      10.218  11.357   8.254  1.00  0.00     0.031 A 
ATOM     72  C   UNL     1      10.438  13.571   7.393  1.00  0.00     0.131 A 
ATOM     73  C   UNL     1      11.174  11.724   9.245  1.00  0.00     0.055 A 
ATOM     74  C   UNL     1      11.428  13.899   8.318  1.00  0.00     0.041 A 
ATOM     75  F   UNL     1      10.095  14.603   6.611  1.00  0.00    -0.206 F 
ATOM     76  C   UNL     1      11.812  12.967   9.248  1.00  0.00     0.022 A 
BRANCH  73  77
ATOM     77  S   UNL     1      11.657  10.589  10.581  1.00  0.00     0.124 S 
ATOM     78  O   UNL     1      10.818  11.047  11.683  1.00  0.00    -0.237 OA
ATOM     79  O   UNL     1      11.337   9.274  10.036  1.00  0.00    -0.237 OA
ATOM     80  O   UNL     1      13.086  10.859  10.736  1.00  0.00    -0.744 OA
ENDBRANCH  73  77
ENDBRANCH  46  70
BRANCH  58  81
ATOM     81  C   UNL     1       5.120  14.034   3.788  1.00  0.00     0.023 A 
ATOM     82  C   UNL     1       4.552  14.820   4.811  1.00  0.00     0.031 A 
ATOM     83  C   UNL     1       4.436  12.845   3.478  1.00  0.00     0.131 A 
ATOM     84  C   UNL     1       3.385  14.400   5.484  1.00  0.00     0.055 A 
ATOM     85  C   UNL     1       3.273  12.429   4.137  1.00  0.00     0.041 A 
ATOM     86  F   UNL     1       4.880  12.030   2.524  1.00  0.00    -0.206 F 
ATOM     87  C   UNL     1       2.743  13.206   5.153  1.00  0.00     0.022 A 
BRANCH  84  88
ATOM     88  S   UNL     1       2.684  15.444   6.792  1.00  0.00     0.124 S 
ATOM     89  O   UNL     1       3.652  15.299   7.873  1.00  0.00    -0.237 OA
ATOM     90  O   UNL     1       2.629  16.756   6.154  1.00  0.00    -0.237 OA
ATOM     91  O   UNL     1       1.377  14.837   7.049  1.00  0.00    -0.744 OA
ENDBRANCH  84  88
ENDBRANCH  58  81
ENDBRANCH  32  33
ENDBRANCH  25  27
ENDBRANCH  24  25
ENDBRANCH  23  24
ENDBRANCH  22  23
ENDBRANCH  21  22
ENDBRANCH   1  21
TORSDOF 23
