REMARK SMILES Cc1ncn(CC[C@@H]2CCC[C@@]2([NH3+])C(=O)OCCOCCOCCOC(=O)c2ccc(-c3c4nc(c(-c5cc(S(=O)(=O)[O-])ccc5F)c5ccc([nH]5)c(-c5cc(S(=O)(=O)[O-])ccc5F)c5nc(c(-c6cc(S(=O)(=O)[O-])ccc6F)c6ccc3[nH]6)C=C5)C=C4)cc2)c1C
REMARK SMILES IDX 20 1 19 2 18 3 17 4 16 5 14 6 15 7 12 8 8 9 9 10 10 11 11 12
REMARK SMILES IDX 7 13 6 14 5 15 1 16 2 17 3 18 91 19 4 20 92 21 13 22 21 26
REMARK SMILES IDX 22 27 23 28 24 29 25 30 26 31 27 32 28 33 29 34 90 35 30 36
REMARK SMILES IDX 89 37 31 38 32 39 33 40 83 41 34 42 88 43 82 44 84 45 35 46
REMARK SMILES IDX 87 47 81 48 80 49 36 51 68 52 48 53 67 54 49 55 52 56 66 57
REMARK SMILES IDX 85 58 50 59 51 60 65 62 86 63 53 64 37 65 38 66 46 67 39 68
REMARK SMILES IDX 45 69 47 70 44 71 40 72 41 73 42 74 43 75 69 76 70 77 78 78
REMARK SMILES IDX 71 79 77 80 79 81 76 82 72 83 73 84 74 85 75 86 54 87 55 88
REMARK SMILES IDX 63 89 56 90 62 91 64 92 61 93 57 94 58 95 59 96 60 97
REMARK H PARENT 13 23 13 24 13 25 84 50 52 61
REMARK Flexibility Score: inf
ROOT
ATOM      1  C   UNL     1      -4.407  -0.142   5.907  1.00  0.00     0.188 C 
ENDROOT
BRANCH   1   2
ATOM      2  O   UNL     1      -5.200  -0.444   4.784  1.00  0.00    -0.376 OA
BRANCH   2   3
ATOM      3  C   UNL     1      -5.130   0.449   3.688  1.00  0.00     0.202 C 
BRANCH   3   4
ATOM      4  C   UNL     1      -3.776   0.922   3.121  1.00  0.00     0.261 C 
BRANCH   4   5
ATOM      5  O   UNL     1      -2.632   0.926   3.997  1.00  0.00    -0.459 OA
BRANCH   5   6
ATOM      6  C   UNL     1      -2.146   2.110   4.442  1.00  0.00     0.368 C 
ATOM      7  O   UNL     1      -2.744   3.170   4.291  1.00  0.00    -0.245 OA
BRANCH   6   8
ATOM      8  C   UNL     1      -0.804   1.967   5.242  1.00  0.00     0.195 C 
ATOM      9  C   UNL     1       0.332   1.051   4.678  1.00  0.00     0.064 C 
ATOM     10  C   UNL     1       1.594   1.594   5.386  1.00  0.00     0.011 C 
ATOM     11  C   UNL     1       1.355   3.088   5.576  1.00  0.00     0.008 C 
ATOM     12  C   UNL     1      -0.081   3.333   5.124  1.00  0.00     0.081 C 
BRANCH   9  13
ATOM     13  C   UNL     1       0.297  -0.485   4.809  1.00  0.00     0.032 C 
BRANCH  13  14
ATOM     14  C   UNL     1      -0.383  -1.260   3.668  1.00  0.00     0.124 C 
BRANCH  14  15
ATOM     15  N   UNL     1       0.352  -1.329   2.418  1.00  0.00    -0.335 N 
ATOM     16  C   UNL     1       1.629  -0.470  -0.876  1.00  0.00     0.069 C 
ATOM     17  C   UNL     1       1.198  -1.014   0.430  1.00  0.00     0.058 A 
ATOM     18  N   UNL     1       1.618  -2.251   0.843  1.00  0.00    -0.242 NA
ATOM     19  C   UNL     1       0.355  -0.441   1.365  1.00  0.00     0.037 A 
ATOM     20  C   UNL     1       1.071  -2.427   2.022  1.00  0.00     0.199 A 
ATOM     21  C   UNL     1      -0.384   0.839   1.286  1.00  0.00     0.066 C 
ENDBRANCH  14  15
ENDBRANCH  13  14
ENDBRANCH   9  13
BRANCH   8  22
ATOM     22  N   UNL     1      -1.056   1.779   6.688  1.00  0.00    -0.343 N 
ATOM     23  H   UNL     1      -0.167   1.690   7.180  1.00  0.00     0.345 HD
ATOM     24  H   UNL     1      -1.609   0.934   6.830  1.00  0.00     0.345 HD
ATOM     25  H   UNL     1      -1.566   2.584   7.052  1.00  0.00     0.345 HD
ENDBRANCH   8  22
ENDBRANCH   6   8
ENDBRANCH   5   6
ENDBRANCH   4   5
ENDBRANCH   3   4
ENDBRANCH   2   3
ENDBRANCH   1   2
BRANCH   1  26
ATOM     26  C   UNL     1      -3.133  -0.993   5.986  1.00  0.00     0.188 C 
BRANCH  26  27
ATOM     27  O   UNL     1      -2.792  -1.993   5.032  1.00  0.00    -0.376 OA
BRANCH  27  28
ATOM     28  C   UNL     1      -3.744  -2.802   4.359  1.00  0.00     0.202 C 
BRANCH  28  29
ATOM     29  C   UNL     1      -4.530  -3.824   5.165  1.00  0.00     0.261 C 
BRANCH  29  30
ATOM     30  O   UNL     1      -4.976  -3.285   6.388  1.00  0.00    -0.460 OA
BRANCH  30  31
ATOM     31  C   UNL     1      -4.076  -3.378   7.382  1.00  0.00     0.338 C 
ATOM     32  O   UNL     1      -2.943  -3.865   7.327  1.00  0.00    -0.246 OA
BRANCH  31  33
ATOM     33  C   UNL     1      -4.653  -2.758   8.570  1.00  0.00     0.060 A 
ATOM     34  C   UNL     1      -3.900  -2.826   9.743  1.00  0.00     0.016 A 
ATOM     35  C   UNL     1      -6.001  -2.366   8.554  1.00  0.00     0.016 A 
ATOM     36  C   UNL     1      -4.583  -2.829  10.930  1.00  0.00     0.010 A 
ATOM     37  C   UNL     1      -6.685  -2.391   9.734  1.00  0.00     0.010 A 
ATOM     38  C   UNL     1      -5.975  -2.753  10.874  1.00  0.00    -0.014 A 
BRANCH  38  39
ATOM     39  C   UNL     1      -6.714  -3.214  12.019  1.00  0.00     0.031 A 
ATOM     40  C   UNL     1      -6.940  -2.181  13.032  1.00  0.00     0.074 A 
ATOM     41  C   UNL     1      -7.227  -4.457  12.037  1.00  0.00     0.049 A 
ATOM     42  N   UNL     1      -6.412  -2.097  14.205  1.00  0.00    -0.248 NA
ATOM     43  C   UNL     1      -7.693  -0.989  12.615  1.00  0.00     0.031 C 
ATOM     44  C   UNL     1      -7.286  -5.417  10.928  1.00  0.00     0.029 A 
ATOM     45  N   UNL     1      -7.925  -5.074  13.022  1.00  0.00    -0.354 N 
ATOM     46  C   UNL     1      -6.994  -0.973  14.771  1.00  0.00     0.074 A 
ATOM     47  C   UNL     1      -7.525  -0.208  13.679  1.00  0.00     0.031 C 
ATOM     48  C   UNL     1      -8.175  -6.388  11.233  1.00  0.00     0.029 A 
ATOM     49  C   UNL     1      -8.645  -6.180  12.593  1.00  0.00     0.049 A 
ATOM     50  H   UNL     1      -7.922  -4.766  13.956  1.00  0.00     0.167 HD
ATOM     51  C   UNL     1      -7.286  -0.943  16.097  1.00  0.00     0.034 A 
ATOM     52  C   UNL     1      -9.633  -6.809  13.279  1.00  0.00     0.034 A 
ATOM     53  C   UNL     1      -6.507  -1.931  16.820  1.00  0.00     0.049 A 
ATOM     54  C   UNL     1      -9.447  -6.468  14.714  1.00  0.00     0.074 A 
ATOM     55  C   UNL     1      -5.154  -2.192  16.937  1.00  0.00     0.029 A 
ATOM     56  N   UNL     1      -7.141  -3.075  17.256  1.00  0.00    -0.354 N 
ATOM     57  N   UNL     1      -8.403  -6.830  15.410  1.00  0.00    -0.248 NA
ATOM     58  C   UNL     1     -10.186  -5.339  15.263  1.00  0.00     0.031 C 
ATOM     59  C   UNL     1      -5.045  -3.613  16.987  1.00  0.00     0.029 A 
ATOM     60  C   UNL     1      -6.335  -4.148  16.958  1.00  0.00     0.049 A 
ATOM     61  H   UNL     1      -8.017  -3.117  17.703  1.00  0.00     0.167 HD
ATOM     62  C   UNL     1      -8.107  -5.739  16.215  1.00  0.00     0.074 A 
ATOM     63  C   UNL     1      -9.308  -4.909  16.175  1.00  0.00     0.031 C 
ATOM     64  C   UNL     1      -6.823  -5.469  16.597  1.00  0.00     0.034 A 
BRANCH  51  65
ATOM     65  C   UNL     1      -8.552  -0.322  16.654  1.00  0.00     0.023 A 
ATOM     66  C   UNL     1      -8.736  -0.422  18.042  1.00  0.00     0.031 A 
ATOM     67  C   UNL     1      -9.691   0.092  15.919  1.00  0.00     0.131 A 
ATOM     68  C   UNL     1     -10.007  -0.259  18.616  1.00  0.00     0.055 A 
ATOM     69  C   UNL     1     -10.938   0.324  16.505  1.00  0.00     0.041 A 
ATOM     70  F   UNL     1      -9.708   0.223  14.588  1.00  0.00    -0.206 F 
ATOM     71  C   UNL     1     -11.113   0.108  17.857  1.00  0.00     0.022 A 
BRANCH  68  72
ATOM     72  S   UNL     1     -10.218  -0.737  20.346  1.00  0.00     0.124 S 
ATOM     73  O   UNL     1      -9.621  -2.068  20.354  1.00  0.00    -0.237 OA
ATOM     74  O   UNL     1      -9.471   0.310  21.034  1.00  0.00    -0.237 OA
ATOM     75  O   UNL     1     -11.666  -0.700  20.530  1.00  0.00    -0.744 OA
ENDBRANCH  68  72
ENDBRANCH  51  65
BRANCH  52  76
ATOM     76  C   UNL     1     -10.884  -7.361  12.697  1.00  0.00     0.023 A 
ATOM     77  C   UNL     1     -11.683  -8.299  13.377  1.00  0.00     0.031 A 
ATOM     78  C   UNL     1     -11.432  -6.796  11.520  1.00  0.00     0.131 A 
ATOM     79  C   UNL     1     -12.960  -8.642  12.874  1.00  0.00     0.055 A 
ATOM     80  C   UNL     1     -12.685  -7.152  11.018  1.00  0.00     0.041 A 
ATOM     81  F   UNL     1     -10.803  -5.812  10.858  1.00  0.00    -0.206 F 
ATOM     82  C   UNL     1     -13.460  -8.073  11.700  1.00  0.00     0.022 A 
BRANCH  79  83
ATOM     83  S   UNL     1     -14.038  -9.770  13.811  1.00  0.00     0.124 S 
ATOM     84  O   UNL     1     -13.349 -11.046  13.667  1.00  0.00    -0.237 OA
ATOM     85  O   UNL     1     -14.031  -9.174  15.142  1.00  0.00    -0.237 OA
ATOM     86  O   UNL     1     -15.318  -9.679  13.107  1.00  0.00    -0.744 OA
ENDBRANCH  79  83
ENDBRANCH  52  76
BRANCH  64  87
ATOM     87  C   UNL     1      -5.781  -6.556  16.413  1.00  0.00     0.023 A 
ATOM     88  C   UNL     1      -5.410  -7.107  15.166  1.00  0.00     0.031 A 
ATOM     89  C   UNL     1      -5.048  -6.953  17.545  1.00  0.00     0.131 A 
ATOM     90  C   UNL     1      -4.346  -8.028  15.090  1.00  0.00     0.055 A 
ATOM     91  C   UNL     1      -3.985  -7.852  17.464  1.00  0.00     0.041 A 
ATOM     92  F   UNL     1      -5.329  -6.436  18.753  1.00  0.00    -0.206 F 
ATOM     93  C   UNL     1      -3.633  -8.398  16.234  1.00  0.00     0.022 A 
BRANCH  90  94
ATOM     94  S   UNL     1      -3.864  -8.754  13.489  1.00  0.00     0.124 S 
ATOM     95  O   UNL     1      -5.121  -9.263  12.955  1.00  0.00    -0.237 OA
ATOM     96  O   UNL     1      -3.283  -7.613  12.787  1.00  0.00    -0.237 OA
ATOM     97  O   UNL     1      -2.898  -9.790  13.862  1.00  0.00    -0.744 OA
ENDBRANCH  90  94
ENDBRANCH  64  87
ENDBRANCH  38  39
ENDBRANCH  31  33
ENDBRANCH  30  31
ENDBRANCH  29  30
ENDBRANCH  28  29
ENDBRANCH  27  28
ENDBRANCH  26  27
ENDBRANCH   1  26
TORSDOF 24
