REMARK SMILES O=C(OCCOCCOCCOC(=O)c1ccc(-c2c3nc(c(-c4cc(S(=O)(=O)[O-])ccc4F)c4ccc([nH]4)c(-c4cc(S(=O)(=O)[O-])ccc4F)c4nc(c(-c5cc(S(=O)(=O)[O-])ccc5F)c5ccc2[nH]5)C=C4)C=C3)cc1)C1=Cc2c(ccc(Cl)c2Oc2ccccc2)O[C@H]1C(F)(F)F
REMARK SMILES IDX 8 1 7 2 6 3 5 4 4 5 3 6 2 7 1 8 78 9 79 10 95 11 80 12 94 13
REMARK SMILES IDX 81 14 86 15 82 16 84 17 83 18 85 19 96 20 97 21 98 22 99 23
REMARK SMILES IDX 87 24 88 25 89 26 93 27 90 28 92 29 91 30 9 31 10 32 11 33
REMARK SMILES IDX 12 34 13 35 14 36 15 37 16 38 77 39 17 40 76 41 18 42 19 43
REMARK SMILES IDX 20 44 70 45 21 46 75 47 69 48 71 49 22 50 74 51 68 52 67 53
REMARK SMILES IDX 23 55 55 56 35 57 54 58 36 59 39 60 53 61 72 62 37 63 38 64
REMARK SMILES IDX 52 66 73 67 40 68 24 69 25 70 33 71 26 72 32 73 34 74 31 75
REMARK SMILES IDX 27 76 28 77 29 78 30 79 56 80 57 81 65 82 58 83 64 84 66 85
REMARK SMILES IDX 63 86 59 87 60 88 61 89 62 90 41 91 42 92 50 93 43 94 49 95
REMARK SMILES IDX 51 96 48 97 44 98 45 99 46 100 47 101
REMARK H PARENT 71 54 39 65
REMARK Flexibility Score: inf
ROOT
ATOM      1  C   UNL     1       2.069   3.422   0.096  1.00  0.00     0.188 C 
ENDROOT
BRANCH   1   2
ATOM      2  C   UNL     1       1.704   1.373   0.682  1.00  0.00     0.188 C 
BRANCH   2   3
ATOM      3  O   UNL     1       2.400   0.464   1.624  1.00  0.00    -0.376 OA
BRANCH   3   4
ATOM      4  C   UNL     1       2.922  -0.619   0.934  1.00  0.00     0.202 C 
BRANCH   4   5
ATOM      5  C   UNL     1       2.061  -1.383  -0.110  1.00  0.00     0.261 C 
BRANCH   5   6
ATOM      6  O   UNL     1       2.116  -2.824   0.037  1.00  0.00    -0.460 OA
BRANCH   6   7
ATOM      7  C   UNL     1       3.167  -3.464   0.613  1.00  0.00     0.338 C 
ATOM      8  O   UNL     1       3.013  -4.414   1.364  1.00  0.00    -0.246 OA
BRANCH   7   9
ATOM      9  C   UNL     1       4.511  -2.894   0.339  1.00  0.00     0.088 C 
ATOM     10  C   UNL     1       4.647  -2.062  -0.704  1.00  0.00     0.031 C 
ATOM     11  C   UNL     1       5.603  -3.062   1.368  1.00  0.00     0.316 C 
ATOM     12  C   UNL     1       5.607  -0.972  -0.592  1.00  0.00     0.062 A 
ATOM     13  O   UNL     1       6.885  -2.504   0.838  1.00  0.00    -0.475 OA
ATOM     14  C   UNL     1       6.815  -1.431  -0.038  1.00  0.00     0.131 A 
ATOM     15  C   UNL     1       5.410   0.335  -1.193  1.00  0.00     0.156 A 
ATOM     16  C   UNL     1       7.971  -0.831  -0.495  1.00  0.00     0.049 A 
ATOM     17  C   UNL     1       6.603   0.861  -1.696  1.00  0.00     0.084 A 
ATOM     18  C   UNL     1       7.859   0.255  -1.389  1.00  0.00     0.028 A 
ATOM     19  Cl  UNL     1       6.603   2.154  -2.840  1.00  0.00    -0.080 Cl
BRANCH  11  20
ATOM     20  C   UNL     1       5.263  -2.592   2.821  1.00  0.00     0.430 C 
ATOM     21  F   UNL     1       3.945  -2.405   3.045  1.00  0.00    -0.167 F 
ATOM     22  F   UNL     1       5.652  -3.501   3.746  1.00  0.00    -0.167 F 
ATOM     23  F   UNL     1       5.880  -1.423   3.114  1.00  0.00    -0.167 F 
ENDBRANCH  11  20
BRANCH  15  24
ATOM     24  O   UNL     1       4.138   0.884  -1.594  1.00  0.00    -0.455 OA
BRANCH  24  25
ATOM     25  C   UNL     1       3.255   1.744  -0.777  1.00  0.00     0.127 A 
ATOM     26  C   UNL     1       1.538   1.949  -1.348  1.00  0.00     0.047 A 
ATOM     27  C   UNL     1       3.666   2.244   0.879  1.00  0.00     0.047 A 
ATOM     28  C   UNL     1       0.210   2.468  -0.196  1.00  0.00     0.004 A 
ATOM     29  C   UNL     1       2.378   2.750   2.056  1.00  0.00     0.004 A 
ATOM     30  C   UNL     1       0.641   2.926   1.524  1.00  0.00     0.000 A 
ENDBRANCH  24  25
ENDBRANCH  15  24
ENDBRANCH   7   9
ENDBRANCH   6   7
ENDBRANCH   5   6
ENDBRANCH   4   5
ENDBRANCH   3   4
ENDBRANCH   2   3
ENDBRANCH   1   2
BRANCH   1  31
ATOM     31  O   UNL     1       2.898   4.014  -0.996  1.00  0.00    -0.376 OA
BRANCH  31  32
ATOM     32  C   UNL     1       3.949   4.923  -0.688  1.00  0.00     0.202 C 
BRANCH  32  33
ATOM     33  C   UNL     1       4.139   5.832   0.567  1.00  0.00     0.261 C 
BRANCH  33  34
ATOM     34  O   UNL     1       3.783   5.365   1.879  1.00  0.00    -0.460 OA
BRANCH  34  35
ATOM     35  C   UNL     1       2.752   6.026   2.490  1.00  0.00     0.338 C 
ATOM     36  O   UNL     1       2.119   6.958   2.025  1.00  0.00    -0.246 OA
BRANCH  35  37
ATOM     37  C   UNL     1       2.357   5.303   3.731  1.00  0.00     0.060 A 
ATOM     38  C   UNL     1       1.004   4.963   3.884  1.00  0.00     0.016 A 
ATOM     39  C   UNL     1       3.299   4.824   4.652  1.00  0.00     0.016 A 
ATOM     40  C   UNL     1       0.606   4.077   4.894  1.00  0.00     0.010 A 
ATOM     41  C   UNL     1       2.888   3.993   5.710  1.00  0.00     0.010 A 
ATOM     42  C   UNL     1       1.537   3.616   5.841  1.00  0.00    -0.014 A 
BRANCH  42  43
ATOM     43  C   UNL     1       1.011   3.135   7.151  1.00  0.00     0.031 A 
ATOM     44  C   UNL     1       0.504   4.223   8.065  1.00  0.00     0.074 A 
ATOM     45  C   UNL     1       0.934   1.843   7.527  1.00  0.00     0.049 A 
ATOM     46  N   UNL     1      -0.090   4.140   9.224  1.00  0.00    -0.248 NA
ATOM     47  C   UNL     1       0.679   5.604   7.578  1.00  0.00     0.031 C 
ATOM     48  C   UNL     1       1.342   0.687   6.730  1.00  0.00     0.029 A 
ATOM     49  N   UNL     1       0.470   1.286   8.700  1.00  0.00    -0.354 N 
ATOM     50  C   UNL     1      -0.399   5.450   9.575  1.00  0.00     0.074 A 
ATOM     51  C   UNL     1       0.104   6.309   8.531  1.00  0.00     0.031 C 
ATOM     52  C   UNL     1       1.124  -0.437   7.444  1.00  0.00     0.029 A 
ATOM     53  C   UNL     1       0.579  -0.087   8.758  1.00  0.00     0.049 A 
ATOM     54  H   UNL     1       0.093   1.824   9.434  1.00  0.00     0.167 HD
ATOM     55  C   UNL     1      -1.042   5.910  10.671  1.00  0.00     0.034 A 
ATOM     56  C   UNL     1       0.286  -0.947   9.761  1.00  0.00     0.034 A 
ATOM     57  C   UNL     1      -1.435   5.068  11.765  1.00  0.00     0.049 A 
ATOM     58  C   UNL     1      -0.285  -0.390  11.056  1.00  0.00     0.074 A 
ATOM     59  C   UNL     1      -2.029   5.431  12.957  1.00  0.00     0.029 A 
ATOM     60  N   UNL     1      -1.226   3.697  11.817  1.00  0.00    -0.354 N 
ATOM     61  N   UNL     1      -0.600   0.849  11.363  1.00  0.00    -0.248 NA
ATOM     62  C   UNL     1      -0.545  -1.352  12.139  1.00  0.00     0.031 C 
ATOM     63  C   UNL     1      -2.099   4.293  13.767  1.00  0.00     0.029 A 
ATOM     64  C   UNL     1      -1.646   3.203  13.039  1.00  0.00     0.049 A 
ATOM     65  H   UNL     1      -0.838   3.156  11.092  1.00  0.00     0.167 HD
ATOM     66  C   UNL     1      -1.134   0.804  12.652  1.00  0.00     0.074 A 
ATOM     67  C   UNL     1      -1.108  -0.584  13.060  1.00  0.00     0.031 C 
ATOM     68  C   UNL     1      -1.611   1.813  13.427  1.00  0.00     0.034 A 
BRANCH  55  69
ATOM     69  C   UNL     1      -1.249   7.399  10.751  1.00  0.00     0.023 A 
ATOM     70  C   UNL     1      -2.055   8.078   9.818  1.00  0.00     0.031 A 
ATOM     71  C   UNL     1      -0.552   8.161  11.703  1.00  0.00     0.131 A 
ATOM     72  C   UNL     1      -2.079   9.479   9.808  1.00  0.00     0.055 A 
ATOM     73  C   UNL     1      -0.650   9.552  11.742  1.00  0.00     0.041 A 
ATOM     74  F   UNL     1       0.268   7.568  12.585  1.00  0.00    -0.206 F 
ATOM     75  C   UNL     1      -1.405  10.220  10.781  1.00  0.00     0.022 A 
BRANCH  72  76
ATOM     76  S   UNL     1      -2.859  10.322   8.403  1.00  0.00     0.124 S 
ATOM     77  O   UNL     1      -2.064   9.823   7.283  1.00  0.00    -0.237 OA
ATOM     78  O   UNL     1      -4.235   9.846   8.472  1.00  0.00    -0.237 OA
ATOM     79  O   UNL     1      -2.672  11.739   8.708  1.00  0.00    -0.744 OA
ENDBRANCH  72  76
ENDBRANCH  55  69
BRANCH  56  80
ATOM     80  C   UNL     1       0.564  -2.417   9.645  1.00  0.00     0.023 A 
ATOM     81  C   UNL     1      -0.456  -3.377   9.783  1.00  0.00     0.031 A 
ATOM     82  C   UNL     1       1.883  -2.889   9.512  1.00  0.00     0.131 A 
ATOM     83  C   UNL     1      -0.136  -4.747   9.844  1.00  0.00     0.055 A 
ATOM     84  C   UNL     1       2.189  -4.253   9.510  1.00  0.00     0.041 A 
ATOM     85  F   UNL     1       2.905  -2.026   9.401  1.00  0.00    -0.206 F 
ATOM     86  C   UNL     1       1.178  -5.191   9.692  1.00  0.00     0.022 A 
BRANCH  83  87
ATOM     87  S   UNL     1      -1.448  -5.941  10.243  1.00  0.00     0.124 S 
ATOM     88  O   UNL     1      -1.899  -5.460  11.544  1.00  0.00    -0.237 OA
ATOM     89  O   UNL     1      -2.376  -5.757   9.133  1.00  0.00    -0.237 OA
ATOM     90  O   UNL     1      -0.748  -7.224  10.261  1.00  0.00    -0.744 OA
ENDBRANCH  83  87
ENDBRANCH  56  80
BRANCH  68  91
ATOM     91  C   UNL     1      -2.204   1.450  14.770  1.00  0.00     0.023 A 
ATOM     92  C   UNL     1      -1.431   0.903  15.808  1.00  0.00     0.031 A 
ATOM     93  C   UNL     1      -3.571   1.683  15.017  1.00  0.00     0.131 A 
ATOM     94  C   UNL     1      -2.041   0.557  17.024  1.00  0.00     0.055 A 
ATOM     95  C   UNL     1      -4.154   1.405  16.253  1.00  0.00     0.041 A 
ATOM     96  F   UNL     1      -4.359   2.204  14.063  1.00  0.00    -0.206 F 
ATOM     97  C   UNL     1      -3.392   0.825  17.261  1.00  0.00     0.022 A 
BRANCH  94  98
ATOM     98  S   UNL     1      -1.067  -0.343  18.262  1.00  0.00     0.124 S 
ATOM     99  O   UNL     1      -0.633  -1.517  17.511  1.00  0.00    -0.237 OA
ATOM    100  O   UNL     1      -0.024   0.619  18.599  1.00  0.00    -0.237 OA
ATOM    101  O   UNL     1      -2.031  -0.611  19.328  1.00  0.00    -0.744 OA
ENDBRANCH  94  98
ENDBRANCH  68  91
ENDBRANCH  42  43
ENDBRANCH  35  37
ENDBRANCH  34  35
ENDBRANCH  33  34
ENDBRANCH  32  33
ENDBRANCH  31  32
ENDBRANCH   1  31
TORSDOF 23
