REMARK SMILES O=C(C[C@H]1SC[C@@H](C(=O)OCCOCCOCCOC(=O)c2ccc(-c3c4nc(c(-c5cc(S(=O)(=O)[O-])ccc5F)c5ccc([nH]5)c(-c5cc(S(=O)(=O)[O-])ccc5F)c5nc(c(-c6cc(S(=O)(=O)[O-])ccc6F)c6ccc3[nH]6)C=C5)C=C4)cc2)NC1=O)Nc1cccc(Cl)c1
REMARK SMILES IDX 14 1 13 2 12 3 11 4 10 5 8 6 9 7 7 8 4 9 5 10 86 11 6 12
REMARK SMILES IDX 85 13 87 14 3 16 2 17 1 18 88 19 89 21 90 22 95 23 91 24
REMARK SMILES IDX 93 25 92 26 94 27 15 28 16 29 17 30 18 31 19 32 20 33 21 34
REMARK SMILES IDX 22 35 23 36 84 37 24 38 83 39 25 40 26 41 27 42 77 43 28 44
REMARK SMILES IDX 82 45 76 46 78 47 29 48 81 49 75 50 74 51 30 53 62 54 42 55
REMARK SMILES IDX 61 56 43 57 46 58 60 59 79 60 44 61 45 62 59 64 80 65 47 66
REMARK SMILES IDX 31 67 32 68 40 69 33 70 39 71 41 72 38 73 34 74 35 75 36 76
REMARK SMILES IDX 37 77 63 78 64 79 72 80 65 81 71 82 73 83 70 84 66 85 67 86
REMARK SMILES IDX 68 87 69 88 48 89 49 90 57 91 50 92 56 93 58 94 55 95 51 96
REMARK SMILES IDX 52 97 53 98 54 99
REMARK H PARENT 85 15 88 20 78 52 46 63
REMARK Flexibility Score: inf
ROOT
ATOM      1  C   UNL     1       8.751   3.329  -2.615  1.00  0.00     0.188 C 
ENDROOT
BRANCH   1   2
ATOM      2  O   UNL     1       9.509   4.044  -1.655  1.00  0.00    -0.376 OA
BRANCH   2   3
ATOM      3  C   UNL     1       9.640   3.583  -0.325  1.00  0.00     0.202 C 
BRANCH   3   4
ATOM      4  C   UNL     1       8.418   3.178   0.512  1.00  0.00     0.261 C 
BRANCH   4   5
ATOM      5  O   UNL     1       7.389   2.446  -0.163  1.00  0.00    -0.462 OA
BRANCH   5   6
ATOM      6  C   UNL     1       6.345   3.204  -0.633  1.00  0.00     0.329 C 
ATOM      7  O   UNL     1       6.278   4.420  -0.536  1.00  0.00    -0.250 OA
BRANCH   6   8
ATOM      8  C   UNL     1       5.431   2.335  -1.526  1.00  0.00     0.202 C 
ATOM      9  C   UNL     1       3.161   1.577   0.296  1.00  0.00     0.145 C 
ATOM     10  S   UNL     1       3.035   3.206  -0.500  1.00  0.00    -0.145 SA
ATOM     11  C   UNL     1       4.374   0.701   0.002  1.00  0.00     0.234 C 
ATOM     12  C   UNL     1       4.129   2.996  -1.918  1.00  0.00     0.107 C 
ATOM     13  N   UNL     1       5.264   1.004  -0.972  1.00  0.00    -0.341 N 
ATOM     14  O   UNL     1       4.592  -0.318   0.667  1.00  0.00    -0.274 OA
ATOM     15  H   UNL     1       5.830   0.280  -1.325  1.00  0.00     0.164 HD
BRANCH   9  16
ATOM     16  C   UNL     1       2.986   1.736   1.808  1.00  0.00     0.124 C 
BRANCH  16  17
ATOM     17  C   UNL     1       4.129   2.434   2.533  1.00  0.00     0.226 C 
ATOM     18  O   UNL     1       3.997   3.584   2.944  1.00  0.00    -0.275 OA
ATOM     19  N   UNL     1       5.257   1.653   2.718  1.00  0.00    -0.326 N 
ATOM     20  H   UNL     1       5.332   0.836   2.173  1.00  0.00     0.169 HD
BRANCH  19  21
ATOM     21  C   UNL     1       6.309   1.923   3.619  1.00  0.00     0.042 A 
ATOM     22  C   UNL     1       7.510   1.223   3.454  1.00  0.00     0.026 A 
ATOM     23  C   UNL     1       6.172   2.793   4.704  1.00  0.00     0.046 A 
ATOM     24  C   UNL     1       8.571   1.408   4.346  1.00  0.00     0.004 A 
ATOM     25  C   UNL     1       7.217   2.941   5.617  1.00  0.00     0.043 A 
ATOM     26  C   UNL     1       8.419   2.260   5.438  1.00  0.00     0.020 A 
ATOM     27  Cl  UNL     1       7.006   3.939   7.004  1.00  0.00    -0.084 Cl
ENDBRANCH  19  21
ENDBRANCH  16  17
ENDBRANCH   9  16
ENDBRANCH   6   8
ENDBRANCH   5   6
ENDBRANCH   4   5
ENDBRANCH   3   4
ENDBRANCH   2   3
ENDBRANCH   1   2
BRANCH   1  28
ATOM     28  C   UNL     1       8.850   1.793  -2.731  1.00  0.00     0.188 C 
BRANCH  28  29
ATOM     29  O   UNL     1       9.752   1.176  -1.849  1.00  0.00    -0.376 OA
BRANCH  29  30
ATOM     30  C   UNL     1      11.098   0.990  -2.245  1.00  0.00     0.202 C 
BRANCH  30  31
ATOM     31  C   UNL     1      11.799   1.674  -3.440  1.00  0.00     0.261 C 
BRANCH  31  32
ATOM     32  O   UNL     1      11.081   2.636  -4.220  1.00  0.00    -0.460 OA
BRANCH  32  33
ATOM     33  C   UNL     1      10.601   2.203  -5.412  1.00  0.00     0.338 C 
ATOM     34  O   UNL     1      10.666   1.058  -5.846  1.00  0.00    -0.246 OA
BRANCH  33  35
ATOM     35  C   UNL     1       9.790   3.267  -6.040  1.00  0.00     0.060 A 
ATOM     36  C   UNL     1       8.415   3.049  -6.223  1.00  0.00     0.016 A 
ATOM     37  C   UNL     1      10.375   4.458  -6.474  1.00  0.00     0.016 A 
ATOM     38  C   UNL     1       7.630   4.005  -6.873  1.00  0.00     0.010 A 
ATOM     39  C   UNL     1       9.591   5.404  -7.148  1.00  0.00     0.010 A 
ATOM     40  C   UNL     1       8.223   5.167  -7.385  1.00  0.00    -0.014 A 
BRANCH  40  41
ATOM     41  C   UNL     1       7.482   6.009  -8.364  1.00  0.00     0.031 A 
ATOM     42  C   UNL     1       7.748   5.785  -9.831  1.00  0.00     0.074 A 
ATOM     43  C   UNL     1       6.578   6.931  -7.982  1.00  0.00     0.049 A 
ATOM     44  N   UNL     1       7.298   6.435 -10.873  1.00  0.00    -0.248 NA
ATOM     45  C   UNL     1       8.655   4.674 -10.161  1.00  0.00     0.031 C 
ATOM     46  C   UNL     1       6.178   7.204  -6.603  1.00  0.00     0.029 A 
ATOM     47  N   UNL     1       5.836   7.815  -8.728  1.00  0.00    -0.354 N 
ATOM     48  C   UNL     1       7.869   5.817 -11.981  1.00  0.00     0.074 A 
ATOM     49  C   UNL     1       8.733   4.770 -11.478  1.00  0.00     0.031 C 
ATOM     50  C   UNL     1       5.270   8.197  -6.603  1.00  0.00     0.029 A 
ATOM     51  C   UNL     1       5.056   8.661  -7.973  1.00  0.00     0.049 A 
ATOM     52  H   UNL     1       5.861   7.841  -9.712  1.00  0.00     0.167 HD
ATOM     53  C   UNL     1       7.683   6.086 -13.297  1.00  0.00     0.034 A 
ATOM     54  C   UNL     1       4.283   9.704  -8.345  1.00  0.00     0.034 A 
ATOM     55  C   UNL     1       6.837   7.145 -13.789  1.00  0.00     0.049 A 
ATOM     56  C   UNL     1       4.181  10.062  -9.814  1.00  0.00     0.074 A 
ATOM     57  C   UNL     1       6.594   7.516 -15.100  1.00  0.00     0.029 A 
ATOM     58  N   UNL     1       6.102   8.012 -12.991  1.00  0.00    -0.354 N 
ATOM     59  N   UNL     1       4.737   9.479 -10.852  1.00  0.00    -0.248 NA
ATOM     60  C   UNL     1       3.336  11.214 -10.159  1.00  0.00     0.031 C 
ATOM     61  C   UNL     1       5.774   8.649 -15.092  1.00  0.00     0.029 A 
ATOM     62  C   UNL     1       5.426   8.930 -13.781  1.00  0.00     0.049 A 
ATOM     63  H   UNL     1       6.066   7.980 -12.008  1.00  0.00     0.167 HD
ATOM     64  C   UNL     1       4.264  10.163 -11.972  1.00  0.00     0.074 A 
ATOM     65  C   UNL     1       3.375  11.194 -11.483  1.00  0.00     0.031 C 
ATOM     66  C   UNL     1       4.532   9.951 -13.287  1.00  0.00     0.034 A 
BRANCH  53  67
ATOM     67  C   UNL     1       8.455   5.247 -14.288  1.00  0.00     0.023 A 
ATOM     68  C   UNL     1       8.252   3.860 -14.398  1.00  0.00     0.031 A 
ATOM     69  C   UNL     1       9.434   5.835 -15.110  1.00  0.00     0.131 A 
ATOM     70  C   UNL     1       9.068   3.098 -15.248  1.00  0.00     0.055 A 
ATOM     71  C   UNL     1      10.180   5.084 -16.019  1.00  0.00     0.041 A 
ATOM     72  F   UNL     1       9.692   7.150 -15.031  1.00  0.00    -0.206 F 
ATOM     73  C   UNL     1      10.011   3.704 -16.081  1.00  0.00     0.022 A 
BRANCH  70  74
ATOM     74  S   UNL     1       8.985   1.290 -15.134  1.00  0.00     0.124 S 
ATOM     75  O   UNL     1       9.322   1.068 -13.729  1.00  0.00    -0.237 OA
ATOM     76  O   UNL     1       7.604   1.012 -15.510  1.00  0.00    -0.237 OA
ATOM     77  O   UNL     1       9.996   0.839 -16.088  1.00  0.00    -0.744 OA
ENDBRANCH  70  74
ENDBRANCH  53  67
BRANCH  54  78
ATOM     78  C   UNL     1       3.562  10.527  -7.326  1.00  0.00     0.023 A 
ATOM     79  C   UNL     1       2.161  10.638  -7.344  1.00  0.00     0.031 A 
ATOM     80  C   UNL     1       4.267  11.290  -6.379  1.00  0.00     0.131 A 
ATOM     81  C   UNL     1       1.517  11.537  -6.479  1.00  0.00     0.055 A 
ATOM     82  C   UNL     1       3.616  12.132  -5.474  1.00  0.00     0.041 A 
ATOM     83  F   UNL     1       5.607  11.233  -6.322  1.00  0.00    -0.206 F 
ATOM     84  C   UNL     1       2.233  12.272  -5.533  1.00  0.00     0.022 A 
BRANCH  81  85
ATOM     85  S   UNL     1      -0.263  11.821  -6.692  1.00  0.00     0.124 S 
ATOM     86  O   UNL     1      -0.326  12.267  -8.079  1.00  0.00    -0.237 OA
ATOM     87  O   UNL     1      -0.816  10.498  -6.417  1.00  0.00    -0.237 OA
ATOM     88  O   UNL     1      -0.567  12.842  -5.692  1.00  0.00    -0.744 OA
ENDBRANCH  81  85
ENDBRANCH  54  78
BRANCH  66  89
ATOM     89  C   UNL     1       3.788  10.797 -14.296  1.00  0.00     0.023 A 
ATOM     90  C   UNL     1       3.960  12.190 -14.384  1.00  0.00     0.031 A 
ATOM     91  C   UNL     1       2.874  10.191 -15.179  1.00  0.00     0.131 A 
ATOM     92  C   UNL     1       3.183  12.936 -15.286  1.00  0.00     0.055 A 
ATOM     93  C   UNL     1       2.157  10.929 -16.122  1.00  0.00     0.041 A 
ATOM     94  F   UNL     1       2.664   8.865 -15.142  1.00  0.00    -0.206 F 
ATOM     95  C   UNL     1       2.297  12.312 -16.168  1.00  0.00     0.022 A 
BRANCH  92  96
ATOM     96  S   UNL     1       3.260  14.747 -15.213  1.00  0.00     0.124 S 
ATOM     97  O   UNL     1       2.913  15.011 -13.821  1.00  0.00    -0.237 OA
ATOM     98  O   UNL     1       4.645  15.015 -15.587  1.00  0.00    -0.237 OA
ATOM     99  O   UNL     1       2.262  15.173 -16.193  1.00  0.00    -0.744 OA
ENDBRANCH  92  96
ENDBRANCH  66  89
ENDBRANCH  40  41
ENDBRANCH  33  35
ENDBRANCH  32  33
ENDBRANCH  31  32
ENDBRANCH  30  31
ENDBRANCH  29  30
ENDBRANCH  28  29
ENDBRANCH   1  28
TORSDOF 23
