REMARK SMILES COc1ccc(C(=O)N[C@H](C(=O)OCCOCCOCCOC(=O)c2ccc(-c3c4nc(c(-c5cc(S(=O)(=O)[O-])ccc5F)c5ccc([nH]5)c(-c5cc(S(=O)(=O)[O-])ccc5F)c5nc(c(-c6cc(S(=O)(=O)[O-])ccc6F)c6ccc3[nH]6)C=C5)C=C4)cc2)C2=C(C)N=N[C@H]2C)c(F)c1F
REMARK SMILES IDX 17 1 16 2 15 3 14 4 13 5 11 6 12 7 10 8 9 9 7 10 8 11 6 13
REMARK SMILES IDX 3 14 4 15 97 16 5 17 95 18 98 19 96 20 2 21 1 22 88 23 89 24
REMARK SMILES IDX 93 25 90 26 91 27 92 28 94 29 18 30 19 31 20 32 21 33 22 34
REMARK SMILES IDX 23 35 24 36 25 37 26 38 87 39 27 40 86 41 28 42 29 43 30 44
REMARK SMILES IDX 80 45 31 46 85 47 79 48 81 49 32 50 84 51 78 52 77 53 33 55
REMARK SMILES IDX 65 56 45 57 64 58 46 59 49 60 63 61 82 62 47 63 48 64 62 66
REMARK SMILES IDX 83 67 50 68 34 69 35 70 43 71 36 72 42 73 44 74 41 75 37 76
REMARK SMILES IDX 38 77 39 78 40 79 66 80 67 81 75 82 68 83 74 84 76 85 73 86
REMARK SMILES IDX 69 87 70 88 71 89 72 90 51 91 52 92 60 93 53 94 59 95 61 96
REMARK SMILES IDX 58 97 54 98 55 99 56 100 57 101
REMARK H PARENT 9 12 81 54 49 65
REMARK Flexibility Score: inf
ROOT
ATOM      1  C   UNL     1       1.595  -3.983  -8.166  1.00  0.00     0.188 C 
ENDROOT
BRANCH   1   2
ATOM      2  O   UNL     1       3.007  -3.958  -8.200  1.00  0.00    -0.376 OA
BRANCH   2   3
ATOM      3  C   UNL     1       3.762  -4.774  -7.314  1.00  0.00     0.202 C 
BRANCH   3   4
ATOM      4  C   UNL     1       3.439  -4.763  -5.815  1.00  0.00     0.261 C 
BRANCH   4   5
ATOM      5  O   UNL     1       2.171  -5.383  -5.530  1.00  0.00    -0.461 OA
BRANCH   5   6
ATOM      6  C   UNL     1       1.259  -4.643  -4.854  1.00  0.00     0.333 C 
ATOM      7  O   UNL     1       1.480  -3.509  -4.440  1.00  0.00    -0.249 OA
BRANCH   6   8
ATOM      8  C   UNL     1      -0.159  -5.283  -4.812  1.00  0.00     0.223 C 
BRANCH   8   9
ATOM      9  N   UNL     1      -1.036  -4.505  -5.711  1.00  0.00    -0.335 N 
ATOM     10  C   UNL     1      -2.344  -4.109  -5.695  1.00  0.00     0.255 C 
ATOM     11  O   UNL     1      -2.775  -3.484  -6.662  1.00  0.00    -0.269 OA
ATOM     12  H   UNL     1      -0.563  -4.196  -6.518  1.00  0.00     0.165 HD
BRANCH  10  13
ATOM     13  C   UNL     1      -3.275  -4.487  -4.625  1.00  0.00     0.078 A 
ATOM     14  C   UNL     1      -4.983  -5.526  -2.663  1.00  0.00     0.157 A 
ATOM     15  C   UNL     1      -5.352  -5.586  -4.009  1.00  0.00     0.050 A 
ATOM     16  C   UNL     1      -3.817  -4.839  -2.311  1.00  0.00     0.201 A 
ATOM     17  C   UNL     1      -4.499  -5.068  -4.990  1.00  0.00     0.021 A 
ATOM     18  C   UNL     1      -2.980  -4.302  -3.283  1.00  0.00     0.175 A 
ATOM     19  F   UNL     1      -3.447  -4.763  -1.023  1.00  0.00    -0.200 F 
ATOM     20  F   UNL     1      -1.866  -3.661  -2.902  1.00  0.00    -0.203 F 
BRANCH  14  21
ATOM     21  O   UNL     1      -5.682  -6.091  -1.633  1.00  0.00    -0.494 OA
ATOM     22  C   UNL     1      -6.558  -7.159  -1.978  1.00  0.00     0.278 C 
ENDBRANCH  14  21
ENDBRANCH  10  13
ENDBRANCH   8   9
BRANCH   8  23
ATOM     23  C   UNL     1      -0.379  -6.765  -4.989  1.00  0.00     0.012 C 
ATOM     24  C   UNL     1       0.172  -7.802  -5.648  1.00  0.00     0.064 C 
ATOM     25  C   UNL     1      -1.450  -7.418  -4.155  1.00  0.00     0.156 C 
ATOM     26  C   UNL     1       1.329  -7.942  -6.577  1.00  0.00     0.069 C 
ATOM     27  N   UNL     1      -0.475  -8.992  -5.398  1.00  0.00    -0.160 NA
ATOM     28  N   UNL     1      -1.412  -8.832  -4.583  1.00  0.00    -0.181 NA
ATOM     29  C   UNL     1      -1.176  -7.387  -2.656  1.00  0.00     0.040 C 
ENDBRANCH   8  23
ENDBRANCH   6   8
ENDBRANCH   5   6
ENDBRANCH   4   5
ENDBRANCH   3   4
ENDBRANCH   2   3
ENDBRANCH   1   2
BRANCH   1  30
ATOM     30  C   UNL     1       0.802  -5.212  -8.666  1.00  0.00     0.188 C 
BRANCH  30  31
ATOM     31  O   UNL     1       1.446  -6.318  -9.271  1.00  0.00    -0.376 OA
BRANCH  31  32
ATOM     32  C   UNL     1       2.417  -6.093 -10.276  1.00  0.00     0.202 C 
BRANCH  32  33
ATOM     33  C   UNL     1       2.028  -5.304 -11.527  1.00  0.00     0.261 C 
BRANCH  33  34
ATOM     34  O   UNL     1       1.512  -3.994 -11.250  1.00  0.00    -0.460 OA
BRANCH  34  35
ATOM     35  C   UNL     1       0.207  -3.812 -11.555  1.00  0.00     0.338 C 
ATOM     36  O   UNL     1      -0.561  -4.644 -12.038  1.00  0.00    -0.246 OA
BRANCH  35  37
ATOM     37  C   UNL     1      -0.238  -2.497 -11.074  1.00  0.00     0.060 A 
ATOM     38  C   UNL     1      -1.249  -2.436 -10.104  1.00  0.00     0.016 A 
ATOM     39  C   UNL     1       0.287  -1.328 -11.629  1.00  0.00     0.016 A 
ATOM     40  C   UNL     1      -1.762  -1.204  -9.706  1.00  0.00     0.010 A 
ATOM     41  C   UNL     1      -0.250  -0.095 -11.250  1.00  0.00     0.010 A 
ATOM     42  C   UNL     1      -1.300  -0.031 -10.315  1.00  0.00    -0.014 A 
BRANCH  42  43
ATOM     43  C   UNL     1      -2.055   1.234 -10.147  1.00  0.00     0.031 A 
ATOM     44  C   UNL     1      -3.045   1.615 -11.215  1.00  0.00     0.074 A 
ATOM     45  C   UNL     1      -1.877   2.020  -9.071  1.00  0.00     0.049 A 
ATOM     46  N   UNL     1      -3.737   2.714 -11.358  1.00  0.00    -0.248 NA
ATOM     47  C   UNL     1      -3.276   0.614 -12.270  1.00  0.00     0.031 C 
ATOM     48  C   UNL     1      -1.002   1.718  -7.940  1.00  0.00     0.029 A 
ATOM     49  N   UNL     1      -2.418   3.243  -8.762  1.00  0.00    -0.354 N 
ATOM     50  C   UNL     1      -4.478   2.544 -12.523  1.00  0.00     0.074 A 
ATOM     51  C   UNL     1      -4.124   1.249 -13.063  1.00  0.00     0.031 C 
ATOM     52  C   UNL     1      -1.053   2.739  -7.066  1.00  0.00     0.029 A 
ATOM     53  C   UNL     1      -1.925   3.785  -7.598  1.00  0.00     0.049 A 
ATOM     54  H   UNL     1      -3.095   3.689  -9.320  1.00  0.00     0.167 HD
ATOM     55  C   UNL     1      -5.375   3.390 -13.086  1.00  0.00     0.034 A 
ATOM     56  C   UNL     1      -2.130   5.000  -7.049  1.00  0.00     0.034 A 
ATOM     57  C   UNL     1      -5.704   4.683 -12.538  1.00  0.00     0.049 A 
ATOM     58  C   UNL     1      -3.053   5.972  -7.751  1.00  0.00     0.074 A 
ATOM     59  C   UNL     1      -6.590   5.627 -13.025  1.00  0.00     0.029 A 
ATOM     60  N   UNL     1      -5.149   5.221 -11.382  1.00  0.00    -0.354 N 
ATOM     61  N   UNL     1      -3.736   5.812  -8.862  1.00  0.00    -0.248 NA
ATOM     62  C   UNL     1      -3.234   7.287  -7.122  1.00  0.00     0.031 C 
ATOM     63  C   UNL     1      -6.516   6.761 -12.210  1.00  0.00     0.029 A 
ATOM     64  C   UNL     1      -5.650   6.494 -11.161  1.00  0.00     0.049 A 
ATOM     65  H   UNL     1      -4.495   4.763 -10.805  1.00  0.00     0.167 HD
ATOM     66  C   UNL     1      -4.457   6.992  -9.040  1.00  0.00     0.074 A 
ATOM     67  C   UNL     1      -4.133   7.847  -7.917  1.00  0.00     0.031 C 
ATOM     68  C   UNL     1      -5.314   7.337 -10.036  1.00  0.00     0.034 A 
BRANCH  55  69
ATOM     69  C   UNL     1      -6.008   2.963 -14.389  1.00  0.00     0.023 A 
ATOM     70  C   UNL     1      -6.839   1.833 -14.477  1.00  0.00     0.031 A 
ATOM     71  C   UNL     1      -5.744   3.679 -15.570  1.00  0.00     0.131 A 
ATOM     72  C   UNL     1      -7.319   1.412 -15.727  1.00  0.00     0.055 A 
ATOM     73  C   UNL     1      -6.292   3.303 -16.798  1.00  0.00     0.041 A 
ATOM     74  F   UNL     1      -4.936   4.751 -15.554  1.00  0.00    -0.206 F 
ATOM     75  C   UNL     1      -7.073   2.155 -16.884  1.00  0.00     0.022 A 
BRANCH  72  76
ATOM     76  S   UNL     1      -8.150  -0.196 -15.843  1.00  0.00     0.124 S 
ATOM     77  O   UNL     1      -7.113  -1.101 -15.353  1.00  0.00    -0.237 OA
ATOM     78  O   UNL     1      -9.307  -0.018 -14.973  1.00  0.00    -0.237 OA
ATOM     79  O   UNL     1      -8.454  -0.323 -17.267  1.00  0.00    -0.744 OA
ENDBRANCH  72  76
ENDBRANCH  55  69
BRANCH  56  80
ATOM     80  C   UNL     1      -1.417   5.402  -5.800  1.00  0.00     0.023 A 
ATOM     81  C   UNL     1      -2.125   5.734  -4.634  1.00  0.00     0.031 A 
ATOM     82  C   UNL     1      -0.017   5.534  -5.778  1.00  0.00     0.131 A 
ATOM     83  C   UNL     1      -1.438   6.232  -3.515  1.00  0.00     0.055 A 
ATOM     84  C   UNL     1       0.667   5.970  -4.643  1.00  0.00     0.041 A 
ATOM     85  F   UNL     1       0.711   5.239  -6.868  1.00  0.00    -0.206 F 
ATOM     86  C   UNL     1      -0.046   6.338  -3.506  1.00  0.00     0.022 A 
BRANCH  83  87
ATOM     87  S   UNL     1      -2.402   6.843  -2.104  1.00  0.00     0.124 S 
ATOM     88  O   UNL     1      -3.223   7.873  -2.731  1.00  0.00    -0.237 OA
ATOM     89  O   UNL     1      -3.102   5.639  -1.670  1.00  0.00    -0.237 OA
ATOM     90  O   UNL     1      -1.380   7.335  -1.182  1.00  0.00    -0.744 OA
ENDBRANCH  83  87
ENDBRANCH  56  80
BRANCH  68  91
ATOM     91  C   UNL     1      -6.007   8.675  -9.919  1.00  0.00     0.023 A 
ATOM     92  C   UNL     1      -5.302   9.889  -9.992  1.00  0.00     0.031 A 
ATOM     93  C   UNL     1      -7.399   8.730  -9.726  1.00  0.00     0.131 A 
ATOM     94  C   UNL     1      -5.983  11.104  -9.814  1.00  0.00     0.055 A 
ATOM     95  C   UNL     1      -8.080   9.943  -9.616  1.00  0.00     0.041 A 
ATOM     96  F   UNL     1      -8.124   7.603  -9.646  1.00  0.00    -0.206 F 
ATOM     97  C   UNL     1      -7.370  11.139  -9.645  1.00  0.00     0.022 A 
BRANCH  94  98
ATOM     98  S   UNL     1      -5.019  12.637  -9.706  1.00  0.00     0.124 S 
ATOM     99  O   UNL     1      -4.128  12.357  -8.585  1.00  0.00    -0.237 OA
ATOM    100  O   UNL     1      -4.388  12.702 -11.021  1.00  0.00    -0.237 OA
ATOM    101  O   UNL     1      -6.030  13.662  -9.454  1.00  0.00    -0.744 OA
ENDBRANCH  94  98
ENDBRANCH  68  91
ENDBRANCH  42  43
ENDBRANCH  35  37
ENDBRANCH  34  35
ENDBRANCH  33  34
ENDBRANCH  32  33
ENDBRANCH  31  32
ENDBRANCH  30  31
ENDBRANCH   1  30
TORSDOF 24
