REMARK SMILES O=C(OCCOCCOCCOC(=O)[C@H]1C[C@H]2CCCC[C@@H]2[N@@H+]1CC[C@@H]1CCCO1)c1ccc(-c2c3nc(c(-c4cc(S(=O)(=O)[O-])ccc4F)c4ccc([nH]4)c(-c4cc(S(=O)(=O)[O-])ccc4F)c4nc(c(-c5cc(S(=O)(=O)[O-])ccc5F)c5ccc2[nH]5)C=C4)C=C3)cc1
REMARK SMILES IDX 7 1 6 2 5 3 4 4 3 5 2 6 1 7 31 8 32 9 93 10 33 11 92 12
REMARK SMILES IDX 34 13 35 14 36 15 86 16 37 17 91 18 85 19 87 20 38 21 90 22
REMARK SMILES IDX 84 23 83 24 39 26 71 27 51 28 70 29 52 30 55 31 69 32 88 33
REMARK SMILES IDX 53 34 54 35 68 37 89 38 56 39 40 40 41 41 49 42 42 43 48 44
REMARK SMILES IDX 50 45 47 46 43 47 44 48 45 49 46 50 72 51 73 52 81 53 74 54
REMARK SMILES IDX 80 55 82 56 79 57 75 58 76 59 77 60 78 61 57 62 58 63 66 64
REMARK SMILES IDX 59 65 65 66 67 67 64 68 60 69 61 70 62 71 63 72 8 73 9 74
REMARK SMILES IDX 10 75 11 76 12 77 13 78 14 79 15 80 16 81 23 82 17 83 22 84
REMARK SMILES IDX 18 86 21 87 19 88 20 89 24 90 25 91 26 92 27 93 30 94 28 95
REMARK SMILES IDX 29 96
REMARK H PARENT 87 25 55 36 23 85
REMARK Flexibility Score: inf
ROOT
ATOM      1  C   UNL     1      -1.295   3.890   0.719  1.00  0.00     0.188 C 
ENDROOT
BRANCH   1   2
ATOM      2  O   UNL     1      -0.972   5.147   1.325  1.00  0.00    -0.376 OA
BRANCH   2   3
ATOM      3  C   UNL     1      -1.711   6.254   0.797  1.00  0.00     0.202 C 
BRANCH   3   4
ATOM      4  C   UNL     1      -1.182   6.822  -0.529  1.00  0.00     0.261 C 
BRANCH   4   5
ATOM      5  O   UNL     1      -0.601   5.809  -1.367  1.00  0.00    -0.460 OA
BRANCH   5   6
ATOM      6  C   UNL     1       0.713   5.486  -1.489  1.00  0.00     0.338 C 
ATOM      7  O   UNL     1       1.031   4.617  -2.300  1.00  0.00    -0.246 OA
BRANCH   6   8
ATOM      8  C   UNL     1       1.801   6.148  -0.706  1.00  0.00     0.060 A 
ATOM      9  C   UNL     1       1.641   6.708   0.562  1.00  0.00     0.016 A 
ATOM     10  C   UNL     1       3.088   6.157  -1.271  1.00  0.00     0.016 A 
ATOM     11  C   UNL     1       2.679   7.386   1.186  1.00  0.00     0.010 A 
ATOM     12  C   UNL     1       4.160   6.774  -0.614  1.00  0.00     0.010 A 
ATOM     13  C   UNL     1       3.943   7.434   0.600  1.00  0.00    -0.014 A 
BRANCH  13  14
ATOM     14  C   UNL     1       4.968   8.290   1.235  1.00  0.00     0.031 A 
ATOM     15  C   UNL     1       5.305   9.598   0.589  1.00  0.00     0.074 A 
ATOM     16  C   UNL     1       5.453   7.962   2.447  1.00  0.00     0.049 A 
ATOM     17  N   UNL     1       6.157  10.512   0.965  1.00  0.00    -0.248 NA
ATOM     18  C   UNL     1       4.573   9.924  -0.645  1.00  0.00     0.031 C 
ATOM     19  C   UNL     1       5.091   6.750   3.181  1.00  0.00     0.029 A 
ATOM     20  N   UNL     1       6.308   8.616   3.292  1.00  0.00    -0.354 N 
ATOM     21  C   UNL     1       6.071  11.519   0.011  1.00  0.00     0.074 A 
ATOM     22  C   UNL     1       5.109  11.086  -0.978  1.00  0.00     0.031 C 
ATOM     23  C   UNL     1       5.679   6.770   4.387  1.00  0.00     0.029 A 
ATOM     24  C   UNL     1       6.530   7.950   4.477  1.00  0.00     0.049 A 
ATOM     25  H   UNL     1       6.725   9.481   3.073  1.00  0.00     0.167 HD
ATOM     26  C   UNL     1       6.739  12.697  -0.026  1.00  0.00     0.034 A 
ATOM     27  C   UNL     1       7.360   8.247   5.497  1.00  0.00     0.034 A 
ATOM     28  C   UNL     1       7.716  13.072   0.965  1.00  0.00     0.049 A 
ATOM     29  C   UNL     1       8.182   9.507   5.372  1.00  0.00     0.074 A 
ATOM     30  C   UNL     1       8.555  14.170   0.990  1.00  0.00     0.029 A 
ATOM     31  N   UNL     1       7.986  12.338   2.117  1.00  0.00    -0.354 N 
ATOM     32  N   UNL     1       8.164  10.411   4.416  1.00  0.00    -0.248 NA
ATOM     33  C   UNL     1       9.141   9.783   6.446  1.00  0.00     0.031 C 
ATOM     34  C   UNL     1       9.365  14.073   2.128  1.00  0.00     0.029 A 
ATOM     35  C   UNL     1       8.986  12.951   2.852  1.00  0.00     0.049 A 
ATOM     36  H   UNL     1       7.531  11.503   2.373  1.00  0.00     0.167 HD
ATOM     37  C   UNL     1       9.102  11.369   4.782  1.00  0.00     0.074 A 
ATOM     38  C   UNL     1       9.641  10.948   6.061  1.00  0.00     0.031 C 
ATOM     39  C   UNL     1       9.497  12.490   4.123  1.00  0.00     0.034 A 
BRANCH  26  40
ATOM     40  C   UNL     1       6.480  13.579  -1.222  1.00  0.00     0.023 A 
ATOM     41  C   UNL     1       5.212  14.140  -1.463  1.00  0.00     0.031 A 
ATOM     42  C   UNL     1       7.475  13.758  -2.198  1.00  0.00     0.131 A 
ATOM     43  C   UNL     1       4.947  14.769  -2.689  1.00  0.00     0.055 A 
ATOM     44  C   UNL     1       7.228  14.459  -3.381  1.00  0.00     0.041 A 
ATOM     45  F   UNL     1       8.694  13.219  -2.039  1.00  0.00    -0.206 F 
ATOM     46  C   UNL     1       5.952  14.952  -3.641  1.00  0.00     0.022 A 
BRANCH  43  47
ATOM     47  S   UNL     1       3.228  15.185  -3.098  1.00  0.00     0.124 S 
ATOM     48  O   UNL     1       2.593  13.869  -3.075  1.00  0.00    -0.237 OA
ATOM     49  O   UNL     1       2.855  16.091  -2.015  1.00  0.00    -0.237 OA
ATOM     50  O   UNL     1       3.327  15.800  -4.419  1.00  0.00    -0.744 OA
ENDBRANCH  43  47
ENDBRANCH  26  40
BRANCH  27  51
ATOM     51  C   UNL     1       7.519   7.320   6.661  1.00  0.00     0.023 A 
ATOM     52  C   UNL     1       7.290   7.745   7.980  1.00  0.00     0.031 A 
ATOM     53  C   UNL     1       7.968   5.998   6.473  1.00  0.00     0.131 A 
ATOM     54  C   UNL     1       7.553   6.877   9.054  1.00  0.00     0.055 A 
ATOM     55  C   UNL     1       8.163   5.118   7.539  1.00  0.00     0.041 A 
ATOM     56  F   UNL     1       8.224   5.535   5.239  1.00  0.00    -0.206 F 
ATOM     57  C   UNL     1       7.971   5.561   8.841  1.00  0.00     0.022 A 
BRANCH  54  58
ATOM     58  S   UNL     1       7.449   7.524  10.748  1.00  0.00     0.124 S 
ATOM     59  O   UNL     1       8.327   8.687  10.677  1.00  0.00    -0.237 OA
ATOM     60  O   UNL     1       6.023   7.802  10.877  1.00  0.00    -0.237 OA
ATOM     61  O   UNL     1       7.945   6.418  11.565  1.00  0.00    -0.744 OA
ENDBRANCH  54  58
ENDBRANCH  27  51
BRANCH  39  62
ATOM     62  C   UNL     1      10.531  13.340   4.813  1.00  0.00     0.023 A 
ATOM     63  C   UNL     1      11.851  12.892   4.988  1.00  0.00     0.031 A 
ATOM     64  C   UNL     1      10.183  14.604   5.317  1.00  0.00     0.131 A 
ATOM     65  C   UNL     1      12.762  13.678   5.706  1.00  0.00     0.055 A 
ATOM     66  C   UNL     1      11.110  15.409   5.977  1.00  0.00     0.041 A 
ATOM     67  F   UNL     1       8.934  15.076   5.175  1.00  0.00    -0.206 F 
ATOM     68  C   UNL     1      12.405  14.941   6.187  1.00  0.00     0.022 A 
BRANCH  65  69
ATOM     69  S   UNL     1      14.394  12.986   6.085  1.00  0.00     0.124 S 
ATOM     70  O   UNL     1      14.047  11.793   6.849  1.00  0.00    -0.237 OA
ATOM     71  O   UNL     1      14.952  12.754   4.757  1.00  0.00    -0.237 OA
ATOM     72  O   UNL     1      15.045  14.047   6.852  1.00  0.00    -0.744 OA
ENDBRANCH  65  69
ENDBRANCH  39  62
ENDBRANCH  13  14
ENDBRANCH   6   8
ENDBRANCH   5   6
ENDBRANCH   4   5
ENDBRANCH   3   4
ENDBRANCH   2   3
ENDBRANCH   1   2
BRANCH   1  73
ATOM     73  C   UNL     1      -1.210   2.745   1.731  1.00  0.00     0.188 C 
BRANCH  73  74
ATOM     74  O   UNL     1      -2.228   2.703   2.732  1.00  0.00    -0.376 OA
BRANCH  74  75
ATOM     75  C   UNL     1      -2.489   3.897   3.463  1.00  0.00     0.202 C 
BRANCH  75  76
ATOM     76  C   UNL     1      -1.457   4.359   4.504  1.00  0.00     0.261 C 
BRANCH  76  77
ATOM     77  O   UNL     1      -0.089   4.270   4.086  1.00  0.00    -0.459 OA
BRANCH  77  78
ATOM     78  C   UNL     1       0.531   3.118   4.483  1.00  0.00     0.365 C 
ATOM     79  O   UNL     1      -0.022   2.244   5.145  1.00  0.00    -0.245 OA
BRANCH  78  80
ATOM     80  C   UNL     1       1.995   3.068   3.966  1.00  0.00     0.295 C 
ATOM     81  C   UNL     1       2.895   3.925   4.873  1.00  0.00     0.087 C 
ATOM     82  N   UNL     1       2.490   1.672   4.117  1.00  0.00    -0.320 N 
ATOM     83  C   UNL     1       3.773   2.920   5.620  1.00  0.00     0.054 C 
ATOM     84  C   UNL     1       2.989   1.629   5.484  1.00  0.00     0.188 C 
ATOM     85  H   UNL     1       1.774   0.952   4.022  1.00  0.00     0.349 HD
ATOM     86  C   UNL     1       4.064   3.232   7.082  1.00  0.00     0.010 C 
ATOM     87  C   UNL     1       3.715   0.428   6.049  1.00  0.00     0.065 C 
ATOM     88  C   UNL     1       4.711   2.035   7.793  1.00  0.00     0.001 C 
ATOM     89  C   UNL     1       4.015   0.691   7.530  1.00  0.00     0.006 C 
BRANCH  82  90
ATOM     90  C   UNL     1       3.237   1.112   2.996  1.00  0.00     0.265 C 
BRANCH  90  91
ATOM     91  C   UNL     1       4.536   1.732   2.436  1.00  0.00     0.093 C 
BRANCH  91  92
ATOM     92  C   UNL     1       5.915   1.135   2.791  1.00  0.00     0.123 C 
ATOM     93  C   UNL     1       6.032  -0.313   3.239  1.00  0.00     0.034 C 
ATOM     94  O   UNL     1       6.562   1.956   3.768  1.00  0.00    -0.378 OA
ATOM     95  C   UNL     1       7.099  -0.295   4.309  1.00  0.00     0.031 C 
ATOM     96  C   UNL     1       7.165   1.142   4.766  1.00  0.00     0.160 C 
ENDBRANCH  91  92
ENDBRANCH  90  91
ENDBRANCH  82  90
ENDBRANCH  78  80
ENDBRANCH  77  78
ENDBRANCH  76  77
ENDBRANCH  75  76
ENDBRANCH  74  75
ENDBRANCH  73  74
ENDBRANCH   1  73
TORSDOF 23
