REMARK SMILES CCOC(=O)c1c(NC(=O)[C@@H]2[C@@H](C(=O)OCCOCCOCCOC(=O)c3ccc(-c4c5nc(c(-c6cc(S(=O)(=O)[O-])ccc6F)c6ccc([nH]6)c(-c6cc(S(=O)(=O)[O-])ccc6F)c6nc(c(-c7cc(S(=O)(=O)[O-])ccc7F)c7ccc4[nH]7)C=C6)C=C5)cc3)[C@@H]3C=C[C@H]2CC3)sc2c1CCC2
REMARK SMILES IDX 19 1 18 2 17 3 16 4 15 5 13 6 14 7 12 8 11 9 93 10 90 11
REMARK SMILES IDX 92 12 94 13 91 14 95 15 9 16 8 17 10 19 7 20 6 21 98 22
REMARK SMILES IDX 96 23 97 24 99 25 101 26 100 27 4 28 5 29 3 30 2 31 1 32
REMARK SMILES IDX 20 33 21 34 22 35 23 36 24 37 25 38 26 39 27 40 28 41 89 42
REMARK SMILES IDX 29 43 88 44 30 45 31 46 32 47 82 48 33 49 87 50 81 51 83 52
REMARK SMILES IDX 34 53 86 54 80 55 79 56 35 58 67 59 47 60 66 61 48 62 51 63
REMARK SMILES IDX 65 64 84 65 49 66 50 67 64 69 85 70 52 71 36 72 37 73 45 74
REMARK SMILES IDX 38 75 44 76 46 77 43 78 39 79 40 80 41 81 42 82 68 83 69 84
REMARK SMILES IDX 77 85 70 86 76 87 78 88 75 89 71 90 72 91 73 92 74 93 53 94
REMARK SMILES IDX 54 95 62 96 55 97 61 98 63 99 60 100 56 101 57 102 58 103
REMARK SMILES IDX 59 104
REMARK H PARENT 8 18 83 57 51 68
REMARK Flexibility Score: inf
ROOT
ATOM      1  C   UNL     1       6.830   5.131  -6.550  1.00  0.00     0.188 C 
ENDROOT
BRANCH   1   2
ATOM      2  O   UNL     1       7.607   6.234  -7.005  1.00  0.00    -0.376 OA
BRANCH   2   3
ATOM      3  C   UNL     1       9.017   6.148  -7.021  1.00  0.00     0.202 C 
BRANCH   3   4
ATOM      4  C   UNL     1       9.749   6.029  -5.672  1.00  0.00     0.261 C 
BRANCH   4   5
ATOM      5  O   UNL     1       8.997   5.590  -4.529  1.00  0.00    -0.463 OA
BRANCH   5   6
ATOM      6  C   UNL     1       8.159   6.504  -3.974  1.00  0.00     0.310 C 
ATOM      7  O   UNL     1       7.983   7.623  -4.433  1.00  0.00    -0.252 OA
BRANCH   6   8
ATOM      8  C   UNL     1       7.540   5.977  -2.678  1.00  0.00     0.119 C 
ATOM      9  C   UNL     1       5.974   5.645  -2.780  1.00  0.00     0.100 C 
ATOM     10  C   UNL     1       5.281   6.666  -1.839  1.00  0.00     0.025 C 
ATOM     11  C   UNL     1       7.803   7.021  -1.534  1.00  0.00     0.026 C 
ATOM     12  C   UNL     1       5.765   6.392  -0.437  1.00  0.00    -0.027 C 
ATOM     13  C   UNL     1       5.681   8.094  -2.287  1.00  0.00     0.009 C 
ATOM     14  C   UNL     1       7.090   6.525  -0.285  1.00  0.00    -0.027 C 
ATOM     15  C   UNL     1       7.121   8.375  -1.847  1.00  0.00     0.009 C 
BRANCH   9  16
ATOM     16  C   UNL     1       5.736   4.119  -2.522  1.00  0.00     0.229 C 
ATOM     17  N   UNL     1       4.585   3.514  -2.090  1.00  0.00    -0.317 N 
ATOM     18  H   UNL     1       4.640   2.535  -2.010  1.00  0.00     0.170 HD
ATOM     19  O   UNL     1       6.672   3.331  -2.737  1.00  0.00    -0.274 OA
BRANCH  17  20
ATOM     20  C   UNL     1       3.367   4.049  -1.749  1.00  0.00     0.110 A 
ATOM     21  C   UNL     1       2.502   3.707  -0.708  1.00  0.00     0.098 A 
ATOM     22  C   UNL     1       1.752   4.883  -0.423  1.00  0.00    -0.017 A 
ATOM     23  S   UNL     1       2.580   5.167  -2.805  1.00  0.00    -0.122 S 
ATOM     24  C   UNL     1       1.768   5.766  -1.464  1.00  0.00     0.011 A 
ATOM     25  C   UNL     1       1.063   5.448   0.762  1.00  0.00     0.038 C 
ATOM     26  C   UNL     1       1.179   7.085  -1.165  1.00  0.00     0.047 C 
ATOM     27  C   UNL     1       0.559   6.836   0.247  1.00  0.00     0.010 C 
BRANCH  21  28
ATOM     28  C   UNL     1       2.526   2.483   0.078  1.00  0.00     0.341 C 
ATOM     29  O   UNL     1       3.499   1.752   0.184  1.00  0.00    -0.246 OA
BRANCH  28  30
ATOM     30  O   UNL     1       1.287   2.223   0.592  1.00  0.00    -0.462 OA
BRANCH  30  31
ATOM     31  C   UNL     1       1.048   0.929   1.167  1.00  0.00     0.230 C 
ATOM     32  C   UNL     1       1.043  -0.169   0.116  1.00  0.00     0.049 C 
ENDBRANCH  30  31
ENDBRANCH  28  30
ENDBRANCH  21  28
ENDBRANCH  17  20
ENDBRANCH   9  16
ENDBRANCH   6   8
ENDBRANCH   5   6
ENDBRANCH   4   5
ENDBRANCH   3   4
ENDBRANCH   2   3
ENDBRANCH   1   2
BRANCH   1  33
ATOM     33  C   UNL     1       7.463   3.776  -6.179  1.00  0.00     0.188 C 
BRANCH  33  34
ATOM     34  O   UNL     1       8.609   3.464  -6.965  1.00  0.00    -0.376 OA
BRANCH  34  35
ATOM     35  C   UNL     1       8.540   2.248  -7.691  1.00  0.00     0.202 C 
BRANCH  35  36
ATOM     36  C   UNL     1       7.764   2.352  -8.999  1.00  0.00     0.261 C 
BRANCH  36  37
ATOM     37  O   UNL     1       6.561   3.108  -8.922  1.00  0.00    -0.460 OA
BRANCH  37  38
ATOM     38  C   UNL     1       5.510   2.492  -8.340  1.00  0.00     0.338 C 
ATOM     39  O   UNL     1       5.551   1.486  -7.656  1.00  0.00    -0.246 OA
BRANCH  38  40
ATOM     40  C   UNL     1       4.280   3.200  -8.742  1.00  0.00     0.060 A 
ATOM     41  C   UNL     1       3.075   2.742  -8.209  1.00  0.00     0.016 A 
ATOM     42  C   UNL     1       4.307   4.123  -9.804  1.00  0.00     0.016 A 
ATOM     43  C   UNL     1       1.906   3.036  -8.882  1.00  0.00     0.010 A 
ATOM     44  C   UNL     1       3.140   4.407 -10.482  1.00  0.00     0.010 A 
ATOM     45  C   UNL     1       1.970   3.779 -10.067  1.00  0.00    -0.014 A 
BRANCH  45  46
ATOM     46  C   UNL     1       0.806   3.734 -10.929  1.00  0.00     0.031 A 
ATOM     47  C   UNL     1      -0.315   4.623 -10.594  1.00  0.00     0.074 A 
ATOM     48  C   UNL     1       0.745   2.917 -11.997  1.00  0.00     0.049 A 
ATOM     49  N   UNL     1      -1.485   4.281 -10.173  1.00  0.00    -0.248 NA
ATOM     50  C   UNL     1      -0.095   6.070 -10.681  1.00  0.00     0.031 C 
ATOM     51  C   UNL     1       1.846   2.192 -12.636  1.00  0.00     0.029 A 
ATOM     52  N   UNL     1      -0.327   2.639 -12.792  1.00  0.00    -0.354 N 
ATOM     53  C   UNL     1      -2.229   5.451 -10.133  1.00  0.00     0.074 A 
ATOM     54  C   UNL     1      -1.292   6.531 -10.320  1.00  0.00     0.031 C 
ATOM     55  C   UNL     1       1.428   1.728 -13.833  1.00  0.00     0.029 A 
ATOM     56  C   UNL     1       0.007   2.006 -13.977  1.00  0.00     0.049 A 
ATOM     57  H   UNL     1      -1.252   2.867 -12.546  1.00  0.00     0.167 HD
ATOM     58  C   UNL     1      -3.588   5.427 -10.140  1.00  0.00     0.034 A 
ATOM     59  C   UNL     1      -0.806   1.794 -15.040  1.00  0.00     0.034 A 
ATOM     60  C   UNL     1      -4.106   4.130  -9.778  1.00  0.00     0.049 A 
ATOM     61  C   UNL     1      -2.205   1.798 -14.549  1.00  0.00     0.074 A 
ATOM     62  C   UNL     1      -3.962   3.303  -8.678  1.00  0.00     0.029 A 
ATOM     63  N   UNL     1      -4.657   3.341 -10.761  1.00  0.00    -0.354 N 
ATOM     64  N   UNL     1      -2.700   0.890 -13.753  1.00  0.00    -0.248 NA
ATOM     65  C   UNL     1      -2.976   3.029 -14.628  1.00  0.00     0.031 C 
ATOM     66  C   UNL     1      -3.992   1.976  -9.196  1.00  0.00     0.029 A 
ATOM     67  C   UNL     1      -4.179   2.065 -10.577  1.00  0.00     0.049 A 
ATOM     68  H   UNL     1      -5.279   3.635 -11.465  1.00  0.00     0.167 HD
ATOM     69  C   UNL     1      -3.584   1.570 -12.932  1.00  0.00     0.074 A 
ATOM     70  C   UNL     1      -3.810   2.845 -13.601  1.00  0.00     0.031 C 
ATOM     71  C   UNL     1      -3.830   1.155 -11.653  1.00  0.00     0.034 A 
BRANCH  58  72
ATOM     72  C   UNL     1      -4.452   6.506 -10.740  1.00  0.00     0.023 A 
ATOM     73  C   UNL     1      -5.841   6.432 -10.529  1.00  0.00     0.031 A 
ATOM     74  C   UNL     1      -4.021   7.440 -11.709  1.00  0.00     0.131 A 
ATOM     75  C   UNL     1      -6.727   7.215 -11.287  1.00  0.00     0.055 A 
ATOM     76  C   UNL     1      -4.901   8.275 -12.402  1.00  0.00     0.041 A 
ATOM     77  F   UNL     1      -2.745   7.525 -12.106  1.00  0.00    -0.206 F 
ATOM     78  C   UNL     1      -6.266   8.150 -12.211  1.00  0.00     0.022 A 
BRANCH  75  79
ATOM     79  S   UNL     1      -8.499   6.855 -11.181  1.00  0.00     0.124 S 
ATOM     80  O   UNL     1      -8.525   5.413 -11.401  1.00  0.00    -0.237 OA
ATOM     81  O   UNL     1      -8.816   7.306  -9.830  1.00  0.00    -0.237 OA
ATOM     82  O   UNL     1      -9.073   7.659 -12.258  1.00  0.00    -0.744 OA
ENDBRANCH  75  79
ENDBRANCH  58  72
BRANCH  59  83
ATOM     83  C   UNL     1      -0.417   1.887 -16.468  1.00  0.00     0.023 A 
ATOM     84  C   UNL     1      -1.196   1.322 -17.493  1.00  0.00     0.031 A 
ATOM     85  C   UNL     1       0.638   2.742 -16.865  1.00  0.00     0.131 A 
ATOM     86  C   UNL     1      -0.899   1.607 -18.844  1.00  0.00     0.055 A 
ATOM     87  C   UNL     1       0.942   3.001 -18.201  1.00  0.00     0.041 A 
ATOM     88  F   UNL     1       1.359   3.427 -15.963  1.00  0.00    -0.206 F 
ATOM     89  C   UNL     1       0.167   2.437 -19.200  1.00  0.00     0.022 A 
BRANCH  86  90
ATOM     90  S   UNL     1      -1.992   0.993 -20.162  1.00  0.00     0.124 S 
ATOM     91  O   UNL     1      -1.655  -0.425 -20.206  1.00  0.00    -0.237 OA
ATOM     92  O   UNL     1      -3.317   1.330 -19.653  1.00  0.00    -0.237 OA
ATOM     93  O   UNL     1      -1.575   1.764 -21.334  1.00  0.00    -0.744 OA
ENDBRANCH  86  90
ENDBRANCH  59  83
BRANCH  71  94
ATOM     94  C   UNL     1      -3.456  -0.260 -11.264  1.00  0.00     0.023 A 
ATOM     95  C   UNL     1      -2.155  -0.798 -11.364  1.00  0.00     0.031 A 
ATOM     96  C   UNL     1      -4.444  -1.054 -10.653  1.00  0.00     0.131 A 
ATOM     97  C   UNL     1      -1.887  -2.092 -10.877  1.00  0.00     0.055 A 
ATOM     98  C   UNL     1      -4.172  -2.329 -10.156  1.00  0.00     0.041 A 
ATOM     99  F   UNL     1      -5.694  -0.587 -10.497  1.00  0.00    -0.206 F 
ATOM    100  C   UNL     1      -2.891  -2.856 -10.273  1.00  0.00     0.022 A 
BRANCH  97 101
ATOM    101  S   UNL     1      -0.220  -2.807 -11.030  1.00  0.00     0.124 S 
ATOM    102  O   UNL     1       0.147  -2.527 -12.413  1.00  0.00    -0.237 OA
ATOM    103  O   UNL     1       0.526  -2.078 -10.008  1.00  0.00    -0.237 OA
ATOM    104  O   UNL     1      -0.431  -4.225 -10.732  1.00  0.00    -0.744 OA
ENDBRANCH  97 101
ENDBRANCH  71  94
ENDBRANCH  45  46
ENDBRANCH  38  40
ENDBRANCH  37  38
ENDBRANCH  36  37
ENDBRANCH  35  36
ENDBRANCH  34  35
ENDBRANCH  33  34
ENDBRANCH   1  33
TORSDOF 25
