REMARK SMILES O=C(OCCOCCOCCOC(=O)[C@H](NC(=O)[C@H]1CC[C@@H](CNC(=O)[C@@H]2Cc3ccccc3C[NH2+]2)CC1)c1ccccc1)c1ccc(-c2c3nc(c(-c4cc(S(=O)(=O)[O-])ccc4F)c4ccc([nH]4)c(-c4cc(S(=O)(=O)[O-])ccc4F)c4nc(c(-c5cc(S(=O)(=O)[O-])ccc5F)c5ccc2[nH]5)C=C4)C=C3)cc1
REMARK SMILES IDX 8 1 7 2 6 3 5 4 4 5 3 6 2 7 1 8 45 9 46 10 107 11 47 12
REMARK SMILES IDX 106 13 48 14 49 15 50 16 100 17 51 18 105 19 99 20 101 21
REMARK SMILES IDX 52 22 104 23 98 24 97 25 53 27 85 28 65 29 84 30 66 31 69 32
REMARK SMILES IDX 83 33 102 34 67 35 68 36 82 38 103 39 70 40 54 41 55 42
REMARK SMILES IDX 63 43 56 44 62 45 64 46 61 47 57 48 58 49 59 50 60 51 86 52
REMARK SMILES IDX 87 53 95 54 88 55 94 56 96 57 93 58 89 59 90 60 91 61 92 62
REMARK SMILES IDX 71 63 72 64 80 65 73 66 79 67 81 68 78 69 74 70 75 71 76 72
REMARK SMILES IDX 77 73 9 74 10 75 11 76 12 77 13 78 14 79 15 80 39 81 40 82
REMARK SMILES IDX 44 83 41 84 43 85 42 86 16 87 17 88 18 90 19 91 38 92 20 93
REMARK SMILES IDX 37 94 21 95 22 96 23 97 24 98 25 99 26 101 27 102 28 103
REMARK SMILES IDX 36 104 29 105 35 106 30 109 34 110 31 111 33 112 32 113
REMARK H PARENT 101 26 69 37 16 89 24 100 36 107 36 108
REMARK Flexibility Score: inf
ROOT
ATOM      1  C   UNL     1      12.370  -4.375   0.262  1.00  0.00     0.188 C 
ENDROOT
BRANCH   1   2
ATOM      2  C   UNL     1      13.305  -5.055  -0.735  1.00  0.00     0.188 C 
BRANCH   2   3
ATOM      3  O   UNL     1      13.424  -6.454  -0.445  1.00  0.00    -0.376 OA
BRANCH   3   4
ATOM      4  C   UNL     1      14.703  -6.992  -0.792  1.00  0.00     0.202 C 
BRANCH   4   5
ATOM      5  C   UNL     1      14.833  -7.413  -2.261  1.00  0.00     0.261 C 
BRANCH   5   6
ATOM      6  O   UNL     1      13.934  -6.693  -3.120  1.00  0.00    -0.460 OA
BRANCH   6   7
ATOM      7  C   UNL     1      12.695  -7.066  -3.530  1.00  0.00     0.338 C 
ATOM      8  O   UNL     1      12.082  -6.321  -4.292  1.00  0.00    -0.246 OA
BRANCH   7   9
ATOM      9  C   UNL     1      12.058  -8.368  -3.154  1.00  0.00     0.060 A 
ATOM     10  C   UNL     1      12.258  -9.045  -1.949  1.00  0.00     0.016 A 
ATOM     11  C   UNL     1      11.146  -8.920  -4.066  1.00  0.00     0.016 A 
ATOM     12  C   UNL     1      11.688 -10.299  -1.712  1.00  0.00     0.010 A 
ATOM     13  C   UNL     1      10.514 -10.144  -3.803  1.00  0.00     0.010 A 
ATOM     14  C   UNL     1      10.816 -10.869  -2.639  1.00  0.00    -0.014 A 
BRANCH  14  15
ATOM     15  C   UNL     1      10.312 -12.256  -2.455  1.00  0.00     0.031 A 
ATOM     16  C   UNL     1      10.758 -13.319  -3.425  1.00  0.00     0.074 A 
ATOM     17  C   UNL     1       9.501 -12.591  -1.430  1.00  0.00     0.049 A 
ATOM     18  N   UNL     1      10.319 -14.541  -3.574  1.00  0.00    -0.248 NA
ATOM     19  C   UNL     1      11.868 -12.963  -4.325  1.00  0.00     0.031 C 
ATOM     20  C   UNL     1       9.100 -11.720  -0.324  1.00  0.00     0.029 A 
ATOM     21  N   UNL     1       8.826 -13.762  -1.177  1.00  0.00    -0.354 N 
ATOM     22  C   UNL     1      11.111 -15.109  -4.566  1.00  0.00     0.074 A 
ATOM     23  C   UNL     1      12.021 -14.080  -5.022  1.00  0.00     0.031 C 
ATOM     24  C   UNL     1       8.174 -12.349   0.424  1.00  0.00     0.029 A 
ATOM     25  C   UNL     1       7.879 -13.636  -0.183  1.00  0.00     0.049 A 
ATOM     26  H   UNL     1       9.002 -14.604  -1.656  1.00  0.00     0.167 HD
ATOM     27  C   UNL     1      11.103 -16.381  -5.030  1.00  0.00     0.034 A 
ATOM     28  C   UNL     1       6.838 -14.435   0.119  1.00  0.00     0.034 A 
ATOM     29  C   UNL     1      10.201 -17.402  -4.567  1.00  0.00     0.049 A 
ATOM     30  C   UNL     1       6.665 -15.729  -0.632  1.00  0.00     0.074 A 
ATOM     31  C   UNL     1      10.169 -18.749  -4.888  1.00  0.00     0.029 A 
ATOM     32  N   UNL     1       9.144 -17.174  -3.705  1.00  0.00    -0.354 N 
ATOM     33  N   UNL     1       7.418 -16.251  -1.567  1.00  0.00    -0.248 NA
ATOM     34  C   UNL     1       5.491 -16.537  -0.272  1.00  0.00     0.031 C 
ATOM     35  C   UNL     1       9.046 -19.320  -4.275  1.00  0.00     0.029 A 
ATOM     36  C   UNL     1       8.412 -18.337  -3.537  1.00  0.00     0.049 A 
ATOM     37  H   UNL     1       8.941 -16.313  -3.273  1.00  0.00     0.167 HD
ATOM     38  C   UNL     1       6.823 -17.470  -1.871  1.00  0.00     0.074 A 
ATOM     39  C   UNL     1       5.652 -17.599  -1.036  1.00  0.00     0.031 C 
ATOM     40  C   UNL     1       7.223 -18.424  -2.744  1.00  0.00     0.034 A 
BRANCH  27  41
ATOM     41  C   UNL     1      12.081 -16.731  -6.113  1.00  0.00     0.023 A 
ATOM     42  C   UNL     1      13.460 -16.808  -5.862  1.00  0.00     0.031 A 
ATOM     43  C   UNL     1      11.622 -16.994  -7.414  1.00  0.00     0.131 A 
ATOM     44  C   UNL     1      14.342 -17.097  -6.913  1.00  0.00     0.055 A 
ATOM     45  C   UNL     1      12.498 -17.338  -8.443  1.00  0.00     0.041 A 
ATOM     46  F   UNL     1      10.314 -16.911  -7.706  1.00  0.00    -0.206 F 
ATOM     47  C   UNL     1      13.868 -17.384  -8.197  1.00  0.00     0.022 A 
BRANCH  44  48
ATOM     48  S   UNL     1      16.125 -17.009  -6.599  1.00  0.00     0.124 S 
ATOM     49  O   UNL     1      16.298 -15.595  -6.273  1.00  0.00    -0.237 OA
ATOM     50  O   UNL     1      16.299 -17.943  -5.492  1.00  0.00    -0.237 OA
ATOM     51  O   UNL     1      16.717 -17.428  -7.867  1.00  0.00    -0.744 OA
ENDBRANCH  44  48
ENDBRANCH  27  41
BRANCH  28  52
ATOM     52  C   UNL     1       5.705 -14.032   0.998  1.00  0.00     0.023 A 
ATOM     53  C   UNL     1       5.473 -14.700   2.209  1.00  0.00     0.031 A 
ATOM     54  C   UNL     1       4.640 -13.335   0.393  1.00  0.00     0.131 A 
ATOM     55  C   UNL     1       4.156 -14.776   2.694  1.00  0.00     0.055 A 
ATOM     56  C   UNL     1       3.360 -13.322   0.944  1.00  0.00     0.041 A 
ATOM     57  F   UNL     1       4.807 -12.772  -0.814  1.00  0.00    -0.206 F 
ATOM     58  C   UNL     1       3.106 -14.074   2.086  1.00  0.00     0.022 A 
BRANCH  55  59
ATOM     59  S   UNL     1       3.748 -16.038   3.940  1.00  0.00     0.124 S 
ATOM     60  O   UNL     1       3.481 -17.189   3.088  1.00  0.00    -0.237 OA
ATOM     61  O   UNL     1       4.965 -16.125   4.742  1.00  0.00    -0.237 OA
ATOM     62  O   UNL     1       2.587 -15.473   4.622  1.00  0.00    -0.744 OA
ENDBRANCH  55  59
ENDBRANCH  28  52
BRANCH  40  63
ATOM     63  C   UNL     1       6.391 -19.672  -2.752  1.00  0.00     0.023 A 
ATOM     64  C   UNL     1       5.085 -19.668  -3.273  1.00  0.00     0.031 A 
ATOM     65  C   UNL     1       6.841 -20.813  -2.069  1.00  0.00     0.131 A 
ATOM     66  C   UNL     1       4.241 -20.758  -3.024  1.00  0.00     0.055 A 
ATOM     67  C   UNL     1       6.015 -21.919  -1.878  1.00  0.00     0.041 A 
ATOM     68  F   UNL     1       8.073 -20.847  -1.535  1.00  0.00    -0.206 F 
ATOM     69  C   UNL     1       4.701 -21.887  -2.341  1.00  0.00     0.022 A 
BRANCH  66  70
ATOM     70  S   UNL     1       2.498 -20.634  -3.509  1.00  0.00     0.124 S 
ATOM     71  O   UNL     1       2.006 -19.595  -2.612  1.00  0.00    -0.237 OA
ATOM     72  O   UNL     1       2.588 -20.265  -4.919  1.00  0.00    -0.237 OA
ATOM     73  O   UNL     1       1.978 -21.977  -3.257  1.00  0.00    -0.744 OA
ENDBRANCH  66  70
ENDBRANCH  40  63
ENDBRANCH  14  15
ENDBRANCH   7   9
ENDBRANCH   6   7
ENDBRANCH   5   6
ENDBRANCH   4   5
ENDBRANCH   3   4
ENDBRANCH   2   3
ENDBRANCH   1   2
BRANCH   1  74
ATOM     74  O   UNL     1      12.867  -4.246   1.595  1.00  0.00    -0.376 OA
BRANCH  74  75
ATOM     75  C   UNL     1      13.244  -5.432   2.286  1.00  0.00     0.202 C 
BRANCH  75  76
ATOM     76  C   UNL     1      12.118  -6.317   2.831  1.00  0.00     0.261 C 
BRANCH  76  77
ATOM     77  O   UNL     1      11.238  -6.888   1.852  1.00  0.00    -0.461 OA
BRANCH  77  78
ATOM     78  C   UNL     1      10.062  -6.212   1.692  1.00  0.00     0.333 C 
ATOM     79  O   UNL     1       9.851  -5.065   2.079  1.00  0.00    -0.249 OA
BRANCH  78  80
ATOM     80  C   UNL     1       8.969  -7.106   1.064  1.00  0.00     0.223 C 
BRANCH  80  81
ATOM     81  C   UNL     1       8.160  -7.581   2.256  1.00  0.00    -0.014 A 
ATOM     82  C   UNL     1       8.614  -8.696   2.980  1.00  0.00     0.006 A 
ATOM     83  C   UNL     1       7.058  -6.856   2.740  1.00  0.00     0.006 A 
ATOM     84  C   UNL     1       7.997  -9.056   4.174  1.00  0.00     0.000 A 
ATOM     85  C   UNL     1       6.420  -7.246   3.916  1.00  0.00     0.000 A 
ATOM     86  C   UNL     1       6.899  -8.335   4.638  1.00  0.00     0.000 A 
ENDBRANCH  80  81
BRANCH  80  87
ATOM     87  N   UNL     1       8.238  -6.282   0.084  1.00  0.00    -0.339 N 
ATOM     88  C   UNL     1       7.358  -6.496  -0.918  1.00  0.00     0.224 C 
ATOM     89  H   UNL     1       8.447  -5.326   0.185  1.00  0.00     0.164 HD
ATOM     90  O   UNL     1       7.177  -5.520  -1.662  1.00  0.00    -0.275 OA
BRANCH  88  91
ATOM     91  C   UNL     1       6.542  -7.773  -1.173  1.00  0.00     0.078 C 
ATOM     92  C   UNL     1       6.781  -8.943  -0.244  1.00  0.00     0.014 C 
ATOM     93  C   UNL     1       5.048  -7.370  -1.184  1.00  0.00     0.014 C 
ATOM     94  C   UNL     1       5.808 -10.090  -0.441  1.00  0.00     0.006 C 
ATOM     95  C   UNL     1       4.058  -8.536  -1.242  1.00  0.00     0.006 C 
ATOM     96  C   UNL     1       4.357  -9.653  -0.238  1.00  0.00     0.008 C 
BRANCH  96  97
ATOM     97  C   UNL     1       4.080  -9.260   1.236  1.00  0.00     0.119 C 
BRANCH  97  98
ATOM     98  N   UNL     1       2.833  -9.835   1.710  1.00  0.00    -0.351 N 
ATOM     99  C   UNL     1       2.475 -10.377   2.909  1.00  0.00     0.278 C 
ATOM    100  H   UNL     1       2.111  -9.835   1.040  1.00  0.00     0.163 HD
ATOM    101  O   UNL     1       1.286 -10.709   3.018  1.00  0.00    -0.268 OA
BRANCH  99 102
ATOM    102  C   UNL     1       3.440 -10.456   4.132  1.00  0.00     0.277 C 
ATOM    103  C   UNL     1       4.768 -11.191   3.845  1.00  0.00     0.111 C 
ATOM    104  N   UNL     1       2.659 -10.953   5.314  1.00  0.00    -0.332 N 
ATOM    105  C   UNL     1       5.282 -12.056   4.965  1.00  0.00    -0.033 A 
ATOM    106  C   UNL     1       2.890 -12.388   5.555  1.00  0.00     0.298 C 
ATOM    107  H   UNL     1       1.665 -10.802   5.140  1.00  0.00     0.347 HD
ATOM    108  H   UNL     1       2.969 -10.438   6.138  1.00  0.00     0.347 HD
ATOM    109  C   UNL     1       6.641 -12.365   5.099  1.00  0.00     0.004 A 
ATOM    110  C   UNL     1       4.346 -12.657   5.814  1.00  0.00     0.010 A 
ATOM    111  C   UNL     1       7.069 -13.241   6.096  1.00  0.00     0.000 A 
ATOM    112  C   UNL     1       4.777 -13.565   6.787  1.00  0.00     0.010 A 
ATOM    113  C   UNL     1       6.136 -13.845   6.935  1.00  0.00     0.001 A 
ENDBRANCH  99 102
ENDBRANCH  97  98
ENDBRANCH  96  97
ENDBRANCH  88  91
ENDBRANCH  80  87
ENDBRANCH  78  80
ENDBRANCH  77  78
ENDBRANCH  76  77
ENDBRANCH  75  76
ENDBRANCH  74  75
ENDBRANCH   1  74
TORSDOF 26
