REMARK SMILES Nc1nc(Nc2ccc(C(=O)OCCOCCOCCOC(=O)c3ccc(-c4c5nc(c(-c6cc(S(=O)(=O)[O-])ccc6F)c6ccc([nH]6)c(-c6cc(S(=O)(=O)[O-])ccc6F)c6nc(c(-c7cc(S(=O)(=O)[O-])ccc7F)c7ccc4[nH]7)C=C6)C=C5)cc3)cc2)ccc1[N+](=O)[O-]
REMARK SMILES IDX 16 1 15 2 14 3 13 4 12 5 10 6 11 7 9 8 6 9 7 10 88 11 8 12
REMARK SMILES IDX 87 13 5 14 4 16 2 17 3 18 91 19 90 20 89 21 1 22 92 25 93 26
REMARK SMILES IDX 94 27 17 28 18 29 19 30 20 31 21 32 22 33 23 34 24 35 25 36
REMARK SMILES IDX 86 37 26 38 85 39 27 40 28 41 29 42 79 43 30 44 84 45 78 46
REMARK SMILES IDX 80 47 31 48 83 49 77 50 76 51 32 53 64 54 44 55 63 56 45 57
REMARK SMILES IDX 48 58 62 59 81 60 46 61 47 62 61 64 82 65 49 66 33 67 34 68
REMARK SMILES IDX 42 69 35 70 41 71 43 72 40 73 36 74 37 75 38 76 39 77 65 78
REMARK SMILES IDX 66 79 74 80 67 81 73 82 75 83 72 84 68 85 69 86 70 87 71 88
REMARK SMILES IDX 50 89 51 90 59 91 52 92 58 93 60 94 57 95 53 96 54 97 55 98
REMARK SMILES IDX 56 99
REMARK H PARENT 5 15 1 23 1 24 80 52 48 63
REMARK Flexibility Score: inf
ROOT
ATOM      1  C   UNL     1       0.642   9.168   0.419  1.00  0.00     0.188 C 
ENDROOT
BRANCH   1   2
ATOM      2  O   UNL     1       1.731  10.068   0.540  1.00  0.00    -0.376 OA
BRANCH   2   3
ATOM      3  C   UNL     1       2.985   9.762  -0.048  1.00  0.00     0.202 C 
BRANCH   3   4
ATOM      4  C   UNL     1       3.615   8.366   0.055  1.00  0.00     0.261 C 
BRANCH   4   5
ATOM      5  O   UNL     1       2.729   7.277  -0.229  1.00  0.00    -0.460 OA
BRANCH   5   6
ATOM      6  C   UNL     1       2.474   6.462   0.828  1.00  0.00     0.338 C 
ATOM      7  O   UNL     1       2.965   6.525   1.934  1.00  0.00    -0.246 OA
BRANCH   6   8
ATOM      8  C   UNL     1       1.359   5.548   0.495  1.00  0.00     0.060 A 
ATOM      9  C   UNL     1      -0.672   3.672   0.065  1.00  0.00     0.040 A 
ATOM     10  C   UNL     1      -0.663   4.442   1.234  1.00  0.00     0.027 A 
ATOM     11  C   UNL     1       0.301   3.914  -0.919  1.00  0.00     0.027 A 
ATOM     12  C   UNL     1       0.357   5.366   1.456  1.00  0.00     0.018 A 
ATOM     13  C   UNL     1       1.310   4.858  -0.716  1.00  0.00     0.018 A 
BRANCH   9  14
ATOM     14  N   UNL     1      -1.490   2.522   0.005  1.00  0.00    -0.340 N 
ATOM     15  H   UNL     1      -2.467   2.637  -0.015  1.00  0.00     0.168 HD
BRANCH  14  16
ATOM     16  C   UNL     1      -0.962   1.214  -0.026  1.00  0.00     0.133 A 
ATOM     17  C   UNL     1       0.922  -0.187  -0.057  1.00  0.00     0.204 A 
ATOM     18  N   UNL     1       0.381   1.044  -0.078  1.00  0.00    -0.207 NA
ATOM     19  C   UNL     1       0.117  -1.316  -0.013  1.00  0.00     0.311 A 
ATOM     20  C   UNL     1      -1.276  -1.162   0.001  1.00  0.00     0.093 A 
ATOM     21  C   UNL     1      -1.820   0.122  -0.017  1.00  0.00     0.054 A 
BRANCH  17  22
ATOM     22  N   UNL     1       2.296  -0.179  -0.176  1.00  0.00    -0.378 N 
ATOM     23  H   UNL     1       2.783   0.676  -0.199  1.00  0.00     0.158 HD
ATOM     24  H   UNL     1       2.790  -1.028  -0.239  1.00  0.00     0.158 HD
ENDBRANCH  17  22
BRANCH  19  25
ATOM     25  N   UNL     1       0.691  -2.653   0.040  1.00  0.00     0.066 N 
ATOM     26  O   UNL     1      -0.051  -3.604  -0.253  1.00  0.00    -0.258 OA
ATOM     27  O   UNL     1       1.871  -2.782   0.401  1.00  0.00    -0.258 OA
ENDBRANCH  19  25
ENDBRANCH  14  16
ENDBRANCH   9  14
ENDBRANCH   6   8
ENDBRANCH   5   6
ENDBRANCH   4   5
ENDBRANCH   3   4
ENDBRANCH   2   3
ENDBRANCH   1   2
BRANCH   1  28
ATOM     28  C   UNL     1       0.199   8.662  -0.969  1.00  0.00     0.188 C 
BRANCH  28  29
ATOM     29  O   UNL     1       0.988   9.039  -2.071  1.00  0.00    -0.376 OA
BRANCH  29  30
ATOM     30  C   UNL     1       0.815  10.302  -2.688  1.00  0.00     0.202 C 
BRANCH  30  31
ATOM     31  C   UNL     1      -0.172  11.409  -2.268  1.00  0.00     0.261 C 
BRANCH  31  32
ATOM     32  O   UNL     1      -0.906  11.253  -1.054  1.00  0.00    -0.460 OA
BRANCH  32  33
ATOM     33  C   UNL     1      -2.201  10.877  -1.199  1.00  0.00     0.338 C 
ATOM     34  O   UNL     1      -2.775  10.604  -2.240  1.00  0.00    -0.246 OA
BRANCH  33  35
ATOM     35  C   UNL     1      -2.783  10.679   0.141  1.00  0.00     0.060 A 
ATOM     36  C   UNL     1      -3.147   9.385   0.534  1.00  0.00     0.016 A 
ATOM     37  C   UNL     1      -2.994  11.767   0.990  1.00  0.00     0.016 A 
ATOM     38  C   UNL     1      -3.743   9.177   1.778  1.00  0.00     0.010 A 
ATOM     39  C   UNL     1      -3.609  11.558   2.228  1.00  0.00     0.010 A 
ATOM     40  C   UNL     1      -4.010  10.266   2.618  1.00  0.00    -0.014 A 
BRANCH  40  41
ATOM     41  C   UNL     1      -4.859  10.084   3.821  1.00  0.00     0.031 A 
ATOM     42  C   UNL     1      -6.320  10.433   3.726  1.00  0.00     0.074 A 
ATOM     43  C   UNL     1      -4.350   9.607   4.971  1.00  0.00     0.049 A 
ATOM     44  N   UNL     1      -7.239  10.428   4.656  1.00  0.00    -0.248 NA
ATOM     45  C   UNL     1      -6.805  10.846   2.400  1.00  0.00     0.031 C 
ATOM     46  C   UNL     1      -2.965   9.186   5.171  1.00  0.00     0.029 A 
ATOM     47  N   UNL     1      -4.942   9.406   6.194  1.00  0.00    -0.354 N 
ATOM     48  C   UNL     1      -8.412  10.839   4.031  1.00  0.00     0.074 A 
ATOM     49  C   UNL     1      -8.075  11.121   2.651  1.00  0.00     0.031 C 
ATOM     50  C   UNL     1      -2.810   8.788   6.446  1.00  0.00     0.029 A 
ATOM     51  C   UNL     1      -4.071   8.968   7.165  1.00  0.00     0.049 A 
ATOM     52  H   UNL     1      -5.900   9.562   6.360  1.00  0.00     0.167 HD
ATOM     53  C   UNL     1      -9.655  10.963   4.557  1.00  0.00     0.034 A 
ATOM     54  C   UNL     1      -4.265   8.768   8.485  1.00  0.00     0.034 A 
ATOM     55  C   UNL     1      -9.971  10.699   5.939  1.00  0.00     0.049 A 
ATOM     56  C   UNL     1      -5.636   9.017   9.073  1.00  0.00     0.074 A 
ATOM     57  C   UNL     1     -11.197  10.791   6.575  1.00  0.00     0.029 A 
ATOM     58  N   UNL     1      -9.054  10.305   6.904  1.00  0.00    -0.354 N 
ATOM     59  N   UNL     1      -6.739   9.403   8.471  1.00  0.00    -0.248 NA
ATOM     60  C   UNL     1      -5.789   8.799  10.518  1.00  0.00     0.031 C 
ATOM     61  C   UNL     1     -11.007  10.528   7.935  1.00  0.00     0.029 A 
ATOM     62  C   UNL     1      -9.680  10.184   8.136  1.00  0.00     0.049 A 
ATOM     63  H   UNL     1      -8.098  10.136   6.739  1.00  0.00     0.167 HD
ATOM     64  C   UNL     1      -7.721   9.433   9.460  1.00  0.00     0.074 A 
ATOM     65  C   UNL     1      -7.084   9.016  10.691  1.00  0.00     0.031 C 
ATOM     66  C   UNL     1      -9.033   9.769   9.359  1.00  0.00     0.034 A 
BRANCH  53  67
ATOM     67  C   UNL     1     -10.748  11.457   3.641  1.00  0.00     0.023 A 
ATOM     68  C   UNL     1     -11.167  10.715   2.522  1.00  0.00     0.031 A 
ATOM     69  C   UNL     1     -11.364  12.699   3.875  1.00  0.00     0.131 A 
ATOM     70  C   UNL     1     -12.122  11.251   1.645  1.00  0.00     0.055 A 
ATOM     71  C   UNL     1     -12.371  13.191   3.043  1.00  0.00     0.041 A 
ATOM     72  F   UNL     1     -10.988  13.463   4.913  1.00  0.00    -0.206 F 
ATOM     73  C   UNL     1     -12.746  12.472   1.912  1.00  0.00     0.022 A 
BRANCH  70  74
ATOM     74  S   UNL     1     -12.435  10.395   0.077  1.00  0.00     0.124 S 
ATOM     75  O   UNL     1     -11.105  10.393  -0.529  1.00  0.00    -0.237 OA
ATOM     76  O   UNL     1     -12.937   9.100   0.519  1.00  0.00    -0.237 OA
ATOM     77  O   UNL     1     -13.414  11.250  -0.591  1.00  0.00    -0.744 OA
ENDBRANCH  70  74
ENDBRANCH  53  67
BRANCH  54  78
ATOM     78  C   UNL     1      -3.134   8.351   9.367  1.00  0.00     0.023 A 
ATOM     79  C   UNL     1      -3.174   7.138  10.073  1.00  0.00     0.031 A 
ATOM     80  C   UNL     1      -2.032   9.198   9.578  1.00  0.00     0.131 A 
ATOM     81  C   UNL     1      -2.163   6.832  10.998  1.00  0.00     0.055 A 
ATOM     82  C   UNL     1      -0.997   8.861  10.453  1.00  0.00     0.041 A 
ATOM     83  F   UNL     1      -1.945  10.374   8.935  1.00  0.00    -0.206 F 
ATOM     84  C   UNL     1      -1.068   7.678  11.182  1.00  0.00     0.022 A 
BRANCH  81  85
ATOM     85  S   UNL     1      -2.357   5.358  12.038  1.00  0.00     0.124 S 
ATOM     86  O   UNL     1      -3.627   5.630  12.702  1.00  0.00    -0.237 OA
ATOM     87  O   UNL     1      -2.367   4.288  11.047  1.00  0.00    -0.237 OA
ATOM     88  O   UNL     1      -1.179   5.395  12.902  1.00  0.00    -0.744 OA
ENDBRANCH  81  85
ENDBRANCH  54  78
BRANCH  66  89
ATOM     89  C   UNL     1      -9.880   9.639  10.604  1.00  0.00     0.023 A 
ATOM     90  C   UNL     1      -9.676  10.450  11.734  1.00  0.00     0.031 A 
ATOM     91  C   UNL     1     -10.909   8.680  10.658  1.00  0.00     0.131 A 
ATOM     92  C   UNL     1     -10.450  10.249  12.888  1.00  0.00     0.055 A 
ATOM     93  C   UNL     1     -11.718   8.529  11.785  1.00  0.00     0.041 A 
ATOM     94  F   UNL     1     -11.149   7.875   9.610  1.00  0.00    -0.206 F 
ATOM     95  C   UNL     1     -11.482   9.307  12.914  1.00  0.00     0.022 A 
BRANCH  92  96
ATOM     96  S   UNL     1     -10.029  11.171  14.393  1.00  0.00     0.124 S 
ATOM     97  O   UNL     1      -8.642  10.775  14.613  1.00  0.00    -0.237 OA
ATOM     98  O   UNL     1     -10.239  12.555  13.980  1.00  0.00    -0.237 OA
ATOM     99  O   UNL     1     -10.981  10.668  15.382  1.00  0.00    -0.744 OA
ENDBRANCH  92  96
ENDBRANCH  66  89
ENDBRANCH  40  41
ENDBRANCH  33  35
ENDBRANCH  32  33
ENDBRANCH  31  32
ENDBRANCH  30  31
ENDBRANCH  29  30
ENDBRANCH  28  29
ENDBRANCH   1  28
TORSDOF 24
