REMARK SMILES O=C(OCCOCCOCCOC(=O)c1ccc(-c2c3nc(c(-c4cc(S(=O)(=O)[O-])ccc4F)c4ccc([nH]4)c(-c4cc(S(=O)(=O)[O-])ccc4F)c4nc(c(-c5cc(S(=O)(=O)[O-])ccc5F)c5ccc2[nH]5)C=C4)C=C3)cc1)C1=Cc2cc(Cl)cc(Cl)c2O[C@@H]1C(F)(F)F
REMARK SMILES IDX 8 1 7 2 6 3 5 4 4 5 3 6 2 7 1 8 78 9 79 10 89 11 80 12 88 13
REMARK SMILES IDX 81 14 87 15 82 16 85 17 83 18 84 19 86 20 90 21 91 22 92 23
REMARK SMILES IDX 93 24 9 25 10 26 11 27 12 28 13 29 14 30 15 31 16 32 77 33
REMARK SMILES IDX 17 34 76 35 18 36 19 37 20 38 70 39 21 40 75 41 69 42 71 43
REMARK SMILES IDX 22 44 74 45 68 46 67 47 23 49 55 50 35 51 54 52 36 53 39 54
REMARK SMILES IDX 53 55 72 56 37 57 38 58 52 60 73 61 40 62 24 63 25 64 33 65
REMARK SMILES IDX 26 66 32 67 34 68 31 69 27 70 28 71 29 72 30 73 56 74 57 75
REMARK SMILES IDX 65 76 58 77 64 78 66 79 63 80 59 81 60 82 61 83 62 84 41 85
REMARK SMILES IDX 42 86 50 87 43 88 49 89 51 90 48 91 44 92 45 93 46 94 47 95
REMARK H PARENT 71 48 39 59
REMARK Flexibility Score: inf
ROOT
ATOM      1  C   UNL     1       1.335   0.876  -3.614  1.00  0.00     0.188 C 
ENDROOT
BRANCH   1   2
ATOM      2  C   UNL     1       1.538   0.942  -2.102  1.00  0.00     0.188 C 
BRANCH   2   3
ATOM      3  O   UNL     1       2.900   1.122  -1.738  1.00  0.00    -0.376 OA
BRANCH   3   4
ATOM      4  C   UNL     1       3.698  -0.059  -1.717  1.00  0.00     0.202 C 
BRANCH   4   5
ATOM      5  C   UNL     1       3.293  -1.087  -0.653  1.00  0.00     0.261 C 
BRANCH   5   6
ATOM      6  O   UNL     1       2.532  -0.476   0.412  1.00  0.00    -0.460 OA
BRANCH   6   7
ATOM      7  C   UNL     1       2.984  -0.589   1.680  1.00  0.00     0.338 C 
ATOM      8  O   UNL     1       2.490  -1.367   2.484  1.00  0.00    -0.246 OA
BRANCH   7   9
ATOM      9  C   UNL     1       4.005   0.424   2.065  1.00  0.00     0.087 C 
ATOM     10  C   UNL     1       4.985  -0.039   2.867  1.00  0.00     0.027 C 
ATOM     11  C   UNL     1       4.348   1.501   1.071  1.00  0.00     0.316 C 
ATOM     12  C   UNL     1       6.168  -0.415   2.059  1.00  0.00     0.020 A 
ATOM     13  O   UNL     1       5.593   1.216   0.363  1.00  0.00    -0.474 OA
ATOM     14  C   UNL     1       7.061  -1.378   2.537  1.00  0.00     0.032 A 
ATOM     15  C   UNL     1       6.346   0.143   0.784  1.00  0.00     0.146 A 
ATOM     16  C   UNL     1       8.054  -1.872   1.694  1.00  0.00     0.043 A 
ATOM     17  C   UNL     1       7.309  -0.411  -0.073  1.00  0.00     0.085 A 
ATOM     18  Cl  UNL     1       9.169  -3.044   2.279  1.00  0.00    -0.084 Cl
ATOM     19  C   UNL     1       8.143  -1.439   0.373  1.00  0.00     0.045 A 
ATOM     20  Cl  UNL     1       7.466   0.083  -1.721  1.00  0.00    -0.080 Cl
BRANCH  11  21
ATOM     21  C   UNL     1       4.307   2.917   1.647  1.00  0.00     0.430 C 
ATOM     22  F   UNL     1       4.296   3.844   0.661  1.00  0.00    -0.167 F 
ATOM     23  F   UNL     1       3.186   3.107   2.383  1.00  0.00    -0.167 F 
ATOM     24  F   UNL     1       5.369   3.170   2.442  1.00  0.00    -0.167 F 
ENDBRANCH  11  21
ENDBRANCH   7   9
ENDBRANCH   6   7
ENDBRANCH   5   6
ENDBRANCH   4   5
ENDBRANCH   3   4
ENDBRANCH   2   3
ENDBRANCH   1   2
BRANCH   1  25
ATOM     25  O   UNL     1       2.360   0.108  -4.234  1.00  0.00    -0.376 OA
BRANCH  25  26
ATOM     26  C   UNL     1       3.172   0.832  -5.160  1.00  0.00     0.202 C 
BRANCH  26  27
ATOM     27  C   UNL     1       4.136   1.924  -4.636  1.00  0.00     0.261 C 
BRANCH  27  28
ATOM     28  O   UNL     1       3.623   2.888  -3.701  1.00  0.00    -0.460 OA
BRANCH  28  29
ATOM     29  C   UNL     1       2.827   3.862  -4.191  1.00  0.00     0.338 C 
ATOM     30  O   UNL     1       2.443   3.973  -5.338  1.00  0.00    -0.246 OA
BRANCH  29  31
ATOM     31  C   UNL     1       2.389   4.728  -3.071  1.00  0.00     0.060 A 
ATOM     32  C   UNL     1       1.083   4.600  -2.589  1.00  0.00     0.016 A 
ATOM     33  C   UNL     1       3.227   5.728  -2.568  1.00  0.00     0.016 A 
ATOM     34  C   UNL     1       0.601   5.487  -1.624  1.00  0.00     0.010 A 
ATOM     35  C   UNL     1       2.734   6.632  -1.613  1.00  0.00     0.010 A 
ATOM     36  C   UNL     1       1.406   6.538  -1.161  1.00  0.00    -0.014 A 
BRANCH  36  37
ATOM     37  C   UNL     1       0.770   7.628  -0.371  1.00  0.00     0.031 A 
ATOM     38  C   UNL     1       0.261   8.844  -1.103  1.00  0.00     0.074 A 
ATOM     39  C   UNL     1       0.562   7.505   0.954  1.00  0.00     0.049 A 
ATOM     40  N   UNL     1      -0.385   9.885  -0.643  1.00  0.00    -0.248 NA
ATOM     41  C   UNL     1       0.508   8.883  -2.553  1.00  0.00     0.031 C 
ATOM     42  C   UNL     1       0.966   6.360   1.768  1.00  0.00     0.029 A 
ATOM     43  N   UNL     1      -0.050   8.352   1.847  1.00  0.00    -0.354 N 
ATOM     44  C   UNL     1      -0.646  10.689  -1.748  1.00  0.00     0.074 A 
ATOM     45  C   UNL     1      -0.040  10.040  -2.891  1.00  0.00     0.031 C 
ATOM     46  C   UNL     1       0.595   6.580   3.043  1.00  0.00     0.029 A 
ATOM     47  C   UNL     1      -0.047   7.890   3.143  1.00  0.00     0.049 A 
ATOM     48  H   UNL     1      -0.454   9.211   1.583  1.00  0.00     0.167 HD
ATOM     49  C   UNL     1      -1.341  11.852  -1.810  1.00  0.00     0.034 A 
ATOM     50  C   UNL     1      -0.494   8.467   4.279  1.00  0.00     0.034 A 
ATOM     51  C   UNL     1      -1.911  12.512  -0.660  1.00  0.00     0.049 A 
ATOM     52  C   UNL     1      -1.171   9.819   4.199  1.00  0.00     0.074 A 
ATOM     53  C   UNL     1      -2.616  13.702  -0.611  1.00  0.00     0.029 A 
ATOM     54  N   UNL     1      -1.831  12.047   0.646  1.00  0.00    -0.354 N 
ATOM     55  N   UNL     1      -1.425  10.558   3.142  1.00  0.00    -0.248 NA
ATOM     56  C   UNL     1      -1.638  10.403   5.463  1.00  0.00     0.031 C 
ATOM     57  C   UNL     1      -2.895  13.994   0.729  1.00  0.00     0.029 A 
ATOM     58  C   UNL     1      -2.445  12.942   1.510  1.00  0.00     0.049 A 
ATOM     59  H   UNL     1      -1.401  11.204   0.919  1.00  0.00     0.167 HD
ATOM     60  C   UNL     1      -2.110  11.677   3.617  1.00  0.00     0.074 A 
ATOM     61  C   UNL     1      -2.257  11.496   5.045  1.00  0.00     0.031 C 
ATOM     62  C   UNL     1      -2.573  12.759   2.937  1.00  0.00     0.034 A 
BRANCH  49  63
ATOM     63  C   UNL     1      -1.484  12.505  -3.164  1.00  0.00     0.023 A 
ATOM     64  C   UNL     1      -2.208  11.894  -4.204  1.00  0.00     0.031 A 
ATOM     65  C   UNL     1      -0.886  13.751  -3.422  1.00  0.00     0.131 A 
ATOM     66  C   UNL     1      -2.268  12.502  -5.467  1.00  0.00     0.055 A 
ATOM     67  C   UNL     1      -1.014  14.387  -4.659  1.00  0.00     0.041 A 
ATOM     68  F   UNL     1      -0.161  14.370  -2.477  1.00  0.00    -0.206 F 
ATOM     69  C   UNL     1      -1.699  13.758  -5.693  1.00  0.00     0.022 A 
BRANCH  66  70
ATOM     70  S   UNL     1      -2.997  11.575  -6.845  1.00  0.00     0.124 S 
ATOM     71  O   UNL     1      -2.139  10.394  -6.893  1.00  0.00    -0.237 OA
ATOM     72  O   UNL     1      -4.365  11.353  -6.389  1.00  0.00    -0.237 OA
ATOM     73  O   UNL     1      -2.858  12.484  -7.981  1.00  0.00    -0.744 OA
ENDBRANCH  66  70
ENDBRANCH  49  63
BRANCH  50  74
ATOM     74  C   UNL     1      -0.280   7.813   5.608  1.00  0.00     0.023 A 
ATOM     75  C   UNL     1      -1.355   7.483   6.450  1.00  0.00     0.031 A 
ATOM     76  C   UNL     1       1.023   7.604   6.099  1.00  0.00     0.131 A 
ATOM     77  C   UNL     1      -1.109   7.031   7.758  1.00  0.00     0.055 A 
ATOM     78  C   UNL     1       1.261   7.088   7.374  1.00  0.00     0.041 A 
ATOM     79  F   UNL     1       2.091   7.912   5.345  1.00  0.00    -0.206 F 
ATOM     80  C   UNL     1       0.191   6.816   8.219  1.00  0.00     0.022 A 
BRANCH  77  81
ATOM     81  S   UNL     1      -2.512   6.854   8.897  1.00  0.00     0.124 S 
ATOM     82  O   UNL     1      -3.096   8.189   8.857  1.00  0.00    -0.237 OA
ATOM     83  O   UNL     1      -3.287   5.795   8.260  1.00  0.00    -0.237 OA
ATOM     84  O   UNL     1      -1.879   6.487  10.162  1.00  0.00    -0.744 OA
ENDBRANCH  77  81
ENDBRANCH  50  74
BRANCH  62  85
ATOM     85  C   UNL     1      -3.317  13.807   3.737  1.00  0.00     0.023 A 
ATOM     86  C   UNL     1      -2.691  14.536   4.765  1.00  0.00     0.031 A 
ATOM     87  C   UNL     1      -4.681  14.052   3.496  1.00  0.00     0.131 A 
ATOM     88  C   UNL     1      -3.446  15.404   5.568  1.00  0.00     0.055 A 
ATOM     89  C   UNL     1      -5.408  14.978   4.247  1.00  0.00     0.041 A 
ATOM     90  F   UNL     1      -5.336  13.388   2.530  1.00  0.00    -0.206 F 
ATOM     91  C   UNL     1      -4.796  15.645   5.304  1.00  0.00     0.022 A 
BRANCH  88  92
ATOM     92  S   UNL     1      -2.672  16.107   7.051  1.00  0.00     0.124 S 
ATOM     93  O   UNL     1      -2.234  14.909   7.760  1.00  0.00    -0.237 OA
ATOM     94  O   UNL     1      -1.613  16.937   6.487  1.00  0.00    -0.237 OA
ATOM     95  O   UNL     1      -3.761  16.843   7.690  1.00  0.00    -0.744 OA
ENDBRANCH  88  92
ENDBRANCH  62  85
ENDBRANCH  36  37
ENDBRANCH  29  31
ENDBRANCH  28  29
ENDBRANCH  27  28
ENDBRANCH  26  27
ENDBRANCH  25  26
ENDBRANCH   1  25
TORSDOF 21
