REMARK SMILES Cc1cc(NC(=O)[C@@H]2[C@@H](C(=O)OCCOCCOCCOC(=O)c3ccc(-c4c5nc(c(-c6cc(S(=O)(=O)[O-])ccc6F)c6ccc([nH]6)c(-c6cc(S(=O)(=O)[O-])ccc6F)c6nc(c(-c7cc(S(=O)(=O)[O-])ccc7F)c7ccc4[nH]7)C=C6)C=C5)cc3)C2(C)C)on1
REMARK SMILES IDX 17 1 16 2 15 3 14 4 13 5 12 6 10 7 11 8 9 9 8 10 87 11 88 12
REMARK SMILES IDX 89 13 6 14 5 15 7 17 4 18 1 19 2 20 3 21 91 22 90 23 18 24
REMARK SMILES IDX 19 25 20 26 21 27 22 28 23 29 24 30 25 31 86 32 26 33 85 34
REMARK SMILES IDX 27 35 28 36 29 37 79 38 30 39 84 40 78 41 80 42 31 43 83 44
REMARK SMILES IDX 77 45 76 46 32 48 64 49 44 50 63 51 45 52 48 53 62 54 81 55
REMARK SMILES IDX 46 56 47 57 61 59 82 60 49 61 33 62 34 63 42 64 35 65 41 66
REMARK SMILES IDX 43 67 40 68 36 69 37 70 38 71 39 72 65 73 66 74 74 75 67 76
REMARK SMILES IDX 73 77 75 78 72 79 68 80 69 81 70 82 71 83 50 84 51 85 59 86
REMARK SMILES IDX 52 87 58 88 60 89 57 90 53 91 54 92 55 93 56 94
REMARK H PARENT 5 16 80 47 48 58
REMARK Flexibility Score: inf
ROOT
ATOM      1  C   UNL     1      -7.591  -0.347   2.417  1.00  0.00     0.188 C 
ENDROOT
BRANCH   1   2
ATOM      2  C   UNL     1      -8.483  -0.519   1.174  1.00  0.00     0.188 C 
BRANCH   2   3
ATOM      3  O   UNL     1      -9.001  -1.820   0.890  1.00  0.00    -0.376 OA
BRANCH   3   4
ATOM      4  C   UNL     1      -8.109  -2.934   0.905  1.00  0.00     0.202 C 
BRANCH   4   5
ATOM      5  C   UNL     1      -6.861  -2.822   0.028  1.00  0.00     0.261 C 
BRANCH   5   6
ATOM      6  O   UNL     1      -6.013  -1.760   0.487  1.00  0.00    -0.463 OA
BRANCH   6   7
ATOM      7  C   UNL     1      -5.284  -1.142  -0.470  1.00  0.00     0.310 C 
ATOM      8  O   UNL     1      -5.087  -1.563  -1.600  1.00  0.00    -0.252 OA
BRANCH   7   9
ATOM      9  C   UNL     1      -4.828   0.212  -0.055  1.00  0.00     0.118 C 
ATOM     10  C   UNL     1      -3.346   0.451  -0.107  1.00  0.00     0.100 C 
ATOM     11  C   UNL     1      -4.053   0.574   1.229  1.00  0.00    -0.009 C 
ATOM     12  C   UNL     1      -3.737  -0.498   2.252  1.00  0.00     0.013 C 
ATOM     13  C   UNL     1      -4.308   1.906   1.893  1.00  0.00     0.013 C 
BRANCH  10  14
ATOM     14  C   UNL     1      -2.691   1.408  -1.036  1.00  0.00     0.231 C 
ATOM     15  N   UNL     1      -2.872   2.755  -1.179  1.00  0.00    -0.294 N 
ATOM     16  H   UNL     1      -2.126   3.197  -1.645  1.00  0.00     0.173 HD
ATOM     17  O   UNL     1      -1.758   0.943  -1.700  1.00  0.00    -0.274 OA
BRANCH  15  18
ATOM     18  C   UNL     1      -3.862   3.616  -0.817  1.00  0.00     0.231 A 
ATOM     19  C   UNL     1      -5.570   6.689   0.166  1.00  0.00     0.070 C 
ATOM     20  C   UNL     1      -5.097   5.347  -0.245  1.00  0.00     0.083 A 
ATOM     21  C   UNL     1      -3.821   4.986  -0.731  1.00  0.00     0.096 A 
ATOM     22  N   UNL     1      -5.891   4.274  -0.135  1.00  0.00    -0.083 NA
ATOM     23  O   UNL     1      -5.113   3.196  -0.529  1.00  0.00    -0.338 OA
ENDBRANCH  15  18
ENDBRANCH  10  14
ENDBRANCH   7   9
ENDBRANCH   6   7
ENDBRANCH   5   6
ENDBRANCH   4   5
ENDBRANCH   3   4
ENDBRANCH   2   3
ENDBRANCH   1   2
BRANCH   1  24
ATOM     24  O   UNL     1      -7.614  -1.467   3.286  1.00  0.00    -0.376 OA
BRANCH  24  25
ATOM     25  C   UNL     1      -8.161  -1.254   4.577  1.00  0.00     0.202 C 
BRANCH  25  26
ATOM     26  C   UNL     1      -9.659  -0.928   4.624  1.00  0.00     0.261 C 
BRANCH  26  27
ATOM     27  O   UNL     1     -10.081   0.203   3.845  1.00  0.00    -0.460 OA
BRANCH  27  28
ATOM     28  C   UNL     1      -9.675   1.432   4.246  1.00  0.00     0.338 C 
ATOM     29  O   UNL     1      -8.979   1.694   5.208  1.00  0.00    -0.246 OA
BRANCH  28  30
ATOM     30  C   UNL     1     -10.075   2.380   3.182  1.00  0.00     0.060 A 
ATOM     31  C   UNL     1      -9.094   3.109   2.497  1.00  0.00     0.016 A 
ATOM     32  C   UNL     1     -11.420   2.494   2.821  1.00  0.00     0.016 A 
ATOM     33  C   UNL     1      -9.460   3.951   1.442  1.00  0.00     0.010 A 
ATOM     34  C   UNL     1     -11.785   3.352   1.782  1.00  0.00     0.010 A 
ATOM     35  C   UNL     1     -10.809   4.091   1.091  1.00  0.00    -0.014 A 
BRANCH  35  36
ATOM     36  C   UNL     1     -11.244   5.092   0.085  1.00  0.00     0.031 A 
ATOM     37  C   UNL     1     -11.727   6.431   0.561  1.00  0.00     0.074 A 
ATOM     38  C   UNL     1     -11.262   4.793  -1.227  1.00  0.00     0.049 A 
ATOM     39  N   UNL     1     -12.275   7.407  -0.114  1.00  0.00    -0.248 NA
ATOM     40  C   UNL     1     -11.574   6.699   1.999  1.00  0.00     0.031 C 
ATOM     41  C   UNL     1     -10.772   3.548  -1.816  1.00  0.00     0.029 A 
ATOM     42  N   UNL     1     -11.732   5.512  -2.298  1.00  0.00    -0.354 N 
ATOM     43  C   UNL     1     -12.543   8.405   0.816  1.00  0.00     0.074 A 
ATOM     44  C   UNL     1     -12.119   7.901   2.106  1.00  0.00     0.031 C 
ATOM     45  C   UNL     1     -10.984   3.583  -3.144  1.00  0.00     0.029 A 
ATOM     46  C   UNL     1     -11.668   4.829  -3.490  1.00  0.00     0.049 A 
ATOM     47  H   UNL     1     -12.082   6.429  -2.220  1.00  0.00     0.167 HD
ATOM     48  C   UNL     1     -13.091   9.629   0.611  1.00  0.00     0.034 A 
ATOM     49  C   UNL     1     -12.142   5.155  -4.710  1.00  0.00     0.034 A 
ATOM     50  C   UNL     1     -13.532  10.104  -0.677  1.00  0.00     0.049 A 
ATOM     51  C   UNL     1     -12.878   6.462  -4.887  1.00  0.00     0.074 A 
ATOM     52  C   UNL     1     -14.054  11.343  -1.008  1.00  0.00     0.029 A 
ATOM     53  N   UNL     1     -13.534   9.350  -1.844  1.00  0.00    -0.354 N 
ATOM     54  N   UNL     1     -13.104   7.412  -4.008  1.00  0.00    -0.248 NA
ATOM     55  C   UNL     1     -13.437   6.732  -6.219  1.00  0.00     0.031 C 
ATOM     56  C   UNL     1     -14.446  11.309  -2.352  1.00  0.00     0.029 A 
ATOM     57  C   UNL     1     -14.101  10.076  -2.881  1.00  0.00     0.049 A 
ATOM     58  H   UNL     1     -13.183   8.434  -1.923  1.00  0.00     0.167 HD
ATOM     59  C   UNL     1     -13.812   8.400  -4.689  1.00  0.00     0.074 A 
ATOM     60  C   UNL     1     -13.968   7.935  -6.052  1.00  0.00     0.031 C 
ATOM     61  C   UNL     1     -14.281   9.589  -4.230  1.00  0.00     0.034 A 
BRANCH  48  62
ATOM     62  C   UNL     1     -13.301  10.499   1.825  1.00  0.00     0.023 A 
ATOM     63  C   UNL     1     -12.222  10.973   2.592  1.00  0.00     0.031 A 
ATOM     64  C   UNL     1     -14.603  10.817   2.251  1.00  0.00     0.131 A 
ATOM     65  C   UNL     1     -12.465  11.668   3.787  1.00  0.00     0.055 A 
ATOM     66  C   UNL     1     -14.836  11.576   3.399  1.00  0.00     0.041 A 
ATOM     67  F   UNL     1     -15.672  10.374   1.571  1.00  0.00    -0.206 F 
ATOM     68  C   UNL     1     -13.765  11.991   4.184  1.00  0.00     0.022 A 
BRANCH  65  69
ATOM     69  S   UNL     1     -11.067  12.001   4.893  1.00  0.00     0.124 S 
ATOM     70  O   UNL     1     -10.526  10.660   5.102  1.00  0.00    -0.237 OA
ATOM     71  O   UNL     1     -10.243  12.903   4.096  1.00  0.00    -0.237 OA
ATOM     72  O   UNL     1     -11.695  12.601   6.069  1.00  0.00    -0.744 OA
ENDBRANCH  65  69
ENDBRANCH  48  62
BRANCH  49  73
ATOM     73  C   UNL     1     -11.995   4.213  -5.855  1.00  0.00     0.023 A 
ATOM     74  C   UNL     1     -11.216   4.552  -6.973  1.00  0.00     0.031 A 
ATOM     75  C   UNL     1     -12.673   2.981  -5.871  1.00  0.00     0.131 A 
ATOM     76  C   UNL     1     -11.158   3.683  -8.073  1.00  0.00     0.055 A 
ATOM     77  C   UNL     1     -12.574   2.099  -6.948  1.00  0.00     0.041 A 
ATOM     78  F   UNL     1     -13.438   2.614  -4.831  1.00  0.00    -0.206 F 
ATOM     79  C   UNL     1     -11.819   2.452  -8.063  1.00  0.00     0.022 A 
BRANCH  76  80
ATOM     80  S   UNL     1     -10.251   4.213  -9.552  1.00  0.00     0.124 S 
ATOM     81  O   UNL     1     -10.993   5.405  -9.945  1.00  0.00    -0.237 OA
ATOM     82  O   UNL     1      -8.909   4.438  -9.024  1.00  0.00    -0.237 OA
ATOM     83  O   UNL     1     -10.377   3.072 -10.457  1.00  0.00    -0.744 OA
ENDBRANCH  76  80
ENDBRANCH  49  73
BRANCH  61  84
ATOM     84  C   UNL     1     -14.990  10.478  -5.222  1.00  0.00     0.023 A 
ATOM     85  C   UNL     1     -16.249  10.139  -5.749  1.00  0.00     0.031 A 
ATOM     86  C   UNL     1     -14.397  11.681  -5.646  1.00  0.00     0.131 A 
ATOM     87  C   UNL     1     -16.856  10.974  -6.700  1.00  0.00     0.055 A 
ATOM     88  C   UNL     1     -15.030  12.534  -6.551  1.00  0.00     0.041 A 
ATOM     89  F   UNL     1     -13.195  12.052  -5.177  1.00  0.00    -0.206 F 
ATOM     90  C   UNL     1     -16.263  12.178  -7.090  1.00  0.00     0.022 A 
BRANCH  87  91
ATOM     91  S   UNL     1     -18.407  10.437  -7.473  1.00  0.00     0.124 S 
ATOM     92  O   UNL     1     -18.001   9.206  -8.143  1.00  0.00    -0.237 OA
ATOM     93  O   UNL     1     -19.292  10.276  -6.324  1.00  0.00    -0.237 OA
ATOM     94  O   UNL     1     -18.747  11.544  -8.365  1.00  0.00    -0.744 OA
ENDBRANCH  87  91
ENDBRANCH  61  84
ENDBRANCH  35  36
ENDBRANCH  28  30
ENDBRANCH  27  28
ENDBRANCH  26  27
ENDBRANCH  25  26
ENDBRANCH  24  25
ENDBRANCH   1  24
TORSDOF 22
