REMARK SMILES CC[C@](C)(NC(=O)N1CCC[C@@H]1C)C(=O)OCCOCCOCCOC(=O)c1ccc(-c2c3nc(c(-c4cc(S(=O)(=O)[O-])ccc4F)c4ccc([nH]4)c(-c4cc(S(=O)(=O)[O-])ccc4F)c4nc(c(-c5cc(S(=O)(=O)[O-])ccc5F)c5ccc2[nH]5)C=C4)C=C3)cc1
REMARK SMILES IDX 21 1 20 2 19 3 18 4 17 5 16 6 14 7 15 8 3 9 4 10 2 11 1 12
REMARK SMILES IDX 5 13 6 14 7 16 8 17 9 18 12 19 10 20 11 21 13 22 22 23 23 24
REMARK SMILES IDX 24 25 25 26 26 27 27 28 28 29 29 30 90 31 30 32 89 33 31 34
REMARK SMILES IDX 32 35 33 36 83 37 34 38 88 39 82 40 84 41 35 42 87 43 81 44
REMARK SMILES IDX 80 45 36 47 68 48 48 49 67 50 49 51 52 52 66 53 85 54 50 55
REMARK SMILES IDX 51 56 65 58 86 59 53 60 37 61 38 62 46 63 39 64 45 65 47 66
REMARK SMILES IDX 44 67 40 68 41 69 42 70 43 71 69 72 70 73 78 74 71 75 77 76
REMARK SMILES IDX 79 77 76 78 72 79 73 80 74 81 75 82 54 83 55 84 63 85 56 86
REMARK SMILES IDX 62 87 64 88 61 89 57 90 58 91 59 92 60 93
REMARK H PARENT 5 15 84 46 52 57
REMARK Flexibility Score: inf
ROOT
ATOM      1  C   UNL     1       2.635   2.363   3.723  1.00  0.00     0.188 C 
ENDROOT
BRANCH   1   2
ATOM      2  C   UNL     1       2.944   1.506   2.478  1.00  0.00     0.188 C 
BRANCH   2   3
ATOM      3  O   UNL     1       4.227   0.894   2.435  1.00  0.00    -0.376 OA
BRANCH   3   4
ATOM      4  C   UNL     1       5.031   0.936   1.251  1.00  0.00     0.202 C 
BRANCH   4   5
ATOM      5  C   UNL     1       4.542   1.042  -0.213  1.00  0.00     0.261 C 
BRANCH   5   6
ATOM      6  O   UNL     1       3.534   2.020  -0.428  1.00  0.00    -0.462 OA
BRANCH   6   7
ATOM      7  C   UNL     1       2.285   1.535  -0.589  1.00  0.00     0.331 C 
ATOM      8  O   UNL     1       2.039   0.384  -0.935  1.00  0.00    -0.249 OA
BRANCH   7   9
ATOM      9  C   UNL     1       1.205   2.606  -0.289  1.00  0.00     0.136 C 
ATOM     10  C   UNL     1       0.110   1.805   0.505  1.00  0.00     0.047 C 
BRANCH   9  11
ATOM     11  C   UNL     1       0.507   3.120  -1.577  1.00  0.00     0.037 C 
ATOM     12  C   UNL     1       0.662   2.256  -2.824  1.00  0.00     0.007 C 
ENDBRANCH   9  11
BRANCH   9  13
ATOM     13  N   UNL     1       1.573   3.798   0.590  1.00  0.00    -0.322 N 
ATOM     14  C   UNL     1       2.579   4.651   0.914  1.00  0.00     0.318 C 
ATOM     15  H   UNL     1       0.783   4.040   1.124  1.00  0.00     0.166 HD
ATOM     16  O   UNL     1       2.230   5.668   1.525  1.00  0.00    -0.249 OA
BRANCH  14  17
ATOM     17  N   UNL     1       3.917   4.384   0.688  1.00  0.00    -0.322 N 
ATOM     18  C   UNL     1       4.809   4.350   1.850  1.00  0.00     0.122 C 
ATOM     19  C   UNL     1       4.639   5.110  -0.355  1.00  0.00     0.083 C 
ATOM     20  C   UNL     1       6.236   4.449   1.376  1.00  0.00     0.024 C 
ATOM     21  C   UNL     1       6.108   5.268   0.123  1.00  0.00     0.027 C 
ATOM     22  C   UNL     1       4.085   6.505  -0.622  1.00  0.00     0.031 C 
ENDBRANCH  14  17
ENDBRANCH   9  13
ENDBRANCH   7   9
ENDBRANCH   6   7
ENDBRANCH   5   6
ENDBRANCH   4   5
ENDBRANCH   3   4
ENDBRANCH   2   3
ENDBRANCH   1   2
BRANCH   1  23
ATOM     23  O   UNL     1       3.101   3.704   3.683  1.00  0.00    -0.376 OA
BRANCH  23  24
ATOM     24  C   UNL     1       3.236   4.423   4.912  1.00  0.00     0.202 C 
BRANCH  24  25
ATOM     25  C   UNL     1       4.461   3.997   5.751  1.00  0.00     0.261 C 
BRANCH  25  26
ATOM     26  O   UNL     1       4.409   2.633   6.201  1.00  0.00    -0.460 OA
BRANCH  26  27
ATOM     27  C   UNL     1       3.316   2.335   6.954  1.00  0.00     0.338 C 
ATOM     28  O   UNL     1       2.587   3.126   7.509  1.00  0.00    -0.246 OA
BRANCH  27  29
ATOM     29  C   UNL     1       2.961   0.924   6.676  1.00  0.00     0.060 A 
ATOM     30  C   UNL     1       1.681   0.683   6.142  1.00  0.00     0.016 A 
ATOM     31  C   UNL     1       3.881  -0.115   6.817  1.00  0.00     0.016 A 
ATOM     32  C   UNL     1       1.301  -0.603   5.787  1.00  0.00     0.010 A 
ATOM     33  C   UNL     1       3.467  -1.422   6.553  1.00  0.00     0.010 A 
ATOM     34  C   UNL     1       2.156  -1.664   6.099  1.00  0.00    -0.014 A 
BRANCH  34  35
ATOM     35  C   UNL     1       1.511  -2.961   6.395  1.00  0.00     0.031 A 
ATOM     36  C   UNL     1       0.974  -3.125   7.795  1.00  0.00     0.074 A 
ATOM     37  C   UNL     1       1.321  -3.904   5.460  1.00  0.00     0.049 A 
ATOM     38  N   UNL     1       0.385  -4.147   8.354  1.00  0.00    -0.248 NA
ATOM     39  C   UNL     1       1.119  -1.959   8.683  1.00  0.00     0.031 C 
ATOM     40  C   UNL     1       1.696  -3.793   4.053  1.00  0.00     0.029 A 
ATOM     41  N   UNL     1       0.749  -5.144   5.566  1.00  0.00    -0.354 N 
ATOM     42  C   UNL     1       0.102  -3.746   9.656  1.00  0.00     0.074 A 
ATOM     43  C   UNL     1       0.605  -2.404   9.813  1.00  0.00     0.031 C 
ATOM     44  C   UNL     1       1.351  -4.931   3.424  1.00  0.00     0.029 A 
ATOM     45  C   UNL     1       0.776  -5.862   4.396  1.00  0.00     0.049 A 
ATOM     46  H   UNL     1       0.356  -5.487   6.400  1.00  0.00     0.167 HD
ATOM     47  C   UNL     1      -0.522  -4.439  10.637  1.00  0.00     0.034 A 
ATOM     48  C   UNL     1       0.404  -7.136   4.160  1.00  0.00     0.034 A 
ATOM     49  C   UNL     1      -0.979  -5.792  10.464  1.00  0.00     0.049 A 
ATOM     50  C   UNL     1      -0.164  -7.945   5.304  1.00  0.00     0.074 A 
ATOM     51  C   UNL     1      -1.592  -6.621  11.384  1.00  0.00     0.029 A 
ATOM     52  N   UNL     1      -0.851  -6.524   9.288  1.00  0.00    -0.354 N 
ATOM     53  N   UNL     1      -0.394  -7.580   6.547  1.00  0.00    -0.248 NA
ATOM     54  C   UNL     1      -0.527  -9.336   5.011  1.00  0.00     0.031 C 
ATOM     55  C   UNL     1      -1.754  -7.878  10.793  1.00  0.00     0.029 A 
ATOM     56  C   UNL     1      -1.341  -7.806   9.470  1.00  0.00     0.049 A 
ATOM     57  H   UNL     1      -0.469  -6.180   8.448  1.00  0.00     0.167 HD
ATOM     58  C   UNL     1      -0.971  -8.686   7.170  1.00  0.00     0.074 A 
ATOM     59  C   UNL     1      -1.053  -9.725   6.162  1.00  0.00     0.031 C 
ATOM     60  C   UNL     1      -1.405  -8.828   8.450  1.00  0.00     0.034 A 
BRANCH  47  61
ATOM     61  C   UNL     1      -0.630  -3.768  11.986  1.00  0.00     0.023 A 
ATOM     62  C   UNL     1      -1.335  -2.564  12.170  1.00  0.00     0.031 A 
ATOM     63  C   UNL     1       0.070  -4.291  13.087  1.00  0.00     0.131 A 
ATOM     64  C   UNL     1      -1.244  -1.878  13.391  1.00  0.00     0.055 A 
ATOM     65  C   UNL     1       0.076  -3.654  14.329  1.00  0.00     0.041 A 
ATOM     66  F   UNL     1       0.794  -5.415  12.966  1.00  0.00    -0.206 F 
ATOM     67  C   UNL     1      -0.567  -2.429  14.481  1.00  0.00     0.022 A 
BRANCH  64  68
ATOM     68  S   UNL     1      -1.853  -0.170  13.476  1.00  0.00     0.124 S 
ATOM     69  O   UNL     1      -1.082   0.471  12.413  1.00  0.00    -0.237 OA
ATOM     70  O   UNL     1      -3.280  -0.331  13.224  1.00  0.00    -0.237 OA
ATOM     71  O   UNL     1      -1.501   0.252  14.831  1.00  0.00    -0.744 OA
ENDBRANCH  64  68
ENDBRANCH  47  61
BRANCH  48  72
ATOM     72  C   UNL     1       0.592  -7.741   2.811  1.00  0.00     0.023 A 
ATOM     73  C   UNL     1      -0.503  -8.188   2.055  1.00  0.00     0.031 A 
ATOM     74  C   UNL     1       1.879  -7.921   2.273  1.00  0.00     0.131 A 
ATOM     75  C   UNL     1      -0.290  -8.826   0.823  1.00  0.00     0.055 A 
ATOM     76  C   UNL     1       2.084  -8.508   1.023  1.00  0.00     0.041 A 
ATOM     77  F   UNL     1       2.963  -7.521   2.957  1.00  0.00    -0.206 F 
ATOM     78  C   UNL     1       0.995  -8.974   0.295  1.00  0.00     0.022 A 
BRANCH  75  79
ATOM     79  S   UNL     1      -1.715  -9.533  -0.050  1.00  0.00     0.124 S 
ATOM     80  O   UNL     1      -2.213 -10.495   0.926  1.00  0.00    -0.237 OA
ATOM     81  O   UNL     1      -2.547  -8.356  -0.275  1.00  0.00    -0.237 OA
ATOM     82  O   UNL     1      -1.123 -10.113  -1.254  1.00  0.00    -0.744 OA
ENDBRANCH  75  79
ENDBRANCH  48  72
BRANCH  60  83
ATOM     83  C   UNL     1      -2.074 -10.134   8.810  1.00  0.00     0.023 A 
ATOM     84  C   UNL     1      -1.382 -11.357   8.801  1.00  0.00     0.031 A 
ATOM     85  C   UNL     1      -3.437 -10.149   9.162  1.00  0.00     0.131 A 
ATOM     86  C   UNL     1      -2.071 -12.550   9.070  1.00  0.00     0.055 A 
ATOM     87  C   UNL     1      -4.097 -11.328   9.504  1.00  0.00     0.041 A 
ATOM     88  F   UNL     1      -4.150  -9.011   9.186  1.00  0.00    -0.206 F 
ATOM     89  C   UNL     1      -3.418 -12.541   9.442  1.00  0.00     0.022 A 
BRANCH  86  90
ATOM     90  S   UNL     1      -1.215 -14.127   8.807  1.00  0.00     0.124 S 
ATOM     91  O   UNL     1      -0.798 -14.016   7.413  1.00  0.00    -0.237 OA
ATOM     92  O   UNL     1      -0.145 -14.070   9.798  1.00  0.00    -0.237 OA
ATOM     93  O   UNL     1      -2.249 -15.126   9.067  1.00  0.00    -0.744 OA
ENDBRANCH  86  90
ENDBRANCH  60  83
ENDBRANCH  34  35
ENDBRANCH  27  29
ENDBRANCH  26  27
ENDBRANCH  25  26
ENDBRANCH  24  25
ENDBRANCH  23  24
ENDBRANCH   1  23
TORSDOF 23
