REMARK SMILES O=C(CCCCCC(F)(F)c1ccccc1)OCCOCCOCCOC(=O)c1ccc(-c2c3nc(c(-c4cc(S(=O)(=O)[O-])ccc4F)c4ccc([nH]4)c(-c4cc(S(=O)(=O)[O-])ccc4F)c4nc(c(-c5cc(S(=O)(=O)[O-])ccc5F)c5ccc2[nH]5)C=C4)C=C3)cc1
REMARK SMILES IDX 20 1 19 2 18 3 17 4 2 5 1 6 3 7 4 8 5 9 6 10 7 11 8 12 9 13
REMARK SMILES IDX 10 14 11 15 12 16 16 17 13 18 15 19 14 20 21 21 22 22 23 23
REMARK SMILES IDX 24 24 25 25 26 26 27 27 28 28 29 29 30 30 91 31 31 32 90 33
REMARK SMILES IDX 32 34 33 35 34 36 84 37 35 38 89 39 83 40 85 41 36 42 88 43
REMARK SMILES IDX 82 44 81 45 37 47 69 48 49 49 68 50 50 51 53 52 67 53 86 54
REMARK SMILES IDX 51 55 52 56 66 58 87 59 54 60 38 61 39 62 47 63 40 64 46 65
REMARK SMILES IDX 48 66 45 67 41 68 42 69 43 70 44 71 70 72 71 73 79 74 72 75
REMARK SMILES IDX 78 76 80 77 77 78 73 79 74 80 75 81 76 82 55 83 56 84 64 85
REMARK SMILES IDX 57 86 63 87 65 88 62 89 58 90 59 91 60 92 61 93
REMARK H PARENT 85 46 53 57
REMARK Flexibility Score: inf
ROOT
ATOM      1  O   UNL     1       3.879   0.208  -1.534  1.00  0.00    -0.376 OA
ENDROOT
BRANCH   1   2
ATOM      2  C   UNL     1       3.739  -1.172  -1.840  1.00  0.00     0.202 C 
BRANCH   2   3
ATOM      3  C   UNL     1       2.918  -1.960  -0.819  1.00  0.00     0.261 C 
BRANCH   3   4
ATOM      4  O   UNL     1       1.849  -1.184  -0.271  1.00  0.00    -0.463 OA
BRANCH   4   5
ATOM      5  C   UNL     1       1.923  -1.028   1.077  1.00  0.00     0.305 C 
ATOM      6  O   UNL     1       1.408  -1.823   1.852  1.00  0.00    -0.252 OA
BRANCH   5   7
ATOM      7  C   UNL     1       2.624   0.249   1.504  1.00  0.00     0.123 C 
BRANCH   7   8
ATOM      8  C   UNL     1       3.726  -0.000   2.532  1.00  0.00     0.012 C 
BRANCH   8   9
ATOM      9  C   UNL     1       4.981  -0.654   1.946  1.00  0.00     0.001 C 
BRANCH   9  10
ATOM     10  C   UNL     1       5.981   0.275   1.248  1.00  0.00     0.007 C 
BRANCH  10  11
ATOM     11  C   UNL     1       6.814   1.216   2.134  1.00  0.00     0.082 C 
BRANCH  11  12
ATOM     12  C   UNL     1       7.910   0.556   2.995  1.00  0.00     0.273 C 
ATOM     13  F   UNL     1       8.764  -0.097   2.148  1.00  0.00    -0.201 F 
ATOM     14  F   UNL     1       8.660   1.565   3.535  1.00  0.00    -0.201 F 
BRANCH  12  15
ATOM     15  C   UNL     1       7.357  -0.346   4.078  1.00  0.00     0.021 A 
ATOM     16  C   UNL     1       6.487   0.171   5.052  1.00  0.00     0.010 A 
ATOM     17  C   UNL     1       7.596  -1.731   4.045  1.00  0.00     0.010 A 
ATOM     18  C   UNL     1       5.784  -0.687   5.896  1.00  0.00     0.001 A 
ATOM     19  C   UNL     1       6.892  -2.586   4.894  1.00  0.00     0.001 A 
ATOM     20  C   UNL     1       5.970  -2.065   5.802  1.00  0.00     0.000 A 
ENDBRANCH  12  15
ENDBRANCH  11  12
ENDBRANCH  10  11
ENDBRANCH   9  10
ENDBRANCH   8   9
ENDBRANCH   7   8
ENDBRANCH   5   7
ENDBRANCH   4   5
ENDBRANCH   3   4
ENDBRANCH   2   3
ENDBRANCH   1   2
BRANCH   1  21
ATOM     21  C   UNL     1       2.805   1.060  -1.952  1.00  0.00     0.188 C 
BRANCH  21  22
ATOM     22  C   UNL     1       2.407   0.974  -3.428  1.00  0.00     0.188 C 
BRANCH  22  23
ATOM     23  O   UNL     1       3.458   0.837  -4.380  1.00  0.00    -0.376 OA
BRANCH  23  24
ATOM     24  C   UNL     1       4.661   1.574  -4.178  1.00  0.00     0.202 C 
BRANCH  24  25
ATOM     25  C   UNL     1       4.576   3.080  -4.428  1.00  0.00     0.261 C 
BRANCH  25  26
ATOM     26  O   UNL     1       4.059   3.796  -3.290  1.00  0.00    -0.460 OA
BRANCH  26  27
ATOM     27  C   UNL     1       2.812   4.301  -3.445  1.00  0.00     0.338 C 
ATOM     28  O   UNL     1       2.085   4.163  -4.411  1.00  0.00    -0.246 OA
BRANCH  27  29
ATOM     29  C   UNL     1       2.372   4.979  -2.210  1.00  0.00     0.060 A 
ATOM     30  C   UNL     1       1.086   4.696  -1.735  1.00  0.00     0.016 A 
ATOM     31  C   UNL     1       3.146   5.977  -1.611  1.00  0.00     0.016 A 
ATOM     32  C   UNL     1       0.539   5.466  -0.711  1.00  0.00     0.010 A 
ATOM     33  C   UNL     1       2.593   6.751  -0.584  1.00  0.00     0.010 A 
ATOM     34  C   UNL     1       1.268   6.532  -0.166  1.00  0.00    -0.014 A 
BRANCH  34  35
ATOM     35  C   UNL     1       0.570   7.513   0.702  1.00  0.00     0.031 A 
ATOM     36  C   UNL     1       0.068   8.797   0.092  1.00  0.00     0.074 A 
ATOM     37  C   UNL     1       0.332   7.237   1.997  1.00  0.00     0.049 A 
ATOM     38  N   UNL     1      -0.589   9.781   0.649  1.00  0.00    -0.248 NA
ATOM     39  C   UNL     1       0.347   8.993  -1.339  1.00  0.00     0.031 C 
ATOM     40  C   UNL     1       0.745   6.016   2.687  1.00  0.00     0.029 A 
ATOM     41  N   UNL     1      -0.318   7.965   2.960  1.00  0.00    -0.354 N 
ATOM     42  C   UNL     1      -0.817  10.707  -0.364  1.00  0.00     0.074 A 
ATOM     43  C   UNL     1      -0.181  10.189  -1.557  1.00  0.00     0.031 C 
ATOM     44  C   UNL     1       0.345   6.084   3.969  1.00  0.00     0.029 A 
ATOM     45  C   UNL     1      -0.330   7.361   4.195  1.00  0.00     0.049 A 
ATOM     46  H   UNL     1      -0.736   8.839   2.784  1.00  0.00     0.167 HD
ATOM     47  C   UNL     1      -1.506  11.875  -0.311  1.00  0.00     0.034 A 
ATOM     48  C   UNL     1      -0.816   7.796   5.375  1.00  0.00     0.034 A 
ATOM     49  C   UNL     1      -2.115  12.392   0.890  1.00  0.00     0.049 A 
ATOM     50  C   UNL     1      -1.525   9.128   5.424  1.00  0.00     0.074 A 
ATOM     51  C   UNL     1      -2.824  13.569   1.063  1.00  0.00     0.029 A 
ATOM     52  N   UNL     1      -2.081  11.767   2.131  1.00  0.00    -0.354 N 
ATOM     53  N   UNL     1      -1.739   9.989   4.455  1.00  0.00    -0.248 NA
ATOM     54  C   UNL     1      -2.074   9.536   6.723  1.00  0.00     0.031 C 
ATOM     55  C   UNL     1      -3.166  13.683   2.416  1.00  0.00     0.029 A 
ATOM     56  C   UNL     1      -2.734  12.543   3.076  1.00  0.00     0.049 A 
ATOM     57  H   UNL     1      -1.655  10.898   2.312  1.00  0.00     0.167 HD
ATOM     58  C   UNL     1      -2.466  11.031   5.027  1.00  0.00     0.074 A 
ATOM     59  C   UNL     1      -2.679  10.672   6.414  1.00  0.00     0.031 C 
ATOM     60  C   UNL     1      -2.917  12.181   4.462  1.00  0.00     0.034 A 
BRANCH  47  61
ATOM     61  C   UNL     1      -1.597  12.683  -1.583  1.00  0.00     0.023 A 
ATOM     62  C   UNL     1      -2.290  12.208  -2.711  1.00  0.00     0.031 A 
ATOM     63  C   UNL     1      -0.965  13.935  -1.679  1.00  0.00     0.131 A 
ATOM     64  C   UNL     1      -2.284  12.950  -3.902  1.00  0.00     0.055 A 
ATOM     65  C   UNL     1      -1.022  14.702  -2.845  1.00  0.00     0.041 A 
ATOM     66  F   UNL     1      -0.269  14.430  -0.643  1.00  0.00    -0.206 F 
ATOM     67  C   UNL     1      -1.675  14.205  -3.969  1.00  0.00     0.022 A 
BRANCH  64  68
ATOM     68  S   UNL     1      -2.979  12.199  -5.399  1.00  0.00     0.124 S 
ATOM     69  O   UNL     1      -2.134  11.018  -5.556  1.00  0.00    -0.237 OA
ATOM     70  O   UNL     1      -4.363  11.948  -5.014  1.00  0.00    -0.237 OA
ATOM     71  O   UNL     1      -2.793  13.229  -6.419  1.00  0.00    -0.744 OA
ENDBRANCH  64  68
ENDBRANCH  47  61
BRANCH  48  72
ATOM     72  C   UNL     1      -0.621   6.993   6.616  1.00  0.00     0.023 A 
ATOM     73  C   UNL     1      -1.710   6.471   7.330  1.00  0.00     0.031 A 
ATOM     74  C   UNL     1       0.669   6.792   7.141  1.00  0.00     0.131 A 
ATOM     75  C   UNL     1      -1.495   5.821   8.556  1.00  0.00     0.055 A 
ATOM     76  C   UNL     1       0.882   6.099   8.333  1.00  0.00     0.041 A 
ATOM     77  F   UNL     1       1.746   7.269   6.496  1.00  0.00    -0.206 F 
ATOM     78  C   UNL     1      -0.206   5.621   9.056  1.00  0.00     0.022 A 
BRANCH  75  79
ATOM     79  S   UNL     1      -2.935   5.322   9.540  1.00  0.00     0.124 S 
ATOM     80  O   UNL     1      -3.646   6.587   9.691  1.00  0.00    -0.237 OA
ATOM     81  O   UNL     1      -3.564   4.332   8.673  1.00  0.00    -0.237 OA
ATOM     82  O   UNL     1      -2.342   4.788  10.765  1.00  0.00    -0.744 OA
ENDBRANCH  75  79
ENDBRANCH  48  72
BRANCH  60  83
ATOM     83  C   UNL     1      -3.703  13.112   5.354  1.00  0.00     0.023 A 
ATOM     84  C   UNL     1      -3.109  13.752   6.456  1.00  0.00     0.031 A 
ATOM     85  C   UNL     1      -5.074  13.327   5.126  1.00  0.00     0.131 A 
ATOM     86  C   UNL     1      -3.897  14.513   7.332  1.00  0.00     0.055 A 
ATOM     87  C   UNL     1      -5.840  14.139   5.964  1.00  0.00     0.041 A 
ATOM     88  F   UNL     1      -5.695  12.742   4.089  1.00  0.00    -0.206 F 
ATOM     89  C   UNL     1      -5.256  14.723   7.085  1.00  0.00     0.022 A 
BRANCH  86  90
ATOM     90  S   UNL     1      -3.147  15.125   8.866  1.00  0.00     0.124 S 
ATOM     91  O   UNL     1      -2.644  13.896   9.470  1.00  0.00    -0.237 OA
ATOM     92  O   UNL     1      -2.134  16.051   8.369  1.00  0.00    -0.237 OA
ATOM     93  O   UNL     1      -4.265  15.750   9.569  1.00  0.00    -0.744 OA
ENDBRANCH  86  90
ENDBRANCH  60  83
ENDBRANCH  34  35
ENDBRANCH  27  29
ENDBRANCH  26  27
ENDBRANCH  25  26
ENDBRANCH  24  25
ENDBRANCH  23  24
ENDBRANCH  22  23
ENDBRANCH  21  22
ENDBRANCH   1  21
TORSDOF 26
