REMARK SMILES CC(=O)Nc1ccc(/C=C2/CCc3oc(C(=O)OCCOCCOCCOC(=O)c4ccc(-c5c6nc(c(-c7cc(S(=O)(=O)[O-])ccc7F)c7ccc([nH]7)c(-c7cc(S(=O)(=O)[O-])ccc7F)c7nc(c(-c8cc(S(=O)(=O)[O-])ccc8F)c8ccc5[nH]8)C=C7)C=C6)cc4)c(C)c3C2=O)cc1
REMARK SMILES IDX 23 1 22 2 21 3 20 4 19 5 18 6 16 7 17 8 15 9 9 10 10 11
REMARK SMILES IDX 11 12 96 13 12 14 95 15 97 16 13 17 93 18 14 19 94 20 8 21
REMARK SMILES IDX 5 22 6 23 99 24 7 25 98 26 4 27 1 28 2 29 3 30 24 32 25 33
REMARK SMILES IDX 26 34 27 35 28 36 29 37 30 38 31 39 92 40 32 41 91 42 33 43
REMARK SMILES IDX 34 44 35 45 85 46 36 47 90 48 84 49 86 50 37 51 89 52 83 53
REMARK SMILES IDX 82 54 38 56 70 57 50 58 69 59 51 60 54 61 68 62 87 63 52 64
REMARK SMILES IDX 53 65 67 67 88 68 55 69 39 70 40 71 48 72 41 73 47 74 49 75
REMARK SMILES IDX 46 76 42 77 43 78 44 79 45 80 71 81 72 82 80 83 73 84 79 85
REMARK SMILES IDX 81 86 78 87 74 88 75 89 76 90 77 91 56 92 57 93 65 94 58 95
REMARK SMILES IDX 64 96 66 97 63 98 59 99 60 100 61 101 62 102
REMARK H PARENT 4 31 86 55 54 66
REMARK Flexibility Score: inf
ROOT
ATOM      1  C   UNL     1       1.992 -12.719  -4.783  1.00  0.00     0.188 C 
ENDROOT
BRANCH   1   2
ATOM      2  C   UNL     1       0.641 -13.109  -4.135  1.00  0.00     0.188 C 
BRANCH   2   3
ATOM      3  O   UNL     1      -0.555 -13.344  -4.874  1.00  0.00    -0.376 OA
BRANCH   3   4
ATOM      4  C   UNL     1      -0.604 -13.091  -6.264  1.00  0.00     0.202 C 
BRANCH   4   5
ATOM      5  C   UNL     1      -0.709 -11.614  -6.669  1.00  0.00     0.261 C 
BRANCH   5   6
ATOM      6  O   UNL     1       0.191 -10.732  -5.980  1.00  0.00    -0.457 OA
BRANCH   6   7
ATOM      7  C   UNL     1      -0.320 -10.097  -4.885  1.00  0.00     0.374 C 
ATOM      8  O   UNL     1      -1.497 -10.134  -4.543  1.00  0.00    -0.242 OA
BRANCH   7   9
ATOM      9  C   UNL     1       0.736  -9.447  -4.130  1.00  0.00     0.215 A 
ATOM     10  C   UNL     1       3.935  -5.647  -1.338  1.00  0.00     0.016 C 
ATOM     11  C   UNL     1       3.764  -6.907  -1.790  1.00  0.00     0.001 C 
ATOM     12  C   UNL     1       4.692  -7.486  -2.858  1.00  0.00     0.048 C 
ATOM     13  C   UNL     1       2.649  -7.847  -1.414  1.00  0.00     0.192 C 
ATOM     14  C   UNL     1       3.929  -7.772  -4.173  1.00  0.00     0.081 C 
ATOM     15  C   UNL     1       2.041  -8.456  -2.583  1.00  0.00     0.067 A 
ATOM     16  O   UNL     1       2.325  -8.101  -0.262  1.00  0.00    -0.289 OA
ATOM     17  C   UNL     1       2.626  -8.386  -3.825  1.00  0.00     0.116 A 
ATOM     18  C   UNL     1       0.858  -9.227  -2.757  1.00  0.00     0.014 A 
ATOM     19  O   UNL     1       1.853  -8.961  -4.776  1.00  0.00    -0.453 OA
ATOM     20  C   UNL     1      -0.046  -9.707  -1.679  1.00  0.00     0.049 C 
BRANCH  10  21
ATOM     21  C   UNL     1       3.135  -4.733  -0.489  1.00  0.00    -0.025 A 
ATOM     22  C   UNL     1       1.651  -2.753   0.922  1.00  0.00     0.041 A 
ATOM     23  C   UNL     1       1.271  -4.094   0.952  1.00  0.00     0.027 A 
ATOM     24  C   UNL     1       2.817  -2.412   0.248  1.00  0.00     0.027 A 
ATOM     25  C   UNL     1       1.991  -5.065   0.237  1.00  0.00     0.010 A 
ATOM     26  C   UNL     1       3.549  -3.389  -0.442  1.00  0.00     0.010 A 
BRANCH  22  27
ATOM     27  N   UNL     1       0.851  -1.834   1.619  1.00  0.00    -0.326 N 
ATOM     28  C   UNL     1       1.130   0.178   0.178  1.00  0.00     0.114 C 
ATOM     29  C   UNL     1       0.663  -0.492   1.442  1.00  0.00     0.221 C 
ATOM     30  O   UNL     1       0.045   0.147   2.296  1.00  0.00    -0.275 OA
ATOM     31  H   UNL     1       0.336  -2.223   2.363  1.00  0.00     0.169 HD
ENDBRANCH  22  27
ENDBRANCH  10  21
ENDBRANCH   7   9
ENDBRANCH   6   7
ENDBRANCH   5   6
ENDBRANCH   4   5
ENDBRANCH   3   4
ENDBRANCH   2   3
ENDBRANCH   1   2
BRANCH   1  32
ATOM     32  O   UNL     1       2.147 -13.054  -6.156  1.00  0.00    -0.376 OA
BRANCH  32  33
ATOM     33  C   UNL     1       3.156 -14.010  -6.456  1.00  0.00     0.202 C 
BRANCH  33  34
ATOM     34  C   UNL     1       2.719 -15.444  -6.183  1.00  0.00     0.261 C 
BRANCH  34  35
ATOM     35  O   UNL     1       2.277 -15.667  -4.849  1.00  0.00    -0.460 OA
BRANCH  35  36
ATOM     36  C   UNL     1       3.212 -15.534  -3.886  1.00  0.00     0.338 C 
ATOM     37  O   UNL     1       4.314 -15.027  -3.990  1.00  0.00    -0.246 OA
BRANCH  36  38
ATOM     38  C   UNL     1       2.711 -16.178  -2.672  1.00  0.00     0.060 A 
ATOM     39  C   UNL     1       3.365 -15.902  -1.467  1.00  0.00     0.016 A 
ATOM     40  C   UNL     1       1.796 -17.230  -2.807  1.00  0.00     0.016 A 
ATOM     41  C   UNL     1       3.248 -16.809  -0.434  1.00  0.00     0.010 A 
ATOM     42  C   UNL     1       1.703 -18.144  -1.791  1.00  0.00     0.010 A 
ATOM     43  C   UNL     1       2.494 -17.962  -0.653  1.00  0.00    -0.014 A 
BRANCH  43  44
ATOM     44  C   UNL     1       2.595 -19.064   0.282  1.00  0.00     0.031 A 
ATOM     45  C   UNL     1       1.661 -19.028   1.425  1.00  0.00     0.074 A 
ATOM     46  C   UNL     1       3.337 -20.139  -0.059  1.00  0.00     0.049 A 
ATOM     47  N   UNL     1       1.931 -19.228   2.671  1.00  0.00    -0.248 NA
ATOM     48  C   UNL     1       0.265 -18.635   1.173  1.00  0.00     0.031 C 
ATOM     49  C   UNL     1       4.064 -20.333  -1.320  1.00  0.00     0.029 A 
ATOM     50  N   UNL     1       3.449 -21.350   0.555  1.00  0.00    -0.354 N 
ATOM     51  C   UNL     1       0.709 -19.202   3.331  1.00  0.00     0.074 A 
ATOM     52  C   UNL     1      -0.247 -18.669   2.401  1.00  0.00     0.031 C 
ATOM     53  C   UNL     1       4.319 -21.647  -1.481  1.00  0.00     0.029 A 
ATOM     54  C   UNL     1       3.846 -22.366  -0.310  1.00  0.00     0.049 A 
ATOM     55  H   UNL     1       3.268 -21.492   1.512  1.00  0.00     0.167 HD
ATOM     56  C   UNL     1       0.532 -19.837   4.518  1.00  0.00     0.034 A 
ATOM     57  C   UNL     1       3.688 -23.704  -0.138  1.00  0.00     0.034 A 
ATOM     58  C   UNL     1       1.791 -20.075   5.181  1.00  0.00     0.049 A 
ATOM     59  C   UNL     1       3.494 -23.941   1.315  1.00  0.00     0.074 A 
ATOM     60  C   UNL     1       2.829 -19.253   5.578  1.00  0.00     0.029 A 
ATOM     61  N   UNL     1       2.298 -21.355   5.208  1.00  0.00    -0.354 N 
ATOM     62  N   UNL     1       4.418 -23.727   2.212  1.00  0.00    -0.248 NA
ATOM     63  C   UNL     1       2.135 -23.986   1.838  1.00  0.00     0.031 C 
ATOM     64  C   UNL     1       4.011 -20.009   5.344  1.00  0.00     0.029 A 
ATOM     65  C   UNL     1       3.630 -21.269   4.879  1.00  0.00     0.049 A 
ATOM     66  H   UNL     1       1.801 -22.176   5.423  1.00  0.00     0.167 HD
ATOM     67  C   UNL     1       3.749 -23.176   3.294  1.00  0.00     0.074 A 
ATOM     68  C   UNL     1       2.341 -23.482   3.059  1.00  0.00     0.031 C 
ATOM     69  C   UNL     1       4.356 -22.271   4.119  1.00  0.00     0.034 A 
BRANCH  56  70
ATOM     70  C   UNL     1      -0.752 -20.516   4.923  1.00  0.00     0.023 A 
ATOM     71  C   UNL     1      -0.814 -21.062   6.216  1.00  0.00     0.031 A 
ATOM     72  C   UNL     1      -1.790 -20.898   4.040  1.00  0.00     0.131 A 
ATOM     73  C   UNL     1      -1.807 -21.996   6.556  1.00  0.00     0.055 A 
ATOM     74  C   UNL     1      -2.824 -21.762   4.410  1.00  0.00     0.041 A 
ATOM     75  F   UNL     1      -1.811 -20.544   2.749  1.00  0.00    -0.206 F 
ATOM     76  C   UNL     1      -2.820 -22.342   5.665  1.00  0.00     0.022 A 
BRANCH  73  77
ATOM     77  S   UNL     1      -1.627 -22.903   8.111  1.00  0.00     0.124 S 
ATOM     78  O   UNL     1      -0.245 -23.363   8.027  1.00  0.00    -0.237 OA
ATOM     79  O   UNL     1      -1.902 -21.863   9.097  1.00  0.00    -0.237 OA
ATOM     80  O   UNL     1      -2.639 -23.952   8.009  1.00  0.00    -0.744 OA
ENDBRANCH  73  77
ENDBRANCH  56  70
BRANCH  57  81
ATOM     81  C   UNL     1       3.454 -24.724  -1.199  1.00  0.00     0.023 A 
ATOM     82  C   UNL     1       3.628 -26.103  -0.972  1.00  0.00     0.031 A 
ATOM     83  C   UNL     1       2.858 -24.363  -2.433  1.00  0.00     0.131 A 
ATOM     84  C   UNL     1       3.245 -27.043  -1.958  1.00  0.00     0.055 A 
ATOM     85  C   UNL     1       2.518 -25.291  -3.418  1.00  0.00     0.041 A 
ATOM     86  F   UNL     1       2.503 -23.096  -2.697  1.00  0.00    -0.206 F 
ATOM     87  C   UNL     1       2.706 -26.641  -3.182  1.00  0.00     0.022 A 
BRANCH  84  88
ATOM     88  S   UNL     1       3.320 -28.827  -1.605  1.00  0.00     0.124 S 
ATOM     89  O   UNL     1       4.747 -29.105  -1.716  1.00  0.00    -0.237 OA
ATOM     90  O   UNL     1       2.744 -28.908  -0.267  1.00  0.00    -0.237 OA
ATOM     91  O   UNL     1       2.493 -29.415  -2.660  1.00  0.00    -0.744 OA
ENDBRANCH  84  88
ENDBRANCH  57  81
BRANCH  69  92
ATOM     92  C   UNL     1       5.861 -22.101   4.037  1.00  0.00     0.023 A 
ATOM     93  C   UNL     1       6.562 -21.780   2.853  1.00  0.00     0.031 A 
ATOM     94  C   UNL     1       6.592 -22.119   5.239  1.00  0.00     0.131 A 
ATOM     95  C   UNL     1       7.942 -21.506   2.900  1.00  0.00     0.055 A 
ATOM     96  C   UNL     1       7.954 -21.823   5.285  1.00  0.00     0.041 A 
ATOM     97  F   UNL     1       5.979 -22.382   6.406  1.00  0.00    -0.206 F 
ATOM     98  C   UNL     1       8.637 -21.521   4.113  1.00  0.00     0.022 A 
BRANCH  95  99
ATOM     99  S   UNL     1       8.859 -21.128   1.372  1.00  0.00     0.124 S 
ATOM    100  O   UNL     1       8.429 -22.171   0.448  1.00  0.00    -0.237 OA
ATOM    101  O   UNL     1       8.413 -19.772   1.063  1.00  0.00    -0.237 OA
ATOM    102  O   UNL     1      10.261 -21.224   1.786  1.00  0.00    -0.744 OA
ENDBRANCH  95  99
ENDBRANCH  69  92
ENDBRANCH  43  44
ENDBRANCH  36  38
ENDBRANCH  35  36
ENDBRANCH  34  35
ENDBRANCH  33  34
ENDBRANCH  32  33
ENDBRANCH   1  32
TORSDOF 22
