REMARK SMILES O=C(OCCOCCOCCOC(=O)c1ccc(-c2c3nc(c(-c4cc(S(=O)(=O)[O-])ccc4F)c4ccc([nH]4)c(-c4cc(S(=O)(=O)[O-])ccc4F)c4nc(c(-c5cc(S(=O)(=O)[O-])ccc5F)c5ccc2[nH]5)C=C4)C=C3)cc1)C1=Cc2cc(Cl)c(Cl)c(Cl)c2O[C@@H]1C(F)(F)F
REMARK SMILES IDX 8 1 7 2 6 3 5 4 4 5 3 6 2 7 1 8 78 9 79 10 90 11 80 12 89 13
REMARK SMILES IDX 81 14 88 15 82 16 86 17 83 18 84 19 87 20 85 21 91 22 92 23
REMARK SMILES IDX 93 24 94 25 9 26 10 27 11 28 12 29 13 30 14 31 15 32 16 33
REMARK SMILES IDX 77 34 17 35 76 36 18 37 19 38 20 39 70 40 21 41 75 42 69 43
REMARK SMILES IDX 71 44 22 45 74 46 68 47 67 48 23 50 55 51 35 52 54 53 36 54
REMARK SMILES IDX 39 55 53 56 72 57 37 58 38 59 52 61 73 62 40 63 24 64 25 65
REMARK SMILES IDX 33 66 26 67 32 68 34 69 31 70 27 71 28 72 29 73 30 74 56 75
REMARK SMILES IDX 57 76 65 77 58 78 64 79 66 80 63 81 59 82 60 83 61 84 62 85
REMARK SMILES IDX 41 86 42 87 50 88 43 89 49 90 51 91 48 92 44 93 45 94 46 95
REMARK SMILES IDX 47 96
REMARK H PARENT 71 49 39 60
REMARK Flexibility Score: inf
ROOT
ATOM      1  C   UNL     1       2.114  -0.152  -3.538  1.00  0.00     0.188 C 
ENDROOT
BRANCH   1   2
ATOM      2  C   UNL     1       2.379   0.672  -2.270  1.00  0.00     0.188 C 
BRANCH   2   3
ATOM      3  O   UNL     1       3.744   1.076  -1.819  1.00  0.00    -0.376 OA
BRANCH   3   4
ATOM      4  C   UNL     1       4.485   0.829  -0.285  1.00  0.00     0.202 C 
BRANCH   4   5
ATOM      5  C   UNL     1       3.788  -0.566   1.226  1.00  0.00     0.261 C 
BRANCH   5   6
ATOM      6  O   UNL     1       2.811  -0.273   2.348  1.00  0.00    -0.460 OA
BRANCH   6   7
ATOM      7  C   UNL     1       2.970   0.966   2.834  1.00  0.00     0.338 C 
ATOM      8  O   UNL     1       2.273   1.550   3.625  1.00  0.00    -0.246 OA
BRANCH   7   9
ATOM      9  C   UNL     1       3.858   1.451   1.789  1.00  0.00     0.087 C 
ATOM     10  C   UNL     1       5.252   1.029   1.888  1.00  0.00     0.027 C 
ATOM     11  C   UNL     1       2.659   0.938   0.383  1.00  0.00     0.316 C 
ATOM     12  C   UNL     1       5.983  -0.278   0.896  1.00  0.00     0.020 A 
ATOM     13  O   UNL     1       3.362  -0.602  -0.595  1.00  0.00    -0.474 OA
ATOM     14  C   UNL     1       7.261  -0.674   1.167  1.00  0.00     0.034 A 
ATOM     15  C   UNL     1       5.080  -1.165  -0.281  1.00  0.00     0.148 A 
ATOM     16  C   UNL     1       7.728  -1.776   0.420  1.00  0.00     0.062 A 
ATOM     17  C   UNL     1       5.598  -2.247  -0.951  1.00  0.00     0.103 A 
ATOM     18  Cl  UNL     1       9.368  -2.240   0.811  1.00  0.00    -0.083 Cl
ATOM     19  C   UNL     1       6.951  -2.526  -0.586  1.00  0.00     0.082 A 
ATOM     20  Cl  UNL     1       4.686  -3.203  -2.030  1.00  0.00    -0.079 Cl
ATOM     21  Cl  UNL     1       7.762  -3.870  -1.371  1.00  0.00    -0.081 Cl
BRANCH  11  22
ATOM     22  C   UNL     1       2.397   2.552  -0.043  1.00  0.00     0.430 C 
ATOM     23  F   UNL     1       2.284   2.935  -1.311  1.00  0.00    -0.167 F 
ATOM     24  F   UNL     1       1.254   2.957   0.572  1.00  0.00    -0.167 F 
ATOM     25  F   UNL     1       3.367   3.377   0.461  1.00  0.00    -0.167 F 
ENDBRANCH  11  22
ENDBRANCH   7   9
ENDBRANCH   6   7
ENDBRANCH   5   6
ENDBRANCH   4   5
ENDBRANCH   3   4
ENDBRANCH   2   3
ENDBRANCH   1   2
BRANCH   1  26
ATOM     26  O   UNL     1       3.081  -1.069  -3.976  1.00  0.00    -0.376 OA
BRANCH  26  27
ATOM     27  C   UNL     1       4.377  -0.534  -4.195  1.00  0.00     0.202 C 
BRANCH  27  28
ATOM     28  C   UNL     1       4.509   0.685  -5.122  1.00  0.00     0.261 C 
BRANCH  28  29
ATOM     29  O   UNL     1       3.993   1.915  -4.566  1.00  0.00    -0.460 OA
BRANCH  29  30
ATOM     30  C   UNL     1       2.945   2.489  -5.212  1.00  0.00     0.338 C 
ATOM     31  O   UNL     1       2.376   2.066  -6.203  1.00  0.00    -0.246 OA
BRANCH  30  32
ATOM     32  C   UNL     1       2.476   3.667  -4.452  1.00  0.00     0.060 A 
ATOM     33  C   UNL     1       1.178   3.681  -3.919  1.00  0.00     0.016 A 
ATOM     34  C   UNL     1       3.302   4.784  -4.321  1.00  0.00     0.016 A 
ATOM     35  C   UNL     1       0.715   4.803  -3.225  1.00  0.00     0.010 A 
ATOM     36  C   UNL     1       2.821   5.923  -3.669  1.00  0.00     0.010 A 
ATOM     37  C   UNL     1       1.521   5.945  -3.131  1.00  0.00    -0.014 A 
BRANCH  37  38
ATOM     38  C   UNL     1       0.930   7.232  -2.686  1.00  0.00     0.031 A 
ATOM     39  C   UNL     1       0.374   8.147  -3.743  1.00  0.00     0.074 A 
ATOM     40  C   UNL     1       0.880   7.581  -1.387  1.00  0.00     0.049 A 
ATOM     41  N   UNL     1      -0.144   9.341  -3.624  1.00  0.00    -0.248 NA
ATOM     42  C   UNL     1       0.416   7.642  -5.125  1.00  0.00     0.031 C 
ATOM     43  C   UNL     1       1.344   6.757  -0.273  1.00  0.00     0.029 A 
ATOM     44  N   UNL     1       0.419   8.728  -0.786  1.00  0.00    -0.354 N 
ATOM     45  C   UNL     1      -0.493   9.729  -4.913  1.00  0.00     0.074 A 
ATOM     46  C   UNL     1      -0.089   8.661  -5.801  1.00  0.00     0.031 C 
ATOM     47  C   UNL     1       1.151   7.429   0.876  1.00  0.00     0.029 A 
ATOM     48  C   UNL     1       0.589   8.747   0.580  1.00  0.00     0.049 A 
ATOM     49  H   UNL     1       0.006   9.468  -1.287  1.00  0.00     0.167 HD
ATOM     50  C   UNL     1      -1.101  10.870  -5.316  1.00  0.00     0.034 A 
ATOM     51  C   UNL     1       0.343   9.726   1.477  1.00  0.00     0.034 A 
ATOM     52  C   UNL     1      -1.467  11.938  -4.421  1.00  0.00     0.049 A 
ATOM     53  C   UNL     1      -0.235  11.037   0.985  1.00  0.00     0.074 A 
ATOM     54  C   UNL     1      -2.087  13.137  -4.722  1.00  0.00     0.029 A 
ATOM     55  N   UNL     1      -1.228  11.946  -3.053  1.00  0.00    -0.354 N 
ATOM     56  N   UNL     1      -0.577  11.386  -0.236  1.00  0.00    -0.248 NA
ATOM     57  C   UNL     1      -0.468  12.081   1.991  1.00  0.00     0.031 C 
ATOM     58  C   UNL     1      -2.137  13.907  -3.557  1.00  0.00     0.029 A 
ATOM     59  C   UNL     1      -1.649  13.148  -2.505  1.00  0.00     0.049 A 
ATOM     60  H   UNL     1      -0.819  11.208  -2.547  1.00  0.00     0.167 HD
ATOM     61  C   UNL     1      -1.100  12.675  -0.132  1.00  0.00     0.074 A 
ATOM     62  C   UNL     1      -1.047  13.029   1.271  1.00  0.00     0.031 C 
ATOM     63  C   UNL     1      -1.584  13.491  -1.104  1.00  0.00     0.034 A 
BRANCH  50  64
ATOM     64  C   UNL     1      -1.354  11.039  -6.794  1.00  0.00     0.023 A 
ATOM     65  C   UNL     1      -2.213  10.180  -7.501  1.00  0.00     0.031 A 
ATOM     66  C   UNL     1      -0.714  12.066  -7.510  1.00  0.00     0.131 A 
ATOM     67  C   UNL     1      -2.359  10.325  -8.889  1.00  0.00     0.055 A 
ATOM     68  C   UNL     1      -0.932  12.259  -8.875  1.00  0.00     0.041 A 
ATOM     69  F   UNL     1       0.143  12.897  -6.895  1.00  0.00    -0.206 F 
ATOM     70  C   UNL     1      -1.749  11.377  -9.575  1.00  0.00     0.022 A 
BRANCH  67  71
ATOM     71  S   UNL     1      -3.239   9.031  -9.806  1.00  0.00     0.124 S 
ATOM     72  O   UNL     1      -2.450   7.847  -9.476  1.00  0.00    -0.237 OA
ATOM     73  O   UNL     1      -4.577   9.088  -9.229  1.00  0.00    -0.237 OA
ATOM     74  O   UNL     1      -3.140   9.470 -11.197  1.00  0.00    -0.744 OA
ENDBRANCH  67  71
ENDBRANCH  50  64
BRANCH  51  75
ATOM     75  C   UNL     1       0.678   9.548   2.924  1.00  0.00     0.023 A 
ATOM     76  C   UNL     1      -0.305   9.665   3.922  1.00  0.00     0.031 A 
ATOM     77  C   UNL     1       2.009   9.354   3.340  1.00  0.00     0.131 A 
ATOM     78  C   UNL     1       0.064   9.653   5.278  1.00  0.00     0.055 A 
ATOM     79  C   UNL     1       2.360   9.268   4.689  1.00  0.00     0.041 A 
ATOM     80  F   UNL     1       2.996   9.255   2.436  1.00  0.00    -0.206 F 
ATOM     81  C   UNL     1       1.387   9.436   5.668  1.00  0.00     0.022 A 
BRANCH  78  82
ATOM     82  S   UNL     1      -1.188  10.070   6.525  1.00  0.00     0.124 S 
ATOM     83  O   UNL     1      -1.622  11.389   6.076  1.00  0.00    -0.237 OA
ATOM     84  O   UNL     1      -2.152   8.988   6.362  1.00  0.00    -0.237 OA
ATOM     85  O   UNL     1      -0.438  10.053   7.779  1.00  0.00    -0.744 OA
ENDBRANCH  78  82
ENDBRANCH  51  75
BRANCH  63  86
ATOM     86  C   UNL     1      -2.146  14.827  -0.673  1.00  0.00     0.023 A 
ATOM     87  C   UNL     1      -1.345  15.811  -0.068  1.00  0.00     0.031 A 
ATOM     88  C   UNL     1      -3.510  15.114  -0.862  1.00  0.00     0.131 A 
ATOM     89  C   UNL     1      -1.928  17.000   0.395  1.00  0.00     0.055 A 
ATOM     90  C   UNL     1      -4.068  16.334  -0.476  1.00  0.00     0.041 A 
ATOM     91  F   UNL     1      -4.328  14.213  -1.429  1.00  0.00    -0.206 F 
ATOM     92  C   UNL     1      -3.279  17.279   0.173  1.00  0.00     0.022 A 
BRANCH  89  93
ATOM     93  S   UNL     1      -0.927  18.119   1.412  1.00  0.00     0.124 S 
ATOM     94  O   UNL     1      -0.510  17.244   2.502  1.00  0.00    -0.237 OA
ATOM     95  O   UNL     1       0.124  18.527   0.485  1.00  0.00    -0.237 OA
ATOM     96  O   UNL     1      -1.866  19.174   1.787  1.00  0.00    -0.744 OA
ENDBRANCH  89  93
ENDBRANCH  63  86
ENDBRANCH  37  38
ENDBRANCH  30  32
ENDBRANCH  29  30
ENDBRANCH  28  29
ENDBRANCH  27  28
ENDBRANCH  26  27
ENDBRANCH   1  26
TORSDOF 21
