REMARK SMILES Cc1oc(CNC(=O)c2ccnn2C)cc1C(=O)OCCOCCOCCOC(=O)c1ccc(-c2c3nc(c(-c4cc(S(=O)(=O)[O-])ccc4F)c4ccc([nH]4)c(-c4cc(S(=O)(=O)[O-])ccc4F)c4nc(c(-c5cc(S(=O)(=O)[O-])ccc5F)c5ccc2[nH]5)C=C4)C=C3)cc1
REMARK SMILES IDX 23 1 22 2 21 3 20 4 19 5 17 6 18 7 16 8 1 9 2 10 3 11 4 12
REMARK SMILES IDX 15 13 5 14 6 15 7 16 8 18 9 19 10 20 13 21 11 22 12 23 14 24
REMARK SMILES IDX 24 25 25 26 26 27 27 28 28 29 29 30 30 31 31 32 32 33 93 34
REMARK SMILES IDX 33 35 92 36 34 37 35 38 36 39 86 40 37 41 91 42 85 43 87 44
REMARK SMILES IDX 38 45 90 46 84 47 83 48 39 50 71 51 51 52 70 53 52 54 55 55
REMARK SMILES IDX 69 56 88 57 53 58 54 59 68 61 89 62 56 63 40 64 41 65 49 66
REMARK SMILES IDX 42 67 48 68 50 69 47 70 43 71 44 72 45 73 46 74 72 75 73 76
REMARK SMILES IDX 81 77 74 78 80 79 82 80 79 81 75 82 76 83 77 84 78 85 57 86
REMARK SMILES IDX 58 87 66 88 59 89 65 90 67 91 64 92 60 93 61 94 62 95 63 96
REMARK H PARENT 6 17 87 49 55 60
REMARK Flexibility Score: inf
ROOT
ATOM      1  C   UNL     1      -0.406  -4.017   1.334  1.00  0.00     0.188 C 
ENDROOT
BRANCH   1   2
ATOM      2  O   UNL     1       0.004  -5.257   0.763  1.00  0.00    -0.376 OA
BRANCH   2   3
ATOM      3  C   UNL     1       1.276  -5.366   0.140  1.00  0.00     0.202 C 
BRANCH   3   4
ATOM      4  C   UNL     1       1.500  -4.532  -1.122  1.00  0.00     0.261 C 
BRANCH   4   5
ATOM      5  O   UNL     1       1.396  -3.124  -0.864  1.00  0.00    -0.460 OA
BRANCH   5   6
ATOM      6  C   UNL     1       0.477  -2.464  -1.624  1.00  0.00     0.341 C 
ATOM      7  O   UNL     1      -0.069  -2.933  -2.615  1.00  0.00    -0.246 OA
BRANCH   6   8
ATOM      8  C   UNL     1       0.074  -1.192  -1.058  1.00  0.00     0.101 A 
ATOM      9  C   UNL     1       2.270  -0.074  -0.101  1.00  0.00     0.088 C 
ATOM     10  C   UNL     1       0.833  -0.226  -0.416  1.00  0.00     0.115 A 
ATOM     11  O   UNL     1       0.042   0.834  -0.061  1.00  0.00    -0.464 OA
ATOM     12  C   UNL     1      -1.226   0.551  -0.471  1.00  0.00     0.124 A 
ATOM     13  C   UNL     1      -1.255  -0.685  -1.073  1.00  0.00     0.063 A 
BRANCH  12  14
ATOM     14  C   UNL     1      -2.281   1.583  -0.344  1.00  0.00     0.191 C 
BRANCH  14  15
ATOM     15  N   UNL     1      -2.104   2.431   0.809  1.00  0.00    -0.343 N 
ATOM     16  C   UNL     1      -1.988   3.794   0.865  1.00  0.00     0.269 C 
ATOM     17  H   UNL     1      -2.059   1.965   1.675  1.00  0.00     0.164 HD
ATOM     18  O   UNL     1      -1.746   4.310   1.954  1.00  0.00    -0.268 OA
BRANCH  16  19
ATOM     19  C   UNL     1      -2.065   4.565  -0.349  1.00  0.00     0.125 A 
ATOM     20  C   UNL     1      -1.153   5.514  -0.779  1.00  0.00     0.055 A 
ATOM     21  N   UNL     1      -3.071   4.601  -1.285  1.00  0.00    -0.263 N 
ATOM     22  C   UNL     1      -1.627   5.955  -2.022  1.00  0.00     0.136 A 
ATOM     23  N   UNL     1      -2.781   5.378  -2.353  1.00  0.00    -0.181 NA
ATOM     24  C   UNL     1      -4.357   3.940  -1.257  1.00  0.00     0.174 C 
ENDBRANCH  16  19
ENDBRANCH  14  15
ENDBRANCH  12  14
ENDBRANCH   6   8
ENDBRANCH   5   6
ENDBRANCH   4   5
ENDBRANCH   3   4
ENDBRANCH   2   3
ENDBRANCH   1   2
BRANCH   1  25
ATOM     25  C   UNL     1       0.612  -3.146   2.096  1.00  0.00     0.188 C 
BRANCH  25  26
ATOM     26  O   UNL     1       1.764  -3.847   2.545  1.00  0.00    -0.376 OA
BRANCH  26  27
ATOM     27  C   UNL     1       1.899  -3.965   3.954  1.00  0.00     0.202 C 
BRANCH  27  28
ATOM     28  C   UNL     1       1.015  -5.066   4.547  1.00  0.00     0.261 C 
BRANCH  28  29
ATOM     29  O   UNL     1      -0.397  -4.832   4.424  1.00  0.00    -0.460 OA
BRANCH  29  30
ATOM     30  C   UNL     1      -0.892  -3.757   5.080  1.00  0.00     0.338 C 
ATOM     31  O   UNL     1      -0.269  -2.966   5.764  1.00  0.00    -0.246 OA
BRANCH  30  32
ATOM     32  C   UNL     1      -2.309  -3.603   4.696  1.00  0.00     0.060 A 
ATOM     33  C   UNL     1      -2.744  -2.375   4.186  1.00  0.00     0.016 A 
ATOM     34  C   UNL     1      -3.203  -4.667   4.849  1.00  0.00     0.016 A 
ATOM     35  C   UNL     1      -4.090  -2.201   3.851  1.00  0.00     0.010 A 
ATOM     36  C   UNL     1      -4.549  -4.486   4.527  1.00  0.00     0.010 A 
ATOM     37  C   UNL     1      -5.004  -3.245   4.049  1.00  0.00    -0.014 A 
BRANCH  37  38
ATOM     38  C   UNL     1      -6.462  -3.000   3.920  1.00  0.00     0.031 A 
ATOM     39  C   UNL     1      -7.242  -2.645   5.157  1.00  0.00     0.074 A 
ATOM     40  C   UNL     1      -7.086  -3.105   2.734  1.00  0.00     0.049 A 
ATOM     41  N   UNL     1      -8.526  -2.442   5.300  1.00  0.00    -0.248 NA
ATOM     42  C   UNL     1      -6.464  -2.507   6.397  1.00  0.00     0.031 C 
ATOM     43  C   UNL     1      -6.438  -3.422   1.462  1.00  0.00     0.029 A 
ATOM     44  N   UNL     1      -8.414  -2.971   2.411  1.00  0.00    -0.354 N 
ATOM     45  C   UNL     1      -8.712  -2.147   6.646  1.00  0.00     0.074 A 
ATOM     46  C   UNL     1      -7.413  -2.235   7.280  1.00  0.00     0.031 C 
ATOM     47  C   UNL     1      -7.375  -3.475   0.498  1.00  0.00     0.029 A 
ATOM     48  C   UNL     1      -8.690  -3.227   1.089  1.00  0.00     0.049 A 
ATOM     49  H   UNL     1      -9.104  -2.714   3.066  1.00  0.00     0.167 HD
ATOM     50  C   UNL     1      -9.858  -1.823   7.295  1.00  0.00     0.034 A 
ATOM     51  C   UNL     1      -9.871  -3.282   0.439  1.00  0.00     0.034 A 
ATOM     52  C   UNL     1     -11.153  -1.769   6.664  1.00  0.00     0.049 A 
ATOM     53  C   UNL     1     -11.148  -3.007   1.199  1.00  0.00     0.074 A 
ATOM     54  C   UNL     1     -12.375  -1.443   7.227  1.00  0.00     0.029 A 
ATOM     55  N   UNL     1     -11.399  -2.067   5.330  1.00  0.00    -0.354 N 
ATOM     56  N   UNL     1     -11.307  -2.705   2.467  1.00  0.00    -0.248 NA
ATOM     57  C   UNL     1     -12.402  -3.076   0.436  1.00  0.00     0.031 C 
ATOM     58  C   UNL     1     -13.366  -1.606   6.251  1.00  0.00     0.029 A 
ATOM     59  C   UNL     1     -12.755  -1.964   5.060  1.00  0.00     0.049 A 
ATOM     60  H   UNL     1     -10.710  -2.315   4.672  1.00  0.00     0.167 HD
ATOM     61  C   UNL     1     -12.677  -2.519   2.644  1.00  0.00     0.074 A 
ATOM     62  C   UNL     1     -13.296  -2.734   1.353  1.00  0.00     0.031 C 
ATOM     63  C   UNL     1     -13.361  -2.192   3.770  1.00  0.00     0.034 A 
BRANCH  50  64
ATOM     64  C   UNL     1      -9.754  -1.557   8.775  1.00  0.00     0.023 A 
ATOM     65  C   UNL     1      -9.032  -0.459   9.276  1.00  0.00     0.031 A 
ATOM     66  C   UNL     1     -10.345  -2.436   9.699  1.00  0.00     0.131 A 
ATOM     67  C   UNL     1      -8.859  -0.309  10.660  1.00  0.00     0.055 A 
ATOM     68  C   UNL     1     -10.232  -2.239  11.077  1.00  0.00     0.041 A 
ATOM     69  F   UNL     1     -11.026  -3.513   9.278  1.00  0.00    -0.206 F 
ATOM     70  C   UNL     1      -9.473  -1.179  11.564  1.00  0.00     0.022 A 
BRANCH  67  71
ATOM     71  S   UNL     1      -7.703   0.955  11.256  1.00  0.00     0.124 S 
ATOM     72  O   UNL     1      -6.459   0.545  10.609  1.00  0.00    -0.237 OA
ATOM     73  O   UNL     1      -8.303   2.189  10.763  1.00  0.00    -0.237 OA
ATOM     74  O   UNL     1      -7.728   0.785  12.707  1.00  0.00    -0.744 OA
ENDBRANCH  67  71
ENDBRANCH  50  64
BRANCH  51  75
ATOM     75  C   UNL     1      -9.924  -3.653  -1.004  1.00  0.00     0.023 A 
ATOM     76  C   UNL     1     -10.363  -2.738  -1.973  1.00  0.00     0.031 A 
ATOM     77  C   UNL     1      -9.595  -4.954  -1.423  1.00  0.00     0.131 A 
ATOM     78  C   UNL     1     -10.505  -3.149  -3.308  1.00  0.00     0.055 A 
ATOM     79  C   UNL     1      -9.693  -5.345  -2.760  1.00  0.00     0.041 A 
ATOM     80  F   UNL     1      -9.169  -5.867  -0.535  1.00  0.00    -0.206 F 
ATOM     81  C   UNL     1     -10.163  -4.443  -3.709  1.00  0.00     0.022 A 
BRANCH  78  82
ATOM     82  S   UNL     1     -11.215  -1.984  -4.503  1.00  0.00     0.124 S 
ATOM     83  O   UNL     1     -12.523  -1.718  -3.917  1.00  0.00    -0.237 OA
ATOM     84  O   UNL     1     -10.255  -0.885  -4.458  1.00  0.00    -0.237 OA
ATOM     85  O   UNL     1     -11.230  -2.744  -5.751  1.00  0.00    -0.744 OA
ENDBRANCH  78  82
ENDBRANCH  51  75
BRANCH  63  86
ATOM     86  C   UNL     1     -14.852  -2.000   3.639  1.00  0.00     0.023 A 
ATOM     87  C   UNL     1     -15.720  -3.075   3.377  1.00  0.00     0.031 A 
ATOM     88  C   UNL     1     -15.411  -0.716   3.774  1.00  0.00     0.131 A 
ATOM     89  C   UNL     1     -17.094  -2.839   3.212  1.00  0.00     0.055 A 
ATOM     90  C   UNL     1     -16.784  -0.496   3.661  1.00  0.00     0.041 A 
ATOM     91  F   UNL     1     -14.628   0.346   4.024  1.00  0.00    -0.206 F 
ATOM     92  C   UNL     1     -17.633  -1.559   3.367  1.00  0.00     0.022 A 
BRANCH  89  93
ATOM     93  S   UNL     1     -18.163  -4.218   2.715  1.00  0.00     0.124 S 
ATOM     94  O   UNL     1     -17.561  -4.628   1.450  1.00  0.00    -0.237 OA
ATOM     95  O   UNL     1     -18.008  -5.150   3.827  1.00  0.00    -0.237 OA
ATOM     96  O   UNL     1     -19.485  -3.604   2.602  1.00  0.00    -0.744 OA
ENDBRANCH  89  93
ENDBRANCH  63  86
ENDBRANCH  37  38
ENDBRANCH  30  32
ENDBRANCH  29  30
ENDBRANCH  28  29
ENDBRANCH  27  28
ENDBRANCH  26  27
ENDBRANCH  25  26
ENDBRANCH   1  25
TORSDOF 23
