REMARK SMILES CC(C)CCOc1ccccc1-c1cc(C(=O)OCCOCCOCCOC(=O)c2ccc(-c3c4nc(c(-c5cc(S(=O)(=O)[O-])ccc5F)c5ccc([nH]5)c(-c5cc(S(=O)(=O)[O-])ccc5F)c5nc(c(-c6cc(S(=O)(=O)[O-])ccc6F)c6ccc3[nH]6)C=C5)C=C4)cc2)no1
REMARK SMILES IDX 22 1 21 2 20 3 19 4 18 5 16 6 17 7 15 8 13 9 14 10 94 11
REMARK SMILES IDX 93 12 12 13 7 14 8 15 9 16 11 17 10 18 6 19 5 20 4 21 2 22
REMARK SMILES IDX 1 23 3 24 23 25 24 26 25 27 26 28 27 29 28 30 29 31 30 32
REMARK SMILES IDX 31 33 92 34 32 35 91 36 33 37 34 38 35 39 85 40 36 41 90 42
REMARK SMILES IDX 84 43 86 44 37 45 89 46 83 47 82 48 38 50 70 51 50 52 69 53
REMARK SMILES IDX 51 54 54 55 68 56 87 57 52 58 53 59 67 61 88 62 55 63 39 64
REMARK SMILES IDX 40 65 48 66 41 67 47 68 49 69 46 70 42 71 43 72 44 73 45 74
REMARK SMILES IDX 71 75 72 76 80 77 73 78 79 79 81 80 78 81 74 82 75 83 76 84
REMARK SMILES IDX 77 85 56 86 57 87 65 88 58 89 64 90 66 91 63 92 59 93 60 94
REMARK SMILES IDX 61 95 62 96
REMARK H PARENT 86 49 54 60
REMARK Flexibility Score: inf
ROOT
ATOM      1  C   UNL     1      -1.137  -4.895   3.473  1.00  0.00     0.188 C 
ENDROOT
BRANCH   1   2
ATOM      2  O   UNL     1      -2.425  -5.288   3.920  1.00  0.00    -0.376 OA
BRANCH   2   3
ATOM      3  C   UNL     1      -3.466  -5.500   2.982  1.00  0.00     0.202 C 
BRANCH   3   4
ATOM      4  C   UNL     1      -3.774  -4.458   1.883  1.00  0.00     0.261 C 
BRANCH   4   5
ATOM      5  O   UNL     1      -2.653  -3.880   1.188  1.00  0.00    -0.458 OA
BRANCH   5   6
ATOM      6  C   UNL     1      -2.207  -2.654   1.608  1.00  0.00     0.360 C 
ATOM      7  O   UNL     1      -2.791  -1.952   2.421  1.00  0.00    -0.244 OA
BRANCH   6   8
ATOM      8  C   UNL     1      -0.909  -2.316   0.994  1.00  0.00     0.192 A 
ATOM      9  C   UNL     1       1.045  -2.185  -1.152  1.00  0.00     0.171 A 
ATOM     10  C   UNL     1      -0.433  -2.818  -0.725  1.00  0.00     0.090 A 
ATOM     11  O   UNL     1       1.678  -1.203   0.329  1.00  0.00    -0.355 OA
ATOM     12  N   UNL     1       0.270  -1.361   1.736  1.00  0.00    -0.072 NA
BRANCH   9  13
ATOM     13  C   UNL     1       1.512  -1.723  -2.451  1.00  0.00     0.062 A 
ATOM     14  C   UNL     1       0.573  -1.085  -3.300  1.00  0.00     0.130 A 
ATOM     15  C   UNL     1       1.008  -0.435  -4.447  1.00  0.00     0.047 A 
ATOM     16  C   UNL     1       2.371  -0.418  -4.748  1.00  0.00     0.004 A 
ATOM     17  C   UNL     1       2.869  -1.716  -2.763  1.00  0.00     0.016 A 
ATOM     18  C   UNL     1       3.294  -1.068  -3.922  1.00  0.00     0.001 A 
BRANCH  14  19
ATOM     19  O   UNL     1      -0.786  -1.140  -3.058  1.00  0.00    -0.493 OA
BRANCH  19  20
ATOM     20  C   UNL     1      -1.303  -0.089  -2.213  1.00  0.00     0.230 C 
BRANCH  20  21
ATOM     21  C   UNL     1      -1.484  -0.554  -0.746  1.00  0.00     0.044 C 
BRANCH  21  22
ATOM     22  C   UNL     1       0.030  -0.860  -0.044  1.00  0.00    -0.014 C 
ATOM     23  C   UNL     1       0.330   0.718   0.706  1.00  0.00     0.007 C 
ATOM     24  C   UNL     1       1.021  -2.732   0.728  1.00  0.00     0.007 C 
ENDBRANCH  21  22
ENDBRANCH  20  21
ENDBRANCH  19  20
ENDBRANCH  14  19
ENDBRANCH   9  13
ENDBRANCH   6   8
ENDBRANCH   5   6
ENDBRANCH   4   5
ENDBRANCH   3   4
ENDBRANCH   2   3
ENDBRANCH   1   2
BRANCH   1  25
ATOM     25  C   UNL     1      -0.551  -5.513   2.186  1.00  0.00     0.188 C 
BRANCH  25  26
ATOM     26  O   UNL     1      -1.389  -6.410   1.505  1.00  0.00    -0.376 OA
BRANCH  26  27
ATOM     27  C   UNL     1      -1.130  -7.790   1.640  1.00  0.00     0.202 C 
BRANCH  27  28
ATOM     28  C   UNL     1      -0.529  -8.411   2.921  1.00  0.00     0.261 C 
BRANCH  28  29
ATOM     29  O   UNL     1       0.110  -7.553   3.884  1.00  0.00    -0.460 OA
BRANCH  29  30
ATOM     30  C   UNL     1       1.447  -7.355   3.734  1.00  0.00     0.338 C 
ATOM     31  O   UNL     1       2.142  -7.825   2.850  1.00  0.00    -0.246 OA
BRANCH  30  32
ATOM     32  C   UNL     1       1.912  -6.296   4.668  1.00  0.00     0.060 A 
ATOM     33  C   UNL     1       2.363  -5.071   4.148  1.00  0.00     0.016 A 
ATOM     34  C   UNL     1       1.966  -6.525   6.042  1.00  0.00     0.016 A 
ATOM     35  C   UNL     1       2.918  -4.100   4.988  1.00  0.00     0.010 A 
ATOM     36  C   UNL     1       2.548  -5.562   6.880  1.00  0.00     0.010 A 
ATOM     37  C   UNL     1       3.075  -4.365   6.353  1.00  0.00    -0.014 A 
BRANCH  37  38
ATOM     38  C   UNL     1       3.978  -3.511   7.179  1.00  0.00     0.031 A 
ATOM     39  C   UNL     1       5.344  -4.048   7.533  1.00  0.00     0.074 A 
ATOM     40  C   UNL     1       3.626  -2.276   7.582  1.00  0.00     0.049 A 
ATOM     41  N   UNL     1       6.274  -3.532   8.295  1.00  0.00    -0.248 NA
ATOM     42  C   UNL     1       5.702  -5.352   6.952  1.00  0.00     0.031 C 
ATOM     43  C   UNL     1       2.368  -1.608   7.255  1.00  0.00     0.029 A 
ATOM     44  N   UNL     1       4.297  -1.361   8.361  1.00  0.00    -0.354 N 
ATOM     45  C   UNL     1       7.317  -4.454   8.300  1.00  0.00     0.074 A 
ATOM     46  C   UNL     1       6.884  -5.579   7.501  1.00  0.00     0.031 C 
ATOM     47  C   UNL     1       2.357  -0.393   7.832  1.00  0.00     0.029 A 
ATOM     48  C   UNL     1       3.581  -0.213   8.611  1.00  0.00     0.049 A 
ATOM     49  H   UNL     1       5.206  -1.514   8.708  1.00  0.00     0.167 HD
ATOM     50  C   UNL     1       8.527  -4.366   8.906  1.00  0.00     0.034 A 
ATOM     51  C   UNL     1       3.863   0.847   9.400  1.00  0.00     0.034 A 
ATOM     52  C   UNL     1       8.943  -3.242   9.708  1.00  0.00     0.049 A 
ATOM     53  C   UNL     1       5.174   0.874  10.155  1.00  0.00     0.074 A 
ATOM     54  C   UNL     1      10.151  -3.050  10.357  1.00  0.00     0.029 A 
ATOM     55  N   UNL     1       8.163  -2.127   9.987  1.00  0.00    -0.354 N 
ATOM     56  N   UNL     1       6.146  -0.010  10.161  1.00  0.00    -0.248 NA
ATOM     57  C   UNL     1       5.429   2.048  11.002  1.00  0.00     0.031 C 
ATOM     58  C   UNL     1      10.061  -1.877  11.112  1.00  0.00     0.029 A 
ATOM     59  C   UNL     1       8.848  -1.269  10.834  1.00  0.00     0.049 A 
ATOM     60  H   UNL     1       7.257  -1.970   9.636  1.00  0.00     0.167 HD
ATOM     61  C   UNL     1       7.146   0.528  10.971  1.00  0.00     0.074 A 
ATOM     62  C   UNL     1       6.660   1.813  11.429  1.00  0.00     0.031 C 
ATOM     63  C   UNL     1       8.360   0.011  11.294  1.00  0.00     0.034 A 
BRANCH  50  64
ATOM     64  C   UNL     1       9.462  -5.547   8.777  1.00  0.00     0.023 A 
ATOM     65  C   UNL     1       9.955  -5.977   7.532  1.00  0.00     0.031 A 
ATOM     66  C   UNL     1       9.851  -6.269   9.920  1.00  0.00     0.131 A 
ATOM     67  C   UNL     1      10.741  -7.137   7.453  1.00  0.00     0.055 A 
ATOM     68  C   UNL     1      10.713  -7.364   9.845  1.00  0.00     0.041 A 
ATOM     69  F   UNL     1       9.390  -5.928  11.134  1.00  0.00    -0.206 F 
ATOM     70  C   UNL     1      11.151  -7.814   8.604  1.00  0.00     0.022 A 
BRANCH  67  71
ATOM     71  S   UNL     1      11.074  -7.847   5.818  1.00  0.00     0.124 S 
ATOM     72  O   UNL     1       9.721  -8.051   5.304  1.00  0.00    -0.237 OA
ATOM     73  O   UNL     1      11.852  -6.798   5.169  1.00  0.00    -0.237 OA
ATOM     74  O   UNL     1      11.809  -9.074   6.120  1.00  0.00    -0.744 OA
ENDBRANCH  67  71
ENDBRANCH  50  64
BRANCH  51  75
ATOM     75  C   UNL     1       2.876   1.958   9.566  1.00  0.00     0.023 A 
ATOM     76  C   UNL     1       3.195   3.281   9.217  1.00  0.00     0.031 A 
ATOM     77  C   UNL     1       1.618   1.721  10.150  1.00  0.00     0.131 A 
ATOM     78  C   UNL     1       2.295   4.320   9.506  1.00  0.00     0.055 A 
ATOM     79  C   UNL     1       0.696   2.747  10.365  1.00  0.00     0.041 A 
ATOM     80  F   UNL     1       1.265   0.481  10.525  1.00  0.00    -0.206 F 
ATOM     81  C   UNL     1       1.038   4.059  10.056  1.00  0.00     0.022 A 
BRANCH  78  82
ATOM     82  S   UNL     1       2.841   6.036   9.278  1.00  0.00     0.124 S 
ATOM     83  O   UNL     1       4.018   6.087  10.137  1.00  0.00    -0.237 OA
ATOM     84  O   UNL     1       3.091   6.088   7.841  1.00  0.00    -0.237 OA
ATOM     85  O   UNL     1       1.698   6.821   9.739  1.00  0.00    -0.744 OA
ENDBRANCH  78  82
ENDBRANCH  51  75
BRANCH  63  86
ATOM     86  C   UNL     1       9.290   0.873  12.121  1.00  0.00     0.023 A 
ATOM     87  C   UNL     1       8.973   1.288  13.425  1.00  0.00     0.031 A 
ATOM     88  C   UNL     1      10.516   1.302  11.576  1.00  0.00     0.131 A 
ATOM     89  C   UNL     1       9.828   2.168  14.106  1.00  0.00     0.055 A 
ATOM     90  C   UNL     1      11.405   2.103  12.294  1.00  0.00     0.041 A 
ATOM     91  F   UNL     1      10.873   0.949  10.331  1.00  0.00    -0.206 F 
ATOM     92  C   UNL     1      11.053   2.557  13.560  1.00  0.00     0.022 A 
BRANCH  89  93
ATOM     93  S   UNL     1       9.248   2.922  15.651  1.00  0.00     0.124 S 
ATOM     94  O   UNL     1       7.995   3.541  15.232  1.00  0.00    -0.237 OA
ATOM     95  O   UNL     1       9.125   1.768  16.536  1.00  0.00    -0.237 OA
ATOM     96  O   UNL     1      10.316   3.858  15.998  1.00  0.00    -0.744 OA
ENDBRANCH  89  93
ENDBRANCH  63  86
ENDBRANCH  37  38
ENDBRANCH  30  32
ENDBRANCH  29  30
ENDBRANCH  28  29
ENDBRANCH  27  28
ENDBRANCH  26  27
ENDBRANCH  25  26
ENDBRANCH   1  25
TORSDOF 25
