REMARK SMILES CC(C)[C@H]([NH2+]C[C@H]1CC[C@@H](C(=O)OCCOCCOCCOC(=O)c2ccc(-c3c4nc(c(-c5cc(S(=O)(=O)[O-])ccc5F)c5ccc([nH]5)c(-c5cc(S(=O)(=O)[O-])ccc5F)c5nc(c(-c6cc(S(=O)(=O)[O-])ccc6F)c6ccc3[nH]6)C=C5)C=C4)cc2)CC1)c1ccccc1
REMARK SMILES IDX 17 1 16 2 15 3 14 4 13 5 11 6 12 7 10 8 7 9 8 10 89 11 9 12
REMARK SMILES IDX 88 13 6 14 5 15 4 18 2 19 1 20 3 21 90 22 91 23 95 24 92 25
REMARK SMILES IDX 94 26 93 27 18 28 19 29 20 30 21 31 22 32 23 33 24 34 25 35
REMARK SMILES IDX 26 36 87 37 27 38 86 39 28 40 29 41 30 42 80 43 31 44 85 45
REMARK SMILES IDX 79 46 81 47 32 48 84 49 78 50 77 51 33 53 65 54 45 55 64 56
REMARK SMILES IDX 46 57 49 58 63 59 82 60 47 61 48 62 62 64 83 65 50 66 34 67
REMARK SMILES IDX 35 68 43 69 36 70 42 71 44 72 41 73 37 74 38 75 39 76 40 77
REMARK SMILES IDX 66 78 67 79 75 80 68 81 74 82 76 83 73 84 69 85 70 86 71 87
REMARK SMILES IDX 72 88 51 89 52 90 60 91 53 92 59 93 61 94 58 95 54 96 55 97
REMARK SMILES IDX 56 98 57 99
REMARK H PARENT 5 16 5 17 81 52 49 63
REMARK Flexibility Score: inf
ROOT
ATOM      1  C   UNL     1       4.767   2.371   1.073  1.00  0.00     0.188 C 
ENDROOT
BRANCH   1   2
ATOM      2  O   UNL     1       4.139   3.608   0.758  1.00  0.00    -0.376 OA
BRANCH   2   3
ATOM      3  C   UNL     1       2.921   3.581   0.027  1.00  0.00     0.202 C 
BRANCH   3   4
ATOM      4  C   UNL     1       2.904   2.846  -1.321  1.00  0.00     0.261 C 
BRANCH   4   5
ATOM      5  O   UNL     1       3.337   1.464  -1.304  1.00  0.00    -0.463 OA
BRANCH   5   6
ATOM      6  C   UNL     1       4.398   1.164  -2.099  1.00  0.00     0.309 C 
ATOM      7  O   UNL     1       4.983   1.995  -2.789  1.00  0.00    -0.252 OA
BRANCH   6   8
ATOM      8  C   UNL     1       4.780  -0.321  -2.175  1.00  0.00     0.099 C 
ATOM      9  C   UNL     1       2.350  -2.051  -2.087  1.00  0.00     0.044 C 
ATOM     10  C   UNL     1       2.690  -1.165  -3.299  1.00  0.00     0.010 C 
ATOM     11  C   UNL     1       3.055  -1.619  -0.795  1.00  0.00     0.010 C 
ATOM     12  C   UNL     1       4.186  -0.916  -3.450  1.00  0.00     0.016 C 
ATOM     13  C   UNL     1       4.527  -1.286  -1.014  1.00  0.00     0.016 C 
BRANCH   9  14
ATOM     14  C   UNL     1       0.823  -2.154  -1.896  1.00  0.00     0.264 C 
BRANCH  14  15
ATOM     15  N   UNL     1       0.182  -0.848  -1.692  1.00  0.00    -0.340 N 
ATOM     16  H   UNL     1       0.647  -0.390  -0.908  1.00  0.00     0.346 HD
ATOM     17  H   UNL     1       0.277  -0.350  -2.577  1.00  0.00     0.346 HD
BRANCH  15  18
ATOM     18  C   UNL     1      -1.268  -0.884  -1.403  1.00  0.00     0.216 C 
BRANCH  18  19
ATOM     19  C   UNL     1      -1.836   0.577  -1.188  1.00  0.00     0.046 C 
ATOM     20  C   UNL     1      -2.881   0.606  -0.067  1.00  0.00     0.014 C 
ATOM     21  C   UNL     1      -0.779   1.654  -0.895  1.00  0.00     0.014 C 
ENDBRANCH  18  19
BRANCH  18  22
ATOM     22  C   UNL     1      -2.006  -1.682  -2.489  1.00  0.00     0.009 A 
ATOM     23  C   UNL     1      -2.417  -1.111  -3.704  1.00  0.00     0.010 A 
ATOM     24  C   UNL     1      -2.099  -3.083  -2.361  1.00  0.00     0.010 A 
ATOM     25  C   UNL     1      -2.873  -1.907  -4.758  1.00  0.00     0.001 A 
ATOM     26  C   UNL     1      -2.497  -3.883  -3.435  1.00  0.00     0.001 A 
ATOM     27  C   UNL     1      -2.884  -3.293  -4.634  1.00  0.00     0.000 A 
ENDBRANCH  18  22
ENDBRANCH  15  18
ENDBRANCH  14  15
ENDBRANCH   9  14
ENDBRANCH   6   8
ENDBRANCH   5   6
ENDBRANCH   4   5
ENDBRANCH   3   4
ENDBRANCH   2   3
ENDBRANCH   1   2
BRANCH   1  28
ATOM     28  C   UNL     1       3.883   1.195   1.516  1.00  0.00     0.188 C 
BRANCH  28  29
ATOM     29  O   UNL     1       2.549   1.545   1.835  1.00  0.00    -0.376 OA
BRANCH  29  30
ATOM     30  C   UNL     1       2.073   1.098   3.090  1.00  0.00     0.202 C 
BRANCH  30  31
ATOM     31  C   UNL     1       2.643   1.887   4.276  1.00  0.00     0.261 C 
BRANCH  31  32
ATOM     32  O   UNL     1       4.080   1.962   4.329  1.00  0.00    -0.460 OA
BRANCH  32  33
ATOM     33  C   UNL     1       4.736   0.810   4.609  1.00  0.00     0.338 C 
ATOM     34  O   UNL     1       4.218  -0.267   4.863  1.00  0.00    -0.246 OA
BRANCH  33  35
ATOM     35  C   UNL     1       6.173   1.002   4.292  1.00  0.00     0.060 A 
ATOM     36  C   UNL     1       6.803   0.077   3.446  1.00  0.00     0.016 A 
ATOM     37  C   UNL     1       6.892   2.086   4.801  1.00  0.00     0.016 A 
ATOM     38  C   UNL     1       8.163   0.204   3.152  1.00  0.00     0.010 A 
ATOM     39  C   UNL     1       8.259   2.202   4.521  1.00  0.00     0.010 A 
ATOM     40  C   UNL     1       8.913   1.236   3.732  1.00  0.00    -0.014 A 
BRANCH  40  41
ATOM     41  C   UNL     1      10.399   1.143   3.733  1.00  0.00     0.031 A 
ATOM     42  C   UNL     1      11.067   0.583   4.963  1.00  0.00     0.074 A 
ATOM     43  C   UNL     1      11.144   1.488   2.667  1.00  0.00     0.049 A 
ATOM     44  N   UNL     1      12.337   0.416   5.225  1.00  0.00    -0.248 NA
ATOM     45  C   UNL     1      10.168   0.160   6.048  1.00  0.00     0.031 C 
ATOM     46  C   UNL     1      10.625   2.002   1.401  1.00  0.00     0.029 A 
ATOM     47  N   UNL     1      12.507   1.461   2.486  1.00  0.00    -0.354 N 
ATOM     48  C   UNL     1      12.390  -0.133   6.503  1.00  0.00     0.074 A 
ATOM     49  C   UNL     1      11.027  -0.211   6.982  1.00  0.00     0.031 C 
ATOM     50  C   UNL     1      11.659   2.253   0.578  1.00  0.00     0.029 A 
ATOM     51  C   UNL     1      12.915   1.951   1.267  1.00  0.00     0.049 A 
ATOM     52  H   UNL     1      13.133   1.122   3.166  1.00  0.00     0.167 HD
ATOM     53  C   UNL     1      13.470  -0.553   7.208  1.00  0.00     0.034 A 
ATOM     54  C   UNL     1      14.155   2.156   0.775  1.00  0.00     0.034 A 
ATOM     55  C   UNL     1      14.828  -0.447   6.732  1.00  0.00     0.049 A 
ATOM     56  C   UNL     1      15.355   1.770   1.612  1.00  0.00     0.074 A 
ATOM     57  C   UNL     1      15.996  -0.830   7.368  1.00  0.00     0.029 A 
ATOM     58  N   UNL     1      15.204   0.094   5.509  1.00  0.00    -0.354 N 
ATOM     59  N   UNL     1      15.394   1.249   2.818  1.00  0.00    -0.248 NA
ATOM     60  C   UNL     1      16.679   1.987   1.012  1.00  0.00     0.031 C 
ATOM     61  C   UNL     1      17.078  -0.449   6.566  1.00  0.00     0.029 A 
ATOM     62  C   UNL     1      16.585   0.083   5.385  1.00  0.00     0.049 A 
ATOM     63  H   UNL     1      14.580   0.436   4.828  1.00  0.00     0.167 HD
ATOM     64  C   UNL     1      16.744   1.044   3.103  1.00  0.00     0.074 A 
ATOM     65  C   UNL     1      17.482   1.483   1.938  1.00  0.00     0.031 C 
ATOM     66  C   UNL     1      17.319   0.533   4.223  1.00  0.00     0.034 A 
BRANCH  53  67
ATOM     67  C   UNL     1      13.212  -1.112   8.588  1.00  0.00     0.023 A 
ATOM     68  C   UNL     1      12.421  -2.259   8.785  1.00  0.00     0.031 A 
ATOM     69  C   UNL     1      13.709  -0.456   9.728  1.00  0.00     0.131 A 
ATOM     70  C   UNL     1      12.074  -2.657  10.084  1.00  0.00     0.055 A 
ATOM     71  C   UNL     1      13.439  -0.915  11.019  1.00  0.00     0.041 A 
ATOM     72  F   UNL     1      14.447   0.659   9.609  1.00  0.00    -0.206 F 
ATOM     73  C   UNL     1      12.601  -2.010  11.204  1.00  0.00     0.022 A 
BRANCH  70  74
ATOM     74  S   UNL     1      10.781  -3.914  10.286  1.00  0.00     0.124 S 
ATOM     75  O   UNL     1       9.662  -3.303   9.572  1.00  0.00    -0.237 OA
ATOM     76  O   UNL     1      11.378  -5.086   9.657  1.00  0.00    -0.237 OA
ATOM     77  O   UNL     1      10.610  -4.000  11.735  1.00  0.00    -0.744 OA
ENDBRANCH  70  74
ENDBRANCH  53  67
BRANCH  54  78
ATOM     78  C   UNL     1      14.340   2.800  -0.560  1.00  0.00     0.023 A 
ATOM     79  C   UNL     1      14.963   2.127  -1.625  1.00  0.00     0.031 A 
ATOM     80  C   UNL     1      13.942   4.133  -0.769  1.00  0.00     0.131 A 
ATOM     81  C   UNL     1      15.206   2.802  -2.834  1.00  0.00     0.055 A 
ATOM     82  C   UNL     1      14.134   4.780  -1.991  1.00  0.00     0.041 A 
ATOM     83  F   UNL     1      13.352   4.828   0.217  1.00  0.00    -0.206 F 
ATOM     84  C   UNL     1      14.781   4.118  -3.029  1.00  0.00     0.022 A 
BRANCH  81  85
ATOM     85  S   UNL     1      16.168   1.963  -4.125  1.00  0.00     0.124 S 
ATOM     86  O   UNL     1      17.423   1.695  -3.433  1.00  0.00    -0.237 OA
ATOM     87  O   UNL     1      15.335   0.801  -4.416  1.00  0.00    -0.237 OA
ATOM     88  O   UNL     1      16.243   2.957  -5.194  1.00  0.00    -0.744 OA
ENDBRANCH  81  85
ENDBRANCH  54  78
BRANCH  66  89
ATOM     89  C   UNL     1      18.824   0.366   4.218  1.00  0.00     0.023 A 
ATOM     90  C   UNL     1      19.699   1.463   4.126  1.00  0.00     0.031 A 
ATOM     91  C   UNL     1      19.391  -0.921   4.286  1.00  0.00     0.131 A 
ATOM     92  C   UNL     1      21.084   1.249   4.031  1.00  0.00     0.055 A 
ATOM     93  C   UNL     1      20.772  -1.123   4.267  1.00  0.00     0.041 A 
ATOM     94  F   UNL     1      18.609  -2.010   4.372  1.00  0.00    -0.206 F 
ATOM     95  C   UNL     1      21.627  -0.035   4.121  1.00  0.00     0.022 A 
BRANCH  92  96
ATOM     96  S   UNL     1      22.161   2.662   3.659  1.00  0.00     0.124 S 
ATOM     97  O   UNL     1      21.573   3.174   2.426  1.00  0.00    -0.237 OA
ATOM     98  O   UNL     1      21.994   3.500   4.842  1.00  0.00    -0.237 OA
ATOM     99  O   UNL     1      23.483   2.055   3.511  1.00  0.00    -0.744 OA
ENDBRANCH  92  96
ENDBRANCH  66  89
ENDBRANCH  40  41
ENDBRANCH  33  35
ENDBRANCH  32  33
ENDBRANCH  31  32
ENDBRANCH  30  31
ENDBRANCH  29  30
ENDBRANCH  28  29
ENDBRANCH   1  28
TORSDOF 25
