REMARK SMILES Cc1cc2c(=O)c3ccccc3oc2c(C(=O)OCCOCCOCCOC(=O)c2ccc(-c3c4nc(c(-c5cc(S(=O)(=O)[O-])ccc5F)c5ccc([nH]5)c(-c5cc(S(=O)(=O)[O-])ccc5F)c5nc(c(-c6cc(S(=O)(=O)[O-])ccc6F)c6ccc3[nH]6)C=C5)C=C4)cc2)c1C
REMARK SMILES IDX 24 1 23 2 22 3 21 4 20 5 19 6 18 7 16 8 17 9 15 10 1 11 2 12
REMARK SMILES IDX 3 13 93 14 4 15 94 16 5 17 14 18 6 19 7 20 13 21 8 22 12 23
REMARK SMILES IDX 9 24 11 25 10 26 25 27 26 28 27 29 28 30 29 31 30 32 31 33
REMARK SMILES IDX 92 34 32 35 91 36 33 37 34 38 35 39 85 40 36 41 90 42 84 43
REMARK SMILES IDX 86 44 37 45 89 46 83 47 82 48 38 50 70 51 50 52 69 53 51 54
REMARK SMILES IDX 54 55 68 56 87 57 52 58 53 59 67 61 88 62 55 63 39 64 40 65
REMARK SMILES IDX 48 66 41 67 47 68 49 69 46 70 42 71 43 72 44 73 45 74 71 75
REMARK SMILES IDX 72 76 80 77 73 78 79 79 81 80 78 81 74 82 75 83 76 84 77 85
REMARK SMILES IDX 56 86 57 87 65 88 58 89 64 90 66 91 63 92 59 93 60 94 61 95
REMARK SMILES IDX 62 96
REMARK H PARENT 86 49 54 60
REMARK Flexibility Score: inf
ROOT
ATOM      1  O   UNL     1      -3.550  -1.346  -3.708  1.00  0.00    -0.376 OA
ENDROOT
BRANCH   1   2
ATOM      2  C   UNL     1      -3.035  -0.086  -4.099  1.00  0.00     0.188 C 
BRANCH   2   3
ATOM      3  C   UNL     1      -2.680   0.206  -5.575  1.00  0.00     0.188 C 
BRANCH   3   4
ATOM      4  O   UNL     1      -2.884  -0.787  -6.561  1.00  0.00    -0.376 OA
BRANCH   4   5
ATOM      5  C   UNL     1      -2.095  -1.966  -6.567  1.00  0.00     0.202 C 
BRANCH   5   6
ATOM      6  C   UNL     1      -0.656  -1.988  -6.044  1.00  0.00     0.261 C 
BRANCH   6   7
ATOM      7  O   UNL     1      -0.477  -1.313  -4.793  1.00  0.00    -0.460 OA
BRANCH   7   8
ATOM      8  C   UNL     1       0.552  -0.427  -4.746  1.00  0.00     0.342 C 
ATOM      9  O   UNL     1       1.341  -0.195  -5.645  1.00  0.00    -0.246 OA
BRANCH   8  10
ATOM     10  C   UNL     1       0.575   0.282  -3.439  1.00  0.00     0.106 A 
ATOM     11  C   UNL     1       0.915  -0.370   0.343  1.00  0.00     0.044 C 
ATOM     12  C   UNL     1       0.765   0.286  -1.003  1.00  0.00    -0.046 A 
ATOM     13  C   UNL     1       0.862   1.683  -1.045  1.00  0.00     0.019 A 
ATOM     14  C   UNL     1       0.613  -0.436  -2.210  1.00  0.00    -0.030 A 
ATOM     15  C   UNL     1       0.761   2.372  -2.253  1.00  0.00     0.067 A 
ATOM     16  C   UNL     1       0.413  -1.932  -2.187  1.00  0.00     0.046 C 
ATOM     17  C   UNL     1       0.798   3.840  -2.240  1.00  0.00     0.200 A 
ATOM     18  C   UNL     1       0.619   1.692  -3.457  1.00  0.00     0.153 A 
ATOM     19  O   UNL     1       0.950   4.462  -1.197  1.00  0.00    -0.288 OA
ATOM     20  C   UNL     1       0.633   4.513  -3.528  1.00  0.00     0.065 A 
ATOM     21  O   UNL     1       0.481   2.351  -4.660  1.00  0.00    -0.455 OA
ATOM     22  C   UNL     1       0.628   5.910  -3.599  1.00  0.00     0.016 A 
ATOM     23  C   UNL     1       0.493   3.727  -4.669  1.00  0.00     0.138 A 
ATOM     24  C   UNL     1       0.497   6.530  -4.837  1.00  0.00     0.001 A 
ATOM     25  C   UNL     1       0.368   4.354  -5.907  1.00  0.00     0.048 A 
ATOM     26  C   UNL     1       0.382   5.751  -5.986  1.00  0.00     0.004 A 
ENDBRANCH   8  10
ENDBRANCH   7   8
ENDBRANCH   6   7
ENDBRANCH   5   6
ENDBRANCH   4   5
ENDBRANCH   3   4
ENDBRANCH   2   3
ENDBRANCH   1   2
BRANCH   1  27
ATOM     27  C   UNL     1      -4.716  -1.844  -4.344  1.00  0.00     0.202 C 
BRANCH  27  28
ATOM     28  C   UNL     1      -5.966  -0.971  -4.501  1.00  0.00     0.261 C 
BRANCH  28  29
ATOM     29  O   UNL     1      -5.733   0.295  -5.134  1.00  0.00    -0.460 OA
BRANCH  29  30
ATOM     30  C   UNL     1      -5.965   1.387  -4.360  1.00  0.00     0.338 C 
ATOM     31  O   UNL     1      -6.357   1.401  -3.205  1.00  0.00    -0.246 OA
BRANCH  30  32
ATOM     32  C   UNL     1      -5.478   2.581  -5.076  1.00  0.00     0.060 A 
ATOM     33  C   UNL     1      -6.041   2.955  -6.298  1.00  0.00     0.016 A 
ATOM     34  C   UNL     1      -4.430   3.324  -4.516  1.00  0.00     0.016 A 
ATOM     35  C   UNL     1      -5.557   4.088  -6.957  1.00  0.00     0.010 A 
ATOM     36  C   UNL     1      -3.926   4.435  -5.193  1.00  0.00     0.010 A 
ATOM     37  C   UNL     1      -4.497   4.833  -6.412  1.00  0.00    -0.014 A 
BRANCH  37  38
ATOM     38  C   UNL     1      -4.069   6.106  -7.041  1.00  0.00     0.031 A 
ATOM     39  C   UNL     1      -2.899   6.159  -7.973  1.00  0.00     0.074 A 
ATOM     40  C   UNL     1      -4.751   7.225  -6.732  1.00  0.00     0.049 A 
ATOM     41  N   UNL     1      -2.332   7.200  -8.524  1.00  0.00    -0.248 NA
ATOM     42  C   UNL     1      -2.275   4.876  -8.325  1.00  0.00     0.031 C 
ATOM     43  C   UNL     1      -5.928   7.263  -5.864  1.00  0.00     0.029 A 
ATOM     44  N   UNL     1      -4.570   8.529  -7.113  1.00  0.00    -0.354 N 
ATOM     45  C   UNL     1      -1.244   6.712  -9.242  1.00  0.00     0.074 A 
ATOM     46  C   UNL     1      -1.258   5.273  -9.082  1.00  0.00     0.031 C 
ATOM     47  C   UNL     1      -6.386   8.522  -5.809  1.00  0.00     0.029 A 
ATOM     48  C   UNL     1      -5.508   9.390  -6.591  1.00  0.00     0.049 A 
ATOM     49  H   UNL     1      -3.839   8.822  -7.704  1.00  0.00     0.167 HD
ATOM     50  C   UNL     1      -0.307   7.419  -9.921  1.00  0.00     0.034 A 
ATOM     51  C   UNL     1      -5.646  10.725  -6.729  1.00  0.00     0.034 A 
ATOM     52  C   UNL     1      -0.369   8.852 -10.102  1.00  0.00     0.049 A 
ATOM     53  C   UNL     1      -4.659  11.471  -7.591  1.00  0.00     0.074 A 
ATOM     54  C   UNL     1       0.496   9.660 -10.820  1.00  0.00     0.029 A 
ATOM     55  N   UNL     1      -1.359   9.686  -9.597  1.00  0.00    -0.354 N 
ATOM     56  N   UNL     1      -3.625  11.002  -8.250  1.00  0.00    -0.248 NA
ATOM     57  C   UNL     1      -4.851  12.920  -7.738  1.00  0.00     0.031 C 
ATOM     58  C   UNL     1       0.069  10.981 -10.701  1.00  0.00     0.029 A 
ATOM     59  C   UNL     1      -1.119  10.993  -9.988  1.00  0.00     0.049 A 
ATOM     60  H   UNL     1      -2.118   9.392  -9.044  1.00  0.00     0.167 HD
ATOM     61  C   UNL     1      -3.065  12.090  -8.912  1.00  0.00     0.074 A 
ATOM     62  C   UNL     1      -3.885  13.239  -8.591  1.00  0.00     0.031 C 
ATOM     63  C   UNL     1      -1.965  12.129  -9.704  1.00  0.00     0.034 A 
BRANCH  50  64
ATOM     64  C   UNL     1       0.887   6.702 -10.516  1.00  0.00     0.023 A 
ATOM     65  C   UNL     1       2.191   7.094 -10.144  1.00  0.00     0.031 A 
ATOM     66  C   UNL     1       0.756   5.765 -11.555  1.00  0.00     0.131 A 
ATOM     67  C   UNL     1       3.301   6.601 -10.843  1.00  0.00     0.055 A 
ATOM     68  C   UNL     1       1.870   5.225 -12.203  1.00  0.00     0.041 A 
ATOM     69  F   UNL     1      -0.458   5.363 -11.963  1.00  0.00    -0.206 F 
ATOM     70  C   UNL     1       3.148   5.657 -11.861  1.00  0.00     0.022 A 
BRANCH  67  71
ATOM     71  S   UNL     1       4.970   7.247 -10.536  1.00  0.00     0.124 S 
ATOM     72  O   UNL     1       5.698   6.035 -10.165  1.00  0.00    -0.237 OA
ATOM     73  O   UNL     1       5.322   7.811 -11.836  1.00  0.00    -0.237 OA
ATOM     74  O   UNL     1       4.780   8.212  -9.459  1.00  0.00    -0.744 OA
ENDBRANCH  67  71
ENDBRANCH  50  64
BRANCH  51  75
ATOM     75  C   UNL     1      -6.817  11.402  -6.100  1.00  0.00     0.023 A 
ATOM     76  C   UNL     1      -7.007  11.390  -4.706  1.00  0.00     0.031 A 
ATOM     77  C   UNL     1      -7.827  11.963  -6.900  1.00  0.00     0.131 A 
ATOM     78  C   UNL     1      -8.210  11.861  -4.164  1.00  0.00     0.055 A 
ATOM     79  C   UNL     1      -8.991  12.501  -6.349  1.00  0.00     0.041 A 
ATOM     80  F   UNL     1      -7.699  11.981  -8.236  1.00  0.00    -0.206 F 
ATOM     81  C   UNL     1      -9.195  12.434  -4.975  1.00  0.00     0.022 A 
BRANCH  78  82
ATOM     82  S   UNL     1      -8.600  11.614  -2.409  1.00  0.00     0.124 S 
ATOM     83  O   UNL     1      -8.773  12.986  -1.940  1.00  0.00    -0.237 OA
ATOM     84  O   UNL     1      -9.820  10.815  -2.485  1.00  0.00    -0.237 OA
ATOM     85  O   UNL     1      -7.430  10.912  -1.893  1.00  0.00    -0.744 OA
ENDBRANCH  78  82
ENDBRANCH  51  75
BRANCH  63  86
ATOM     86  C   UNL     1      -1.556  13.440 -10.336  1.00  0.00     0.023 A 
ATOM     87  C   UNL     1      -1.514  13.549 -11.741  1.00  0.00     0.031 A 
ATOM     88  C   UNL     1      -1.021  14.489  -9.571  1.00  0.00     0.131 A 
ATOM     89  C   UNL     1      -0.894  14.654 -12.336  1.00  0.00     0.055 A 
ATOM     90  C   UNL     1      -0.450  15.614 -10.170  1.00  0.00     0.041 A 
ATOM     91  F   UNL     1      -1.024  14.426  -8.230  1.00  0.00    -0.206 F 
ATOM     92  C   UNL     1      -0.369  15.691 -11.558  1.00  0.00     0.022 A 
BRANCH  89  93
ATOM     93  S   UNL     1      -0.659  14.740 -14.133  1.00  0.00     0.124 S 
ATOM     94  O   UNL     1      -1.316  16.003 -14.465  1.00  0.00    -0.237 OA
ATOM     95  O   UNL     1       0.796  14.745 -14.252  1.00  0.00    -0.237 OA
ATOM     96  O   UNL     1      -1.329  13.545 -14.634  1.00  0.00    -0.744 OA
ENDBRANCH  89  93
ENDBRANCH  63  86
ENDBRANCH  37  38
ENDBRANCH  30  32
ENDBRANCH  29  30
ENDBRANCH  28  29
ENDBRANCH  27  28
ENDBRANCH   1  27
TORSDOF 20
