REMARK SMILES CC(C)c1ccc(O[C@H](C)C(=O)Nc2ccccc2C(=O)OCCOCCOCCOC(=O)c2ccc(-c3c4nc(c(-c5cc(S(=O)(=O)[O-])ccc5F)c5ccc([nH]5)c(-c5cc(S(=O)(=O)[O-])ccc5F)c5nc(c(-c6cc(S(=O)(=O)[O-])ccc6F)c6ccc3[nH]6)C=C5)C=C4)cc2)cc1
REMARK SMILES IDX 26 1 25 2 24 3 23 4 22 5 20 6 21 7 19 8 14 9 15 10 16 11
REMARK SMILES IDX 18 12 17 13 13 14 11 15 12 16 9 18 10 19 8 20 7 21 4 22 5 23
REMARK SMILES IDX 98 24 6 25 97 26 2 27 1 28 3 29 27 30 28 31 29 32 30 33
REMARK SMILES IDX 31 34 32 35 33 36 34 37 35 38 96 39 36 40 95 41 37 42 38 43
REMARK SMILES IDX 39 44 89 45 40 46 94 47 88 48 90 49 41 50 93 51 87 52 86 53
REMARK SMILES IDX 42 55 74 56 54 57 73 58 55 59 58 60 72 61 91 62 56 63 57 64
REMARK SMILES IDX 71 66 92 67 59 68 43 69 44 70 52 71 45 72 51 73 53 74 50 75
REMARK SMILES IDX 46 76 47 77 48 78 49 79 75 80 76 81 84 82 77 83 83 84 85 85
REMARK SMILES IDX 82 86 78 87 79 88 80 89 81 90 60 91 61 92 69 93 62 94 68 95
REMARK SMILES IDX 70 96 67 97 63 98 64 99 65 100 66 101
REMARK H PARENT 13 17 90 54 58 65
REMARK Flexibility Score: inf
ROOT
ATOM      1  C   UNL     1      -3.861   3.045   3.635  1.00  0.00     0.188 C 
ENDROOT
BRANCH   1   2
ATOM      2  O   UNL     1      -5.213   3.219   4.024  1.00  0.00    -0.376 OA
BRANCH   2   3
ATOM      3  C   UNL     1      -6.171   2.554   3.217  1.00  0.00     0.202 C 
BRANCH   3   4
ATOM      4  C   UNL     1      -6.142   1.034   3.326  1.00  0.00     0.261 C 
BRANCH   4   5
ATOM      5  O   UNL     1      -5.069   0.289   2.702  1.00  0.00    -0.460 OA
BRANCH   5   6
ATOM      6  C   UNL     1      -4.414   0.633   1.577  1.00  0.00     0.340 C 
ATOM      7  O   UNL     1      -4.521   1.692   0.977  1.00  0.00    -0.246 OA
BRANCH   6   8
ATOM      8  C   UNL     1      -3.435  -0.430   1.217  1.00  0.00     0.083 A 
ATOM      9  C   UNL     1      -3.606  -1.784   1.560  1.00  0.00     0.055 A 
ATOM     10  C   UNL     1      -2.512  -2.655   1.444  1.00  0.00     0.027 A 
ATOM     11  C   UNL     1      -1.311  -2.226   0.874  1.00  0.00     0.002 A 
ATOM     12  C   UNL     1      -2.226  -0.009   0.631  1.00  0.00     0.018 A 
ATOM     13  C   UNL     1      -1.175  -0.910   0.445  1.00  0.00     0.001 A 
BRANCH   9  14
ATOM     14  N   UNL     1      -4.789  -2.343   2.084  1.00  0.00    -0.322 N 
ATOM     15  C   UNL     1      -6.102  -2.071   1.788  1.00  0.00     0.265 C 
ATOM     16  O   UNL     1      -6.955  -2.331   2.647  1.00  0.00    -0.270 OA
ATOM     17  H   UNL     1      -4.653  -3.037   2.769  1.00  0.00     0.170 HD
BRANCH  15  18
ATOM     18  C   UNL     1      -6.539  -1.601   0.367  1.00  0.00     0.259 C 
ATOM     19  C   UNL     1      -7.392  -0.333   0.391  1.00  0.00     0.064 C 
BRANCH  18  20
ATOM     20  O   UNL     1      -5.569  -1.824  -0.647  1.00  0.00    -0.481 OA
BRANCH  20  21
ATOM     21  C   UNL     1      -5.256  -0.995  -1.672  1.00  0.00     0.120 A 
ATOM     22  C   UNL     1      -4.260   0.510  -3.862  1.00  0.00    -0.045 A 
ATOM     23  C   UNL     1      -4.722   1.135  -2.707  1.00  0.00     0.008 A 
ATOM     24  C   UNL     1      -4.307  -0.892  -3.908  1.00  0.00     0.008 A 
ATOM     25  C   UNL     1      -5.238   0.389  -1.647  1.00  0.00     0.047 A 
ATOM     26  C   UNL     1      -4.782  -1.631  -2.818  1.00  0.00     0.047 A 
BRANCH  22  27
ATOM     27  C   UNL     1      -3.775   1.298  -5.067  1.00  0.00     0.013 C 
ATOM     28  C   UNL     1      -4.875   1.304  -6.131  1.00  0.00     0.012 C 
ATOM     29  C   UNL     1      -3.343   2.740  -4.767  1.00  0.00     0.012 C 
ENDBRANCH  22  27
ENDBRANCH  20  21
ENDBRANCH  18  20
ENDBRANCH  15  18
ENDBRANCH   9  14
ENDBRANCH   6   8
ENDBRANCH   5   6
ENDBRANCH   4   5
ENDBRANCH   3   4
ENDBRANCH   2   3
ENDBRANCH   1   2
BRANCH   1  30
ATOM     30  C   UNL     1      -3.147   1.832   4.274  1.00  0.00     0.188 C 
BRANCH  30  31
ATOM     31  O   UNL     1      -3.647   1.242   5.463  1.00  0.00    -0.376 OA
BRANCH  31  32
ATOM     32  C   UNL     1      -4.200   2.086   6.456  1.00  0.00     0.202 C 
BRANCH  32  33
ATOM     33  C   UNL     1      -3.370   3.258   7.016  1.00  0.00     0.261 C 
BRANCH  33  34
ATOM     34  O   UNL     1      -2.637   4.050   6.063  1.00  0.00    -0.460 OA
BRANCH  34  35
ATOM     35  C   UNL     1      -1.320   3.745   5.905  1.00  0.00     0.338 C 
ATOM     36  O   UNL     1      -0.689   2.922   6.543  1.00  0.00    -0.246 OA
BRANCH  35  37
ATOM     37  C   UNL     1      -0.806   4.389   4.661  1.00  0.00     0.060 A 
ATOM     38  C   UNL     1      -0.223   3.585   3.662  1.00  0.00     0.016 A 
ATOM     39  C   UNL     1      -0.894   5.767   4.472  1.00  0.00     0.016 A 
ATOM     40  C   UNL     1       0.295   4.152   2.494  1.00  0.00     0.010 A 
ATOM     41  C   UNL     1      -0.329   6.341   3.326  1.00  0.00     0.010 A 
ATOM     42  C   UNL     1       0.304   5.542   2.352  1.00  0.00    -0.014 A 
BRANCH  42  43
ATOM     43  C   UNL     1       1.232   6.186   1.384  1.00  0.00     0.031 A 
ATOM     44  C   UNL     1       2.571   6.631   1.915  1.00  0.00     0.074 A 
ATOM     45  C   UNL     1       0.917   6.395   0.093  1.00  0.00     0.049 A 
ATOM     46  N   UNL     1       3.479   7.390   1.364  1.00  0.00    -0.248 NA
ATOM     47  C   UNL     1       2.915   6.161   3.267  1.00  0.00     0.031 C 
ATOM     48  C   UNL     1      -0.298   5.932  -0.571  1.00  0.00     0.029 A 
ATOM     49  N   UNL     1       1.598   7.079  -0.886  1.00  0.00    -0.354 N 
ATOM     50  C   UNL     1       4.489   7.515   2.313  1.00  0.00     0.074 A 
ATOM     51  C   UNL     1       4.067   6.773   3.481  1.00  0.00     0.031 C 
ATOM     52  C   UNL     1      -0.293   6.375  -1.842  1.00  0.00     0.029 A 
ATOM     53  C   UNL     1       0.896   7.200  -2.064  1.00  0.00     0.049 A 
ATOM     54  H   UNL     1       2.501   7.448  -0.758  1.00  0.00     0.167 HD
ATOM     55  C   UNL     1       5.660   8.191   2.221  1.00  0.00     0.034 A 
ATOM     56  C   UNL     1       1.161   7.931  -3.169  1.00  0.00     0.034 A 
ATOM     57  C   UNL     1       6.059   8.935   1.054  1.00  0.00     0.049 A 
ATOM     58  C   UNL     1       2.418   8.775  -3.212  1.00  0.00     0.074 A 
ATOM     59  C   UNL     1       7.221   9.658   0.851  1.00  0.00     0.029 A 
ATOM     60  N   UNL     1       5.302   9.065  -0.103  1.00  0.00    -0.354 N 
ATOM     61  N   UNL     1       3.354   8.915  -2.301  1.00  0.00    -0.248 NA
ATOM     62  C   UNL     1       2.655   9.560  -4.433  1.00  0.00     0.031 C 
ATOM     63  C   UNL     1       7.130  10.290  -0.392  1.00  0.00     0.029 A 
ATOM     64  C   UNL     1       5.958   9.882  -1.009  1.00  0.00     0.049 A 
ATOM     65  H   UNL     1       4.428   8.638  -0.256  1.00  0.00     0.167 HD
ATOM     66  C   UNL     1       4.310   9.764  -2.861  1.00  0.00     0.074 A 
ATOM     67  C   UNL     1       3.837  10.106  -4.184  1.00  0.00     0.031 C 
ATOM     68  C   UNL     1       5.480  10.207  -2.333  1.00  0.00     0.034 A 
BRANCH  55  69
ATOM     69  C   UNL     1       6.549   8.210   3.441  1.00  0.00     0.023 A 
ATOM     70  C   UNL     1       7.116   7.036   3.966  1.00  0.00     0.031 A 
ATOM     71  C   UNL     1       6.803   9.420   4.111  1.00  0.00     0.131 A 
ATOM     72  C   UNL     1       7.844   7.087   5.165  1.00  0.00     0.055 A 
ATOM     73  C   UNL     1       7.603   9.476   5.253  1.00  0.00     0.041 A 
ATOM     74  F   UNL     1       6.264  10.570   3.674  1.00  0.00    -0.206 F 
ATOM     75  C   UNL     1       8.115   8.303   5.796  1.00  0.00     0.022 A 
BRANCH  72  76
ATOM     76  S   UNL     1       8.296   5.525   5.969  1.00  0.00     0.124 S 
ATOM     77  O   UNL     1       6.989   4.901   6.157  1.00  0.00    -0.237 OA
ATOM     78  O   UNL     1       9.165   4.901   4.979  1.00  0.00    -0.237 OA
ATOM     79  O   UNL     1       8.957   5.953   7.200  1.00  0.00    -0.744 OA
ENDBRANCH  72  76
ENDBRANCH  55  69
BRANCH  56  80
ATOM     80  C   UNL     1       0.198   7.959  -4.312  1.00  0.00     0.023 A 
ATOM     81  C   UNL     1       0.574   7.514  -5.589  1.00  0.00     0.031 A 
ATOM     82  C   UNL     1      -1.092   8.499  -4.159  1.00  0.00     0.131 A 
ATOM     83  C   UNL     1      -0.309   7.660  -6.672  1.00  0.00     0.055 A 
ATOM     84  C   UNL     1      -1.989   8.585  -5.226  1.00  0.00     0.041 A 
ATOM     85  F   UNL     1      -1.503   8.953  -2.964  1.00  0.00    -0.206 F 
ATOM     86  C   UNL     1      -1.594   8.177  -6.495  1.00  0.00     0.022 A 
BRANCH  83  87
ATOM     87  S   UNL     1       0.285   7.259  -8.339  1.00  0.00     0.124 S 
ATOM     88  O   UNL     1       1.428   8.155  -8.469  1.00  0.00    -0.237 OA
ATOM     89  O   UNL     1       0.593   5.838  -8.216  1.00  0.00    -0.237 OA
ATOM     90  O   UNL     1      -0.858   7.575  -9.192  1.00  0.00    -0.744 OA
ENDBRANCH  83  87
ENDBRANCH  56  80
BRANCH  68  91
ATOM     91  C   UNL     1       6.381  11.041  -3.215  1.00  0.00     0.023 A 
ATOM     92  C   UNL     1       6.038  12.338  -3.634  1.00  0.00     0.031 A 
ATOM     93  C   UNL     1       7.632  10.529  -3.610  1.00  0.00     0.131 A 
ATOM     94  C   UNL     1       6.919  13.062  -4.453  1.00  0.00     0.055 A 
ATOM     95  C   UNL     1       8.529  11.278  -4.372  1.00  0.00     0.041 A 
ATOM     96  F   UNL     1       8.012   9.295  -3.242  1.00  0.00    -0.206 F 
ATOM     97  C   UNL     1       8.170  12.549  -4.806  1.00  0.00     0.022 A 
BRANCH  94  98
ATOM     98  S   UNL     1       6.381  14.662  -5.119  1.00  0.00     0.124 S 
ATOM     99  O   UNL     1       5.182  14.292  -5.864  1.00  0.00    -0.237 OA
ATOM    100  O   UNL     1       6.163  15.448  -3.909  1.00  0.00    -0.237 OA
ATOM    101  O   UNL     1       7.512  15.091  -5.940  1.00  0.00    -0.744 OA
ENDBRANCH  94  98
ENDBRANCH  68  91
ENDBRANCH  42  43
ENDBRANCH  35  37
ENDBRANCH  34  35
ENDBRANCH  33  34
ENDBRANCH  32  33
ENDBRANCH  31  32
ENDBRANCH  30  31
ENDBRANCH   1  30
TORSDOF 25
