REMARK SMILES CCC[NH2+][C@]1(C(=O)OCCOCCOCCOC(=O)c2ccc(-c3c4nc(c(-c5cc(S(=O)(=O)[O-])ccc5F)c5ccc([nH]5)c(-c5cc(S(=O)(=O)[O-])ccc5F)c5nc(c(-c6cc(S(=O)(=O)[O-])ccc6F)c6ccc3[nH]6)C=C5)C=C4)cc2)CCC[C@H](n2ccc(C)n2)C1
REMARK SMILES IDX 12 1 11 2 10 3 9 4 8 5 6 6 7 7 5 8 83 9 93 10 84 11 86 12
REMARK SMILES IDX 85 13 4 14 3 17 2 18 1 19 87 20 88 21 92 22 89 23 90 24
REMARK SMILES IDX 91 25 13 26 14 27 15 28 16 29 17 30 18 31 19 32 20 33 21 34
REMARK SMILES IDX 82 35 22 36 81 37 23 38 24 39 25 40 75 41 26 42 80 43 74 44
REMARK SMILES IDX 76 45 27 46 79 47 73 48 72 49 28 51 60 52 40 53 59 54 41 55
REMARK SMILES IDX 44 56 58 57 77 58 42 59 43 60 57 62 78 63 45 64 29 65 30 66
REMARK SMILES IDX 38 67 31 68 37 69 39 70 36 71 32 72 33 73 34 74 35 75 61 76
REMARK SMILES IDX 62 77 70 78 63 79 69 80 71 81 68 82 64 83 65 84 66 85 67 86
REMARK SMILES IDX 46 87 47 88 55 89 48 90 54 91 56 92 53 93 49 94 50 95 51 96
REMARK SMILES IDX 52 97
REMARK H PARENT 4 15 4 16 76 50 44 61
REMARK Flexibility Score: inf
ROOT
ATOM      1  C   UNL     1       0.590   0.938   0.346  1.00  0.00     0.188 C 
ENDROOT
BRANCH   1   2
ATOM      2  O   UNL     1      -0.702   0.451   0.692  1.00  0.00    -0.376 OA
BRANCH   2   3
ATOM      3  C   UNL     1      -1.785   0.620  -0.209  1.00  0.00     0.202 C 
BRANCH   3   4
ATOM      4  C   UNL     1      -2.123   2.011  -0.759  1.00  0.00     0.261 C 
BRANCH   4   5
ATOM      5  O   UNL     1      -1.021   2.815  -1.197  1.00  0.00    -0.459 OA
BRANCH   5   6
ATOM      6  C   UNL     1      -0.675   3.848  -0.373  1.00  0.00     0.368 C 
ATOM      7  O   UNL     1      -1.155   4.010   0.746  1.00  0.00    -0.245 OA
BRANCH   6   8
ATOM      8  C   UNL     1       0.404   4.814  -0.997  1.00  0.00     0.196 C 
ATOM      9  C   UNL     1      -0.158   6.234  -0.712  1.00  0.00     0.081 C 
ATOM     10  C   UNL     1       1.746   4.566  -0.223  1.00  0.00     0.108 C 
ATOM     11  C   UNL     1       0.883   7.340  -0.727  1.00  0.00     0.009 C 
ATOM     12  C   UNL     1       2.744   5.755  -0.038  1.00  0.00     0.114 C 
ATOM     13  C   UNL     1       1.971   7.041   0.299  1.00  0.00     0.028 C 
BRANCH   8  14
ATOM     14  N   UNL     1       0.410   4.593  -2.470  1.00  0.00    -0.332 N 
ATOM     15  H   UNL     1       0.096   3.636  -2.631  1.00  0.00     0.347 HD
ATOM     16  H   UNL     1      -0.191   5.331  -2.836  1.00  0.00     0.347 HD
BRANCH  14  17
ATOM     17  C   UNL     1       1.652   4.760  -3.188  1.00  0.00     0.261 C 
BRANCH  17  18
ATOM     18  C   UNL     1       1.515   4.759  -4.711  1.00  0.00     0.058 C 
ATOM     19  C   UNL     1       0.712   5.942  -5.229  1.00  0.00     0.010 C 
ENDBRANCH  17  18
ENDBRANCH  14  17
ENDBRANCH   8  14
BRANCH  12  20
ATOM     20  N   UNL     1       3.747   5.916  -1.097  1.00  0.00    -0.269 N 
ATOM     21  C   UNL     1       4.231   7.074  -1.650  1.00  0.00     0.109 A 
ATOM     22  N   UNL     1       4.314   4.822  -1.652  1.00  0.00    -0.178 NA
ATOM     23  C   UNL     1       5.004   6.702  -2.724  1.00  0.00     0.045 A 
ATOM     24  C   UNL     1       4.992   5.293  -2.706  1.00  0.00     0.059 A 
ATOM     25  C   UNL     1       5.572   4.368  -3.708  1.00  0.00     0.069 C 
ENDBRANCH  12  20
ENDBRANCH   6   8
ENDBRANCH   5   6
ENDBRANCH   4   5
ENDBRANCH   3   4
ENDBRANCH   2   3
ENDBRANCH   1   2
BRANCH   1  26
ATOM     26  C   UNL     1       1.170   0.691  -1.064  1.00  0.00     0.188 C 
BRANCH  26  27
ATOM     27  O   UNL     1       0.251   0.087  -1.949  1.00  0.00    -0.376 OA
BRANCH  27  28
ATOM     28  C   UNL     1       0.433  -1.272  -2.298  1.00  0.00     0.202 C 
BRANCH  28  29
ATOM     29  C   UNL     1       0.780  -2.365  -1.267  1.00  0.00     0.261 C 
BRANCH  29  30
ATOM     30  O   UNL     1       1.318  -1.958  -0.005  1.00  0.00    -0.460 OA
BRANCH  30  31
ATOM     31  C   UNL     1       2.667  -2.017   0.118  1.00  0.00     0.338 C 
ATOM     32  O   UNL     1       3.464  -2.297  -0.756  1.00  0.00    -0.246 OA
BRANCH  31  33
ATOM     33  C   UNL     1       3.046  -1.542   1.466  1.00  0.00     0.060 A 
ATOM     34  C   UNL     1       3.858  -0.407   1.573  1.00  0.00     0.016 A 
ATOM     35  C   UNL     1       2.636  -2.230   2.612  1.00  0.00     0.016 A 
ATOM     36  C   UNL     1       4.291   0.026   2.828  1.00  0.00     0.010 A 
ATOM     37  C   UNL     1       3.088  -1.806   3.867  1.00  0.00     0.010 A 
ATOM     38  C   UNL     1       3.944  -0.695   3.979  1.00  0.00    -0.014 A 
BRANCH  38  39
ATOM     39  C   UNL     1       4.640  -0.416   5.262  1.00  0.00     0.031 A 
ATOM     40  C   UNL     1       5.835  -1.260   5.621  1.00  0.00     0.074 A 
ATOM     41  C   UNL     1       4.242   0.573   6.082  1.00  0.00     0.049 A 
ATOM     42  N   UNL     1       6.577  -1.242   6.698  1.00  0.00    -0.248 NA
ATOM     43  C   UNL     1       6.239  -2.265   4.626  1.00  0.00     0.031 C 
ATOM     44  C   UNL     1       3.129   1.486   5.827  1.00  0.00     0.029 A 
ATOM     45  N   UNL     1       4.728   0.968   7.304  1.00  0.00    -0.354 N 
ATOM     46  C   UNL     1       7.536  -2.233   6.512  1.00  0.00     0.074 A 
ATOM     47  C   UNL     1       7.253  -2.857   5.237  1.00  0.00     0.031 C 
ATOM     48  C   UNL     1       3.012   2.330   6.867  1.00  0.00     0.029 A 
ATOM     49  C   UNL     1       4.015   1.996   7.878  1.00  0.00     0.049 A 
ATOM     50  H   UNL     1       5.514   0.555   7.730  1.00  0.00     0.167 HD
ATOM     51  C   UNL     1       8.564  -2.584   7.324  1.00  0.00     0.034 A 
ATOM     52  C   UNL     1       4.144   2.579   9.088  1.00  0.00     0.034 A 
ATOM     53  C   UNL     1       8.822  -1.969   8.603  1.00  0.00     0.049 A 
ATOM     54  C   UNL     1       5.242   2.112  10.017  1.00  0.00     0.074 A 
ATOM     55  C   UNL     1       9.832  -2.249   9.508  1.00  0.00     0.029 A 
ATOM     56  N   UNL     1       8.055  -0.957   9.168  1.00  0.00    -0.354 N 
ATOM     57  N   UNL     1       6.146   1.177   9.830  1.00  0.00    -0.248 NA
ATOM     58  C   UNL     1       5.341   2.788  11.318  1.00  0.00     0.031 C 
ATOM     59  C   UNL     1       9.634  -1.460  10.646  1.00  0.00     0.029 A 
ATOM     60  C   UNL     1       8.552  -0.624  10.420  1.00  0.00     0.049 A 
ATOM     61  H   UNL     1       7.273  -0.538   8.742  1.00  0.00     0.167 HD
ATOM     62  C   UNL     1       6.944   1.184  10.973  1.00  0.00     0.074 A 
ATOM     63  C   UNL     1       6.420   2.220  11.838  1.00  0.00     0.031 C 
ATOM     64  C   UNL     1       8.018   0.410  11.277  1.00  0.00     0.034 A 
BRANCH  51  65
ATOM     65  C   UNL     1       9.443  -3.725   6.868  1.00  0.00     0.023 A 
ATOM     66  C   UNL     1      10.223  -3.638   5.701  1.00  0.00     0.031 A 
ATOM     67  C   UNL     1       9.466  -4.933   7.586  1.00  0.00     0.131 A 
ATOM     68  C   UNL     1      10.931  -4.762   5.247  1.00  0.00     0.055 A 
ATOM     69  C   UNL     1      10.238  -6.021   7.173  1.00  0.00     0.041 A 
ATOM     70  F   UNL     1       8.722  -5.085   8.694  1.00  0.00    -0.206 F 
ATOM     71  C   UNL     1      10.964  -5.944   5.989  1.00  0.00     0.022 A 
BRANCH  68  72
ATOM     72  S   UNL     1      11.685  -4.705   3.598  1.00  0.00     0.124 S 
ATOM     73  O   UNL     1      10.526  -4.430   2.752  1.00  0.00    -0.237 OA
ATOM     74  O   UNL     1      12.652  -3.621   3.730  1.00  0.00    -0.237 OA
ATOM     75  O   UNL     1      12.261  -6.039   3.438  1.00  0.00    -0.744 OA
ENDBRANCH  68  72
ENDBRANCH  51  65
BRANCH  52  76
ATOM     76  C   UNL     1       3.194   3.645   9.522  1.00  0.00     0.023 A 
ATOM     77  C   UNL     1       3.636   4.950   9.794  1.00  0.00     0.031 A 
ATOM     78  C   UNL     1       1.836   3.352   9.740  1.00  0.00     0.131 A 
ATOM     79  C   UNL     1       2.740   5.899  10.313  1.00  0.00     0.055 A 
ATOM     80  C   UNL     1       0.938   4.314  10.205  1.00  0.00     0.041 A 
ATOM     81  F   UNL     1       1.361   2.119   9.503  1.00  0.00    -0.206 F 
ATOM     82  C   UNL     1       1.392   5.593  10.508  1.00  0.00     0.022 A 
BRANCH  79  83
ATOM     83  S   UNL     1       3.384   7.519  10.817  1.00  0.00     0.124 S 
ATOM     84  O   UNL     1       4.377   7.147  11.818  1.00  0.00    -0.237 OA
ATOM     85  O   UNL     1       3.905   8.043   9.559  1.00  0.00    -0.237 OA
ATOM     86  O   UNL     1       2.204   8.209  11.334  1.00  0.00    -0.744 OA
ENDBRANCH  79  83
ENDBRANCH  52  76
BRANCH  64  87
ATOM     87  C   UNL     1       8.737   0.702  12.574  1.00  0.00     0.023 A 
ATOM     88  C   UNL     1       8.133   0.499  13.827  1.00  0.00     0.031 A 
ATOM     89  C   UNL     1      10.051   1.206  12.551  1.00  0.00     0.131 A 
ATOM     90  C   UNL     1       8.817   0.854  15.001  1.00  0.00     0.055 A 
ATOM     91  C   UNL     1      10.750   1.497  13.723  1.00  0.00     0.041 A 
ATOM     92  F   UNL     1      10.679   1.423  11.384  1.00  0.00    -0.206 F 
ATOM     93  C   UNL     1      10.128   1.335  14.957  1.00  0.00     0.022 A 
BRANCH  90  94
ATOM     94  S   UNL     1       7.935   0.775  16.585  1.00  0.00     0.124 S 
ATOM     95  O   UNL     1       6.785   1.638  16.336  1.00  0.00    -0.237 OA
ATOM     96  O   UNL     1       7.648  -0.650  16.711  1.00  0.00    -0.237 OA
ATOM     97  O   UNL     1       8.906   1.298  17.544  1.00  0.00    -0.744 OA
ENDBRANCH  90  94
ENDBRANCH  64  87
ENDBRANCH  38  39
ENDBRANCH  31  33
ENDBRANCH  30  31
ENDBRANCH  29  30
ENDBRANCH  28  29
ENDBRANCH  27  28
ENDBRANCH  26  27
ENDBRANCH   1  26
TORSDOF 24
