REMARK SMILES NS(=O)(=O)c1ccc(-n2nc(C(=O)OCCOCCOCCOC(=O)c3ccc(-c4c5nc(c(-c6cc(S(=O)(=O)[O-])ccc6F)c6ccc([nH]6)c(-c6cc(S(=O)(=O)[O-])ccc6F)c6nc(c(-c7cc(S(=O)(=O)[O-])ccc7F)c7ccc4[nH]7)C=C6)C=C5)cc3)cc2-c2ccc(Cl)s2)cc1
REMARK SMILES IDX 18 1 17 2 16 3 15 4 14 5 12 6 13 7 11 8 9 9 10 10 90 11
REMARK SMILES IDX 89 12 8 13 5 14 6 15 98 16 7 17 97 18 2 19 3 20 4 21 1 22
REMARK SMILES IDX 91 25 92 26 96 27 93 28 94 29 95 30 19 31 20 32 21 33 22 34
REMARK SMILES IDX 23 35 24 36 25 37 26 38 27 39 88 40 28 41 87 42 29 43 30 44
REMARK SMILES IDX 31 45 81 46 32 47 86 48 80 49 82 50 33 51 85 52 79 53 78 54
REMARK SMILES IDX 34 56 66 57 46 58 65 59 47 60 50 61 64 62 83 63 48 64 49 65
REMARK SMILES IDX 63 67 84 68 51 69 35 70 36 71 44 72 37 73 43 74 45 75 42 76
REMARK SMILES IDX 38 77 39 78 40 79 41 80 67 81 68 82 76 83 69 84 75 85 77 86
REMARK SMILES IDX 74 87 70 88 71 89 72 90 73 91 52 92 53 93 61 94 54 95 60 96
REMARK SMILES IDX 62 97 59 98 55 99 56 100 57 101 58 102
REMARK H PARENT 1 23 1 24 82 55 50 66
REMARK Flexibility Score: inf
ROOT
ATOM      1  C   UNL     1      -0.065  10.501   3.352  1.00  0.00     0.188 C 
ENDROOT
BRANCH   1   2
ATOM      2  O   UNL     1      -0.928  11.210   4.234  1.00  0.00    -0.376 OA
BRANCH   2   3
ATOM      3  C   UNL     1      -0.528  11.503   5.561  1.00  0.00     0.202 C 
BRANCH   3   4
ATOM      4  C   UNL     1      -0.269  10.331   6.520  1.00  0.00     0.261 C 
BRANCH   4   5
ATOM      5  O   UNL     1       0.607   9.313   6.012  1.00  0.00    -0.458 OA
BRANCH   5   6
ATOM      6  C   UNL     1      -0.004   8.170   5.577  1.00  0.00     0.358 C 
ATOM      7  O   UNL     1      -1.184   7.902   5.770  1.00  0.00    -0.244 OA
BRANCH   6   8
ATOM      8  C   UNL     1       0.901   7.314   4.791  1.00  0.00     0.171 A 
ATOM      9  N   UNL     1       1.500   5.923   3.276  1.00  0.00    -0.231 N 
ATOM     10  N   UNL     1       0.473   6.705   3.671  1.00  0.00    -0.160 NA
ATOM     11  C   UNL     1       2.641   6.134   4.035  1.00  0.00     0.085 A 
ATOM     12  C   UNL     1       2.281   7.052   5.003  1.00  0.00     0.068 A 
BRANCH   9  13
ATOM     13  C   UNL     1       1.253   4.908   2.321  1.00  0.00     0.065 A 
ATOM     14  C   UNL     1       0.733   2.898   0.478  1.00  0.00     0.082 A 
ATOM     15  C   UNL     1       1.318   2.574   1.705  1.00  0.00     0.024 A 
ATOM     16  C   UNL     1       0.401   4.223   0.169  1.00  0.00     0.024 A 
ATOM     17  C   UNL     1       1.594   3.584   2.623  1.00  0.00     0.030 A 
ATOM     18  C   UNL     1       0.633   5.232   1.108  1.00  0.00     0.030 A 
BRANCH  14  19
ATOM     19  S   UNL     1       0.395   1.645  -0.721  1.00  0.00     0.238 S 
ATOM     20  O   UNL     1       1.121   1.946  -1.929  1.00  0.00    -0.207 OA
ATOM     21  O   UNL     1      -1.020   1.355  -0.698  1.00  0.00    -0.207 OA
BRANCH  19  22
ATOM     22  N   UNL     1       1.135   0.260  -0.104  1.00  0.00    -0.225 NA
ATOM     23  H   UNL     1       0.986  -0.519  -0.745  1.00  0.00     0.137 HD
ATOM     24  H   UNL     1       0.732   0.035   0.805  1.00  0.00     0.137 HD
ENDBRANCH  19  22
ENDBRANCH  14  19
ENDBRANCH   9  13
BRANCH  11  25
ATOM     25  C   UNL     1       3.913   5.502   3.816  1.00  0.00     0.054 A 
ATOM     26  C   UNL     1       4.678   4.843   4.760  1.00  0.00     0.024 A 
ATOM     27  S   UNL     1       4.673   5.476   2.273  1.00  0.00    -0.122 S 
ATOM     28  C   UNL     1       5.841   4.239   4.193  1.00  0.00     0.033 A 
ATOM     29  C   UNL     1       5.930   4.505   2.852  1.00  0.00     0.094 A 
ATOM     30  Cl  UNL     1       7.152   3.950   1.780  1.00  0.00    -0.072 Cl
ENDBRANCH  11  25
ENDBRANCH   6   8
ENDBRANCH   5   6
ENDBRANCH   4   5
ENDBRANCH   3   4
ENDBRANCH   2   3
ENDBRANCH   1   2
BRANCH   1  31
ATOM     31  C   UNL     1       1.476  10.540   3.480  1.00  0.00     0.188 C 
BRANCH  31  32
ATOM     32  O   UNL     1       1.997  11.351   4.525  1.00  0.00    -0.376 OA
BRANCH  32  33
ATOM     33  C   UNL     1       2.845  12.417   4.109  1.00  0.00     0.202 C 
BRANCH  33  34
ATOM     34  C   UNL     1       2.102  13.616   3.527  1.00  0.00     0.261 C 
BRANCH  34  35
ATOM     35  O   UNL     1       1.169  13.288   2.505  1.00  0.00    -0.460 OA
BRANCH  35  36
ATOM     36  C   UNL     1       1.707  12.862   1.343  1.00  0.00     0.338 C 
ATOM     37  O   UNL     1       2.856  12.498   1.163  1.00  0.00    -0.246 OA
BRANCH  36  38
ATOM     38  C   UNL     1       0.694  12.986   0.289  1.00  0.00     0.060 A 
ATOM     39  C   UNL     1       1.016  12.468  -0.965  1.00  0.00     0.016 A 
ATOM     40  C   UNL     1      -0.409  13.834   0.485  1.00  0.00     0.016 A 
ATOM     41  C   UNL     1       0.358  12.975  -2.064  1.00  0.00     0.010 A 
ATOM     42  C   UNL     1      -1.052  14.353  -0.615  1.00  0.00     0.010 A 
ATOM     43  C   UNL     1      -0.595  13.982  -1.876  1.00  0.00    -0.014 A 
BRANCH  43  44
ATOM     44  C   UNL     1      -1.053  14.683  -3.053  1.00  0.00     0.031 A 
ATOM     45  C   UNL     1      -2.087  13.992  -3.836  1.00  0.00     0.074 A 
ATOM     46  C   UNL     1      -0.595  15.901  -3.389  1.00  0.00     0.049 A 
ATOM     47  N   UNL     1      -1.961  13.457  -5.002  1.00  0.00    -0.248 NA
ATOM     48  C   UNL     1      -3.388  13.768  -3.197  1.00  0.00     0.031 C 
ATOM     49  C   UNL     1       0.191  16.826  -2.570  1.00  0.00     0.029 A 
ATOM     50  N   UNL     1      -0.831  16.605  -4.529  1.00  0.00    -0.354 N 
ATOM     51  C   UNL     1      -3.230  13.017  -5.347  1.00  0.00     0.074 A 
ATOM     52  C   UNL     1      -4.015  13.067  -4.141  1.00  0.00     0.031 C 
ATOM     53  C   UNL     1       0.186  18.044  -3.158  1.00  0.00     0.029 A 
ATOM     54  C   UNL     1      -0.482  17.943  -4.446  1.00  0.00     0.049 A 
ATOM     55  H   UNL     1      -1.216  16.200  -5.340  1.00  0.00     0.167 HD
ATOM     56  C   UNL     1      -3.591  12.863  -6.649  1.00  0.00     0.034 A 
ATOM     57  C   UNL     1      -0.797  18.913  -5.339  1.00  0.00     0.034 A 
ATOM     58  C   UNL     1      -2.434  12.780  -7.512  1.00  0.00     0.049 A 
ATOM     59  C   UNL     1      -1.060  18.254  -6.642  1.00  0.00     0.074 A 
ATOM     60  C   UNL     1      -1.328  11.950  -7.568  1.00  0.00     0.029 A 
ATOM     61  N   UNL     1      -2.115  13.867  -8.294  1.00  0.00    -0.354 N 
ATOM     62  N   UNL     1      -0.147  17.631  -7.336  1.00  0.00    -0.248 NA
ATOM     63  C   UNL     1      -2.432  17.913  -6.990  1.00  0.00     0.031 C 
ATOM     64  C   UNL     1      -0.249  12.790  -7.969  1.00  0.00     0.029 A 
ATOM     65  C   UNL     1      -0.760  14.072  -8.180  1.00  0.00     0.049 A 
ATOM     66  H   UNL     1      -2.741  14.399  -8.835  1.00  0.00     0.167 HD
ATOM     67  C   UNL     1      -0.794  16.538  -7.891  1.00  0.00     0.074 A 
ATOM     68  C   UNL     1      -2.216  16.832  -7.744  1.00  0.00     0.031 C 
ATOM     69  C   UNL     1      -0.126  15.378  -8.166  1.00  0.00     0.034 A 
BRANCH  56  70
ATOM     70  C   UNL     1      -4.984  13.115  -7.174  1.00  0.00     0.023 A 
ATOM     71  C   UNL     1      -5.216  12.861  -8.537  1.00  0.00     0.031 A 
ATOM     72  C   UNL     1      -6.001  13.831  -6.501  1.00  0.00     0.131 A 
ATOM     73  C   UNL     1      -6.353  13.374  -9.184  1.00  0.00     0.055 A 
ATOM     74  C   UNL     1      -7.170  14.268  -7.130  1.00  0.00     0.041 A 
ATOM     75  F   UNL     1      -5.886  14.237  -5.231  1.00  0.00    -0.206 F 
ATOM     76  C   UNL     1      -7.337  14.069  -8.488  1.00  0.00     0.022 A 
BRANCH  73  77
ATOM     77  S   UNL     1      -6.419  13.289 -10.991  1.00  0.00     0.124 S 
ATOM     78  O   UNL     1      -5.130  13.864 -11.361  1.00  0.00    -0.237 OA
ATOM     79  O   UNL     1      -6.577  11.857 -11.217  1.00  0.00    -0.237 OA
ATOM     80  O   UNL     1      -7.584  14.106 -11.325  1.00  0.00    -0.744 OA
ENDBRANCH  73  77
ENDBRANCH  56  70
BRANCH  57  81
ATOM     81  C   UNL     1      -1.204  20.302  -5.007  1.00  0.00     0.023 A 
ATOM     82  C   UNL     1      -1.163  21.343  -5.952  1.00  0.00     0.031 A 
ATOM     83  C   UNL     1      -1.863  20.574  -3.785  1.00  0.00     0.131 A 
ATOM     84  C   UNL     1      -1.757  22.590  -5.656  1.00  0.00     0.055 A 
ATOM     85  C   UNL     1      -2.432  21.812  -3.491  1.00  0.00     0.041 A 
ATOM     86  F   UNL     1      -2.051  19.614  -2.865  1.00  0.00    -0.206 F 
ATOM     87  C   UNL     1      -2.388  22.827  -4.431  1.00  0.00     0.022 A 
BRANCH  84  88
ATOM     88  S   UNL     1      -1.810  23.896  -6.921  1.00  0.00     0.124 S 
ATOM     89  O   UNL     1      -0.413  24.305  -7.002  1.00  0.00    -0.237 OA
ATOM     90  O   UNL     1      -2.348  23.189  -8.078  1.00  0.00    -0.237 OA
ATOM     91  O   UNL     1      -2.711  24.894  -6.342  1.00  0.00    -0.744 OA
ENDBRANCH  84  88
ENDBRANCH  57  81
BRANCH  69  92
ATOM     92  C   UNL     1       1.389  15.407  -8.211  1.00  0.00     0.023 A 
ATOM     93  C   UNL     1       2.217  15.820  -7.144  1.00  0.00     0.031 A 
ATOM     94  C   UNL     1       2.017  14.879  -9.354  1.00  0.00     0.131 A 
ATOM     95  C   UNL     1       3.618  15.709  -7.253  1.00  0.00     0.055 A 
ATOM     96  C   UNL     1       3.402  14.753  -9.452  1.00  0.00     0.041 A 
ATOM     97  F   UNL     1       1.284  14.440 -10.392  1.00  0.00    -0.206 F 
ATOM     98  C   UNL     1       4.210  15.174  -8.402  1.00  0.00     0.022 A 
BRANCH  95  99
ATOM     99  S   UNL     1       4.699  16.268  -5.899  1.00  0.00     0.124 S 
ATOM    100  O   UNL     1       4.167  17.581  -5.554  1.00  0.00    -0.237 OA
ATOM    101  O   UNL     1       4.517  15.220  -4.898  1.00  0.00    -0.237 OA
ATOM    102  O   UNL     1       6.028  16.294  -6.514  1.00  0.00    -0.744 OA
ENDBRANCH  95  99
ENDBRANCH  69  92
ENDBRANCH  43  44
ENDBRANCH  36  38
ENDBRANCH  35  36
ENDBRANCH  34  35
ENDBRANCH  33  34
ENDBRANCH  32  33
ENDBRANCH  31  32
ENDBRANCH   1  31
TORSDOF 24
