REMARK SMILES NS(=O)(=O)c1ccc(N2N=C(C(=O)OCCOCCOCCOC(=O)c3ccc(-c4c5nc(c(-c6cc(S(=O)(=O)[O-])ccc6F)c6ccc([nH]6)c(-c6cc(S(=O)(=O)[O-])ccc6F)c6nc(c(-c7cc(S(=O)(=O)[O-])ccc7F)c7ccc4[nH]7)C=C6)C=C5)cc3)C[C@H]2c2cccs2)cc1
REMARK SMILES IDX 18 1 17 2 16 3 15 4 14 5 12 6 13 7 11 8 9 9 10 10 90 11
REMARK SMILES IDX 89 12 8 13 5 14 6 15 97 16 7 17 96 18 2 19 3 20 4 21 1 22
REMARK SMILES IDX 91 25 92 26 95 27 93 28 94 29 19 30 20 31 21 32 22 33 23 34
REMARK SMILES IDX 24 35 25 36 26 37 27 38 88 39 28 40 87 41 29 42 30 43 31 44
REMARK SMILES IDX 81 45 32 46 86 47 80 48 82 49 33 50 85 51 79 52 78 53 34 55
REMARK SMILES IDX 66 56 46 57 65 58 47 59 50 60 64 61 83 62 48 63 49 64 63 66
REMARK SMILES IDX 84 67 51 68 35 69 36 70 44 71 37 72 43 73 45 74 42 75 38 76
REMARK SMILES IDX 39 77 40 78 41 79 67 80 68 81 76 82 69 83 75 84 77 85 74 86
REMARK SMILES IDX 70 87 71 88 72 89 73 90 52 91 53 92 61 93 54 94 60 95 62 96
REMARK SMILES IDX 59 97 55 98 56 99 57 100 58 101
REMARK H PARENT 1 23 1 24 82 54 50 65
REMARK Flexibility Score: inf
ROOT
ATOM      1  C   UNL     1       4.741   2.141   9.069  1.00  0.00     0.188 C 
ENDROOT
BRANCH   1   2
ATOM      2  O   UNL     1       5.723   2.419  10.054  1.00  0.00    -0.376 OA
BRANCH   2   3
ATOM      3  C   UNL     1       5.653   3.616  10.815  1.00  0.00     0.202 C 
BRANCH   3   4
ATOM      4  C   UNL     1       5.212   4.945  10.183  1.00  0.00     0.261 C 
BRANCH   4   5
ATOM      5  O   UNL     1       4.019   4.845   9.396  1.00  0.00    -0.459 OA
BRANCH   5   6
ATOM      6  C   UNL     1       4.114   5.333   8.143  1.00  0.00     0.354 C 
ATOM      7  O   UNL     1       5.010   6.006   7.672  1.00  0.00    -0.245 OA
BRANCH   6   8
ATOM      8  C   UNL     1       2.944   4.856   7.321  1.00  0.00     0.148 C 
ATOM      9  N   UNL     1       1.810   4.102   5.707  1.00  0.00    -0.256 N 
ATOM     10  N   UNL     1       3.078   4.200   6.206  1.00  0.00    -0.169 NA
ATOM     11  C   UNL     1       0.871   5.006   6.399  1.00  0.00     0.154 C 
ATOM     12  C   UNL     1       1.536   5.074   7.782  1.00  0.00     0.099 C 
BRANCH   9  13
ATOM     13  C   UNL     1       1.592   3.528   4.461  1.00  0.00     0.060 A 
ATOM     14  C   UNL     1       0.982   2.340   1.976  1.00  0.00     0.082 A 
ATOM     15  C   UNL     1       1.167   1.535   3.101  1.00  0.00     0.024 A 
ATOM     16  C   UNL     1       1.157   3.720   2.066  1.00  0.00     0.024 A 
ATOM     17  C   UNL     1       1.473   2.134   4.333  1.00  0.00     0.029 A 
ATOM     18  C   UNL     1       1.471   4.300   3.300  1.00  0.00     0.029 A 
BRANCH  14  19
ATOM     19  S   UNL     1       0.528   1.641   0.413  1.00  0.00     0.238 S 
ATOM     20  O   UNL     1       1.142   2.429  -0.638  1.00  0.00    -0.207 OA
ATOM     21  O   UNL     1      -0.888   1.381   0.443  1.00  0.00    -0.207 OA
BRANCH  19  22
ATOM     22  N   UNL     1       1.299   0.158   0.380  1.00  0.00    -0.225 NA
ATOM     23  H   UNL     1       1.087  -0.316  -0.498  1.00  0.00     0.137 HD
ATOM     24  H   UNL     1       0.974  -0.412   1.161  1.00  0.00     0.137 HD
ENDBRANCH  19  22
ENDBRANCH  14  19
ENDBRANCH   9  13
BRANCH  11  25
ATOM     25  C   UNL     1       0.649   6.387   5.786  1.00  0.00     0.030 A 
ATOM     26  C   UNL     1      -0.265   6.725   4.801  1.00  0.00     0.017 A 
ATOM     27  S   UNL     1       1.568   7.769   6.247  1.00  0.00    -0.147 S 
ATOM     28  C   UNL     1      -0.189   8.096   4.421  1.00  0.00     0.012 A 
ATOM     29  C   UNL     1       0.745   8.784   5.157  1.00  0.00     0.065 A 
ENDBRANCH  11  25
ENDBRANCH   6   8
ENDBRANCH   5   6
ENDBRANCH   4   5
ENDBRANCH   3   4
ENDBRANCH   2   3
ENDBRANCH   1   2
BRANCH   1  30
ATOM     30  C   UNL     1       3.256   2.083   9.481  1.00  0.00     0.188 C 
BRANCH  30  31
ATOM     31  O   UNL     1       2.922   2.488  10.786  1.00  0.00    -0.376 OA
BRANCH  31  32
ATOM     32  C   UNL     1       3.059   1.578  11.865  1.00  0.00     0.202 C 
BRANCH  32  33
ATOM     33  C   UNL     1       3.518   0.106  11.773  1.00  0.00     0.261 C 
BRANCH  33  34
ATOM     34  O   UNL     1       3.997  -0.393  10.524  1.00  0.00    -0.460 OA
BRANCH  34  35
ATOM     35  C   UNL     1       3.117  -1.133   9.799  1.00  0.00     0.338 C 
ATOM     36  O   UNL     1       1.960  -1.381  10.082  1.00  0.00    -0.246 OA
BRANCH  35  37
ATOM     37  C   UNL     1       3.745  -1.429   8.495  1.00  0.00     0.060 A 
ATOM     38  C   UNL     1       3.278  -0.778   7.344  1.00  0.00     0.016 A 
ATOM     39  C   UNL     1       4.809  -2.326   8.419  1.00  0.00     0.016 A 
ATOM     40  C   UNL     1       3.892  -1.008   6.112  1.00  0.00     0.010 A 
ATOM     41  C   UNL     1       5.401  -2.580   7.180  1.00  0.00     0.010 A 
ATOM     42  C   UNL     1       4.943  -1.929   6.019  1.00  0.00    -0.014 A 
BRANCH  42  43
ATOM     43  C   UNL     1       5.489  -2.322   4.698  1.00  0.00     0.031 A 
ATOM     44  C   UNL     1       5.014  -3.605   4.077  1.00  0.00     0.074 A 
ATOM     45  C   UNL     1       6.411  -1.567   4.074  1.00  0.00     0.049 A 
ATOM     46  N   UNL     1       5.449  -4.226   3.013  1.00  0.00    -0.248 NA
ATOM     47  C   UNL     1       3.898  -4.279   4.758  1.00  0.00     0.031 C 
ATOM     48  C   UNL     1       6.897  -0.271   4.542  1.00  0.00     0.029 A 
ATOM     49  N   UNL     1       7.117  -1.796   2.918  1.00  0.00    -0.354 N 
ATOM     50  C   UNL     1       4.671  -5.372   2.900  1.00  0.00     0.074 A 
ATOM     51  C   UNL     1       3.755  -5.370   4.021  1.00  0.00     0.031 C 
ATOM     52  C   UNL     1       7.842   0.171   3.693  1.00  0.00     0.029 A 
ATOM     53  C   UNL     1       8.066  -0.834   2.655  1.00  0.00     0.049 A 
ATOM     54  H   UNL     1       6.960  -2.573   2.335  1.00  0.00     0.167 HD
ATOM     55  C   UNL     1       4.718  -6.333   1.946  1.00  0.00     0.034 A 
ATOM     56  C   UNL     1       9.031  -0.794   1.712  1.00  0.00     0.034 A 
ATOM     57  C   UNL     1       5.653  -6.327   0.848  1.00  0.00     0.049 A 
ATOM     58  C   UNL     1       9.150  -1.943   0.736  1.00  0.00     0.074 A 
ATOM     59  C   UNL     1       5.776  -7.243  -0.182  1.00  0.00     0.029 A 
ATOM     60  N   UNL     1       6.640  -5.370   0.648  1.00  0.00    -0.354 N 
ATOM     61  N   UNL     1       8.406  -3.022   0.631  1.00  0.00    -0.248 NA
ATOM     62  C   UNL     1      10.240  -1.871  -0.248  1.00  0.00     0.031 C 
ATOM     63  C   UNL     1       6.887  -6.887  -0.954  1.00  0.00     0.029 A 
ATOM     64  C   UNL     1       7.404  -5.700  -0.461  1.00  0.00     0.049 A 
ATOM     65  H   UNL     1       6.777  -4.575   1.211  1.00  0.00     0.167 HD
ATOM     66  C   UNL     1       8.923  -3.738  -0.447  1.00  0.00     0.074 A 
ATOM     67  C   UNL     1      10.030  -2.964  -0.967  1.00  0.00     0.031 C 
ATOM     68  C   UNL     1       8.514  -4.925  -0.965  1.00  0.00     0.034 A 
BRANCH  55  69
ATOM     69  C   UNL     1       3.769  -7.498   2.088  1.00  0.00     0.023 A 
ATOM     70  C   UNL     1       2.376  -7.329   2.024  1.00  0.00     0.031 A 
ATOM     71  C   UNL     1       4.266  -8.793   2.316  1.00  0.00     0.131 A 
ATOM     72  C   UNL     1       1.527  -8.421   2.255  1.00  0.00     0.055 A 
ATOM     73  C   UNL     1       3.417  -9.892   2.463  1.00  0.00     0.041 A 
ATOM     74  F   UNL     1       5.587  -9.012   2.413  1.00  0.00    -0.206 F 
ATOM     75  C   UNL     1       2.038  -9.707   2.448  1.00  0.00     0.022 A 
BRANCH  72  76
ATOM     76  S   UNL     1      -0.249  -8.110   2.446  1.00  0.00     0.124 S 
ATOM     77  O   UNL     1      -0.265  -7.164   3.560  1.00  0.00    -0.237 OA
ATOM     78  O   UNL     1      -0.615  -7.566   1.143  1.00  0.00    -0.237 OA
ATOM     79  O   UNL     1      -0.798  -9.430   2.750  1.00  0.00    -0.744 OA
ENDBRANCH  72  76
ENDBRANCH  55  69
BRANCH  56  80
ATOM     80  C   UNL     1      10.008   0.333   1.673  1.00  0.00     0.023 A 
ATOM     81  C   UNL     1      10.107   1.170   0.550  1.00  0.00     0.031 A 
ATOM     82  C   UNL     1      10.910   0.547   2.732  1.00  0.00     0.131 A 
ATOM     83  C   UNL     1      11.112   2.148   0.490  1.00  0.00     0.055 A 
ATOM     84  C   UNL     1      11.867   1.562   2.695  1.00  0.00     0.041 A 
ATOM     85  F   UNL     1      10.872  -0.232   3.825  1.00  0.00    -0.206 F 
ATOM     86  C   UNL     1      11.982   2.362   1.562  1.00  0.00     0.022 A 
BRANCH  83  87
ATOM     87  S   UNL     1      11.339   3.067  -1.058  1.00  0.00     0.124 S 
ATOM     88  O   UNL     1      11.595   1.990  -2.006  1.00  0.00    -0.237 OA
ATOM     89  O   UNL     1      10.058   3.752  -1.195  1.00  0.00    -0.237 OA
ATOM     90  O   UNL     1      12.480   3.935  -0.774  1.00  0.00    -0.744 OA
ENDBRANCH  83  87
ENDBRANCH  56  80
BRANCH  68  91
ATOM     91  C   UNL     1       9.241  -5.439  -2.185  1.00  0.00     0.023 A 
ATOM     92  C   UNL     1      10.582  -5.858  -2.130  1.00  0.00     0.031 A 
ATOM     93  C   UNL     1       8.572  -5.529  -3.420  1.00  0.00     0.131 A 
ATOM     94  C   UNL     1      11.223  -6.308  -3.295  1.00  0.00     0.055 A 
ATOM     95  C   UNL     1       9.196  -6.034  -4.561  1.00  0.00     0.041 A 
ATOM     96  F   UNL     1       7.292  -5.139  -3.533  1.00  0.00    -0.206 F 
ATOM     97  C   UNL     1      10.532  -6.418  -4.505  1.00  0.00     0.022 A 
BRANCH  94  98
ATOM     98  S   UNL     1      12.997  -6.682  -3.228  1.00  0.00     0.124 S 
ATOM     99  O   UNL     1      13.562  -5.398  -2.828  1.00  0.00    -0.237 OA
ATOM    100  O   UNL     1      13.056  -7.744  -2.229  1.00  0.00    -0.237 OA
ATOM    101  O   UNL     1      13.311  -7.100  -4.593  1.00  0.00    -0.744 OA
ENDBRANCH  94  98
ENDBRANCH  68  91
ENDBRANCH  42  43
ENDBRANCH  35  37
ENDBRANCH  34  35
ENDBRANCH  33  34
ENDBRANCH  32  33
ENDBRANCH  31  32
ENDBRANCH  30  31
ENDBRANCH   1  30
TORSDOF 24
