REMARK SMILES Cc1ccc(C(=O)OCCOCCOCCOC(=O)c2ccc(-c3c4nc(c(-c5cc(S(=O)(=O)[O-])ccc5F)c5ccc([nH]5)c(-c5cc(S(=O)(=O)[O-])ccc5F)c5nc(c(-c6cc(S(=O)(=O)[O-])ccc6F)c6ccc3[nH]6)C=C5)C=C4)cc2)cc1NC(=O)c1ccc(Br)o1
REMARK SMILES IDX 13 1 12 2 11 3 10 4 9 5 8 6 6 7 7 8 5 9 1 10 2 11 3 12 84 13
REMARK SMILES IDX 4 14 83 15 85 16 86 17 87 19 88 20 89 21 93 22 90 23 91 24
REMARK SMILES IDX 92 25 14 26 15 27 16 28 17 29 18 30 19 31 20 32 21 33 82 34
REMARK SMILES IDX 22 35 81 36 23 37 24 38 25 39 75 40 26 41 80 42 74 43 76 44
REMARK SMILES IDX 27 45 79 46 73 47 72 48 28 50 60 51 40 52 59 53 41 54 44 55
REMARK SMILES IDX 58 56 77 57 42 58 43 59 57 61 78 62 45 63 29 64 30 65 38 66
REMARK SMILES IDX 31 67 37 68 39 69 36 70 32 71 33 72 34 73 35 74 61 75 62 76
REMARK SMILES IDX 70 77 63 78 69 79 71 80 68 81 64 82 65 83 66 84 67 85 46 86
REMARK SMILES IDX 47 87 55 88 48 89 54 90 56 91 53 92 49 93 50 94 51 95 52 96
REMARK H PARENT 85 18 76 49 44 60
REMARK Flexibility Score: inf
ROOT
ATOM      1  C   UNL     1      -6.233  -0.066  -3.235  1.00  0.00     0.188 C 
ENDROOT
BRANCH   1   2
ATOM      2  C   UNL     1      -6.475  -0.121  -1.726  1.00  0.00     0.188 C 
BRANCH   2   3
ATOM      3  O   UNL     1      -7.094   0.962  -1.029  1.00  0.00    -0.376 OA
BRANCH   3   4
ATOM      4  C   UNL     1      -6.627   2.316  -1.171  1.00  0.00     0.202 C 
BRANCH   4   5
ATOM      5  C   UNL     1      -5.699   3.034  -0.104  1.00  0.00     0.261 C 
BRANCH   5   6
ATOM      6  O   UNL     1      -4.237   3.338  -0.437  1.00  0.00    -0.460 OA
BRANCH   6   7
ATOM      7  C   UNL     1      -3.463   2.247  -0.191  1.00  0.00     0.338 C 
ATOM      8  O   UNL     1      -4.172   1.272  -0.040  1.00  0.00    -0.246 OA
BRANCH   7   9
ATOM      9  C   UNL     1      -1.878   2.033  -0.202  1.00  0.00     0.062 A 
ATOM     10  C   UNL     1       2.481   1.122  -0.191  1.00  0.00     0.046 C 
ATOM     11  C   UNL     1       1.029   1.511  -0.220  1.00  0.00    -0.027 A 
ATOM     12  C   UNL     1       0.164   0.570   0.251  1.00  0.00     0.006 A 
ATOM     13  C   UNL     1       0.429   2.688  -0.715  1.00  0.00     0.045 A 
ATOM     14  C   UNL     1      -1.199   0.881   0.277  1.00  0.00     0.016 A 
ATOM     15  C   UNL     1      -0.993   2.822  -0.869  1.00  0.00     0.042 A 
BRANCH  13  16
ATOM     16  N   UNL     1       1.254   3.796  -0.944  1.00  0.00    -0.319 N 
ATOM     17  C   UNL     1       0.922   5.144  -0.966  1.00  0.00     0.291 C 
ATOM     18  H   UNL     1       2.202   3.591  -1.112  1.00  0.00     0.170 HD
ATOM     19  O   UNL     1       1.834   5.941  -1.193  1.00  0.00    -0.265 OA
BRANCH  17  20
ATOM     20  C   UNL     1      -0.442   5.564  -0.704  1.00  0.00     0.193 A 
ATOM     21  C   UNL     1      -1.273   5.422   0.398  1.00  0.00     0.057 A 
ATOM     22  O   UNL     1      -1.181   6.017  -1.768  1.00  0.00    -0.444 OA
ATOM     23  C   UNL     1      -2.588   5.747  -0.036  1.00  0.00     0.059 A 
ATOM     24  C   UNL     1      -2.481   6.079  -1.366  1.00  0.00     0.170 A 
ATOM     25  Br  UNL     1      -3.916   6.426  -2.506  1.00  0.00    -0.008 Br
ENDBRANCH  17  20
ENDBRANCH  13  16
ENDBRANCH   7   9
ENDBRANCH   6   7
ENDBRANCH   5   6
ENDBRANCH   4   5
ENDBRANCH   3   4
ENDBRANCH   2   3
ENDBRANCH   1   2
BRANCH   1  26
ATOM     26  O   UNL     1      -5.432   1.065  -3.569  1.00  0.00    -0.376 OA
BRANCH  26  27
ATOM     27  C   UNL     1      -5.451   1.411  -4.943  1.00  0.00     0.202 C 
BRANCH  27  28
ATOM     28  C   UNL     1      -4.752   0.386  -5.859  1.00  0.00     0.261 C 
BRANCH  28  29
ATOM     29  O   UNL     1      -3.353   0.233  -5.503  1.00  0.00    -0.460 OA
BRANCH  29  30
ATOM     30  C   UNL     1      -2.895  -1.026  -5.185  1.00  0.00     0.338 C 
ATOM     31  O   UNL     1      -2.872  -1.957  -5.985  1.00  0.00    -0.246 OA
BRANCH  30  32
ATOM     32  C   UNL     1      -2.464  -1.079  -3.739  1.00  0.00     0.060 A 
ATOM     33  C   UNL     1      -2.278  -2.202  -2.912  1.00  0.00     0.016 A 
ATOM     34  C   UNL     1      -2.563   0.097  -3.084  1.00  0.00     0.016 A 
ATOM     35  C   UNL     1      -2.456  -2.132  -1.452  1.00  0.00     0.010 A 
ATOM     36  C   UNL     1      -3.111  -0.006  -1.814  1.00  0.00     0.010 A 
ATOM     37  C   UNL     1      -3.037  -1.030  -0.830  1.00  0.00    -0.014 A 
BRANCH  37  38
ATOM     38  C   UNL     1      -3.694  -0.907   0.743  1.00  0.00     0.031 A 
ATOM     39  C   UNL     1      -3.458   0.252   1.977  1.00  0.00     0.074 A 
ATOM     40  C   UNL     1      -4.954  -1.378   0.822  1.00  0.00     0.049 A 
ATOM     41  N   UNL     1      -4.244   1.278   2.249  1.00  0.00    -0.248 NA
ATOM     42  C   UNL     1      -2.248   0.363   2.837  1.00  0.00     0.031 C 
ATOM     43  C   UNL     1      -6.006  -1.032   1.773  1.00  0.00     0.029 A 
ATOM     44  N   UNL     1      -5.394  -2.555   0.250  1.00  0.00    -0.354 N 
ATOM     45  C   UNL     1      -3.627   2.246   3.049  1.00  0.00     0.074 A 
ATOM     46  C   UNL     1      -2.333   1.614   3.337  1.00  0.00     0.031 C 
ATOM     47  C   UNL     1      -6.720  -2.140   2.029  1.00  0.00     0.029 A 
ATOM     48  C   UNL     1      -6.069  -3.215   1.300  1.00  0.00     0.049 A 
ATOM     49  H   UNL     1      -5.267  -2.864  -0.676  1.00  0.00     0.167 HD
ATOM     50  C   UNL     1      -4.355   2.821   4.066  1.00  0.00     0.034 A 
ATOM     51  C   UNL     1      -5.392  -4.265   1.851  1.00  0.00     0.034 A 
ATOM     52  C   UNL     1      -5.150   1.810   4.699  1.00  0.00     0.049 A 
ATOM     53  C   UNL     1      -4.915  -3.884   3.255  1.00  0.00     0.074 A 
ATOM     54  C   UNL     1      -6.465   1.406   4.663  1.00  0.00     0.029 A 
ATOM     55  N   UNL     1      -4.432   0.801   5.289  1.00  0.00    -0.354 N 
ATOM     56  N   UNL     1      -4.692  -2.658   3.679  1.00  0.00    -0.248 NA
ATOM     57  C   UNL     1      -4.836  -4.856   4.340  1.00  0.00     0.031 C 
ATOM     58  C   UNL     1      -6.466   0.028   5.048  1.00  0.00     0.029 A 
ATOM     59  C   UNL     1      -5.166  -0.349   5.354  1.00  0.00     0.049 A 
ATOM     60  H   UNL     1      -3.510   0.893   5.622  1.00  0.00     0.167 HD
ATOM     61  C   UNL     1      -4.561  -2.659   5.047  1.00  0.00     0.074 A 
ATOM     62  C   UNL     1      -4.612  -4.065   5.404  1.00  0.00     0.031 C 
ATOM     63  C   UNL     1      -4.514  -1.544   5.843  1.00  0.00     0.034 A 
BRANCH  50  64
ATOM     64  C   UNL     1      -4.469   4.306   4.360  1.00  0.00     0.023 A 
ATOM     65  C   UNL     1      -5.415   4.787   5.299  1.00  0.00     0.031 A 
ATOM     66  C   UNL     1      -3.688   5.295   3.736  1.00  0.00     0.131 A 
ATOM     67  C   UNL     1      -5.575   6.170   5.555  1.00  0.00     0.055 A 
ATOM     68  C   UNL     1      -3.856   6.675   3.976  1.00  0.00     0.041 A 
ATOM     69  F   UNL     1      -2.716   4.946   2.886  1.00  0.00    -0.206 F 
ATOM     70  C   UNL     1      -4.808   7.120   4.886  1.00  0.00     0.022 A 
BRANCH  67  71
ATOM     71  S   UNL     1      -6.805   6.719   6.783  1.00  0.00     0.124 S 
ATOM     72  O   UNL     1      -8.048   6.179   6.243  1.00  0.00    -0.237 OA
ATOM     73  O   UNL     1      -6.311   6.103   8.010  1.00  0.00    -0.237 OA
ATOM     74  O   UNL     1      -6.702   8.178   6.745  1.00  0.00    -0.744 OA
ENDBRANCH  67  71
ENDBRANCH  50  64
BRANCH  51  75
ATOM     75  C   UNL     1      -4.723  -5.056   0.738  1.00  0.00     0.023 A 
ATOM     76  C   UNL     1      -5.547  -5.321  -0.403  1.00  0.00     0.031 A 
ATOM     77  C   UNL     1      -3.341  -5.121   0.530  1.00  0.00     0.131 A 
ATOM     78  C   UNL     1      -5.007  -5.359  -1.700  1.00  0.00     0.055 A 
ATOM     79  C   UNL     1      -2.803  -5.344  -0.758  1.00  0.00     0.041 A 
ATOM     80  F   UNL     1      -2.483  -4.810   1.513  1.00  0.00    -0.206 F 
ATOM     81  C   UNL     1      -3.631  -5.383  -1.886  1.00  0.00     0.022 A 
BRANCH  78  82
ATOM     82  S   UNL     1      -6.107  -5.008  -3.119  1.00  0.00     0.124 S 
ATOM     83  O   UNL     1      -6.624  -6.335  -3.433  1.00  0.00    -0.237 OA
ATOM     84  O   UNL     1      -7.069  -4.060  -2.560  1.00  0.00    -0.237 OA
ATOM     85  O   UNL     1      -5.209  -4.429  -4.115  1.00  0.00    -0.744 OA
ENDBRANCH  78  82
ENDBRANCH  51  75
BRANCH  63  86
ATOM     86  C   UNL     1      -3.848  -1.503   7.209  1.00  0.00     0.023 A 
ATOM     87  C   UNL     1      -3.038  -2.552   7.646  1.00  0.00     0.031 A 
ATOM     88  C   UNL     1      -3.889  -0.372   8.069  1.00  0.00     0.131 A 
ATOM     89  C   UNL     1      -2.451  -2.537   8.918  1.00  0.00     0.055 A 
ATOM     90  C   UNL     1      -3.192  -0.304   9.279  1.00  0.00     0.041 A 
ATOM     91  F   UNL     1      -4.587   0.733   7.770  1.00  0.00    -0.206 F 
ATOM     92  C   UNL     1      -2.495  -1.411   9.731  1.00  0.00     0.022 A 
BRANCH  89  93
ATOM     93  S   UNL     1      -1.766  -4.096   9.515  1.00  0.00     0.124 S 
ATOM     94  O   UNL     1      -2.926  -4.980   9.421  1.00  0.00    -0.237 OA
ATOM     95  O   UNL     1      -0.697  -4.351   8.556  1.00  0.00    -0.237 OA
ATOM     96  O   UNL     1      -1.332  -3.780  10.873  1.00  0.00    -0.744 OA
ENDBRANCH  89  93
ENDBRANCH  63  86
ENDBRANCH  37  38
ENDBRANCH  30  32
ENDBRANCH  29  30
ENDBRANCH  28  29
ENDBRANCH  27  28
ENDBRANCH  26  27
ENDBRANCH   1  26
TORSDOF 22
