REMARK SMILES Cc1ccnc(C(=O)c2[nH]c3ccc(OC(F)(F)F)cc3c2CC(=O)OCCOCCOCCOC(=O)c2ccc(-c3c4nc(c(-c5cc(S(=O)(=O)[O-])ccc5F)c5ccc([nH]5)c(-c5cc(S(=O)(=O)[O-])ccc5F)c5nc(c(-c6cc(S(=O)(=O)[O-])ccc6F)c6ccc3[nH]6)C=C5)C=C4)cc2)c1
REMARK SMILES IDX 30 1 29 2 28 3 27 4 26 5 24 6 25 7 23 8 22 9 9 10 10 11
REMARK SMILES IDX 11 12 21 14 12 15 20 16 13 17 14 18 7 19 8 20 6 21 1 22 2 23
REMARK SMILES IDX 3 24 101 25 4 26 5 27 15 28 16 29 17 30 18 31 19 32 31 33
REMARK SMILES IDX 32 34 33 35 34 36 35 37 36 38 37 39 38 40 39 41 100 42 40 43
REMARK SMILES IDX 99 44 41 45 42 46 43 47 93 48 44 49 98 50 92 51 94 52 45 53
REMARK SMILES IDX 97 54 91 55 90 56 46 58 78 59 58 60 77 61 59 62 62 63 76 64
REMARK SMILES IDX 95 65 60 66 61 67 75 69 96 70 63 71 47 72 48 73 56 74 49 75
REMARK SMILES IDX 55 76 57 77 54 78 50 79 51 80 52 81 53 82 79 83 80 84 88 85
REMARK SMILES IDX 81 86 87 87 89 88 86 89 82 90 83 91 84 92 85 93 64 94 65 95
REMARK SMILES IDX 73 96 66 97 72 98 74 99 71 100 67 101 68 102 69 103 70 104
REMARK H PARENT 10 13 94 57 62 68
REMARK Flexibility Score: inf
ROOT
ATOM      1  C   UNL     1       4.812  -3.257   0.406  1.00  0.00     0.188 C 
ENDROOT
BRANCH   1   2
ATOM      2  O   UNL     1       6.037  -3.977   0.501  1.00  0.00    -0.376 OA
BRANCH   2   3
ATOM      3  C   UNL     1       5.982  -5.393   0.406  1.00  0.00     0.202 C 
BRANCH   3   4
ATOM      4  C   UNL     1       5.152  -6.105   1.475  1.00  0.00     0.261 C 
BRANCH   4   5
ATOM      5  O   UNL     1       3.745  -5.783   1.390  1.00  0.00    -0.463 OA
BRANCH   5   6
ATOM      6  C   UNL     1       3.097  -5.694   2.579  1.00  0.00     0.310 C 
ATOM      7  O   UNL     1       3.628  -5.985   3.651  1.00  0.00    -0.252 OA
BRANCH   6   8
ATOM      8  C   UNL     1       1.686  -5.135   2.542  1.00  0.00     0.161 C 
BRANCH   8   9
ATOM      9  C   UNL     1       0.883  -5.135   1.258  1.00  0.00     0.000 A 
ATOM     10  C   UNL     1       0.476  -4.026   0.503  1.00  0.00     0.093 A 
ATOM     11  N   UNL     1      -0.212  -4.508  -0.587  1.00  0.00    -0.352 N 
ATOM     12  C   UNL     1      -0.575  -5.813  -0.370  1.00  0.00     0.046 A 
ATOM     13  H   UNL     1      -0.414  -3.993  -1.402  1.00  0.00     0.167 HD
ATOM     14  C   UNL     1       0.114  -6.242   0.761  1.00  0.00     0.008 A 
ATOM     15  C   UNL     1      -1.480  -6.618  -1.065  1.00  0.00     0.030 A 
ATOM     16  C   UNL     1      -0.137  -7.545   1.235  1.00  0.00     0.057 A 
ATOM     17  C   UNL     1      -1.759  -7.882  -0.533  1.00  0.00     0.049 A 
ATOM     18  C   UNL     1      -1.117  -8.337   0.618  1.00  0.00     0.130 A 
BRANCH  10  19
ATOM     19  C   UNL     1       0.700  -2.615   0.763  1.00  0.00     0.227 C 
ATOM     20  O   UNL     1       1.523  -2.223   1.588  1.00  0.00    -0.285 OA
BRANCH  19  21
ATOM     21  C   UNL     1      -0.109  -1.589   0.038  1.00  0.00     0.113 A 
ATOM     22  C   UNL     1      -3.480   0.117   0.234  1.00  0.00     0.044 C 
ATOM     23  C   UNL     1      -2.071  -0.232  -0.146  1.00  0.00    -0.047 A 
ATOM     24  C   UNL     1      -1.339   0.628  -0.969  1.00  0.00     0.023 A 
ATOM     25  C   UNL     1      -1.434  -1.358   0.389  1.00  0.00     0.036 A 
ATOM     26  C   UNL     1      -0.041   0.283  -1.302  1.00  0.00     0.112 A 
ATOM     27  N   UNL     1       0.578  -0.829  -0.848  1.00  0.00    -0.253 NA
ENDBRANCH  19  21
ENDBRANCH  10  19
BRANCH  18  28
ATOM     28  O   UNL     1      -1.362  -9.520   1.260  1.00  0.00    -0.406 OA
BRANCH  28  29
ATOM     29  C   UNL     1      -2.559 -10.201   0.929  1.00  0.00     0.573 C 
ATOM     30  F   UNL     1      -3.639  -9.394   1.010  1.00  0.00    -0.132 F 
ATOM     31  F   UNL     1      -2.484 -10.728  -0.312  1.00  0.00    -0.132 F 
ATOM     32  F   UNL     1      -2.734 -11.219   1.802  1.00  0.00    -0.132 F 
ENDBRANCH  28  29
ENDBRANCH  18  28
ENDBRANCH   8   9
ENDBRANCH   6   8
ENDBRANCH   5   6
ENDBRANCH   4   5
ENDBRANCH   3   4
ENDBRANCH   2   3
ENDBRANCH   1   2
BRANCH   1  33
ATOM     33  C   UNL     1       3.795  -3.656  -0.686  1.00  0.00     0.188 C 
BRANCH  33  34
ATOM     34  O   UNL     1       4.258  -4.289  -1.873  1.00  0.00    -0.376 OA
BRANCH  34  35
ATOM     35  C   UNL     1       5.284  -3.627  -2.599  1.00  0.00     0.202 C 
BRANCH  35  36
ATOM     36  C   UNL     1       4.926  -2.221  -3.072  1.00  0.00     0.261 C 
BRANCH  36  37
ATOM     37  O   UNL     1       4.829  -1.307  -1.964  1.00  0.00    -0.460 OA
BRANCH  37  38
ATOM     38  C   UNL     1       4.050  -0.228  -2.216  1.00  0.00     0.338 C 
ATOM     39  O   UNL     1       3.554   0.062  -3.292  1.00  0.00    -0.246 OA
BRANCH  38  40
ATOM     40  C   UNL     1       3.848   0.606  -1.011  1.00  0.00     0.060 A 
ATOM     41  C   UNL     1       3.219   0.087   0.115  1.00  0.00     0.016 A 
ATOM     42  C   UNL     1       4.031   1.984  -1.112  1.00  0.00     0.016 A 
ATOM     43  C   UNL     1       2.612   0.942   1.040  1.00  0.00     0.010 A 
ATOM     44  C   UNL     1       3.516   2.836  -0.124  1.00  0.00     0.010 A 
ATOM     45  C   UNL     1       2.724   2.333   0.924  1.00  0.00    -0.014 A 
BRANCH  45  46
ATOM     46  C   UNL     1       1.929   3.247   1.807  1.00  0.00     0.031 A 
ATOM     47  C   UNL     1       0.984   4.265   1.198  1.00  0.00     0.074 A 
ATOM     48  C   UNL     1       1.982   3.142   3.152  1.00  0.00     0.049 A 
ATOM     49  N   UNL     1       0.333   5.248   1.771  1.00  0.00    -0.248 NA
ATOM     50  C   UNL     1       0.735   4.161  -0.250  1.00  0.00     0.031 C 
ATOM     51  C   UNL     1       2.759   2.148   3.896  1.00  0.00     0.029 A 
ATOM     52  N   UNL     1       1.362   3.874   4.140  1.00  0.00    -0.354 N 
ATOM     53  C   UNL     1      -0.371   5.894   0.757  1.00  0.00     0.074 A 
ATOM     54  C   UNL     1      -0.055   5.202  -0.474  1.00  0.00     0.031 C 
ATOM     55  C   UNL     1       2.538   2.304   5.209  1.00  0.00     0.029 A 
ATOM     56  C   UNL     1       1.706   3.483   5.416  1.00  0.00     0.049 A 
ATOM     57  H   UNL     1       0.732   4.607   3.952  1.00  0.00     0.167 HD
ATOM     58  C   UNL     1      -1.199   6.966   0.840  1.00  0.00     0.034 A 
ATOM     59  C   UNL     1       1.444   4.040   6.617  1.00  0.00     0.034 A 
ATOM     60  C   UNL     1      -1.512   7.656   2.070  1.00  0.00     0.049 A 
ATOM     61  C   UNL     1       0.633   5.311   6.667  1.00  0.00     0.074 A 
ATOM     62  C   UNL     1      -2.293   8.786   2.253  1.00  0.00     0.029 A 
ATOM     63  N   UNL     1      -1.063   7.282   3.329  1.00  0.00    -0.354 N 
ATOM     64  N   UNL     1       0.053   5.965   5.686  1.00  0.00    -0.248 NA
ATOM     65  C   UNL     1       0.453   5.924   7.989  1.00  0.00     0.031 C 
ATOM     66  C   UNL     1      -2.258   9.134   3.607  1.00  0.00     0.029 A 
ATOM     67  C   UNL     1      -1.525   8.175   4.286  1.00  0.00     0.049 A 
ATOM     68  H   UNL     1      -0.500   6.497   3.517  1.00  0.00     0.167 HD
ATOM     69  C   UNL     1      -0.573   7.058   6.281  1.00  0.00     0.074 A 
ATOM     70  C   UNL     1      -0.337   6.947   7.705  1.00  0.00     0.031 C 
ATOM     71  C   UNL     1      -1.269   8.070   5.702  1.00  0.00     0.034 A 
BRANCH  58  72
ATOM     72  C   UNL     1      -1.776   7.508  -0.447  1.00  0.00     0.023 A 
ATOM     73  C   UNL     1      -2.721   6.793  -1.202  1.00  0.00     0.031 A 
ATOM     74  C   UNL     1      -1.377   8.772  -0.920  1.00  0.00     0.131 A 
ATOM     75  C   UNL     1      -3.203   7.327  -2.409  1.00  0.00     0.055 A 
ATOM     76  C   UNL     1      -1.909   9.327  -2.085  1.00  0.00     0.041 A 
ATOM     77  F   UNL     1      -0.461   9.492  -0.252  1.00  0.00    -0.206 F 
ATOM     78  C   UNL     1      -2.822   8.600  -2.842  1.00  0.00     0.022 A 
BRANCH  75  79
ATOM     79  S   UNL     1      -4.253   6.288  -3.463  1.00  0.00     0.124 S 
ATOM     80  O   UNL     1      -3.382   5.141  -3.709  1.00  0.00    -0.237 OA
ATOM     81  O   UNL     1      -5.408   6.038  -2.609  1.00  0.00    -0.237 OA
ATOM     82  O   UNL     1      -4.508   7.130  -4.630  1.00  0.00    -0.744 OA
ENDBRANCH  75  79
ENDBRANCH  58  72
BRANCH  59  83
ATOM     83  C   UNL     1       2.036   3.474   7.869  1.00  0.00     0.023 A 
ATOM     84  C   UNL     1       1.227   3.078   8.946  1.00  0.00     0.031 A 
ATOM     85  C   UNL     1       3.432   3.404   8.040  1.00  0.00     0.131 A 
ATOM     86  C   UNL     1       1.817   2.687  10.159  1.00  0.00     0.055 A 
ATOM     87  C   UNL     1       4.013   2.937   9.220  1.00  0.00     0.041 A 
ATOM     88  F   UNL     1       4.260   3.791   7.056  1.00  0.00    -0.206 F 
ATOM     89  C   UNL     1       3.204   2.593  10.296  1.00  0.00     0.022 A 
BRANCH  86  90
ATOM     90  S   UNL     1       0.749   2.435  11.605  1.00  0.00     0.124 S 
ATOM     91  O   UNL     1       0.043   3.708  11.678  1.00  0.00    -0.237 OA
ATOM     92  O   UNL     1      -0.047   1.282  11.197  1.00  0.00    -0.237 OA
ATOM     93  O   UNL     1       1.697   2.184  12.688  1.00  0.00    -0.744 OA
ENDBRANCH  86  90
ENDBRANCH  59  83
BRANCH  71  94
ATOM     94  C   UNL     1      -1.851   9.109   6.633  1.00  0.00     0.023 A 
ATOM     95  C   UNL     1      -1.027   9.929   7.425  1.00  0.00     0.031 A 
ATOM     96  C   UNL     1      -3.243   9.227   6.788  1.00  0.00     0.131 A 
ATOM     97  C   UNL     1      -1.597  10.758   8.402  1.00  0.00     0.055 A 
ATOM     98  C   UNL     1      -3.807  10.112   7.709  1.00  0.00     0.041 A 
ATOM     99  F   UNL     1      -4.080   8.471   6.061  1.00  0.00    -0.206 F 
ATOM    100  C   UNL     1      -2.983  10.867   8.539  1.00  0.00     0.022 A 
BRANCH  97 101
ATOM    101  S   UNL     1      -0.499  11.574   9.594  1.00  0.00     0.124 S 
ATOM    102  O   UNL     1       0.244  10.445  10.144  1.00  0.00    -0.237 OA
ATOM    103  O   UNL     1       0.262  12.484   8.743  1.00  0.00    -0.237 OA
ATOM    104  O   UNL     1      -1.423  12.222  10.524  1.00  0.00    -0.744 OA
ENDBRANCH  97 101
ENDBRANCH  71  94
ENDBRANCH  45  46
ENDBRANCH  38  40
ENDBRANCH  37  38
ENDBRANCH  36  37
ENDBRANCH  35  36
ENDBRANCH  34  35
ENDBRANCH  33  34
ENDBRANCH   1  33
TORSDOF 25
