REMARK SMILES CS(=O)(=O)N(Cc1ccc(Cl)cc1)c1ccc(C(=O)Nc2ccccc2C(=O)OCCOCCOCCOC(=O)c2ccc(-c3c4nc(c(-c5cc(S(=O)(=O)[O-])ccc5F)c5ccc([nH]5)c(-c5cc(S(=O)(=O)[O-])ccc5F)c5nc(c(-c6cc(S(=O)(=O)[O-])ccc6F)c6ccc3[nH]6)C=C5)C=C4)cc2)cc1
REMARK SMILES IDX 33 1 32 2 31 3 30 4 29 5 27 6 28 7 26 8 21 9 22 10 23 11
REMARK SMILES IDX 25 12 24 13 20 14 18 15 19 16 17 18 14 19 15 20 105 21 16 22
REMARK SMILES IDX 104 23 5 24 2 25 1 26 3 27 4 28 6 29 7 30 8 31 13 32 9 33
REMARK SMILES IDX 12 34 10 35 11 36 34 37 35 38 36 39 37 40 38 41 39 42 40 43
REMARK SMILES IDX 41 44 42 45 103 46 43 47 102 48 44 49 45 50 46 51 96 52
REMARK SMILES IDX 47 53 101 54 95 55 97 56 48 57 100 58 94 59 93 60 49 62
REMARK SMILES IDX 81 63 61 64 80 65 62 66 65 67 79 68 98 69 63 70 64 71 78 73
REMARK SMILES IDX 99 74 66 75 50 76 51 77 59 78 52 79 58 80 60 81 57 82 53 83
REMARK SMILES IDX 54 84 55 85 56 86 82 87 83 88 91 89 84 90 90 91 92 92 89 93
REMARK SMILES IDX 85 94 86 95 87 96 88 97 67 98 68 99 76 100 69 101 75 102
REMARK SMILES IDX 77 103 74 104 70 105 71 106 72 107 73 108
REMARK H PARENT 20 17 97 61 65 72
REMARK Flexibility Score: inf
ROOT
ATOM      1  C   UNL     1      -2.744   1.277  -7.882  1.00  0.00     0.188 C 
ENDROOT
BRANCH   1   2
ATOM      2  O   UNL     1      -1.563   1.966  -8.238  1.00  0.00    -0.376 OA
BRANCH   2   3
ATOM      3  C   UNL     1      -0.313   1.321  -8.100  1.00  0.00     0.202 C 
BRANCH   3   4
ATOM      4  C   UNL     1      -0.078   0.117  -7.186  1.00  0.00     0.261 C 
BRANCH   4   5
ATOM      5  O   UNL     1      -1.088  -0.903  -7.136  1.00  0.00    -0.460 OA
BRANCH   5   6
ATOM      6  C   UNL     1      -1.728  -1.020  -5.940  1.00  0.00     0.340 C 
ATOM      7  O   UNL     1      -1.560  -0.269  -4.989  1.00  0.00    -0.246 OA
BRANCH   6   8
ATOM      8  C   UNL     1      -2.796  -2.063  -5.945  1.00  0.00     0.083 A 
ATOM      9  C   UNL     1      -2.795  -3.286  -6.649  1.00  0.00     0.056 A 
ATOM     10  C   UNL     1      -3.976  -4.056  -6.650  1.00  0.00     0.027 A 
ATOM     11  C   UNL     1      -5.096  -3.682  -5.904  1.00  0.00     0.002 A 
ATOM     12  C   UNL     1      -3.941  -1.697  -5.202  1.00  0.00     0.018 A 
ATOM     13  C   UNL     1      -5.075  -2.506  -5.171  1.00  0.00     0.001 A 
BRANCH   9  14
ATOM     14  N   UNL     1      -1.726  -3.898  -7.342  1.00  0.00    -0.321 N 
ATOM     15  C   UNL     1      -0.368  -3.913  -7.120  1.00  0.00     0.255 C 
ATOM     16  O   UNL     1       0.391  -4.408  -7.952  1.00  0.00    -0.269 OA
ATOM     17  H   UNL     1      -2.006  -4.412  -8.134  1.00  0.00     0.170 HD
BRANCH  15  18
ATOM     18  C   UNL     1       0.198  -3.378  -5.866  1.00  0.00     0.040 A 
ATOM     19  C   UNL     1       0.941  -1.759  -3.671  1.00  0.00     0.052 A 
ATOM     20  C   UNL     1       1.631  -1.715  -4.898  1.00  0.00     0.028 A 
ATOM     21  C   UNL     1      -0.047  -2.747  -3.546  1.00  0.00     0.028 A 
ATOM     22  C   UNL     1       1.295  -2.537  -5.975  1.00  0.00     0.016 A 
ATOM     23  C   UNL     1      -0.414  -3.559  -4.628  1.00  0.00     0.016 A 
BRANCH  19  24
ATOM     24  N   UNL     1       1.324  -0.861  -2.563  1.00  0.00    -0.266 N 
BRANCH  24  25
ATOM     25  S   UNL     1       0.473  -1.017  -1.101  1.00  0.00     0.232 S 
ATOM     26  C   UNL     1       1.211   0.140   0.035  1.00  0.00     0.183 C 
ATOM     27  O   UNL     1       0.766  -2.343  -0.588  1.00  0.00    -0.207 OA
ATOM     28  O   UNL     1      -0.894  -0.594  -1.315  1.00  0.00    -0.207 OA
ENDBRANCH  24  25
BRANCH  24  29
ATOM     29  C   UNL     1       1.874   0.479  -2.918  1.00  0.00     0.170 C 
BRANCH  29  30
ATOM     30  C   UNL     1       3.359   0.428  -3.287  1.00  0.00    -0.027 A 
ATOM     31  C   UNL     1       4.106  -0.759  -3.140  1.00  0.00     0.007 A 
ATOM     32  C   UNL     1       3.967   1.527  -3.910  1.00  0.00     0.007 A 
ATOM     33  C   UNL     1       5.350  -0.903  -3.750  1.00  0.00     0.021 A 
ATOM     34  C   UNL     1       5.241   1.398  -4.477  1.00  0.00     0.021 A 
ATOM     35  C   UNL     1       5.907   0.173  -4.430  1.00  0.00     0.041 A 
ATOM     36  Cl  UNL     1       7.407  -0.025  -5.248  1.00  0.00    -0.084 Cl
ENDBRANCH  29  30
ENDBRANCH  24  29
ENDBRANCH  19  24
ENDBRANCH  15  18
ENDBRANCH   9  14
ENDBRANCH   6   8
ENDBRANCH   5   6
ENDBRANCH   4   5
ENDBRANCH   3   4
ENDBRANCH   2   3
ENDBRANCH   1   2
BRANCH   1  37
ATOM     37  C   UNL     1      -3.193   0.090  -8.762  1.00  0.00     0.188 C 
BRANCH  37  38
ATOM     38  O   UNL     1      -2.359  -0.363  -9.805  1.00  0.00    -0.376 OA
BRANCH  38  39
ATOM     39  C   UNL     1      -2.056   0.498 -10.887  1.00  0.00     0.202 C 
BRANCH  39  40
ATOM     40  C   UNL     1      -2.936   1.679 -11.351  1.00  0.00     0.261 C 
BRANCH  40  41
ATOM     41  O   UNL     1      -3.783   2.313 -10.385  1.00  0.00    -0.460 OA
BRANCH  41  42
ATOM     42  C   UNL     1      -5.102   1.990 -10.453  1.00  0.00     0.338 C 
ATOM     43  O   UNL     1      -5.625   1.249 -11.270  1.00  0.00    -0.246 OA
BRANCH  42  44
ATOM     44  C   UNL     1      -5.784   2.469  -9.227  1.00  0.00     0.060 A 
ATOM     45  C   UNL     1      -6.385   1.520  -8.383  1.00  0.00     0.016 A 
ATOM     46  C   UNL     1      -5.816   3.823  -8.891  1.00  0.00     0.016 A 
ATOM     47  C   UNL     1      -7.040   1.923  -7.219  1.00  0.00     0.010 A 
ATOM     48  C   UNL     1      -6.507   4.230  -7.741  1.00  0.00     0.010 A 
ATOM     49  C   UNL     1      -7.151   3.286  -6.917  1.00  0.00    -0.014 A 
BRANCH  49  50
ATOM     50  C   UNL     1      -8.134   3.724  -5.891  1.00  0.00     0.031 A 
ATOM     51  C   UNL     1      -9.497   4.161  -6.364  1.00  0.00     0.074 A 
ATOM     52  C   UNL     1      -7.858   3.694  -4.574  1.00  0.00     0.049 A 
ATOM     53  N   UNL     1     -10.512   4.618  -5.679  1.00  0.00    -0.248 NA
ATOM     54  C   UNL     1      -9.741   4.067  -7.813  1.00  0.00     0.031 C 
ATOM     55  C   UNL     1      -6.604   3.234  -3.982  1.00  0.00     0.029 A 
ATOM     56  N   UNL     1      -8.623   4.063  -3.494  1.00  0.00    -0.354 N 
ATOM     57  C   UNL     1     -11.514   4.872  -6.611  1.00  0.00     0.074 A 
ATOM     58  C   UNL     1     -10.967   4.555  -7.913  1.00  0.00     0.031 C 
ATOM     59  C   UNL     1      -6.682   3.358  -2.645  1.00  0.00     0.029 A 
ATOM     60  C   UNL     1      -7.975   3.943  -2.286  1.00  0.00     0.049 A 
ATOM     61  H   UNL     1      -9.550   4.384  -3.576  1.00  0.00     0.167 HD
ATOM     62  C   UNL     1     -12.777   5.318  -6.403  1.00  0.00     0.034 A 
ATOM     63  C   UNL     1      -8.369   4.290  -1.042  1.00  0.00     0.034 A 
ATOM     64  C   UNL     1     -13.308   5.646  -5.103  1.00  0.00     0.049 A 
ATOM     65  C   UNL     1      -9.746   4.888  -0.845  1.00  0.00     0.074 A 
ATOM     66  C   UNL     1     -14.575   6.101  -4.780  1.00  0.00     0.029 A 
ATOM     67  N   UNL     1     -12.600   5.570  -3.910  1.00  0.00    -0.354 N 
ATOM     68  N   UNL     1     -10.685   5.120  -1.734  1.00  0.00    -0.248 NA
ATOM     69  C   UNL     1     -10.117   5.262   0.527  1.00  0.00     0.031 C 
ATOM     70  C   UNL     1     -14.606   6.380  -3.410  1.00  0.00     0.029 A 
ATOM     71  C   UNL     1     -13.391   6.007  -2.858  1.00  0.00     0.049 A 
ATOM     72  H   UNL     1     -11.672   5.252  -3.824  1.00  0.00     0.167 HD
ATOM     73  C   UNL     1     -11.769   5.631  -1.020  1.00  0.00     0.074 A 
ATOM     74  C   UNL     1     -11.371   5.656   0.372  1.00  0.00     0.031 C 
ATOM     75  C   UNL     1     -12.984   6.039  -1.472  1.00  0.00     0.034 A 
BRANCH  62  76
ATOM     76  C   UNL     1     -13.646   5.533  -7.619  1.00  0.00     0.023 A 
ATOM     77  C   UNL     1     -14.026   4.470  -8.458  1.00  0.00     0.031 A 
ATOM     78  C   UNL     1     -14.079   6.827  -7.960  1.00  0.00     0.131 A 
ATOM     79  C   UNL     1     -14.753   4.729  -9.630  1.00  0.00     0.055 A 
ATOM     80  C   UNL     1     -14.874   7.066  -9.082  1.00  0.00     0.041 A 
ATOM     81  F   UNL     1     -13.725   7.885  -7.214  1.00  0.00    -0.206 F 
ATOM     82  C   UNL     1     -15.204   6.016  -9.933  1.00  0.00     0.022 A 
BRANCH  79  83
ATOM     83  S   UNL     1     -14.975   3.385 -10.828  1.00  0.00     0.124 S 
ATOM     84  O   UNL     1     -13.591   3.022 -11.123  1.00  0.00    -0.237 OA
ATOM     85  O   UNL     1     -15.744   2.408 -10.067  1.00  0.00    -0.237 OA
ATOM     86  O   UNL     1     -15.692   4.023 -11.930  1.00  0.00    -0.744 OA
ENDBRANCH  79  83
ENDBRANCH  62  76
BRANCH  63  87
ATOM     87  C   UNL     1      -7.445   4.135   0.123  1.00  0.00     0.023 A 
ATOM     88  C   UNL     1      -7.775   3.315   1.214  1.00  0.00     0.031 A 
ATOM     89  C   UNL     1      -6.252   4.877   0.198  1.00  0.00     0.131 A 
ATOM     90  C   UNL     1      -6.953   3.297   2.353  1.00  0.00     0.055 A 
ATOM     91  C   UNL     1      -5.405   4.806   1.306  1.00  0.00     0.041 A 
ATOM     92  F   UNL     1      -5.891   5.689  -0.809  1.00  0.00    -0.206 F 
ATOM     93  C   UNL     1      -5.761   4.023   2.399  1.00  0.00     0.022 A 
BRANCH  90  94
ATOM     94  S   UNL     1      -7.519   2.394   3.822  1.00  0.00     0.124 S 
ATOM     95  O   UNL     1      -8.789   3.053   4.103  1.00  0.00    -0.237 OA
ATOM     96  O   UNL     1      -7.601   1.025   3.324  1.00  0.00    -0.237 OA
ATOM     97  O   UNL     1      -6.459   2.637   4.799  1.00  0.00    -0.744 OA
ENDBRANCH  90  94
ENDBRANCH  63  87
BRANCH  75  98
ATOM     98  C   UNL     1     -13.991   6.497  -0.439  1.00  0.00     0.023 A 
ATOM     99  C   UNL     1     -13.777   7.637   0.355  1.00  0.00     0.031 A 
ATOM    100  C   UNL     1     -15.177   5.768  -0.237  1.00  0.00     0.131 A 
ATOM    101  C   UNL     1     -14.698   7.974   1.360  1.00  0.00     0.055 A 
ATOM    102  C   UNL     1     -16.125   6.151   0.714  1.00  0.00     0.041 A 
ATOM    103  F   UNL     1     -15.437   4.668  -0.962  1.00  0.00    -0.206 F 
ATOM    104  C   UNL     1     -15.881   7.250   1.530  1.00  0.00     0.022 A 
BRANCH 101 105
ATOM    105  S   UNL     1     -14.274   9.302   2.521  1.00  0.00     0.124 S 
ATOM    106  O   UNL     1     -13.006   8.832   3.068  1.00  0.00    -0.237 OA
ATOM    107  O   UNL     1     -14.199  10.468   1.647  1.00  0.00    -0.237 OA
ATOM    108  O   UNL     1     -15.393   9.305   3.462  1.00  0.00    -0.744 OA
ENDBRANCH 101 105
ENDBRANCH  75  98
ENDBRANCH  49  50
ENDBRANCH  42  44
ENDBRANCH  41  42
ENDBRANCH  40  41
ENDBRANCH  39  40
ENDBRANCH  38  39
ENDBRANCH  37  38
ENDBRANCH   1  37
TORSDOF 26
