REMARK SMILES COc1ccc(CC(=O)N[C@H](C)C(=O)OCCOCCOCCOC(=O)c2ccc(-c3c4nc(c(-c5cc(S(=O)(=O)[O-])ccc5F)c5ccc([nH]5)c(-c5cc(S(=O)(=O)[O-])ccc5F)c5nc(c(-c6cc(S(=O)(=O)[O-])ccc6F)c6ccc3[nH]6)C=C5)C=C4)cc2)cc1F
REMARK SMILES IDX 19 1 18 2 17 3 16 4 15 5 13 6 14 7 11 8 12 9 10 10 8 11 9 12
REMARK SMILES IDX 7 14 6 15 3 16 4 17 91 18 5 19 90 20 92 21 2 22 1 23 20 24
REMARK SMILES IDX 21 25 22 26 23 27 24 28 25 29 26 30 27 31 28 32 89 33 29 34
REMARK SMILES IDX 88 35 30 36 31 37 32 38 82 39 33 40 87 41 81 42 83 43 34 44
REMARK SMILES IDX 86 45 80 46 79 47 35 49 67 50 47 51 66 52 48 53 51 54 65 55
REMARK SMILES IDX 84 56 49 57 50 58 64 60 85 61 52 62 36 63 37 64 45 65 38 66
REMARK SMILES IDX 44 67 46 68 43 69 39 70 40 71 41 72 42 73 68 74 69 75 77 76
REMARK SMILES IDX 70 77 76 78 78 79 75 80 71 81 72 82 73 83 74 84 53 85 54 86
REMARK SMILES IDX 62 87 55 88 61 89 63 90 60 91 56 92 57 93 58 94 59 95
REMARK H PARENT 10 13 83 48 51 59
REMARK Flexibility Score: inf
ROOT
ATOM      1  C   UNL     1       6.367  -5.566  -4.348  1.00  0.00     0.188 C 
ENDROOT
BRANCH   1   2
ATOM      2  O   UNL     1       7.574  -6.276  -4.094  1.00  0.00    -0.376 OA
BRANCH   2   3
ATOM      3  C   UNL     1       7.499  -7.460  -3.298  1.00  0.00     0.202 C 
BRANCH   3   4
ATOM      4  C   UNL     1       6.628  -7.444  -2.026  1.00  0.00     0.261 C 
BRANCH   4   5
ATOM      5  O   UNL     1       5.233  -7.174  -2.286  1.00  0.00    -0.462 OA
BRANCH   5   6
ATOM      6  C   UNL     1       4.593  -6.380  -1.389  1.00  0.00     0.328 C 
ATOM      7  O   UNL     1       5.084  -6.027  -0.321  1.00  0.00    -0.250 OA
BRANCH   6   8
ATOM      8  C   UNL     1       3.233  -5.852  -1.905  1.00  0.00     0.189 C 
ATOM      9  C   UNL     1       2.420  -6.799  -2.781  1.00  0.00     0.043 C 
BRANCH   8  10
ATOM     10  N   UNL     1       2.428  -5.500  -0.728  1.00  0.00    -0.343 N 
ATOM     11  C   UNL     1       1.587  -4.456  -0.501  1.00  0.00     0.225 C 
ATOM     12  O   UNL     1       1.018  -4.399   0.591  1.00  0.00    -0.275 OA
ATOM     13  H   UNL     1       2.511  -6.128   0.025  1.00  0.00     0.164 HD
BRANCH  11  14
ATOM     14  C   UNL     1       1.351  -3.406  -1.574  1.00  0.00     0.135 C 
BRANCH  14  15
ATOM     15  C   UNL     1       2.568  -2.560  -1.861  1.00  0.00    -0.036 A 
ATOM     16  C   UNL     1       4.936  -1.168  -2.402  1.00  0.00     0.154 A 
ATOM     17  C   UNL     1       4.528  -1.351  -1.084  1.00  0.00     0.050 A 
ATOM     18  C   UNL     1       4.154  -1.654  -3.447  1.00  0.00     0.165 A 
ATOM     19  C   UNL     1       3.340  -2.029  -0.814  1.00  0.00     0.008 A 
ATOM     20  C   UNL     1       2.963  -2.325  -3.186  1.00  0.00     0.047 A 
ATOM     21  F   UNL     1       4.557  -1.537  -4.720  1.00  0.00    -0.203 F 
BRANCH  16  22
ATOM     22  O   UNL     1       6.157  -0.590  -2.608  1.00  0.00    -0.494 OA
ATOM     23  C   UNL     1       6.004   0.701  -3.197  1.00  0.00     0.278 C 
ENDBRANCH  16  22
ENDBRANCH  14  15
ENDBRANCH  11  14
ENDBRANCH   8  10
ENDBRANCH   6   8
ENDBRANCH   5   6
ENDBRANCH   4   5
ENDBRANCH   3   4
ENDBRANCH   2   3
ENDBRANCH   1   2
BRANCH   1  24
ATOM     24  C   UNL     1       5.233  -6.329  -5.049  1.00  0.00     0.188 C 
BRANCH  24  25
ATOM     25  O   UNL     1       5.311  -7.731  -4.906  1.00  0.00    -0.376 OA
BRANCH  25  26
ATOM     26  C   UNL     1       5.427  -8.566  -6.049  1.00  0.00     0.202 C 
BRANCH  26  27
ATOM     27  C   UNL     1       6.368  -8.236  -7.228  1.00  0.00     0.261 C 
BRANCH  27  28
ATOM     28  O   UNL     1       6.434  -6.877  -7.678  1.00  0.00    -0.460 OA
BRANCH  28  29
ATOM     29  C   UNL     1       5.348  -6.385  -8.322  1.00  0.00     0.338 C 
ATOM     30  O   UNL     1       4.324  -6.996  -8.586  1.00  0.00    -0.246 OA
BRANCH  29  31
ATOM     31  C   UNL     1       5.511  -4.913  -8.395  1.00  0.00     0.060 A 
ATOM     32  C   UNL     1       4.549  -4.091  -7.788  1.00  0.00     0.016 A 
ATOM     33  C   UNL     1       6.636  -4.348  -9.001  1.00  0.00     0.016 A 
ATOM     34  C   UNL     1       4.703  -2.703  -7.804  1.00  0.00     0.010 A 
ATOM     35  C   UNL     1       6.769  -2.958  -9.049  1.00  0.00     0.010 A 
ATOM     36  C   UNL     1       5.793  -2.128  -8.471  1.00  0.00    -0.014 A 
BRANCH  36  37
ATOM     37  C   UNL     1       5.819  -0.667  -8.730  1.00  0.00     0.031 A 
ATOM     38  C   UNL     1       5.194  -0.160  -9.996  1.00  0.00     0.074 A 
ATOM     39  C   UNL     1       6.427   0.191  -7.893  1.00  0.00     0.049 A 
ATOM     40  N   UNL     1       5.165   1.056 -10.471  1.00  0.00    -0.248 NA
ATOM     41  C   UNL     1       4.567  -1.168 -10.864  1.00  0.00     0.031 C 
ATOM     42  C   UNL     1       7.137  -0.196  -6.681  1.00  0.00     0.029 A 
ATOM     43  N   UNL     1       6.546   1.561  -7.933  1.00  0.00    -0.354 N 
ATOM     44  C   UNL     1       4.572   0.954 -11.722  1.00  0.00     0.074 A 
ATOM     45  C   UNL     1       4.242  -0.442 -11.922  1.00  0.00     0.031 C 
ATOM     46  C   UNL     1       7.577   0.916  -6.069  1.00  0.00     0.029 A 
ATOM     47  C   UNL     1       7.161   2.095  -6.823  1.00  0.00     0.049 A 
ATOM     48  H   UNL     1       6.221   2.107  -8.685  1.00  0.00     0.167 HD
ATOM     49  C   UNL     1       4.356   1.932 -12.633  1.00  0.00     0.034 A 
ATOM     50  C   UNL     1       7.338   3.383  -6.454  1.00  0.00     0.034 A 
ATOM     51  C   UNL     1       4.705   3.315 -12.427  1.00  0.00     0.049 A 
ATOM     52  C   UNL     1       6.992   4.471  -7.442  1.00  0.00     0.074 A 
ATOM     53  C   UNL     1       4.539   4.380 -13.295  1.00  0.00     0.029 A 
ATOM     54  N   UNL     1       5.291   3.827 -11.277  1.00  0.00    -0.354 N 
ATOM     55  N   UNL     1       6.461   4.358  -8.638  1.00  0.00    -0.248 NA
ATOM     56  C   UNL     1       7.329   5.851  -7.062  1.00  0.00     0.031 C 
ATOM     57  C   UNL     1       5.078   5.522 -12.695  1.00  0.00     0.029 A 
ATOM     58  C   UNL     1       5.508   5.189 -11.421  1.00  0.00     0.049 A 
ATOM     59  H   UNL     1       5.518   3.301 -10.477  1.00  0.00     0.167 HD
ATOM     60  C   UNL     1       6.440   5.645  -9.168  1.00  0.00     0.074 A 
ATOM     61  C   UNL     1       6.954   6.527  -8.140  1.00  0.00     0.031 C 
ATOM     62  C   UNL     1       6.059   6.054 -10.404  1.00  0.00     0.034 A 
BRANCH  49  63
ATOM     63  C   UNL     1       3.780   1.519 -13.960  1.00  0.00     0.023 A 
ATOM     64  C   UNL     1       2.471   1.025 -14.074  1.00  0.00     0.031 A 
ATOM     65  C   UNL     1       4.563   1.604 -15.125  1.00  0.00     0.131 A 
ATOM     66  C   UNL     1       2.000   0.584 -15.319  1.00  0.00     0.055 A 
ATOM     67  C   UNL     1       4.063   1.232 -16.373  1.00  0.00     0.041 A 
ATOM     68  F   UNL     1       5.830   2.042 -15.067  1.00  0.00    -0.206 F 
ATOM     69  C   UNL     1       2.777   0.710 -16.474  1.00  0.00     0.022 A 
BRANCH  66  70
ATOM     70  S   UNL     1       0.393  -0.250 -15.390  1.00  0.00     0.124 S 
ATOM     71  O   UNL     1       0.647  -1.445 -14.590  1.00  0.00    -0.237 OA
ATOM     72  O   UNL     1      -0.503   0.736 -14.796  1.00  0.00    -0.237 OA
ATOM     73  O   UNL     1       0.196  -0.492 -16.817  1.00  0.00    -0.744 OA
ENDBRANCH  66  70
ENDBRANCH  49  63
BRANCH  50  74
ATOM     74  C   UNL     1       7.851   3.730  -5.092  1.00  0.00     0.023 A 
ATOM     75  C   UNL     1       7.046   4.450  -4.190  1.00  0.00     0.031 A 
ATOM     76  C   UNL     1       9.134   3.354  -4.662  1.00  0.00     0.131 A 
ATOM     77  C   UNL     1       7.533   4.774  -2.912  1.00  0.00     0.055 A 
ATOM     78  C   UNL     1       9.591   3.625  -3.369  1.00  0.00     0.041 A 
ATOM     79  F   UNL     1       9.958   2.687  -5.485  1.00  0.00    -0.206 F 
ATOM     80  C   UNL     1       8.789   4.341  -2.486  1.00  0.00     0.022 A 
BRANCH  77  81
ATOM     81  S   UNL     1       6.515   5.803  -1.815  1.00  0.00     0.124 S 
ATOM     82  O   UNL     1       6.484   7.067  -2.542  1.00  0.00    -0.237 OA
ATOM     83  O   UNL     1       5.263   5.055  -1.772  1.00  0.00    -0.237 OA
ATOM     84  O   UNL     1       7.271   5.819  -0.565  1.00  0.00    -0.744 OA
ENDBRANCH  77  81
ENDBRANCH  50  74
BRANCH  62  85
ATOM     85  C   UNL     1       6.206   7.519 -10.729  1.00  0.00     0.023 A 
ATOM     86  C   UNL     1       7.472   8.113 -10.877  1.00  0.00     0.031 A 
ATOM     87  C   UNL     1       5.069   8.321 -10.934  1.00  0.00     0.131 A 
ATOM     88  C   UNL     1       7.572   9.477 -11.188  1.00  0.00     0.055 A 
ATOM     89  C   UNL     1       5.175   9.665 -11.293  1.00  0.00     0.041 A 
ATOM     90  F   UNL     1       3.837   7.803 -10.808  1.00  0.00    -0.206 F 
ATOM     91  C   UNL     1       6.431  10.252 -11.415  1.00  0.00     0.022 A 
BRANCH  88  92
ATOM     92  S   UNL     1       9.215  10.243 -11.248  1.00  0.00     0.124 S 
ATOM     93  O   UNL     1       9.676  10.077  -9.873  1.00  0.00    -0.237 OA
ATOM     94  O   UNL     1       9.903   9.439 -12.252  1.00  0.00    -0.237 OA
ATOM     95  O   UNL     1       8.937  11.622 -11.645  1.00  0.00    -0.744 OA
ENDBRANCH  88  92
ENDBRANCH  62  85
ENDBRANCH  36  37
ENDBRANCH  29  31
ENDBRANCH  28  29
ENDBRANCH  27  28
ENDBRANCH  26  27
ENDBRANCH  25  26
ENDBRANCH  24  25
ENDBRANCH   1  24
TORSDOF 24
