REMARK SMILES C[C@@H](C(=O)OCCOCCOCCOC(=O)c1ccc(-c2c3nc(c(-c4cc(S(=O)(=O)[O-])ccc4F)c4ccc([nH]4)c(-c4cc(S(=O)(=O)[O-])ccc4F)c4nc(c(-c5cc(S(=O)(=O)[O-])ccc5F)c5ccc2[nH]5)C=C4)C=C3)cc1)[C@H](C)[N@@H+]1C[C@H]2C[NH2+]C[C@@H]2[C@@H]1C
REMARK SMILES IDX 10 1 9 2 8 3 7 4 6 5 5 6 3 7 4 8 2 9 1 10 80 11 81 12 82 13
REMARK SMILES IDX 83 14 89 15 84 17 88 18 90 19 85 20 87 21 86 22 11 25 12 26
REMARK SMILES IDX 13 27 14 28 15 29 16 30 17 31 18 32 79 33 19 34 78 35 20 36
REMARK SMILES IDX 21 37 22 38 72 39 23 40 77 41 71 42 73 43 24 44 76 45 70 46
REMARK SMILES IDX 69 47 25 49 57 50 37 51 56 52 38 53 41 54 55 55 74 56 39 57
REMARK SMILES IDX 40 58 54 60 75 61 42 62 26 63 27 64 35 65 28 66 34 67 36 68
REMARK SMILES IDX 33 69 29 70 30 71 31 72 32 73 58 74 59 75 67 76 60 77 66 78
REMARK SMILES IDX 68 79 65 80 61 81 62 82 63 83 64 84 43 85 44 86 52 87 45 88
REMARK SMILES IDX 51 89 53 90 50 91 46 92 47 93 48 94 49 95
REMARK H PARENT 82 16 86 23 86 24 73 48 41 59
REMARK Flexibility Score: inf
ROOT
ATOM      1  C   UNL     1      -1.675   1.683   1.467  1.00  0.00     0.188 C 
ENDROOT
BRANCH   1   2
ATOM      2  C   UNL     1      -0.174   1.337   1.542  1.00  0.00     0.188 C 
BRANCH   2   3
ATOM      3  O   UNL     1       0.765   2.390   1.740  1.00  0.00    -0.376 OA
BRANCH   3   4
ATOM      4  C   UNL     1       0.650   3.562   0.937  1.00  0.00     0.202 C 
BRANCH   4   5
ATOM      5  C   UNL     1       0.445   3.417  -0.586  1.00  0.00     0.261 C 
BRANCH   5   6
ATOM      6  O   UNL     1      -0.564   2.456  -0.957  1.00  0.00    -0.463 OA
BRANCH   6   7
ATOM      7  C   UNL     1      -0.369   1.760  -2.107  1.00  0.00     0.314 C 
ATOM      8  O   UNL     1       0.542   1.987  -2.895  1.00  0.00    -0.252 OA
BRANCH   7   9
ATOM      9  C   UNL     1      -1.394   0.627  -2.311  1.00  0.00     0.154 C 
ATOM     10  C   UNL     1      -2.807   1.187  -2.066  1.00  0.00     0.026 C 
BRANCH   9  11
ATOM     11  C   UNL     1      -1.045  -0.724  -1.554  1.00  0.00     0.195 C 
ATOM     12  C   UNL     1       0.480  -0.966  -1.592  1.00  0.00     0.076 C 
BRANCH  11  13
ATOM     13  N   UNL     1      -1.790  -1.910  -2.060  1.00  0.00    -0.329 N 
ATOM     14  C   UNL     1      -3.269  -1.877  -1.936  1.00  0.00     0.272 C 
ATOM     15  C   UNL     1      -1.326  -3.329  -1.806  1.00  0.00     0.190 C 
ATOM     16  H   UNL     1      -1.485  -1.719  -3.015  1.00  0.00     0.348 HD
ATOM     17  C   UNL     1      -3.596  -3.173  -1.254  1.00  0.00     0.114 C 
ATOM     18  C   UNL     1      -2.633  -4.112  -1.918  1.00  0.00     0.116 C 
ATOM     19  C   UNL     1      -0.574  -3.646  -0.513  1.00  0.00     0.076 C 
ATOM     20  C   UNL     1      -4.897  -3.910  -1.415  1.00  0.00     0.270 C 
ATOM     21  C   UNL     1      -3.019  -5.405  -1.234  1.00  0.00     0.271 C 
ATOM     22  N   UNL     1      -4.504  -5.311  -1.139  1.00  0.00    -0.345 N 
ATOM     23  H   UNL     1      -4.934  -5.932  -1.824  1.00  0.00     0.346 HD
ATOM     24  H   UNL     1      -4.816  -5.588  -0.208  1.00  0.00     0.346 HD
ENDBRANCH  11  13
ENDBRANCH   9  11
ENDBRANCH   7   9
ENDBRANCH   6   7
ENDBRANCH   5   6
ENDBRANCH   4   5
ENDBRANCH   3   4
ENDBRANCH   2   3
ENDBRANCH   1   2
BRANCH   1  25
ATOM     25  O   UNL     1      -1.954   3.062   1.525  1.00  0.00    -0.376 OA
BRANCH  25  26
ATOM     26  C   UNL     1      -2.580   3.583   2.683  1.00  0.00     0.202 C 
BRANCH  26  27
ATOM     27  C   UNL     1      -2.168   3.148   4.104  1.00  0.00     0.261 C 
BRANCH  27  28
ATOM     28  O   UNL     1      -1.719   1.798   4.292  1.00  0.00    -0.460 OA
BRANCH  28  29
ATOM     29  C   UNL     1      -2.672   0.845   4.424  1.00  0.00     0.338 C 
ATOM     30  O   UNL     1      -3.883   1.020   4.385  1.00  0.00    -0.246 OA
BRANCH  29  31
ATOM     31  C   UNL     1      -2.005  -0.476   4.373  1.00  0.00     0.060 A 
ATOM     32  C   UNL     1      -2.317  -1.356   3.325  1.00  0.00     0.016 A 
ATOM     33  C   UNL     1      -1.064  -0.841   5.338  1.00  0.00     0.016 A 
ATOM     34  C   UNL     1      -1.701  -2.607   3.251  1.00  0.00     0.010 A 
ATOM     35  C   UNL     1      -0.464  -2.104   5.273  1.00  0.00     0.010 A 
ATOM     36  C   UNL     1      -0.793  -3.003   4.241  1.00  0.00    -0.014 A 
BRANCH  36  37
ATOM     37  C   UNL     1      -0.343  -4.417   4.313  1.00  0.00     0.031 A 
ATOM     38  C   UNL     1      -1.077  -5.348   5.240  1.00  0.00     0.074 A 
ATOM     39  C   UNL     1       0.682  -4.877   3.571  1.00  0.00     0.049 A 
ATOM     40  N   UNL     1      -0.823  -6.594   5.545  1.00  0.00    -0.248 NA
ATOM     41  C   UNL     1      -2.257  -4.788   5.915  1.00  0.00     0.031 C 
ATOM     42  C   UNL     1       1.432  -4.098   2.589  1.00  0.00     0.029 A 
ATOM     43  N   UNL     1       1.273  -6.117   3.538  1.00  0.00    -0.354 N 
ATOM     44  C   UNL     1      -1.805  -6.965   6.458  1.00  0.00     0.074 A 
ATOM     45  C   UNL     1      -2.637  -5.802   6.677  1.00  0.00     0.031 C 
ATOM     46  C   UNL     1       2.391  -4.876   2.056  1.00  0.00     0.029 A 
ATOM     47  C   UNL     1       2.358  -6.192   2.694  1.00  0.00     0.049 A 
ATOM     48  H   UNL     1       0.951  -6.881   4.069  1.00  0.00     0.167 HD
ATOM     49  C   UNL     1      -1.995  -8.167   7.057  1.00  0.00     0.034 A 
ATOM     50  C   UNL     1       3.240  -7.194   2.489  1.00  0.00     0.034 A 
ATOM     51  C   UNL     1      -1.146  -9.314   6.843  1.00  0.00     0.049 A 
ATOM     52  C   UNL     1       3.078  -8.489   3.258  1.00  0.00     0.074 A 
ATOM     53  C   UNL     1      -1.256 -10.579   7.393  1.00  0.00     0.029 A 
ATOM     54  N   UNL     1      -0.020  -9.332   6.030  1.00  0.00    -0.354 N 
ATOM     55  N   UNL     1       2.148  -8.830   4.121  1.00  0.00    -0.248 NA
ATOM     56  C   UNL     1       4.086  -9.532   3.022  1.00  0.00     0.031 C 
ATOM     57  C   UNL     1      -0.151 -11.332   6.985  1.00  0.00     0.029 A 
ATOM     58  C   UNL     1       0.597 -10.573   6.099  1.00  0.00     0.049 A 
ATOM     59  H   UNL     1       0.294  -8.576   5.484  1.00  0.00     0.167 HD
ATOM     60  C   UNL     1       2.439 -10.142   4.497  1.00  0.00     0.074 A 
ATOM     61  C   UNL     1       3.623 -10.530   3.760  1.00  0.00     0.031 C 
ATOM     62  C   UNL     1       1.782 -10.953   5.366  1.00  0.00     0.034 A 
BRANCH  49  63
ATOM     63  C   UNL     1      -3.124  -8.272   8.054  1.00  0.00     0.023 A 
ATOM     64  C   UNL     1      -4.468  -8.103   7.679  1.00  0.00     0.031 A 
ATOM     65  C   UNL     1      -2.845  -8.513   9.412  1.00  0.00     0.131 A 
ATOM     66  C   UNL     1      -5.472  -8.102   8.660  1.00  0.00     0.055 A 
ATOM     67  C   UNL     1      -3.857  -8.598  10.369  1.00  0.00     0.041 A 
ATOM     68  F   UNL     1      -1.578  -8.654   9.835  1.00  0.00    -0.206 F 
ATOM     69  C   UNL     1      -5.179  -8.377   9.997  1.00  0.00     0.022 A 
BRANCH  66  70
ATOM     70  S   UNL     1      -7.144  -7.580   8.188  1.00  0.00     0.124 S 
ATOM     71  O   UNL     1      -6.897  -6.243   7.654  1.00  0.00    -0.237 OA
ATOM     72  O   UNL     1      -7.530  -8.596   7.216  1.00  0.00    -0.237 OA
ATOM     73  O   UNL     1      -7.882  -7.612   9.450  1.00  0.00    -0.744 OA
ENDBRANCH  66  70
ENDBRANCH  49  63
BRANCH  50  74
ATOM     74  C   UNL     1       4.394  -7.017   1.557  1.00  0.00     0.023 A 
ATOM     75  C   UNL     1       4.552  -7.841   0.431  1.00  0.00     0.031 A 
ATOM     76  C   UNL     1       5.401  -6.072   1.823  1.00  0.00     0.131 A 
ATOM     77  C   UNL     1       5.711  -7.741  -0.355  1.00  0.00     0.055 A 
ATOM     78  C   UNL     1       6.522  -5.933   1.003  1.00  0.00     0.041 A 
ATOM     79  F   UNL     1       5.310  -5.265   2.893  1.00  0.00    -0.206 F 
ATOM     80  C   UNL     1       6.689  -6.782  -0.087  1.00  0.00     0.022 A 
BRANCH  77  81
ATOM     81  S   UNL     1       5.973  -8.957  -1.677  1.00  0.00     0.124 S 
ATOM     82  O   UNL     1       5.962 -10.210  -0.932  1.00  0.00    -0.237 OA
ATOM     83  O   UNL     1       4.824  -8.714  -2.543  1.00  0.00    -0.237 OA
ATOM     84  O   UNL     1       7.266  -8.575  -2.239  1.00  0.00    -0.744 OA
ENDBRANCH  77  81
ENDBRANCH  50  74
BRANCH  62  85
ATOM     85  C   UNL     1       2.292 -12.369   5.521  1.00  0.00     0.023 A 
ATOM     86  C   UNL     1       3.555 -12.654   6.070  1.00  0.00     0.031 A 
ATOM     87  C   UNL     1       1.494 -13.454   5.112  1.00  0.00     0.131 A 
ATOM     88  C   UNL     1       4.004 -13.983   6.142  1.00  0.00     0.055 A 
ATOM     89  C   UNL     1       1.917 -14.776   5.250  1.00  0.00     0.041 A 
ATOM     90  F   UNL     1       0.281 -13.245   4.575  1.00  0.00    -0.206 F 
ATOM     91  C   UNL     1       3.185 -15.046   5.755  1.00  0.00     0.022 A 
BRANCH  88  92
ATOM     92  S   UNL     1       5.716 -14.301   6.654  1.00  0.00     0.124 S 
ATOM     93  O   UNL     1       6.473 -13.533   5.672  1.00  0.00    -0.237 OA
ATOM     94  O   UNL     1       5.735 -13.785   8.019  1.00  0.00    -0.237 OA
ATOM     95  O   UNL     1       5.845 -15.753   6.539  1.00  0.00    -0.744 OA
ENDBRANCH  88  92
ENDBRANCH  62  85
ENDBRANCH  36  37
ENDBRANCH  29  31
ENDBRANCH  28  29
ENDBRANCH  27  28
ENDBRANCH  26  27
ENDBRANCH  25  26
ENDBRANCH   1  25
TORSDOF 22
