REMARK SMILES [NH3+][C@@H](Cc1cccc(O)c1)C(=O)OCCOCCOCCOC(=O)c1ccc(-c2c3nc(c(-c4cc(S(=O)(=O)[O-])ccc4F)c4ccc([nH]4)c(-c4cc(S(=O)(=O)[O-])ccc4F)c4nc(c(-c5cc(S(=O)(=O)[O-])ccc5F)c5ccc2[nH]5)C=C4)C=C3)cc1
REMARK SMILES IDX 17 1 16 2 15 3 14 4 13 5 11 6 12 7 2 8 1 9 3 13 4 14 5 15
REMARK SMILES IDX 10 16 6 17 8 18 7 19 9 20 18 22 19 23 20 24 21 25 22 26
REMARK SMILES IDX 23 27 24 28 25 29 26 30 87 31 27 32 86 33 28 34 29 35 30 36
REMARK SMILES IDX 80 37 31 38 85 39 79 40 81 41 32 42 84 43 78 44 77 45 33 47
REMARK SMILES IDX 65 48 45 49 64 50 46 51 49 52 63 53 82 54 47 55 48 56 62 58
REMARK SMILES IDX 83 59 50 60 34 61 35 62 43 63 36 64 42 65 44 66 41 67 37 68
REMARK SMILES IDX 38 69 39 70 40 71 66 72 67 73 75 74 68 75 74 76 76 77 73 78
REMARK SMILES IDX 69 79 70 80 71 81 72 82 51 83 52 84 60 85 53 86 59 87 61 88
REMARK SMILES IDX 58 89 54 90 55 91 56 92 57 93
REMARK H PARENT 1 10 1 11 1 12 9 21 81 46 49 57
REMARK Flexibility Score: inf
ROOT
ATOM      1  C   UNL     1      -2.110  -0.813   1.719  1.00  0.00     0.188 C 
ENDROOT
BRANCH   1   2
ATOM      2  O   UNL     1      -3.421  -0.254   1.790  1.00  0.00    -0.376 OA
BRANCH   2   3
ATOM      3  C   UNL     1      -3.806   0.714   0.825  1.00  0.00     0.202 C 
BRANCH   3   4
ATOM      4  C   UNL     1      -2.897   1.927   0.575  1.00  0.00     0.261 C 
BRANCH   4   5
ATOM      5  O   UNL     1      -1.486   1.655   0.513  1.00  0.00    -0.459 OA
BRANCH   5   6
ATOM      6  C   UNL     1      -0.707   2.279   1.439  1.00  0.00     0.365 C 
ATOM      7  O   UNL     1      -1.137   3.043   2.298  1.00  0.00    -0.245 OA
BRANCH   6   8
ATOM      8  C   UNL     1       0.800   2.028   1.264  1.00  0.00     0.296 C 
BRANCH   8   9
ATOM      9  N   UNL     1       1.204   0.636   0.959  1.00  0.00    -0.346 N 
ATOM     10  H   UNL     1       2.219   0.589   0.865  1.00  0.00     0.345 HD
ATOM     11  H   UNL     1       0.768   0.338   0.086  1.00  0.00     0.345 HD
ATOM     12  H   UNL     1       0.905   0.021   1.716  1.00  0.00     0.345 HD
ENDBRANCH   8   9
BRANCH   8  13
ATOM     13  C   UNL     1       1.426   3.072   0.326  1.00  0.00     0.113 C 
BRANCH  13  14
ATOM     14  C   UNL     1       0.820   3.333  -1.041  1.00  0.00    -0.038 A 
ATOM     15  C   UNL     1       0.793   4.660  -1.502  1.00  0.00     0.004 A 
ATOM     16  C   UNL     1       0.344   2.334  -1.900  1.00  0.00     0.050 A 
ATOM     17  C   UNL     1       0.282   4.981  -2.761  1.00  0.00     0.004 A 
ATOM     18  C   UNL     1      -0.164   2.660  -3.157  1.00  0.00     0.115 A 
ATOM     19  C   UNL     1      -0.202   3.977  -3.595  1.00  0.00     0.046 A 
BRANCH  18  20
ATOM     20  O   UNL     1      -0.618   1.640  -3.942  1.00  0.00    -0.508 OA
ATOM     21  H   UNL     1      -0.966   1.822  -4.792  1.00  0.00     0.293 HD
ENDBRANCH  18  20
ENDBRANCH  13  14
ENDBRANCH   8  13
ENDBRANCH   6   8
ENDBRANCH   5   6
ENDBRANCH   4   5
ENDBRANCH   3   4
ENDBRANCH   2   3
ENDBRANCH   1   2
BRANCH   1  22
ATOM     22  C   UNL     1      -1.530  -1.200   0.341  1.00  0.00     0.188 C 
BRANCH  22  23
ATOM     23  O   UNL     1      -2.432  -1.019  -0.728  1.00  0.00    -0.376 OA
BRANCH  23  24
ATOM     24  C   UNL     1      -2.920  -2.171  -1.379  1.00  0.00     0.202 C 
BRANCH  24  25
ATOM     25  C   UNL     1      -3.530  -3.323  -0.558  1.00  0.00     0.261 C 
BRANCH  25  26
ATOM     26  O   UNL     1      -2.974  -3.586   0.742  1.00  0.00    -0.460 OA
BRANCH  26  27
ATOM     27  C   UNL     1      -1.881  -4.381   0.802  1.00  0.00     0.338 C 
ATOM     28  O   UNL     1      -1.308  -4.894  -0.151  1.00  0.00    -0.246 OA
BRANCH  27  29
ATOM     29  C   UNL     1      -1.357  -4.370   2.189  1.00  0.00     0.060 A 
ATOM     30  C   UNL     1      -0.093  -3.816   2.436  1.00  0.00     0.016 A 
ATOM     31  C   UNL     1      -2.100  -4.907   3.243  1.00  0.00     0.016 A 
ATOM     32  C   UNL     1       0.444  -3.827   3.728  1.00  0.00     0.010 A 
ATOM     33  C   UNL     1      -1.551  -4.937   4.534  1.00  0.00     0.010 A 
ATOM     34  C   UNL     1      -0.261  -4.427   4.779  1.00  0.00    -0.014 A 
BRANCH  34  35
ATOM     35  C   UNL     1       0.426  -4.699   6.073  1.00  0.00     0.031 A 
ATOM     36  C   UNL     1       0.956  -6.088   6.324  1.00  0.00     0.074 A 
ATOM     37  C   UNL     1       0.617  -3.736   6.996  1.00  0.00     0.049 A 
ATOM     38  N   UNL     1       1.540  -6.582   7.386  1.00  0.00    -0.248 NA
ATOM     39  C   UNL     1       0.800  -7.050   5.222  1.00  0.00     0.031 C 
ATOM     40  C   UNL     1       0.201  -2.342   6.860  1.00  0.00     0.029 A 
ATOM     41  N   UNL     1       1.206  -3.791   8.237  1.00  0.00    -0.354 N 
ATOM     42  C   UNL     1       1.827  -7.909   7.079  1.00  0.00     0.074 A 
ATOM     43  C   UNL     1       1.303  -8.154   5.752  1.00  0.00     0.031 C 
ATOM     44  C   UNL     1       0.536  -1.676   7.980  1.00  0.00     0.029 A 
ATOM     45  C   UNL     1       1.154  -2.602   8.930  1.00  0.00     0.049 A 
ATOM     46  H   UNL     1       1.627  -4.604   8.598  1.00  0.00     0.167 HD
ATOM     47  C   UNL     1       2.482  -8.834   7.824  1.00  0.00     0.034 A 
ATOM     48  C   UNL     1       1.533  -2.303  10.191  1.00  0.00     0.034 A 
ATOM     49  C   UNL     1       2.982  -8.588   9.155  1.00  0.00     0.049 A 
ATOM     50  C   UNL     1       2.164  -3.382  11.046  1.00  0.00     0.074 A 
ATOM     51  C   UNL     1       3.644  -9.461  10.002  1.00  0.00     0.029 A 
ATOM     52  N   UNL     1       2.870  -7.385   9.839  1.00  0.00    -0.354 N 
ATOM     53  N   UNL     1       2.427  -4.633  10.744  1.00  0.00    -0.248 NA
ATOM     54  C   UNL     1       2.561  -3.002  12.409  1.00  0.00     0.031 C 
ATOM     55  C   UNL     1       3.865  -8.811  11.220  1.00  0.00     0.029 A 
ATOM     56  C   UNL     1       3.425  -7.503  11.105  1.00  0.00     0.049 A 
ATOM     57  H   UNL     1       2.456  -6.568   9.479  1.00  0.00     0.167 HD
ATOM     58  C   UNL     1       3.055  -5.173  11.867  1.00  0.00     0.074 A 
ATOM     59  C   UNL     1       3.150  -4.107  12.840  1.00  0.00     0.031 C 
ATOM     60  C   UNL     1       3.513  -6.435  12.074  1.00  0.00     0.034 A 
BRANCH  47  61
ATOM     61  C   UNL     1       2.655 -10.209   7.224  1.00  0.00     0.023 A 
ATOM     62  C   UNL     1       3.415 -10.414   6.058  1.00  0.00     0.031 A 
ATOM     63  C   UNL     1       2.037 -11.328   7.810  1.00  0.00     0.131 A 
ATOM     64  C   UNL     1       3.480 -11.690   5.479  1.00  0.00     0.055 A 
ATOM     65  C   UNL     1       2.175 -12.610   7.276  1.00  0.00     0.041 A 
ATOM     66  F   UNL     1       1.278 -11.192   8.909  1.00  0.00    -0.206 F 
ATOM     67  C   UNL     1       2.889 -12.795   6.095  1.00  0.00     0.022 A 
BRANCH  64  68
ATOM     68  S   UNL     1       4.227 -11.858   3.835  1.00  0.00     0.124 S 
ATOM     69  O   UNL     1       3.392 -10.963   3.038  1.00  0.00    -0.237 OA
ATOM     70  O   UNL     1       5.598 -11.418   4.064  1.00  0.00    -0.237 OA
ATOM     71  O   UNL     1       4.070 -13.279   3.531  1.00  0.00    -0.744 OA
ENDBRANCH  64  68
ENDBRANCH  47  61
BRANCH  48  72
ATOM     72  C   UNL     1       1.288  -0.943  10.763  1.00  0.00     0.023 A 
ATOM     73  C   UNL     1       2.345  -0.142  11.228  1.00  0.00     0.031 A 
ATOM     74  C   UNL     1      -0.023  -0.463  10.941  1.00  0.00     0.131 A 
ATOM     75  C   UNL     1       2.071   1.059  11.904  1.00  0.00     0.055 A 
ATOM     76  C   UNL     1      -0.287   0.764  11.551  1.00  0.00     0.041 A 
ATOM     77  F   UNL     1      -1.074  -1.190  10.528  1.00  0.00    -0.206 F 
ATOM     78  C   UNL     1       0.763   1.525  12.054  1.00  0.00     0.022 A 
BRANCH  75  79
ATOM     79  S   UNL     1       3.442   1.942  12.701  1.00  0.00     0.124 S 
ATOM     80  O   UNL     1       3.983   0.914  13.583  1.00  0.00    -0.237 OA
ATOM     81  O   UNL     1       4.272   2.308  11.558  1.00  0.00    -0.237 OA
ATOM     82  O   UNL     1       2.783   3.059  13.374  1.00  0.00    -0.744 OA
ENDBRANCH  75  79
ENDBRANCH  48  72
BRANCH  60  83
ATOM     83  C   UNL     1       4.215  -6.711  13.386  1.00  0.00     0.023 A 
ATOM     84  C   UNL     1       3.550  -6.621  14.622  1.00  0.00     0.031 A 
ATOM     85  C   UNL     1       5.582  -7.046  13.400  1.00  0.00     0.131 A 
ATOM     86  C   UNL     1       4.266  -6.788  15.818  1.00  0.00     0.055 A 
ATOM     87  C   UNL     1       6.271  -7.285  14.590  1.00  0.00     0.041 A 
ATOM     88  F   UNL     1       6.274  -7.145  12.254  1.00  0.00    -0.206 F 
ATOM     89  C   UNL     1       5.618  -7.139  15.809  1.00  0.00     0.022 A 
BRANCH  86  90
ATOM     90  S   UNL     1       3.436  -6.420  17.389  1.00  0.00     0.124 S 
ATOM     91  O   UNL     1       3.002  -5.042  17.186  1.00  0.00    -0.237 OA
ATOM     92  O   UNL     1       2.377  -7.423  17.426  1.00  0.00    -0.237 OA
ATOM     93  O   UNL     1       4.492  -6.598  18.384  1.00  0.00    -0.744 OA
ENDBRANCH  86  90
ENDBRANCH  60  83
ENDBRANCH  34  35
ENDBRANCH  27  29
ENDBRANCH  26  27
ENDBRANCH  25  26
ENDBRANCH  24  25
ENDBRANCH  23  24
ENDBRANCH  22  23
ENDBRANCH   1  22
TORSDOF 24
