REMARK SMILES CCn1nc(C)c(Br)c1C[C@H](C(=O)OCCOCCOCCOC(=O)c1ccc(-c2c3nc(c(-c4cc(S(=O)(=O)[O-])ccc4F)c4ccc([nH]4)c(-c4cc(S(=O)(=O)[O-])ccc4F)c4nc(c(-c5cc(S(=O)(=O)[O-])ccc5F)c5ccc2[nH]5)C=C4)C=C3)cc1)c1ccc(F)cc1
REMARK SMILES IDX 18 1 17 2 16 3 15 4 14 5 12 6 13 7 11 8 10 9 9 10 3 11 4 12
REMARK SMILES IDX 5 13 7 14 6 15 8 16 2 17 1 18 89 19 90 20 95 21 91 22 94 23
REMARK SMILES IDX 92 24 93 25 19 26 20 27 21 28 22 29 23 30 24 31 25 32 26 33
REMARK SMILES IDX 27 34 88 35 28 36 87 37 29 38 30 39 31 40 81 41 32 42 86 43
REMARK SMILES IDX 80 44 82 45 33 46 85 47 79 48 78 49 34 51 66 52 46 53 65 54
REMARK SMILES IDX 47 55 50 56 64 57 83 58 48 59 49 60 63 62 84 63 51 64 35 65
REMARK SMILES IDX 36 66 44 67 37 68 43 69 45 70 42 71 38 72 39 73 40 74 41 75
REMARK SMILES IDX 67 76 68 77 76 78 69 79 75 80 77 81 74 82 70 83 71 84 72 85
REMARK SMILES IDX 73 86 52 87 53 88 61 89 54 90 60 91 62 92 59 93 55 94 56 95
REMARK SMILES IDX 57 96 58 97
REMARK H PARENT 82 50 50 61
REMARK Flexibility Score: inf
ROOT
ATOM      1  C   UNL     1      -1.460  -2.627   1.940  1.00  0.00     0.188 C 
ENDROOT
BRANCH   1   2
ATOM      2  O   UNL     1      -0.211  -1.987   2.130  1.00  0.00    -0.376 OA
BRANCH   2   3
ATOM      3  C   UNL     1       0.234  -1.054   1.160  1.00  0.00     0.202 C 
BRANCH   3   4
ATOM      4  C   UNL     1       0.300  -1.431  -0.342  1.00  0.00     0.261 C 
BRANCH   4   5
ATOM      5  O   UNL     1      -0.836  -2.101  -0.954  1.00  0.00    -0.463 OA
BRANCH   5   6
ATOM      6  C   UNL     1      -0.668  -3.414  -1.262  1.00  0.00     0.313 C 
ATOM      7  O   UNL     1       0.413  -3.972  -1.082  1.00  0.00    -0.252 OA
BRANCH   6   8
ATOM      8  C   UNL     1      -1.835  -4.095  -2.026  1.00  0.00     0.135 C 
BRANCH   8   9
ATOM      9  C   UNL     1      -1.363  -5.572  -2.293  1.00  0.00     0.077 C 
BRANCH   9  10
ATOM     10  C   UNL     1      -1.703  -6.638  -1.278  1.00  0.00     0.054 A 
ATOM     11  N   UNL     1      -2.396  -7.780  -1.639  1.00  0.00    -0.268 N 
ATOM     12  N   UNL     1      -3.012  -8.378  -0.606  1.00  0.00    -0.177 NA
ATOM     13  C   UNL     1      -2.476  -7.786   0.469  1.00  0.00     0.074 A 
ATOM     14  C   UNL     1      -1.497  -6.843   0.073  1.00  0.00     0.062 A 
ATOM     15  C   UNL     1      -2.965  -8.131   1.829  1.00  0.00     0.070 C 
ATOM     16  Br  UNL     1      -0.290  -6.065   1.264  1.00  0.00    -0.047 Br
BRANCH  11  17
ATOM     17  C   UNL     1      -2.571  -8.316  -2.976  1.00  0.00     0.141 C 
ATOM     18  C   UNL     1      -1.252  -8.836  -3.525  1.00  0.00     0.029 C 
ENDBRANCH  11  17
ENDBRANCH   9  10
ENDBRANCH   8   9
BRANCH   8  19
ATOM     19  C   UNL     1      -3.324  -3.867  -1.624  1.00  0.00    -0.033 A 
ATOM     20  C   UNL     1      -3.915  -2.584  -1.657  1.00  0.00     0.007 A 
ATOM     21  C   UNL     1      -4.193  -4.900  -1.222  1.00  0.00     0.007 A 
ATOM     22  C   UNL     1      -5.208  -2.349  -1.136  1.00  0.00     0.039 A 
ATOM     23  C   UNL     1      -5.477  -4.683  -0.708  1.00  0.00     0.039 A 
ATOM     24  C   UNL     1      -5.964  -3.399  -0.637  1.00  0.00     0.123 A 
ATOM     25  F   UNL     1      -7.167  -3.178  -0.093  1.00  0.00    -0.207 F 
ENDBRANCH   8  19
ENDBRANCH   6   8
ENDBRANCH   5   6
ENDBRANCH   4   5
ENDBRANCH   3   4
ENDBRANCH   2   3
ENDBRANCH   1   2
BRANCH   1  26
ATOM     26  C   UNL     1      -2.585  -1.925   1.185  1.00  0.00     0.188 C 
BRANCH  26  27
ATOM     27  O   UNL     1      -2.323  -0.618   0.720  1.00  0.00    -0.376 OA
BRANCH  27  28
ATOM     28  C   UNL     1      -2.995   0.515   1.232  1.00  0.00     0.202 C 
BRANCH  28  29
ATOM     29  C   UNL     1      -3.197   0.649   2.732  1.00  0.00     0.261 C 
BRANCH  29  30
ATOM     30  O   UNL     1      -3.580  -0.553   3.361  1.00  0.00    -0.460 OA
BRANCH  30  31
ATOM     31  C   UNL     1      -4.785  -1.053   3.007  1.00  0.00     0.338 C 
ATOM     32  O   UNL     1      -5.525  -0.657   2.132  1.00  0.00    -0.246 OA
BRANCH  31  33
ATOM     33  C   UNL     1      -5.027  -2.193   3.898  1.00  0.00     0.060 A 
ATOM     34  C   UNL     1      -6.145  -2.987   3.641  1.00  0.00     0.016 A 
ATOM     35  C   UNL     1      -4.386  -2.156   5.140  1.00  0.00     0.016 A 
ATOM     36  C   UNL     1      -6.819  -3.493   4.726  1.00  0.00     0.010 A 
ATOM     37  C   UNL     1      -5.106  -2.563   6.217  1.00  0.00     0.010 A 
ATOM     38  C   UNL     1      -6.353  -3.147   5.995  1.00  0.00    -0.014 A 
BRANCH  38  39
ATOM     39  C   UNL     1      -7.128  -3.479   7.166  1.00  0.00     0.031 A 
ATOM     40  C   UNL     1      -6.849  -4.865   7.605  1.00  0.00     0.074 A 
ATOM     41  C   UNL     1      -7.803  -2.512   7.821  1.00  0.00     0.049 A 
ATOM     42  N   UNL     1      -7.649  -5.878   7.593  1.00  0.00    -0.248 NA
ATOM     43  C   UNL     1      -5.432  -5.241   7.822  1.00  0.00     0.031 C 
ATOM     44  C   UNL     1      -7.827  -1.075   7.513  1.00  0.00     0.029 A 
ATOM     45  N   UNL     1      -8.503  -2.570   8.982  1.00  0.00    -0.354 N 
ATOM     46  C   UNL     1      -6.889  -6.925   8.104  1.00  0.00     0.074 A 
ATOM     47  C   UNL     1      -5.525  -6.566   7.875  1.00  0.00     0.031 C 
ATOM     48  C   UNL     1      -8.290  -0.395   8.586  1.00  0.00     0.029 A 
ATOM     49  C   UNL     1      -8.676  -1.341   9.620  1.00  0.00     0.049 A 
ATOM     50  H   UNL     1      -8.861  -3.413   9.345  1.00  0.00     0.167 HD
ATOM     51  C   UNL     1      -7.415  -7.760   9.040  1.00  0.00     0.034 A 
ATOM     52  C   UNL     1      -9.009  -1.139  10.929  1.00  0.00     0.034 A 
ATOM     53  C   UNL     1      -8.865  -7.735   8.969  1.00  0.00     0.049 A 
ATOM     54  C   UNL     1      -9.537  -2.435  11.438  1.00  0.00     0.074 A 
ATOM     55  C   UNL     1      -9.770  -7.925   7.940  1.00  0.00     0.029 A 
ATOM     56  N   UNL     1      -9.560  -7.066   9.955  1.00  0.00    -0.354 N 
ATOM     57  N   UNL     1     -10.657  -2.965  11.029  1.00  0.00    -0.248 NA
ATOM     58  C   UNL     1      -8.576  -3.381  11.991  1.00  0.00     0.031 C 
ATOM     59  C   UNL     1     -10.786  -6.948   8.153  1.00  0.00     0.029 A 
ATOM     60  C   UNL     1     -10.521  -6.289   9.354  1.00  0.00     0.049 A 
ATOM     61  H   UNL     1      -9.396  -7.135  10.924  1.00  0.00     0.167 HD
ATOM     62  C   UNL     1     -10.380  -4.314  10.861  1.00  0.00     0.074 A 
ATOM     63  C   UNL     1      -9.104  -4.525  11.546  1.00  0.00     0.031 C 
ATOM     64  C   UNL     1     -11.042  -5.059   9.926  1.00  0.00     0.034 A 
BRANCH  51  65
ATOM     65  C   UNL     1      -6.650  -8.213  10.277  1.00  0.00     0.023 A 
ATOM     66  C   UNL     1      -7.384  -8.959  11.213  1.00  0.00     0.031 A 
ATOM     67  C   UNL     1      -5.389  -7.751  10.735  1.00  0.00     0.131 A 
ATOM     68  C   UNL     1      -6.955  -9.075  12.545  1.00  0.00     0.055 A 
ATOM     69  C   UNL     1      -4.940  -7.919  12.048  1.00  0.00     0.041 A 
ATOM     70  F   UNL     1      -4.527  -7.061   9.982  1.00  0.00    -0.206 F 
ATOM     71  C   UNL     1      -5.743  -8.549  12.975  1.00  0.00     0.022 A 
BRANCH  68  72
ATOM     72  S   UNL     1      -8.113  -9.775  13.741  1.00  0.00     0.124 S 
ATOM     73  O   UNL     1      -9.278  -8.921  13.539  1.00  0.00    -0.237 OA
ATOM     74  O   UNL     1      -8.229 -11.150  13.268  1.00  0.00    -0.237 OA
ATOM     75  O   UNL     1      -7.421  -9.607  15.016  1.00  0.00    -0.744 OA
ENDBRANCH  68  72
ENDBRANCH  51  65
BRANCH  52  76
ATOM     76  C   UNL     1      -8.582  -0.030  11.839  1.00  0.00     0.023 A 
ATOM     77  C   UNL     1      -9.227   0.249  13.068  1.00  0.00     0.031 A 
ATOM     78  C   UNL     1      -7.354   0.635  11.616  1.00  0.00     0.131 A 
ATOM     79  C   UNL     1      -8.646   1.149  13.998  1.00  0.00     0.055 A 
ATOM     80  C   UNL     1      -6.789   1.524  12.534  1.00  0.00     0.041 A 
ATOM     81  F   UNL     1      -6.608   0.377  10.531  1.00  0.00    -0.206 F 
ATOM     82  C   UNL     1      -7.427   1.777  13.736  1.00  0.00     0.022 A 
BRANCH  79  83
ATOM     83  S   UNL     1      -9.420   1.454  15.624  1.00  0.00     0.124 S 
ATOM     84  O   UNL     1     -10.605   2.225  15.266  1.00  0.00    -0.237 OA
ATOM     85  O   UNL     1      -9.648   0.105  16.126  1.00  0.00    -0.237 OA
ATOM     86  O   UNL     1      -8.398   2.209  16.353  1.00  0.00    -0.744 OA
ENDBRANCH  79  83
ENDBRANCH  52  76
BRANCH  64  87
ATOM     87  C   UNL     1     -12.309  -4.492   9.310  1.00  0.00     0.023 A 
ATOM     88  C   UNL     1     -12.423  -3.239   8.662  1.00  0.00     0.031 A 
ATOM     89  C   UNL     1     -13.442  -5.327   9.308  1.00  0.00     0.131 A 
ATOM     90  C   UNL     1     -13.643  -2.863   8.063  1.00  0.00     0.055 A 
ATOM     91  C   UNL     1     -14.637  -4.963   8.692  1.00  0.00     0.041 A 
ATOM     92  F   UNL     1     -13.396  -6.538   9.887  1.00  0.00    -0.206 F 
ATOM     93  C   UNL     1     -14.745  -3.724   8.075  1.00  0.00     0.022 A 
BRANCH  90  94
ATOM     94  S   UNL     1     -13.847  -1.224   7.290  1.00  0.00     0.124 S 
ATOM     95  O   UNL     1     -13.181  -0.319   8.218  1.00  0.00    -0.237 OA
ATOM     96  O   UNL     1     -13.196  -1.406   5.996  1.00  0.00    -0.237 OA
ATOM     97  O   UNL     1     -15.301  -1.063   7.220  1.00  0.00    -0.744 OA
ENDBRANCH  90  94
ENDBRANCH  64  87
ENDBRANCH  38  39
ENDBRANCH  31  33
ENDBRANCH  30  31
ENDBRANCH  29  30
ENDBRANCH  28  29
ENDBRANCH  27  28
ENDBRANCH  26  27
ENDBRANCH   1  26
TORSDOF 24
