REMARK SMILES Cc1nn(C)c(=O)c(C(=O)N2CC[C@@H](C(=O)OCCOCCOCCOC(=O)c3ccc(-c4c5nc(c(-c6cc(S(=O)(=O)[O-])ccc6F)c6ccc([nH]6)c(-c6cc(S(=O)(=O)[O-])ccc6F)c6nc(c(-c7cc(S(=O)(=O)[O-])ccc7F)c7ccc4[nH]7)C=C6)C=C5)cc3)[C@@H]2C)c1C
REMARK SMILES IDX 22 1 21 2 20 3 19 4 18 5 17 6 15 7 16 8 14 9 11 10 12 11
REMARK SMILES IDX 92 12 13 13 93 14 9 15 10 16 8 17 1 18 2 19 3 20 94 21 4 22
REMARK SMILES IDX 95 23 5 24 6 25 7 26 23 27 24 28 25 29 26 30 27 31 28 32
REMARK SMILES IDX 29 33 30 34 91 35 31 36 90 37 32 38 33 39 34 40 84 41 35 42
REMARK SMILES IDX 89 43 83 44 85 45 36 46 88 47 82 48 81 49 37 51 69 52 49 53
REMARK SMILES IDX 68 54 50 55 53 56 67 57 86 58 51 59 52 60 66 62 87 63 54 64
REMARK SMILES IDX 38 65 39 66 47 67 40 68 46 69 48 70 45 71 41 72 42 73 43 74
REMARK SMILES IDX 44 75 70 76 71 77 79 78 72 79 78 80 80 81 77 82 73 83 74 84
REMARK SMILES IDX 75 85 76 86 55 87 56 88 64 89 57 90 63 91 65 92 62 93 58 94
REMARK SMILES IDX 59 95 60 96 61 97
REMARK H PARENT 85 50 53 61
REMARK Flexibility Score: inf
ROOT
ATOM      1  C   UNL     1      -3.299   2.743   1.712  1.00  0.00     0.188 C 
ENDROOT
BRANCH   1   2
ATOM      2  C   UNL     1      -3.560   4.212   2.073  1.00  0.00     0.188 C 
BRANCH   2   3
ATOM      3  O   UNL     1      -2.738   5.209   1.479  1.00  0.00    -0.376 OA
BRANCH   3   4
ATOM      4  C   UNL     1      -1.331   4.998   1.426  1.00  0.00     0.202 C 
BRANCH   4   5
ATOM      5  C   UNL     1      -0.592   4.561   2.704  1.00  0.00     0.261 C 
BRANCH   5   6
ATOM      6  O   UNL     1      -1.055   3.325   3.305  1.00  0.00    -0.463 OA
BRANCH   6   7
ATOM      7  C   UNL     1      -1.375   3.382   4.620  1.00  0.00     0.311 C 
ATOM      8  O   UNL     1      -1.262   4.402   5.295  1.00  0.00    -0.252 OA
BRANCH   7   9
ATOM      9  C   UNL     1      -1.902   2.091   5.245  1.00  0.00     0.123 C 
ATOM     10  N   UNL     1      -1.057  -0.150   5.130  1.00  0.00    -0.335 N 
ATOM     11  C   UNL     1      -0.910   0.265   6.509  1.00  0.00     0.121 C 
ATOM     12  C   UNL     1      -1.999   0.755   4.456  1.00  0.00     0.096 C 
ATOM     13  C   UNL     1      -0.980   1.773   6.435  1.00  0.00     0.039 C 
ATOM     14  C   UNL     1      -3.423   0.175   4.588  1.00  0.00     0.032 C 
BRANCH  10  15
ATOM     15  C   UNL     1      -0.411  -1.297   4.707  1.00  0.00     0.260 C 
ATOM     16  O   UNL     1       0.132  -2.039   5.531  1.00  0.00    -0.269 OA
BRANCH  15  17
ATOM     17  C   UNL     1      -0.220  -1.615   3.254  1.00  0.00     0.111 A 
ATOM     18  C   UNL     1       0.991  -0.262  -0.069  1.00  0.00     0.069 C 
ATOM     19  C   UNL     1       0.686  -1.241   1.045  1.00  0.00     0.062 A 
ATOM     20  N   UNL     1       0.828  -2.493   0.756  1.00  0.00    -0.175 NA
ATOM     21  C   UNL     1       0.307  -0.722   2.392  1.00  0.00    -0.010 A 
ATOM     22  N   UNL     1       0.465  -3.401   1.708  1.00  0.00    -0.232 N 
ATOM     23  C   UNL     1       0.705   0.693   2.671  1.00  0.00     0.047 C 
ATOM     24  C   UNL     1       0.764  -4.786   1.386  1.00  0.00     0.178 C 
ATOM     25  C   UNL     1      -0.247  -3.068   2.858  1.00  0.00     0.279 A 
ATOM     26  O   UNL     1      -0.825  -3.906   3.547  1.00  0.00    -0.267 OA
ENDBRANCH  15  17
ENDBRANCH  10  15
ENDBRANCH   7   9
ENDBRANCH   6   7
ENDBRANCH   5   6
ENDBRANCH   4   5
ENDBRANCH   3   4
ENDBRANCH   2   3
ENDBRANCH   1   2
BRANCH   1  27
ATOM     27  O   UNL     1      -2.264   2.531   0.782  1.00  0.00    -0.376 OA
BRANCH  27  28
ATOM     28  C   UNL     1      -2.577   2.046  -0.512  1.00  0.00     0.202 C 
BRANCH  28  29
ATOM     29  C   UNL     1      -3.793   2.552  -1.312  1.00  0.00     0.261 C 
BRANCH  29  30
ATOM     30  O   UNL     1      -4.995   2.842  -0.588  1.00  0.00    -0.460 OA
BRANCH  30  31
ATOM     31  C   UNL     1      -5.742   1.788  -0.176  1.00  0.00     0.338 C 
ATOM     32  O   UNL     1      -5.493   0.608  -0.360  1.00  0.00    -0.246 OA
BRANCH  31  33
ATOM     33  C   UNL     1      -6.738   2.322   0.783  1.00  0.00     0.060 A 
ATOM     34  C   UNL     1      -6.701   1.880   2.114  1.00  0.00     0.016 A 
ATOM     35  C   UNL     1      -7.648   3.307   0.393  1.00  0.00     0.016 A 
ATOM     36  C   UNL     1      -7.569   2.425   3.060  1.00  0.00     0.010 A 
ATOM     37  C   UNL     1      -8.544   3.824   1.332  1.00  0.00     0.010 A 
ATOM     38  C   UNL     1      -8.523   3.372   2.664  1.00  0.00    -0.014 A 
BRANCH  38  39
ATOM     39  C   UNL     1      -9.644   3.707   3.574  1.00  0.00     0.031 A 
ATOM     40  C   UNL     1     -10.926   2.936   3.416  1.00  0.00     0.074 A 
ATOM     41  C   UNL     1      -9.527   4.630   4.545  1.00  0.00     0.049 A 
ATOM     42  N   UNL     1     -12.069   3.086   4.029  1.00  0.00    -0.248 NA
ATOM     43  C   UNL     1     -10.906   1.845   2.428  1.00  0.00     0.031 C 
ATOM     44  C   UNL     1      -8.312   5.375   4.865  1.00  0.00     0.029 A 
ATOM     45  N   UNL     1     -10.452   5.086   5.451  1.00  0.00    -0.354 N 
ATOM     46  C   UNL     1     -12.903   2.102   3.510  1.00  0.00     0.074 A 
ATOM     47  C   UNL     1     -12.149   1.397   2.496  1.00  0.00     0.031 C 
ATOM     48  C   UNL     1      -8.564   6.188   5.907  1.00  0.00     0.029 A 
ATOM     49  C   UNL     1      -9.968   6.055   6.297  1.00  0.00     0.049 A 
ATOM     50  H   UNL     1     -11.377   4.750   5.492  1.00  0.00     0.167 HD
ATOM     51  C   UNL     1     -14.176   1.799   3.858  1.00  0.00     0.034 A 
ATOM     52  C   UNL     1     -10.592   6.763   7.261  1.00  0.00     0.034 A 
ATOM     53  C   UNL     1     -14.927   2.518   4.853  1.00  0.00     0.049 A 
ATOM     54  C   UNL     1     -12.059   6.522   7.524  1.00  0.00     0.074 A 
ATOM     55  C   UNL     1     -16.237   2.321   5.251  1.00  0.00     0.029 A 
ATOM     56  N   UNL     1     -14.435   3.574   5.608  1.00  0.00    -0.354 N 
ATOM     57  N   UNL     1     -12.861   5.638   6.979  1.00  0.00    -0.248 NA
ATOM     58  C   UNL     1     -12.706   7.383   8.525  1.00  0.00     0.031 C 
ATOM     59  C   UNL     1     -16.557   3.298   6.199  1.00  0.00     0.029 A 
ATOM     60  C   UNL     1     -15.425   4.058   6.447  1.00  0.00     0.049 A 
ATOM     61  H   UNL     1     -13.518   3.928   5.554  1.00  0.00     0.167 HD
ATOM     62  C   UNL     1     -14.100   5.818   7.589  1.00  0.00     0.074 A 
ATOM     63  C   UNL     1     -13.941   6.896   8.544  1.00  0.00     0.031 C 
ATOM     64  C   UNL     1     -15.260   5.144   7.384  1.00  0.00     0.034 A 
BRANCH  51  65
ATOM     65  C   UNL     1     -14.835   0.663   3.122  1.00  0.00     0.023 A 
ATOM     66  C   UNL     1     -14.375  -0.658   3.259  1.00  0.00     0.031 A 
ATOM     67  C   UNL     1     -15.910   0.905   2.251  1.00  0.00     0.131 A 
ATOM     68  C   UNL     1     -14.948  -1.678   2.487  1.00  0.00     0.055 A 
ATOM     69  C   UNL     1     -16.526  -0.128   1.543  1.00  0.00     0.041 A 
ATOM     70  F   UNL     1     -16.372   2.151   2.063  1.00  0.00    -0.206 F 
ATOM     71  C   UNL     1     -16.037  -1.427   1.649  1.00  0.00     0.022 A 
BRANCH  68  72
ATOM     72  S   UNL     1     -14.167  -3.314   2.502  1.00  0.00     0.124 S 
ATOM     73  O   UNL     1     -12.839  -3.010   1.973  1.00  0.00    -0.237 OA
ATOM     74  O   UNL     1     -14.224  -3.679   3.913  1.00  0.00    -0.237 OA
ATOM     75  O   UNL     1     -15.017  -4.107   1.617  1.00  0.00    -0.744 OA
ENDBRANCH  68  72
ENDBRANCH  51  65
BRANCH  52  76
ATOM     76  C   UNL     1      -9.837   7.778   8.047  1.00  0.00     0.023 A 
ATOM     77  C   UNL     1      -9.573   7.576   9.410  1.00  0.00     0.031 A 
ATOM     78  C   UNL     1      -9.365   8.959   7.448  1.00  0.00     0.131 A 
ATOM     79  C   UNL     1      -8.862   8.546  10.135  1.00  0.00     0.055 A 
ATOM     80  C   UNL     1      -8.629   9.905   8.165  1.00  0.00     0.041 A 
ATOM     81  F   UNL     1      -9.593   9.199   6.147  1.00  0.00    -0.206 F 
ATOM     82  C   UNL     1      -8.376   9.701   9.518  1.00  0.00     0.022 A 
BRANCH  79  83
ATOM     83  S   UNL     1      -8.588   8.280  11.908  1.00  0.00     0.124 S 
ATOM     84  O   UNL     1      -9.948   8.344  12.431  1.00  0.00    -0.237 OA
ATOM     85  O   UNL     1      -7.953   6.967  11.925  1.00  0.00    -0.237 OA
ATOM     86  O   UNL     1      -7.720   9.393  12.287  1.00  0.00    -0.744 OA
ENDBRANCH  79  83
ENDBRANCH  52  76
BRANCH  64  87
ATOM     87  C   UNL     1     -16.455   5.527   8.220  1.00  0.00     0.023 A 
ATOM     88  C   UNL     1     -17.134   6.740   8.020  1.00  0.00     0.031 A 
ATOM     89  C   UNL     1     -16.960   4.633   9.182  1.00  0.00     0.131 A 
ATOM     90  C   UNL     1     -18.271   7.038   8.786  1.00  0.00     0.055 A 
ATOM     91  C   UNL     1     -18.119   4.913   9.907  1.00  0.00     0.041 A 
ATOM     92  F   UNL     1     -16.352   3.458   9.408  1.00  0.00    -0.206 F 
ATOM     93  C   UNL     1     -18.779   6.124   9.715  1.00  0.00     0.022 A 
BRANCH  90  94
ATOM     94  S   UNL     1     -19.067   8.653   8.576  1.00  0.00     0.124 S 
ATOM     95  O   UNL     1     -18.018   9.566   9.018  1.00  0.00    -0.237 OA
ATOM     96  O   UNL     1     -19.369   8.673   7.149  1.00  0.00    -0.237 OA
ATOM     97  O   UNL     1     -20.234   8.578   9.453  1.00  0.00    -0.744 OA
ENDBRANCH  90  94
ENDBRANCH  64  87
ENDBRANCH  38  39
ENDBRANCH  31  33
ENDBRANCH  30  31
ENDBRANCH  29  30
ENDBRANCH  28  29
ENDBRANCH  27  28
ENDBRANCH   1  27
TORSDOF 22
