REMARK SMILES CCOc1ccc(-c2csc3ncn([C@H](C)C(=O)OCCOCCOCCOC(=O)c4ccc(-c5c6nc(c(-c7cc(S(=O)(=O)[O-])ccc7F)c7ccc([nH]7)c(-c7cc(S(=O)(=O)[O-])ccc7F)c7nc(c(-c8cc(S(=O)(=O)[O-])ccc8F)c8ccc5[nH]8)C=C7)C=C6)cc4)c(=O)c23)cc1
REMARK SMILES IDX 23 1 22 2 21 3 20 4 19 5 17 6 18 7 15 8 16 9 14 10 8 11 9 12
REMARK SMILES IDX 96 13 10 14 11 15 94 16 12 17 95 18 13 19 7 20 4 21 5 22
REMARK SMILES IDX 98 23 6 24 97 25 3 26 2 27 1 28 24 29 25 30 26 31 27 32
REMARK SMILES IDX 28 33 29 34 30 35 31 36 32 37 93 38 33 39 92 40 34 41 35 42
REMARK SMILES IDX 36 43 86 44 37 45 91 46 85 47 87 48 38 49 90 50 84 51 83 52
REMARK SMILES IDX 39 54 71 55 51 56 70 57 52 58 55 59 69 60 88 61 53 62 54 63
REMARK SMILES IDX 68 65 89 66 56 67 40 68 41 69 49 70 42 71 48 72 50 73 47 74
REMARK SMILES IDX 43 75 44 76 45 77 46 78 72 79 73 80 81 81 74 82 80 83 82 84
REMARK SMILES IDX 79 85 75 86 76 87 77 88 78 89 57 90 58 91 66 92 59 93 65 94
REMARK SMILES IDX 67 95 64 96 60 97 61 98 62 99 63 100
REMARK H PARENT 87 53 55 64
REMARK Flexibility Score: inf
ROOT
ATOM      1  C   UNL     1       8.772   5.460  -0.580  1.00  0.00     0.188 C 
ENDROOT
BRANCH   1   2
ATOM      2  O   UNL     1       7.918   6.008   0.396  1.00  0.00    -0.376 OA
BRANCH   2   3
ATOM      3  C   UNL     1       6.526   5.782   0.284  1.00  0.00     0.202 C 
BRANCH   3   4
ATOM      4  C   UNL     1       5.816   5.829  -1.084  1.00  0.00     0.261 C 
BRANCH   4   5
ATOM      5  O   UNL     1       6.472   5.125  -2.163  1.00  0.00    -0.462 OA
BRANCH   5   6
ATOM      6  C   UNL     1       6.782   5.862  -3.251  1.00  0.00     0.329 C 
ATOM      7  O   UNL     1       6.425   7.033  -3.374  1.00  0.00    -0.250 OA
BRANCH   6   8
ATOM      8  C   UNL     1       7.636   5.148  -4.338  1.00  0.00     0.198 C 
ATOM      9  C   UNL     1       8.016   3.674  -4.229  1.00  0.00     0.044 C 
BRANCH   8  10
ATOM     10  N   UNL     1       6.902   5.447  -5.570  1.00  0.00    -0.284 N 
ATOM     11  C   UNL     1       5.442   8.446  -7.208  1.00  0.00     0.007 A 
ATOM     12  C   UNL     1       4.426   8.364  -8.146  1.00  0.00     0.076 A 
ATOM     13  C   UNL     1       5.974   7.144  -6.938  1.00  0.00     0.085 A 
ATOM     14  S   UNL     1       4.031   6.752  -8.557  1.00  0.00    -0.123 S 
ATOM     15  C   UNL     1       5.175   6.145  -7.455  1.00  0.00     0.131 A 
ATOM     16  C   UNL     1       7.058   6.738  -6.074  1.00  0.00     0.263 A 
ATOM     17  N   UNL     1       5.193   4.834  -7.109  1.00  0.00    -0.227 NA
ATOM     18  O   UNL     1       8.029   7.447  -5.824  1.00  0.00    -0.268 OA
ATOM     19  C   UNL     1       5.995   4.567  -6.128  1.00  0.00     0.204 A 
BRANCH  11  20
ATOM     20  C   UNL     1       5.706   9.706  -6.512  1.00  0.00    -0.016 A 
ATOM     21  C   UNL     1       6.100  12.126  -5.131  1.00  0.00     0.119 A 
ATOM     22  C   UNL     1       7.189  11.426  -5.650  1.00  0.00     0.047 A 
ATOM     23  C   UNL     1       4.815  11.625  -5.303  1.00  0.00     0.047 A 
ATOM     24  C   UNL     1       6.993  10.220  -6.338  1.00  0.00     0.012 A 
ATOM     25  C   UNL     1       4.622  10.413  -5.966  1.00  0.00     0.012 A 
BRANCH  21  26
ATOM     26  O   UNL     1       6.329  13.363  -4.597  1.00  0.00    -0.494 OA
BRANCH  26  27
ATOM     27  C   UNL     1       5.943  13.503  -3.225  1.00  0.00     0.226 C 
ATOM     28  C   UNL     1       4.507  13.983  -3.074  1.00  0.00     0.049 C 
ENDBRANCH  26  27
ENDBRANCH  21  26
ENDBRANCH  11  20
ENDBRANCH   8  10
ENDBRANCH   6   8
ENDBRANCH   5   6
ENDBRANCH   4   5
ENDBRANCH   3   4
ENDBRANCH   2   3
ENDBRANCH   1   2
BRANCH   1  29
ATOM     29  C   UNL     1       8.746   3.960  -0.905  1.00  0.00     0.188 C 
BRANCH  29  30
ATOM     30  O   UNL     1       7.564   3.189  -0.948  1.00  0.00    -0.376 OA
BRANCH  30  31
ATOM     31  C   UNL     1       6.953   2.493   0.129  1.00  0.00     0.202 C 
BRANCH  31  32
ATOM     32  C   UNL     1       7.600   2.175   1.475  1.00  0.00     0.261 C 
BRANCH  32  33
ATOM     33  O   UNL     1       8.881   2.713   1.648  1.00  0.00    -0.460 OA
BRANCH  33  34
ATOM     34  C   UNL     1       9.845   1.983   1.049  1.00  0.00     0.338 C 
ATOM     35  O   UNL     1       9.694   1.015   0.319  1.00  0.00    -0.246 OA
BRANCH  34  36
ATOM     36  C   UNL     1      11.123   2.622   1.364  1.00  0.00     0.060 A 
ATOM     37  C   UNL     1      12.253   2.101   0.737  1.00  0.00     0.016 A 
ATOM     38  C   UNL     1      11.188   3.502   2.454  1.00  0.00     0.016 A 
ATOM     39  C   UNL     1      13.435   2.180   1.422  1.00  0.00     0.010 A 
ATOM     40  C   UNL     1      12.357   3.550   3.153  1.00  0.00     0.010 A 
ATOM     41  C   UNL     1      13.415   2.781   2.682  1.00  0.00    -0.014 A 
BRANCH  41  42
ATOM     42  C   UNL     1      14.541   2.562   3.549  1.00  0.00     0.031 A 
ATOM     43  C   UNL     1      15.651   3.473   3.251  1.00  0.00     0.074 A 
ATOM     44  C   UNL     1      14.478   1.673   4.555  1.00  0.00     0.049 A 
ATOM     45  N   UNL     1      16.758   3.191   2.653  1.00  0.00    -0.248 NA
ATOM     46  C   UNL     1      15.395   4.915   3.404  1.00  0.00     0.031 C 
ATOM     47  C   UNL     1      13.300   0.947   5.045  1.00  0.00     0.029 A 
ATOM     48  N   UNL     1      15.446   1.315   5.434  1.00  0.00    -0.354 N 
ATOM     49  C   UNL     1      17.454   4.390   2.629  1.00  0.00     0.074 A 
ATOM     50  C   UNL     1      16.472   5.419   2.806  1.00  0.00     0.031 C 
ATOM     51  C   UNL     1      13.577   0.423   6.261  1.00  0.00     0.029 A 
ATOM     52  C   UNL     1      14.977   0.669   6.571  1.00  0.00     0.049 A 
ATOM     53  H   UNL     1      16.401   1.498   5.280  1.00  0.00     0.167 HD
ATOM     54  C   UNL     1      18.798   4.404   2.834  1.00  0.00     0.034 A 
ATOM     55  C   UNL     1      15.675   0.439   7.715  1.00  0.00     0.034 A 
ATOM     56  C   UNL     1      19.365   3.091   2.583  1.00  0.00     0.049 A 
ATOM     57  C   UNL     1      17.117   0.535   7.366  1.00  0.00     0.074 A 
ATOM     58  C   UNL     1      19.363   2.236   1.497  1.00  0.00     0.029 A 
ATOM     59  N   UNL     1      19.707   2.310   3.668  1.00  0.00    -0.354 N 
ATOM     60  N   UNL     1      17.716  -0.305   6.566  1.00  0.00    -0.248 NA
ATOM     61  C   UNL     1      17.775   1.830   7.493  1.00  0.00     0.031 C 
ATOM     62  C   UNL     1      19.245   0.926   2.048  1.00  0.00     0.029 A 
ATOM     63  C   UNL     1      19.257   1.031   3.441  1.00  0.00     0.049 A 
ATOM     64  H   UNL     1      20.191   2.617   4.468  1.00  0.00     0.167 HD
ATOM     65  C   UNL     1      18.543   0.476   5.770  1.00  0.00     0.074 A 
ATOM     66  C   UNL     1      18.625   1.760   6.463  1.00  0.00     0.031 C 
ATOM     67  C   UNL     1      18.838   0.110   4.486  1.00  0.00     0.034 A 
BRANCH  54  68
ATOM     68  C   UNL     1      19.499   5.459   3.670  1.00  0.00     0.023 A 
ATOM     69  C   UNL     1      20.876   5.273   3.873  1.00  0.00     0.031 A 
ATOM     70  C   UNL     1      18.892   6.441   4.494  1.00  0.00     0.131 A 
ATOM     71  C   UNL     1      21.544   5.916   4.928  1.00  0.00     0.055 A 
ATOM     72  C   UNL     1      19.577   7.124   5.501  1.00  0.00     0.041 A 
ATOM     73  F   UNL     1      17.596   6.759   4.440  1.00  0.00    -0.206 F 
ATOM     74  C   UNL     1      20.903   6.834   5.752  1.00  0.00     0.022 A 
BRANCH  71  75
ATOM     75  S   UNL     1      23.223   5.375   5.315  1.00  0.00     0.124 S 
ATOM     76  O   UNL     1      23.038   3.934   5.446  1.00  0.00    -0.237 OA
ATOM     77  O   UNL     1      23.958   5.828   4.138  1.00  0.00    -0.237 OA
ATOM     78  O   UNL     1      23.527   6.084   6.555  1.00  0.00    -0.744 OA
ENDBRANCH  71  75
ENDBRANCH  54  68
BRANCH  55  79
ATOM     79  C   UNL     1      15.141   0.517   9.103  1.00  0.00     0.023 A 
ATOM     80  C   UNL     1      15.751  -0.118  10.204  1.00  0.00     0.031 A 
ATOM     81  C   UNL     1      14.101   1.431   9.396  1.00  0.00     0.131 A 
ATOM     82  C   UNL     1      15.311   0.164  11.521  1.00  0.00     0.055 A 
ATOM     83  C   UNL     1      13.664   1.697  10.694  1.00  0.00     0.041 A 
ATOM     84  F   UNL     1      13.524   2.161   8.428  1.00  0.00    -0.206 F 
ATOM     85  C   UNL     1      14.274   1.068  11.766  1.00  0.00     0.022 A 
BRANCH  82  86
ATOM     86  S   UNL     1      16.136  -0.597  12.958  1.00  0.00     0.124 S 
ATOM     87  O   UNL     1      15.902  -2.019  12.739  1.00  0.00    -0.237 OA
ATOM     88  O   UNL     1      17.511  -0.133  12.806  1.00  0.00    -0.237 OA
ATOM     89  O   UNL     1      15.423  -0.029  14.103  1.00  0.00    -0.744 OA
ENDBRANCH  82  86
ENDBRANCH  55  79
BRANCH  67  90
ATOM     90  C   UNL     1      18.515  -1.313   4.060  1.00  0.00     0.023 A 
ATOM     91  C   UNL     1      17.224  -1.892   4.078  1.00  0.00     0.031 A 
ATOM     92  C   UNL     1      19.559  -2.074   3.506  1.00  0.00     0.131 A 
ATOM     93  C   UNL     1      17.025  -3.191   3.567  1.00  0.00     0.055 A 
ATOM     94  C   UNL     1      19.354  -3.350   2.982  1.00  0.00     0.041 A 
ATOM     95  F   UNL     1      20.803  -1.571   3.431  1.00  0.00    -0.206 F 
ATOM     96  C   UNL     1      18.086  -3.916   3.017  1.00  0.00     0.022 A 
BRANCH  93  97
ATOM     97  S   UNL     1      15.377  -3.970   3.619  1.00  0.00     0.124 S 
ATOM     98  O   UNL     1      14.940  -3.755   4.992  1.00  0.00    -0.237 OA
ATOM     99  O   UNL     1      14.647  -3.232   2.591  1.00  0.00    -0.237 OA
ATOM    100  O   UNL     1      15.651  -5.368   3.279  1.00  0.00    -0.744 OA
ENDBRANCH  93  97
ENDBRANCH  67  90
ENDBRANCH  41  42
ENDBRANCH  34  36
ENDBRANCH  33  34
ENDBRANCH  32  33
ENDBRANCH  31  32
ENDBRANCH  30  31
ENDBRANCH  29  30
ENDBRANCH   1  29
TORSDOF 24
