REMARK SMILES Cn1cccc1C[NH2+]Cc1ccc(C(=O)OCCOCCOCCOC(=O)c2ccc(-c3c4nc(c(-c5cc(S(=O)(=O)[O-])ccc5F)c5ccc([nH]5)c(-c5cc(S(=O)(=O)[O-])ccc5F)c5nc(c(-c6cc(S(=O)(=O)[O-])ccc6F)c6ccc3[nH]6)C=C5)C=C4)cc2)cc1
REMARK SMILES IDX 20 1 19 2 18 3 17 4 16 5 14 6 15 7 13 8 10 9 11 10 92 11
REMARK SMILES IDX 12 12 91 13 9 14 8 15 7 18 6 19 1 20 2 21 3 22 4 23 5 24
REMARK SMILES IDX 21 25 22 26 23 27 24 28 25 29 26 30 27 31 28 32 29 33 90 34
REMARK SMILES IDX 30 35 89 36 31 37 32 38 33 39 83 40 34 41 88 42 82 43 84 44
REMARK SMILES IDX 35 45 87 46 81 47 80 48 36 50 68 51 48 52 67 53 49 54 52 55
REMARK SMILES IDX 66 56 85 57 50 58 51 59 65 61 86 62 53 63 37 64 38 65 46 66
REMARK SMILES IDX 39 67 45 68 47 69 44 70 40 71 41 72 42 73 43 74 69 75 70 76
REMARK SMILES IDX 78 77 71 78 77 79 79 80 76 81 72 82 73 83 74 84 75 85 54 86
REMARK SMILES IDX 55 87 63 88 56 89 62 90 64 91 61 92 57 93 58 94 59 95 60 96
REMARK H PARENT 8 16 8 17 84 49 52 60
REMARK Flexibility Score: inf
ROOT
ATOM      1  C   UNL     1       7.303  -5.368   3.062  1.00  0.00     0.188 C 
ENDROOT
BRANCH   1   2
ATOM      2  O   UNL     1       8.685  -5.197   2.806  1.00  0.00    -0.376 OA
BRANCH   2   3
ATOM      3  C   UNL     1       9.152  -4.116   2.016  1.00  0.00     0.202 C 
BRANCH   3   4
ATOM      4  C   UNL     1       8.388  -3.556   0.804  1.00  0.00     0.261 C 
BRANCH   4   5
ATOM      5  O   UNL     1       6.969  -3.471   0.949  1.00  0.00    -0.460 OA
BRANCH   5   6
ATOM      6  C   UNL     1       6.254  -4.311   0.161  1.00  0.00     0.338 C 
ATOM      7  O   UNL     1       6.695  -5.053  -0.704  1.00  0.00    -0.246 OA
BRANCH   6   8
ATOM      8  C   UNL     1       4.839  -4.327   0.594  1.00  0.00     0.060 A 
ATOM      9  C   UNL     1       2.112  -4.410   1.238  1.00  0.00     0.006 A 
ATOM     10  C   UNL     1       2.780  -5.575   0.832  1.00  0.00     0.010 A 
ATOM     11  C   UNL     1       2.868  -3.250   1.473  1.00  0.00     0.010 A 
ATOM     12  C   UNL     1       4.136  -5.533   0.509  1.00  0.00     0.016 A 
ATOM     13  C   UNL     1       4.214  -3.192   1.114  1.00  0.00     0.016 A 
BRANCH   9  14
ATOM     14  C   UNL     1       0.600  -4.439   1.361  1.00  0.00     0.297 C 
BRANCH  14  15
ATOM     15  N   UNL     1      -0.066  -3.147   1.174  1.00  0.00    -0.338 N 
ATOM     16  H   UNL     1      -1.066  -3.277   1.327  1.00  0.00     0.346 HD
ATOM     17  H   UNL     1       0.352  -2.499   1.842  1.00  0.00     0.346 HD
BRANCH  15  18
ATOM     18  C   UNL     1       0.125  -2.569  -0.153  1.00  0.00     0.316 C 
BRANCH  18  19
ATOM     19  C   UNL     1      -0.295  -1.130  -0.113  1.00  0.00     0.072 A 
ATOM     20  C   UNL     1       1.998  -0.015  -0.147  1.00  0.00     0.149 C 
ATOM     21  N   UNL     1       0.553  -0.041  -0.103  1.00  0.00    -0.350 N 
ATOM     22  C   UNL     1      -0.190   1.116  -0.033  1.00  0.00     0.085 A 
ATOM     23  C   UNL     1      -1.520   0.775  -0.009  1.00  0.00     0.020 A 
ATOM     24  C   UNL     1      -1.588  -0.632  -0.061  1.00  0.00     0.029 A 
ENDBRANCH  18  19
ENDBRANCH  15  18
ENDBRANCH  14  15
ENDBRANCH   9  14
ENDBRANCH   6   8
ENDBRANCH   5   6
ENDBRANCH   4   5
ENDBRANCH   3   4
ENDBRANCH   2   3
ENDBRANCH   1   2
BRANCH   1  25
ATOM     25  C   UNL     1       6.508  -4.245   3.756  1.00  0.00     0.188 C 
BRANCH  25  26
ATOM     26  O   UNL     1       7.155  -3.002   3.886  1.00  0.00    -0.376 OA
BRANCH  26  27
ATOM     27  C   UNL     1       8.027  -2.776   4.981  1.00  0.00     0.202 C 
BRANCH  27  28
ATOM     28  C   UNL     1       8.435  -3.804   6.062  1.00  0.00     0.261 C 
BRANCH  28  29
ATOM     29  O   UNL     1       7.994  -5.158   5.939  1.00  0.00    -0.460 OA
BRANCH  29  30
ATOM     30  C   UNL     1       6.935  -5.511   6.709  1.00  0.00     0.338 C 
ATOM     31  O   UNL     1       6.298  -4.782   7.455  1.00  0.00    -0.246 OA
BRANCH  30  32
ATOM     32  C   UNL     1       6.535  -6.888   6.361  1.00  0.00     0.060 A 
ATOM     33  C   UNL     1       5.319  -7.096   5.696  1.00  0.00     0.016 A 
ATOM     34  C   UNL     1       7.347  -7.970   6.706  1.00  0.00     0.016 A 
ATOM     35  C   UNL     1       4.904  -8.392   5.385  1.00  0.00     0.010 A 
ATOM     36  C   UNL     1       6.917  -9.269   6.414  1.00  0.00     0.010 A 
ATOM     37  C   UNL     1       5.683  -9.489   5.774  1.00  0.00    -0.014 A 
BRANCH  37  38
ATOM     38  C   UNL     1       5.135 -10.866   5.667  1.00  0.00     0.031 A 
ATOM     39  C   UNL     1       4.557 -11.506   6.901  1.00  0.00     0.074 A 
ATOM     40  C   UNL     1       5.135 -11.533   4.499  1.00  0.00     0.049 A 
ATOM     41  N   UNL     1       4.095 -12.717   7.073  1.00  0.00    -0.248 NA
ATOM     42  C   UNL     1       4.503 -10.662   8.104  1.00  0.00     0.031 C 
ATOM     43  C   UNL     1       5.616 -11.002   3.225  1.00  0.00     0.029 A 
ATOM     44  N   UNL     1       4.725 -12.809   4.199  1.00  0.00    -0.354 N 
ATOM     45  C   UNL     1       3.701 -12.785   8.406  1.00  0.00     0.074 A 
ATOM     46  C   UNL     1       4.017 -11.504   9.002  1.00  0.00     0.031 C 
ATOM     47  C   UNL     1       5.484 -11.951   2.281  1.00  0.00     0.029 A 
ATOM     48  C   UNL     1       4.955 -13.170   2.891  1.00  0.00     0.049 A 
ATOM     49  H   UNL     1       4.306 -13.409   4.857  1.00  0.00     0.167 HD
ATOM     50  C   UNL     1       3.124 -13.818   9.068  1.00  0.00     0.034 A 
ATOM     51  C   UNL     1       4.788 -14.357   2.269  1.00  0.00     0.034 A 
ATOM     52  C   UNL     1       2.830 -15.095   8.463  1.00  0.00     0.049 A 
ATOM     53  C   UNL     1       4.243 -15.528   3.055  1.00  0.00     0.074 A 
ATOM     54  C   UNL     1       2.235 -16.204   9.038  1.00  0.00     0.029 A 
ATOM     55  N   UNL     1       3.127 -15.443   7.151  1.00  0.00    -0.354 N 
ATOM     56  N   UNL     1       3.866 -15.580   4.312  1.00  0.00    -0.248 NA
ATOM     57  C   UNL     1       4.096 -16.800   2.333  1.00  0.00     0.031 C 
ATOM     58  C   UNL     1       2.250 -17.245   8.105  1.00  0.00     0.029 A 
ATOM     59  C   UNL     1       2.766 -16.761   6.913  1.00  0.00     0.049 A 
ATOM     60  H   UNL     1       3.534 -14.841   6.486  1.00  0.00     0.167 HD
ATOM     61  C   UNL     1       3.406 -16.880   4.519  1.00  0.00     0.074 A 
ATOM     62  C   UNL     1       3.539 -17.572   3.255  1.00  0.00     0.031 C 
ATOM     63  C   UNL     1       2.913 -17.448   5.650  1.00  0.00     0.034 A 
BRANCH  50  64
ATOM     64  C   UNL     1       2.829 -13.623  10.536  1.00  0.00     0.023 A 
ATOM     65  C   UNL     1       1.923 -12.648  10.989  1.00  0.00     0.031 A 
ATOM     66  C   UNL     1       3.490 -14.405  11.501  1.00  0.00     0.131 A 
ATOM     67  C   UNL     1       1.760 -12.429  12.366  1.00  0.00     0.055 A 
ATOM     68  C   UNL     1       3.256 -14.241  12.868  1.00  0.00     0.041 A 
ATOM     69  F   UNL     1       4.386 -15.334  11.132  1.00  0.00    -0.206 F 
ATOM     70  C   UNL     1       2.399 -13.238  13.308  1.00  0.00     0.022 A 
BRANCH  67  71
ATOM     71  S   UNL     1       0.823 -10.973  12.906  1.00  0.00     0.124 S 
ATOM     72  O   UNL     1       1.563  -9.890  12.261  1.00  0.00    -0.237 OA
ATOM     73  O   UNL     1      -0.509 -11.241  12.377  1.00  0.00    -0.237 OA
ATOM     74  O   UNL     1       0.938 -11.013  14.362  1.00  0.00    -0.744 OA
ENDBRANCH  67  71
ENDBRANCH  50  64
BRANCH  51  75
ATOM     75  C   UNL     1       5.183 -14.525   0.839  1.00  0.00     0.023 A 
ATOM     76  C   UNL     1       4.238 -14.871  -0.140  1.00  0.00     0.031 A 
ATOM     77  C   UNL     1       6.527 -14.408   0.442  1.00  0.00     0.131 A 
ATOM     78  C   UNL     1       4.656 -15.135  -1.455  1.00  0.00     0.055 A 
ATOM     79  C   UNL     1       6.929 -14.611  -0.879  1.00  0.00     0.041 A 
ATOM     80  F   UNL     1       7.475 -14.090   1.338  1.00  0.00    -0.206 F 
ATOM     81  C   UNL     1       5.992 -14.991  -1.835  1.00  0.00     0.022 A 
BRANCH  78  82
ATOM     82  S   UNL     1       3.439 -15.766  -2.643  1.00  0.00     0.124 S 
ATOM     83  O   UNL     1       2.989 -16.987  -1.985  1.00  0.00    -0.237 OA
ATOM     84  O   UNL     1       2.474 -14.673  -2.698  1.00  0.00    -0.237 OA
ATOM     85  O   UNL     1       4.223 -15.965  -3.860  1.00  0.00    -0.744 OA
ENDBRANCH  78  82
ENDBRANCH  51  75
BRANCH  63  86
ATOM     86  C   UNL     1       2.431 -18.878   5.556  1.00  0.00     0.023 A 
ATOM     87  C   UNL     1       3.307 -19.945   5.289  1.00  0.00     0.031 A 
ATOM     88  C   UNL     1       1.067 -19.177   5.735  1.00  0.00     0.131 A 
ATOM     89  C   UNL     1       2.803 -21.248   5.150  1.00  0.00     0.055 A 
ATOM     90  C   UNL     1       0.582 -20.484   5.665  1.00  0.00     0.041 A 
ATOM     91  F   UNL     1       0.180 -18.201   5.987  1.00  0.00    -0.206 F 
ATOM     92  C   UNL     1       1.450 -21.527   5.357  1.00  0.00     0.022 A 
BRANCH  89  93
ATOM     93  S   UNL     1       3.923 -22.562   4.593  1.00  0.00     0.124 S 
ATOM     94  O   UNL     1       4.395 -22.036   3.316  1.00  0.00    -0.237 OA
ATOM     95  O   UNL     1       4.910 -22.608   5.667  1.00  0.00    -0.237 OA
ATOM     96  O   UNL     1       3.056 -23.735   4.497  1.00  0.00    -0.744 OA
ENDBRANCH  89  93
ENDBRANCH  63  86
ENDBRANCH  37  38
ENDBRANCH  30  32
ENDBRANCH  29  30
ENDBRANCH  28  29
ENDBRANCH  27  28
ENDBRANCH  26  27
ENDBRANCH  25  26
ENDBRANCH   1  25
TORSDOF 24
