REMARK SMILES CC(=O)NS(=O)(=O)c1cc(-c2ccn(C(F)F)c(=O)c2)ccc1C(=O)OCCOCCOCCOC(=O)c1ccc(-c2c3nc(c(-c4cc(S(=O)(=O)[O-])ccc4F)c4ccc([nH]4)c(-c4cc(S(=O)(=O)[O-])ccc4F)c4nc(c(-c5cc(S(=O)(=O)[O-])ccc5F)c5ccc2[nH]5)C=C4)C=C3)cc1
REMARK SMILES IDX 31 1 30 2 29 3 28 4 27 5 26 6 24 7 25 8 23 9 8 10 9 11 10 12
REMARK SMILES IDX 22 13 21 14 5 15 6 16 7 17 4 18 1 19 2 20 3 21 11 23 12 24
REMARK SMILES IDX 20 25 13 26 18 27 14 28 19 29 15 30 16 31 17 32 32 33 33 34
REMARK SMILES IDX 34 35 35 36 36 37 37 38 38 39 39 40 100 41 40 42 99 43 41 44
REMARK SMILES IDX 42 45 43 46 93 47 44 48 98 49 92 50 94 51 45 52 97 53 91 54
REMARK SMILES IDX 90 55 46 57 78 58 58 59 77 60 59 61 62 62 76 63 95 64 60 65
REMARK SMILES IDX 61 66 75 68 96 69 63 70 47 71 48 72 56 73 49 74 55 75 57 76
REMARK SMILES IDX 54 77 50 78 51 79 52 80 53 81 79 82 80 83 88 84 81 85 87 86
REMARK SMILES IDX 89 87 86 88 82 89 83 90 84 91 85 92 64 93 65 94 73 95 66 96
REMARK SMILES IDX 72 97 74 98 71 99 67 100 68 101 69 102 70 103
REMARK H PARENT 4 22 94 56 62 67
REMARK Flexibility Score: inf
ROOT
ATOM      1  C   UNL     1       3.656   0.940   1.851  1.00  0.00     0.188 C 
ENDROOT
BRANCH   1   2
ATOM      2  C   UNL     1       2.608   2.073   1.839  1.00  0.00     0.188 C 
BRANCH   2   3
ATOM      3  O   UNL     1       1.703   2.045   2.936  1.00  0.00    -0.376 OA
BRANCH   3   4
ATOM      4  C   UNL     1       0.379   1.642   2.625  1.00  0.00     0.202 C 
BRANCH   4   5
ATOM      5  C   UNL     1       0.242   0.122   2.576  1.00  0.00     0.261 C 
BRANCH   5   6
ATOM      6  O   UNL     1       1.013  -0.521   1.544  1.00  0.00    -0.460 OA
BRANCH   6   7
ATOM      7  C   UNL     1       0.724  -0.214   0.266  1.00  0.00     0.339 C 
ATOM      8  O   UNL     1      -0.114   0.579  -0.133  1.00  0.00    -0.246 OA
BRANCH   7   9
ATOM      9  C   UNL     1       1.619  -0.962  -0.632  1.00  0.00     0.080 A 
ATOM     10  C   UNL     1       1.762  -2.349  -0.606  1.00  0.00     0.103 A 
ATOM     11  C   UNL     1       2.633  -2.982  -1.514  1.00  0.00     0.032 A 
ATOM     12  C   UNL     1       3.327  -2.245  -2.483  1.00  0.00    -0.017 A 
ATOM     13  C   UNL     1       2.313  -0.217  -1.598  1.00  0.00     0.018 A 
ATOM     14  C   UNL     1       3.158  -0.854  -2.513  1.00  0.00     0.010 A 
BRANCH  10  15
ATOM     15  S   UNL     1       0.782  -3.413   0.413  1.00  0.00     0.264 S 
ATOM     16  O   UNL     1       1.485  -3.567   1.660  1.00  0.00    -0.201 OA
ATOM     17  O   UNL     1       0.436  -4.571  -0.393  1.00  0.00    -0.201 OA
BRANCH  15  18
ATOM     18  N   UNL     1      -0.633  -2.644   0.757  1.00  0.00    -0.249 N 
ATOM     19  C   UNL     1      -1.527  -2.240  -1.549  1.00  0.00     0.115 C 
ATOM     20  C   UNL     1      -1.691  -2.225  -0.057  1.00  0.00     0.230 C 
ATOM     21  O   UNL     1      -2.688  -1.770   0.486  1.00  0.00    -0.274 OA
ATOM     22  H   UNL     1      -0.757  -2.441   1.712  1.00  0.00     0.183 HD
ENDBRANCH  15  18
ENDBRANCH  10  15
BRANCH  12  23
ATOM     23  C   UNL     1       4.171  -2.910  -3.504  1.00  0.00    -0.011 A 
ATOM     24  C   UNL     1       5.522  -2.480  -3.822  1.00  0.00     0.027 A 
ATOM     25  C   UNL     1       3.635  -3.916  -4.220  1.00  0.00     0.080 A 
ATOM     26  C   UNL     1       6.195  -3.032  -4.840  1.00  0.00     0.095 A 
ATOM     27  C   UNL     1       4.388  -4.571  -5.326  1.00  0.00     0.255 A 
ATOM     28  N   UNL     1       5.639  -4.047  -5.596  1.00  0.00    -0.258 N 
ATOM     29  O   UNL     1       3.857  -5.505  -5.920  1.00  0.00    -0.269 OA
BRANCH  28  30
ATOM     30  C   UNL     1       6.355  -4.603  -6.715  1.00  0.00     0.451 C 
ATOM     31  F   UNL     1       6.601  -5.924  -6.529  1.00  0.00    -0.185 F 
ATOM     32  F   UNL     1       5.643  -4.472  -7.862  1.00  0.00    -0.185 F 
ENDBRANCH  28  30
ENDBRANCH  12  23
ENDBRANCH   7   9
ENDBRANCH   6   7
ENDBRANCH   5   6
ENDBRANCH   4   5
ENDBRANCH   3   4
ENDBRANCH   2   3
ENDBRANCH   1   2
BRANCH   1  33
ATOM     33  O   UNL     1       4.121   0.389   3.075  1.00  0.00    -0.376 OA
BRANCH  33  34
ATOM     34  C   UNL     1       4.207   1.215   4.223  1.00  0.00     0.202 C 
BRANCH  34  35
ATOM     35  C   UNL     1       5.261   2.328   4.215  1.00  0.00     0.261 C 
BRANCH  35  36
ATOM     36  O   UNL     1       5.151   3.227   3.100  1.00  0.00    -0.460 OA
BRANCH  36  37
ATOM     37  C   UNL     1       6.073   3.055   2.119  1.00  0.00     0.338 C 
ATOM     38  O   UNL     1       7.005   2.270   2.120  1.00  0.00    -0.246 OA
BRANCH  37  39
ATOM     39  C   UNL     1       5.667   3.824   0.919  1.00  0.00     0.060 A 
ATOM     40  C   UNL     1       5.667   3.164  -0.320  1.00  0.00     0.016 A 
ATOM     41  C   UNL     1       5.315   5.173   0.995  1.00  0.00     0.016 A 
ATOM     42  C   UNL     1       5.349   3.855  -1.490  1.00  0.00     0.010 A 
ATOM     43  C   UNL     1       5.031   5.875  -0.181  1.00  0.00     0.010 A 
ATOM     44  C   UNL     1       5.082   5.228  -1.431  1.00  0.00    -0.014 A 
BRANCH  44  45
ATOM     45  C   UNL     1       5.131   6.047  -2.668  1.00  0.00     0.031 A 
ATOM     46  C   UNL     1       6.458   6.645  -3.052  1.00  0.00     0.074 A 
ATOM     47  C   UNL     1       4.042   6.275  -3.423  1.00  0.00     0.049 A 
ATOM     48  N   UNL     1       6.742   7.522  -3.978  1.00  0.00    -0.248 NA
ATOM     49  C   UNL     1       7.620   6.189  -2.273  1.00  0.00     0.031 C 
ATOM     50  C   UNL     1       2.720   5.693  -3.204  1.00  0.00     0.029 A 
ATOM     51  N   UNL     1       3.877   7.083  -4.522  1.00  0.00    -0.354 N 
ATOM     52  C   UNL     1       8.113   7.737  -3.883  1.00  0.00     0.074 A 
ATOM     53  C   UNL     1       8.597   6.910  -2.799  1.00  0.00     0.031 C 
ATOM     54  C   UNL     1       1.870   6.188  -4.122  1.00  0.00     0.029 A 
ATOM     55  C   UNL     1       2.575   7.159  -4.960  1.00  0.00     0.049 A 
ATOM     56  H   UNL     1       4.620   7.562  -4.955  1.00  0.00     0.167 HD
ATOM     57  C   UNL     1       8.897   8.554  -4.627  1.00  0.00     0.034 A 
ATOM     58  C   UNL     1       2.014   7.957  -5.894  1.00  0.00     0.034 A 
ATOM     59  C   UNL     1       8.398   9.396  -5.683  1.00  0.00     0.049 A 
ATOM     60  C   UNL     1       2.885   8.947  -6.637  1.00  0.00     0.074 A 
ATOM     61  C   UNL     1       9.097  10.279  -6.486  1.00  0.00     0.029 A 
ATOM     62  N   UNL     1       7.067   9.471  -6.072  1.00  0.00    -0.354 N 
ATOM     63  N   UNL     1       4.175   9.164  -6.522  1.00  0.00    -0.248 NA
ATOM     64  C   UNL     1       2.221   9.803  -7.632  1.00  0.00     0.031 C 
ATOM     65  C   UNL     1       8.181  10.934  -7.316  1.00  0.00     0.029 A 
ATOM     66  C   UNL     1       6.921  10.404  -7.086  1.00  0.00     0.049 A 
ATOM     67  H   UNL     1       6.335   8.940  -5.685  1.00  0.00     0.167 HD
ATOM     68  C   UNL     1       4.480  10.152  -7.458  1.00  0.00     0.074 A 
ATOM     69  C   UNL     1       3.242  10.489  -8.126  1.00  0.00     0.031 C 
ATOM     70  C   UNL     1       5.678  10.722  -7.747  1.00  0.00     0.034 A 
BRANCH  57  71
ATOM     71  C   UNL     1      10.358   8.619  -4.262  1.00  0.00     0.023 A 
ATOM     72  C   UNL     1      11.202   7.503  -4.396  1.00  0.00     0.031 A 
ATOM     73  C   UNL     1      10.900   9.796  -3.717  1.00  0.00     0.131 A 
ATOM     74  C   UNL     1      12.521   7.564  -3.921  1.00  0.00     0.055 A 
ATOM     75  C   UNL     1      12.236   9.876  -3.321  1.00  0.00     0.041 A 
ATOM     76  F   UNL     1      10.132  10.883  -3.540  1.00  0.00    -0.206 F 
ATOM     77  C   UNL     1      13.050   8.750  -3.407  1.00  0.00     0.022 A 
BRANCH  74  78
ATOM     78  S   UNL     1      13.483   6.029  -3.843  1.00  0.00     0.124 S 
ATOM     79  O   UNL     1      12.646   5.199  -2.979  1.00  0.00    -0.237 OA
ATOM     80  O   UNL     1      13.549   5.627  -5.244  1.00  0.00    -0.237 OA
ATOM     81  O   UNL     1      14.752   6.449  -3.253  1.00  0.00    -0.744 OA
ENDBRANCH  74  78
ENDBRANCH  57  71
BRANCH  58  82
ATOM     82  C   UNL     1       0.543   7.916  -6.144  1.00  0.00     0.023 A 
ATOM     83  C   UNL     1       0.029   7.538  -7.394  1.00  0.00     0.031 A 
ATOM     84  C   UNL     1      -0.368   8.326  -5.154  1.00  0.00     0.131 A 
ATOM     85  C   UNL     1      -1.352   7.621  -7.637  1.00  0.00     0.055 A 
ATOM     86  C   UNL     1      -1.744   8.357  -5.383  1.00  0.00     0.041 A 
ATOM     87  F   UNL     1       0.070   8.704  -3.942  1.00  0.00    -0.206 F 
ATOM     88  C   UNL     1      -2.243   8.016  -6.636  1.00  0.00     0.022 A 
BRANCH  85  89
ATOM     89  S   UNL     1      -1.962   7.288  -9.313  1.00  0.00     0.124 S 
ATOM     90  O   UNL     1      -1.246   8.292 -10.092  1.00  0.00    -0.237 OA
ATOM     91  O   UNL     1      -1.547   5.903  -9.514  1.00  0.00    -0.237 OA
ATOM     92  O   UNL     1      -3.403   7.495  -9.198  1.00  0.00    -0.744 OA
ENDBRANCH  85  89
ENDBRANCH  58  82
BRANCH  70  93
ATOM     93  C   UNL     1       5.723  11.712  -8.885  1.00  0.00     0.023 A 
ATOM     94  C   UNL     1       5.135  12.985  -8.793  1.00  0.00     0.031 A 
ATOM     95  C   UNL     1       6.399  11.377 -10.073  1.00  0.00     0.131 A 
ATOM     96  C   UNL     1       5.202  13.863  -9.886  1.00  0.00     0.055 A 
ATOM     97  C   UNL     1       6.505  12.273 -11.137  1.00  0.00     0.041 A 
ATOM     98  F   UNL     1       6.980  10.174 -10.211  1.00  0.00    -0.206 F 
ATOM     99  C   UNL     1       5.897  13.521 -11.050  1.00  0.00     0.022 A 
BRANCH  96 100
ATOM    100  S   UNL     1       4.318  15.445  -9.793  1.00  0.00     0.124 S 
ATOM    101  O   UNL     1       2.937  15.011  -9.608  1.00  0.00    -0.237 OA
ATOM    102  O   UNL     1       4.945  16.086  -8.642  1.00  0.00    -0.237 OA
ATOM    103  O   UNL     1       4.603  16.074 -11.082  1.00  0.00    -0.744 OA
ENDBRANCH  96 100
ENDBRANCH  70  93
ENDBRANCH  44  45
ENDBRANCH  37  39
ENDBRANCH  36  37
ENDBRANCH  35  36
ENDBRANCH  34  35
ENDBRANCH  33  34
ENDBRANCH   1  33
TORSDOF 24
