REMARK SMILES O=C(Cc1cccn1-c1ccccc1F)OCCOCCOCCOC(=O)c1ccc(-c2c3nc(c(-c4cc(S(=O)(=O)[O-])ccc4F)c4ccc([nH]4)c(-c4cc(S(=O)(=O)[O-])ccc4F)c4nc(c(-c5cc(S(=O)(=O)[O-])ccc5F)c5ccc2[nH]5)C=C4)C=C3)cc1
REMARK SMILES IDX 21 1 20 2 19 3 18 4 17 5 16 6 2 7 1 8 3 9 4 10 5 11 8 12
REMARK SMILES IDX 6 13 7 14 9 15 10 16 14 17 11 18 13 19 15 20 12 21 22 22
REMARK SMILES IDX 23 23 24 24 25 25 26 26 27 27 28 28 29 29 90 30 30 31 89 32
REMARK SMILES IDX 31 33 32 34 33 35 83 36 34 37 88 38 82 39 84 40 35 41 87 42
REMARK SMILES IDX 81 43 80 44 36 46 68 47 48 48 67 49 49 50 52 51 66 52 85 53
REMARK SMILES IDX 50 54 51 55 65 57 86 58 53 59 37 60 38 61 46 62 39 63 45 64
REMARK SMILES IDX 47 65 44 66 40 67 41 68 42 69 43 70 69 71 70 72 78 73 71 74
REMARK SMILES IDX 77 75 79 76 76 77 72 78 73 79 74 80 75 81 54 82 55 83 63 84
REMARK SMILES IDX 56 85 62 86 64 87 61 88 57 89 58 90 59 91 60 92
REMARK H PARENT 84 45 52 56
REMARK Flexibility Score: inf
ROOT
ATOM      1  C   UNL     1       2.292   2.778   0.623  1.00  0.00     0.188 C 
ENDROOT
BRANCH   1   2
ATOM      2  C   UNL     1       3.063   1.684   1.389  1.00  0.00     0.188 C 
BRANCH   2   3
ATOM      3  O   UNL     1       4.465   1.663   1.207  1.00  0.00    -0.376 OA
BRANCH   3   4
ATOM      4  C   UNL     1       5.026   0.760   0.268  1.00  0.00     0.202 C 
BRANCH   4   5
ATOM      5  C   UNL     1       4.347   0.639  -1.098  1.00  0.00     0.261 C 
BRANCH   5   6
ATOM      6  O   UNL     1       2.950   0.285  -1.108  1.00  0.00    -0.463 OA
BRANCH   6   7
ATOM      7  C   UNL     1       2.477  -0.975  -0.963  1.00  0.00     0.311 C 
ATOM      8  O   UNL     1       1.549  -1.366  -1.665  1.00  0.00    -0.252 OA
BRANCH   7   9
ATOM      9  C   UNL     1       2.986  -1.770   0.215  1.00  0.00     0.177 C 
BRANCH   9  10
ATOM     10  C   UNL     1       3.808  -2.953  -0.185  1.00  0.00     0.034 A 
ATOM     11  C   UNL     1       5.020  -2.977  -0.858  1.00  0.00     0.024 A 
ATOM     12  N   UNL     1       3.544  -4.248   0.250  1.00  0.00    -0.318 N 
ATOM     13  C   UNL     1       5.516  -4.295  -0.826  1.00  0.00     0.020 A 
ATOM     14  C   UNL     1       4.611  -5.046  -0.116  1.00  0.00     0.091 A 
BRANCH  12  15
ATOM     15  C   UNL     1       2.484  -4.662   1.090  1.00  0.00     0.081 A 
ATOM     16  C   UNL     1       2.782  -5.333   2.281  1.00  0.00     0.030 A 
ATOM     17  C   UNL     1       1.164  -4.321   0.795  1.00  0.00     0.147 A 
ATOM     18  C   UNL     1       1.759  -5.583   3.200  1.00  0.00     0.002 A 
ATOM     19  C   UNL     1       0.146  -4.576   1.707  1.00  0.00     0.041 A 
ATOM     20  F   UNL     1       0.844  -3.750  -0.372  1.00  0.00    -0.205 F 
ATOM     21  C   UNL     1       0.447  -5.194   2.920  1.00  0.00     0.003 A 
ENDBRANCH  12  15
ENDBRANCH   9  10
ENDBRANCH   7   9
ENDBRANCH   6   7
ENDBRANCH   5   6
ENDBRANCH   4   5
ENDBRANCH   3   4
ENDBRANCH   2   3
ENDBRANCH   1   2
BRANCH   1  22
ATOM     22  O   UNL     1       2.928   3.753  -0.194  1.00  0.00    -0.376 OA
BRANCH  22  23
ATOM     23  C   UNL     1       4.258   4.199   0.014  1.00  0.00     0.202 C 
BRANCH  23  24
ATOM     24  C   UNL     1       4.625   4.958   1.284  1.00  0.00     0.261 C 
BRANCH  24  25
ATOM     25  O   UNL     1       4.467   4.194   2.471  1.00  0.00    -0.460 OA
BRANCH  25  26
ATOM     26  C   UNL     1       3.280   4.414   3.070  1.00  0.00     0.338 C 
ATOM     27  O   UNL     1       2.337   5.047   2.631  1.00  0.00    -0.246 OA
BRANCH  26  28
ATOM     28  C   UNL     1       3.281   3.872   4.430  1.00  0.00     0.060 A 
ATOM     29  C   UNL     1       2.020   3.754   5.023  1.00  0.00     0.016 A 
ATOM     30  C   UNL     1       4.463   3.949   5.172  1.00  0.00     0.016 A 
ATOM     31  C   UNL     1       1.913   4.001   6.370  1.00  0.00     0.010 A 
ATOM     32  C   UNL     1       4.351   4.232   6.515  1.00  0.00     0.010 A 
ATOM     33  C   UNL     1       3.071   4.350   7.071  1.00  0.00    -0.014 A 
BRANCH  33  34
ATOM     34  C   UNL     1       2.911   4.886   8.424  1.00  0.00     0.031 A 
ATOM     35  C   UNL     1       2.915   3.786   9.470  1.00  0.00     0.074 A 
ATOM     36  C   UNL     1       2.754   6.243   8.499  1.00  0.00     0.049 A 
ATOM     37  N   UNL     1       2.402   3.772  10.659  1.00  0.00    -0.248 NA
ATOM     38  C   UNL     1       3.500   2.463   9.110  1.00  0.00     0.031 C 
ATOM     39  C   UNL     1       2.734   7.166   7.335  1.00  0.00     0.029 A 
ATOM     40  N   UNL     1       2.575   7.123   9.542  1.00  0.00    -0.354 N 
ATOM     41  C   UNL     1       2.797   2.563  11.255  1.00  0.00     0.074 A 
ATOM     42  C   UNL     1       3.332   1.740  10.215  1.00  0.00     0.031 C 
ATOM     43  C   UNL     1       2.492   8.436   7.727  1.00  0.00     0.029 A 
ATOM     44  C   UNL     1       2.364   8.475   9.170  1.00  0.00     0.049 A 
ATOM     45  H   UNL     1       2.593   6.833  10.482  1.00  0.00     0.167 HD
ATOM     46  C   UNL     1       2.799   2.353  12.599  1.00  0.00     0.034 A 
ATOM     47  C   UNL     1       2.079   9.550   9.965  1.00  0.00     0.034 A 
ATOM     48  C   UNL     1       2.294   3.487  13.297  1.00  0.00     0.049 A 
ATOM     49  C   UNL     1       2.178   9.049  11.350  1.00  0.00     0.074 A 
ATOM     50  C   UNL     1       1.037   4.004  13.465  1.00  0.00     0.029 A 
ATOM     51  N   UNL     1       3.211   4.424  13.712  1.00  0.00    -0.354 N 
ATOM     52  N   UNL     1       3.281   8.713  11.949  1.00  0.00    -0.248 NA
ATOM     53  C   UNL     1       0.939   8.830  12.104  1.00  0.00     0.031 C 
ATOM     54  C   UNL     1       1.241   5.394  13.621  1.00  0.00     0.029 A 
ATOM     55  C   UNL     1       2.614   5.660  13.613  1.00  0.00     0.049 A 
ATOM     56  H   UNL     1       4.127   4.243  14.024  1.00  0.00     0.167 HD
ATOM     57  C   UNL     1       2.843   7.964  13.014  1.00  0.00     0.074 A 
ATOM     58  C   UNL     1       1.451   8.302  13.211  1.00  0.00     0.031 C 
ATOM     59  C   UNL     1       3.465   6.800  13.327  1.00  0.00     0.034 A 
BRANCH  46  60
ATOM     60  C   UNL     1       3.407   1.242  13.396  1.00  0.00     0.023 A 
ATOM     61  C   UNL     1       2.874   1.013  14.683  1.00  0.00     0.031 A 
ATOM     62  C   UNL     1       4.614   0.597  13.086  1.00  0.00     0.131 A 
ATOM     63  C   UNL     1       3.558   0.234  15.623  1.00  0.00     0.055 A 
ATOM     64  C   UNL     1       5.271  -0.225  14.010  1.00  0.00     0.041 A 
ATOM     65  F   UNL     1       5.240   0.803  11.918  1.00  0.00    -0.206 F 
ATOM     66  C   UNL     1       4.757  -0.391  15.294  1.00  0.00     0.022 A 
BRANCH  63  67
ATOM     67  S   UNL     1       2.912   0.167  17.317  1.00  0.00     0.124 S 
ATOM     68  O   UNL     1       2.813   1.578  17.671  1.00  0.00    -0.237 OA
ATOM     69  O   UNL     1       1.645  -0.534  17.129  1.00  0.00    -0.237 OA
ATOM     70  O   UNL     1       3.934  -0.586  18.040  1.00  0.00    -0.744 OA
ENDBRANCH  63  67
ENDBRANCH  46  60
BRANCH  47  71
ATOM     71  C   UNL     1       1.640  10.992   9.793  1.00  0.00     0.023 A 
ATOM     72  C   UNL     1       1.384  11.637   8.571  1.00  0.00     0.031 A 
ATOM     73  C   UNL     1       1.353  11.774  10.954  1.00  0.00     0.131 A 
ATOM     74  C   UNL     1       0.815  12.939   8.550  1.00  0.00     0.055 A 
ATOM     75  C   UNL     1       0.728  13.022  10.929  1.00  0.00     0.041 A 
ATOM     76  F   UNL     1       1.651  11.345  12.189  1.00  0.00    -0.206 F 
ATOM     77  C   UNL     1       0.442  13.608   9.717  1.00  0.00     0.022 A 
BRANCH  74  78
ATOM     78  S   UNL     1       0.510  13.828   6.994  1.00  0.00     0.124 S 
ATOM     79  O   UNL     1       1.582  14.819   7.000  1.00  0.00    -0.237 OA
ATOM     80  O   UNL     1       0.617  12.784   5.980  1.00  0.00    -0.237 OA
ATOM     81  O   UNL     1      -0.835  14.364   7.193  1.00  0.00    -0.744 OA
ENDBRANCH  74  78
ENDBRANCH  47  71
BRANCH  59  82
ATOM     82  C   UNL     1       4.915   6.728  12.883  1.00  0.00     0.023 A 
ATOM     83  C   UNL     1       5.896   7.508  13.517  1.00  0.00     0.031 A 
ATOM     84  C   UNL     1       5.335   5.975  11.773  1.00  0.00     0.131 A 
ATOM     85  C   UNL     1       7.223   7.511  13.041  1.00  0.00     0.055 A 
ATOM     86  C   UNL     1       6.653   5.962  11.307  1.00  0.00     0.041 A 
ATOM     87  F   UNL     1       4.465   5.236  11.090  1.00  0.00    -0.206 F 
ATOM     88  C   UNL     1       7.609   6.736  11.944  1.00  0.00     0.022 A 
BRANCH  85  89
ATOM     89  S   UNL     1       8.472   8.511  13.894  1.00  0.00     0.124 S 
ATOM     90  O   UNL     1       8.143   9.864  13.460  1.00  0.00    -0.237 OA
ATOM     91  O   UNL     1       8.214   8.211  15.299  1.00  0.00    -0.237 OA
ATOM     92  O   UNL     1       9.737   7.987  13.379  1.00  0.00    -0.744 OA
ENDBRANCH  85  89
ENDBRANCH  59  82
ENDBRANCH  33  34
ENDBRANCH  26  28
ENDBRANCH  25  26
ENDBRANCH  24  25
ENDBRANCH  23  24
ENDBRANCH  22  23
ENDBRANCH   1  22
TORSDOF 22
