REMARK SMILES COc1cc(Cl)c(C)cc1N1C(=O)C[C@H](Nc2cc(C(=O)OCCOCCOCCOC(=O)c3ccc(-c4c5nc(c(-c6cc(S(=O)(=O)[O-])ccc6F)c6ccc([nH]6)c(-c6cc(S(=O)(=O)[O-])ccc6F)c6nc(c(-c7cc(S(=O)(=O)[O-])ccc7F)c7ccc4[nH]7)C=C6)C=C5)cc3)ccc2C)C1=O
REMARK SMILES IDX 26 1 25 2 24 3 23 4 22 5 20 6 21 7 19 8 17 9 18 10 99 11
REMARK SMILES IDX 98 12 100 13 97 14 16 15 15 17 11 18 12 19 101 20 13 21
REMARK SMILES IDX 14 22 102 23 10 24 3 25 4 26 5 27 9 28 6 29 7 30 8 31 2 32
REMARK SMILES IDX 1 33 27 34 28 35 29 36 30 37 31 38 32 39 33 40 34 41 35 42
REMARK SMILES IDX 96 43 36 44 95 45 37 46 38 47 39 48 89 49 40 50 94 51 88 52
REMARK SMILES IDX 90 53 41 54 93 55 87 56 86 57 42 59 74 60 54 61 73 62 55 63
REMARK SMILES IDX 58 64 72 65 91 66 56 67 57 68 71 70 92 71 59 72 43 73 44 74
REMARK SMILES IDX 52 75 45 76 51 77 53 78 50 79 46 80 47 81 48 82 49 83 75 84
REMARK SMILES IDX 76 85 84 86 77 87 83 88 85 89 82 90 78 91 79 92 80 93 81 94
REMARK SMILES IDX 60 95 61 96 69 97 62 98 68 99 70 100 67 101 63 102 64 103
REMARK SMILES IDX 65 104 66 105
REMARK H PARENT 16 16 90 58 58 69
REMARK Flexibility Score: inf
ROOT
ATOM      1  C   UNL     1       3.344   3.742  -8.498  1.00  0.00     0.188 C 
ENDROOT
BRANCH   1   2
ATOM      2  O   UNL     1       2.547   3.264  -7.388  1.00  0.00    -0.376 OA
BRANCH   2   3
ATOM      3  C   UNL     1       2.102   4.035  -6.273  1.00  0.00     0.202 C 
BRANCH   3   4
ATOM      4  C   UNL     1       2.449   3.710  -4.626  1.00  0.00     0.261 C 
BRANCH   4   5
ATOM      5  O   UNL     1       3.812   3.169  -3.862  1.00  0.00    -0.460 OA
BRANCH   5   6
ATOM      6  C   UNL     1       4.437   1.932  -3.609  1.00  0.00     0.338 C 
ATOM      7  O   UNL     1       4.016   0.785  -3.736  1.00  0.00    -0.246 OA
BRANCH   6   8
ATOM      8  C   UNL     1       5.824   1.774  -3.129  1.00  0.00     0.062 A 
ATOM      9  C   UNL     1       6.727   1.102  -1.003  1.00  0.00     0.038 A 
ATOM     10  C   UNL     1       5.962   1.996  -1.777  1.00  0.00     0.041 A 
ATOM     11  C   UNL     1       7.552   0.128  -1.607  1.00  0.00    -0.028 A 
ATOM     12  C   UNL     1       7.505  -0.025  -2.992  1.00  0.00     0.006 A 
ATOM     13  C   UNL     1       8.461  -0.778  -0.825  1.00  0.00     0.046 C 
ATOM     14  C   UNL     1       6.608   0.747  -3.731  1.00  0.00     0.016 A 
BRANCH   9  15
ATOM     15  N   UNL     1       6.355   0.988   0.363  1.00  0.00    -0.373 N 
ATOM     16  H   UNL     1       6.856   1.374   1.117  1.00  0.00     0.161 HD
BRANCH  15  17
ATOM     17  C   UNL     1       5.094   0.196   0.492  1.00  0.00     0.179 C 
ATOM     18  N   UNL     1       3.453   0.714   2.092  1.00  0.00    -0.245 N 
ATOM     19  C   UNL     1       4.243  -0.238   2.674  1.00  0.00     0.236 C 
ATOM     20  C   UNL     1       3.921   1.100   0.862  1.00  0.00     0.256 C 
ATOM     21  O   UNL     1       4.189  -0.653   3.825  1.00  0.00    -0.274 OA
ATOM     22  C   UNL     1       5.193  -0.779   1.649  1.00  0.00     0.136 C 
ATOM     23  O   UNL     1       3.601   2.111   0.247  1.00  0.00    -0.272 OA
BRANCH  18  24
ATOM     24  C   UNL     1       2.412   1.411   2.740  1.00  0.00     0.094 A 
ATOM     25  C   UNL     1       1.165   1.598   2.123  1.00  0.00     0.144 A 
ATOM     26  C   UNL     1       0.195   2.402   2.723  1.00  0.00     0.069 A 
ATOM     27  C   UNL     1       0.457   3.019   3.947  1.00  0.00     0.047 A 
ATOM     28  C   UNL     1       2.654   2.011   3.984  1.00  0.00     0.035 A 
ATOM     29  Cl  UNL     1      -0.785   3.998   4.644  1.00  0.00    -0.084 Cl
ATOM     30  C   UNL     1       1.696   2.846   4.584  1.00  0.00    -0.030 A 
ATOM     31  C   UNL     1       2.032   3.544   5.871  1.00  0.00     0.046 C 
BRANCH  25  32
ATOM     32  O   UNL     1       0.819   1.042   0.918  1.00  0.00    -0.495 OA
ATOM     33  C   UNL     1       0.770  -0.386   0.955  1.00  0.00     0.278 C 
ENDBRANCH  25  32
ENDBRANCH  18  24
ENDBRANCH  15  17
ENDBRANCH   9  15
ENDBRANCH   6   8
ENDBRANCH   5   6
ENDBRANCH   4   5
ENDBRANCH   3   4
ENDBRANCH   2   3
ENDBRANCH   1   2
BRANCH   1  34
ATOM     34  C   UNL     1       4.022   5.117  -8.527  1.00  0.00     0.188 C 
BRANCH  34  35
ATOM     35  O   UNL     1       4.338   5.569  -7.220  1.00  0.00    -0.376 OA
BRANCH  35  36
ATOM     36  C   UNL     1       5.036   6.804  -7.163  1.00  0.00     0.202 C 
BRANCH  36  37
ATOM     37  C   UNL     1       6.537   6.696  -7.502  1.00  0.00     0.261 C 
BRANCH  37  38
ATOM     38  O   UNL     1       7.203   5.736  -6.649  1.00  0.00    -0.460 OA
BRANCH  38  39
ATOM     39  C   UNL     1       7.745   4.625  -7.257  1.00  0.00     0.338 C 
ATOM     40  O   UNL     1       8.702   4.679  -8.014  1.00  0.00    -0.246 OA
BRANCH  39  41
ATOM     41  C   UNL     1       6.985   3.389  -6.854  1.00  0.00     0.060 A 
ATOM     42  C   UNL     1       6.950   2.139  -7.486  1.00  0.00     0.016 A 
ATOM     43  C   UNL     1       6.012   3.579  -5.939  1.00  0.00     0.016 A 
ATOM     44  C   UNL     1       5.855   1.176  -7.256  1.00  0.00     0.010 A 
ATOM     45  C   UNL     1       4.894   2.746  -6.040  1.00  0.00     0.010 A 
ATOM     46  C   UNL     1       4.692   1.469  -6.529  1.00  0.00    -0.014 A 
BRANCH  46  47
ATOM     47  C   UNL     1       3.242   0.749  -6.531  1.00  0.00     0.031 A 
ATOM     48  C   UNL     1       2.103   0.346  -5.407  1.00  0.00     0.074 A 
ATOM     49  C   UNL     1       2.815   0.397  -7.768  1.00  0.00     0.049 A 
ATOM     50  N   UNL     1       1.310  -0.719  -5.509  1.00  0.00    -0.248 NA
ATOM     51  C   UNL     1       1.760   0.969  -4.100  1.00  0.00     0.031 C 
ATOM     52  C   UNL     1       1.512  -0.119  -8.178  1.00  0.00     0.029 A 
ATOM     53  N   UNL     1       3.601   0.243  -8.906  1.00  0.00    -0.354 N 
ATOM     54  C   UNL     1       0.426  -0.739  -4.423  1.00  0.00     0.074 A 
ATOM     55  C   UNL     1       1.008   0.089  -3.463  1.00  0.00     0.031 C 
ATOM     56  C   UNL     1       1.682  -0.854  -9.287  1.00  0.00     0.029 A 
ATOM     57  C   UNL     1       3.099  -0.869  -9.595  1.00  0.00     0.049 A 
ATOM     58  H   UNL     1       4.363   0.806  -9.174  1.00  0.00     0.167 HD
ATOM     59  C   UNL     1      -0.803  -1.324  -4.352  1.00  0.00     0.034 A 
ATOM     60  C   UNL     1       3.905  -1.951  -9.783  1.00  0.00     0.034 A 
ATOM     61  C   UNL     1      -0.943  -2.272  -5.425  1.00  0.00     0.049 A 
ATOM     62  C   UNL     1       3.395  -3.192  -9.070  1.00  0.00     0.074 A 
ATOM     63  C   UNL     1      -1.542  -2.279  -6.667  1.00  0.00     0.029 A 
ATOM     64  N   UNL     1      -0.058  -3.330  -5.414  1.00  0.00    -0.354 N 
ATOM     65  N   UNL     1       2.228  -3.304  -8.489  1.00  0.00    -0.248 NA
ATOM     66  C   UNL     1       4.218  -4.388  -8.883  1.00  0.00     0.031 C 
ATOM     67  C   UNL     1      -0.839  -3.244  -7.462  1.00  0.00     0.029 A 
ATOM     68  C   UNL     1       0.120  -3.860  -6.672  1.00  0.00     0.049 A 
ATOM     69  H   UNL     1       0.392  -3.666  -4.605  1.00  0.00     0.167 HD
ATOM     70  C   UNL     1       2.207  -4.457  -7.745  1.00  0.00     0.074 A 
ATOM     71  C   UNL     1       3.464  -5.117  -8.049  1.00  0.00     0.031 C 
ATOM     72  C   UNL     1       1.218  -4.794  -6.866  1.00  0.00     0.034 A 
BRANCH  59  73
ATOM     73  C   UNL     1      -1.856  -1.015  -3.262  1.00  0.00     0.023 A 
ATOM     74  C   UNL     1      -3.037  -1.782  -3.175  1.00  0.00     0.031 A 
ATOM     75  C   UNL     1      -1.813   0.071  -2.338  1.00  0.00     0.131 A 
ATOM     76  C   UNL     1      -4.033  -1.495  -2.202  1.00  0.00     0.055 A 
ATOM     77  C   UNL     1      -2.730   0.266  -1.294  1.00  0.00     0.041 A 
ATOM     78  F   UNL     1      -0.944   1.084  -2.444  1.00  0.00    -0.206 F 
ATOM     79  C   UNL     1      -3.855  -0.521  -1.222  1.00  0.00     0.022 A 
BRANCH  76  80
ATOM     80  S   UNL     1      -5.656  -2.306  -2.302  1.00  0.00     0.124 S 
ATOM     81  O   UNL     1      -6.165  -1.797  -3.572  1.00  0.00    -0.237 OA
ATOM     82  O   UNL     1      -5.305  -3.719  -2.259  1.00  0.00    -0.237 OA
ATOM     83  O   UNL     1      -6.361  -1.809  -1.119  1.00  0.00    -0.744 OA
ENDBRANCH  76  80
ENDBRANCH  59  73
BRANCH  60  84
ATOM     84  C   UNL     1       5.335  -1.561 -10.058  1.00  0.00     0.023 A 
ATOM     85  C   UNL     1       5.538  -0.573 -11.057  1.00  0.00     0.031 A 
ATOM     86  C   UNL     1       6.418  -1.835  -9.209  1.00  0.00     0.131 A 
ATOM     87  C   UNL     1       6.701   0.209 -11.075  1.00  0.00     0.055 A 
ATOM     88  C   UNL     1       7.625  -1.119  -9.300  1.00  0.00     0.041 A 
ATOM     89  F   UNL     1       6.292  -2.676  -8.173  1.00  0.00    -0.206 F 
ATOM     90  C   UNL     1       7.757  -0.069 -10.209  1.00  0.00     0.022 A 
BRANCH  87  91
ATOM     91  S   UNL     1       6.719   1.777 -12.004  1.00  0.00     0.124 S 
ATOM     92  O   UNL     1       7.616   1.464 -13.111  1.00  0.00    -0.237 OA
ATOM     93  O   UNL     1       5.317   1.983 -12.359  1.00  0.00    -0.237 OA
ATOM     94  O   UNL     1       7.231   2.724 -11.016  1.00  0.00    -0.744 OA
ENDBRANCH  87  91
ENDBRANCH  60  84
BRANCH  72  95
ATOM     95  C   UNL     1       1.279  -6.080  -6.087  1.00  0.00     0.023 A 
ATOM     96  C   UNL     1       1.489  -7.294  -6.756  1.00  0.00     0.031 A 
ATOM     97  C   UNL     1       1.053  -6.152  -4.696  1.00  0.00     0.131 A 
ATOM     98  C   UNL     1       1.499  -8.505  -6.048  1.00  0.00     0.055 A 
ATOM     99  C   UNL     1       0.959  -7.367  -4.013  1.00  0.00     0.041 A 
ATOM    100  F   UNL     1       0.956  -5.046  -3.942  1.00  0.00    -0.206 F 
ATOM    101  C   UNL     1       1.186  -8.556  -4.690  1.00  0.00     0.022 A 
BRANCH  98 102
ATOM    102  S   UNL     1       2.012 -10.006  -6.917  1.00  0.00     0.124 S 
ATOM    103  O   UNL     1       1.221  -9.958  -8.143  1.00  0.00    -0.237 OA
ATOM    104  O   UNL     1       3.445  -9.773  -7.078  1.00  0.00    -0.237 OA
ATOM    105  O   UNL     1       1.658 -11.078  -5.989  1.00  0.00    -0.744 OA
ENDBRANCH  98 102
ENDBRANCH  72  95
ENDBRANCH  46  47
ENDBRANCH  39  41
ENDBRANCH  38  39
ENDBRANCH  37  38
ENDBRANCH  36  37
ENDBRANCH  35  36
ENDBRANCH  34  35
ENDBRANCH   1  34
TORSDOF 24
