REMARK SMILES O=C(COc1ccc(Br)cc1)NC(=S)Nc1ccc(Cl)cc1C(=O)OCCOCCOCCOC(=O)c1ccc(-c2c3nc(c(-c4cc(S(=O)(=O)[O-])ccc4F)c4ccc([nH]4)c(-c4cc(S(=O)(=O)[O-])ccc4F)c4nc(c(-c5cc(S(=O)(=O)[O-])ccc5F)c5ccc2[nH]5)C=C4)C=C3)cc1
REMARK SMILES IDX 28 1 27 2 26 3 25 4 23 5 24 6 22 7 16 8 17 9 18 10 21 11
REMARK SMILES IDX 19 12 20 13 15 14 13 16 14 17 12 18 1 19 2 20 3 22 4 23 5 24
REMARK SMILES IDX 6 25 11 26 7 27 10 28 8 29 9 30 29 31 30 32 31 33 32 34
REMARK SMILES IDX 33 35 34 36 35 37 36 38 37 39 38 40 99 41 39 42 98 43 40 44
REMARK SMILES IDX 41 45 42 46 92 47 43 48 97 49 91 50 93 51 44 52 96 53 90 54
REMARK SMILES IDX 89 55 45 57 77 58 57 59 76 60 58 61 61 62 75 63 94 64 59 65
REMARK SMILES IDX 60 66 74 68 95 69 62 70 46 71 47 72 55 73 48 74 54 75 56 76
REMARK SMILES IDX 53 77 49 78 50 79 51 80 52 81 78 82 79 83 87 84 80 85 86 86
REMARK SMILES IDX 88 87 85 88 81 89 82 90 83 91 84 92 63 93 64 94 72 95 65 96
REMARK SMILES IDX 71 97 73 98 70 99 66 100 67 101 68 102 69 103
REMARK H PARENT 15 15 12 21 93 56 61 67
REMARK Flexibility Score: inf
ROOT
ATOM      1  O   UNL     1      -2.499  -4.722   1.647  1.00  0.00    -0.376 OA
ENDROOT
BRANCH   1   2
ATOM      2  C   UNL     1      -2.154  -5.497   0.513  1.00  0.00     0.202 C 
BRANCH   2   3
ATOM      3  C   UNL     1      -2.217  -4.828  -0.863  1.00  0.00     0.261 C 
BRANCH   3   4
ATOM      4  O   UNL     1      -1.546  -3.556  -0.940  1.00  0.00    -0.460 OA
BRANCH   4   5
ATOM      5  C   UNL     1      -2.377  -2.487  -1.038  1.00  0.00     0.340 C 
ATOM      6  O   UNL     1      -3.591  -2.545  -1.173  1.00  0.00    -0.246 OA
BRANCH   5   7
ATOM      7  C   UNL     1      -1.680  -1.180  -0.903  1.00  0.00     0.085 A 
ATOM      8  C   UNL     1      -0.358  -0.894  -1.290  1.00  0.00     0.055 A 
ATOM      9  C   UNL     1       0.043   0.452  -1.350  1.00  0.00     0.028 A 
ATOM     10  C   UNL     1      -0.751   1.464  -0.811  1.00  0.00     0.023 A 
ATOM     11  C   UNL     1      -2.463  -0.157  -0.335  1.00  0.00     0.038 A 
ATOM     12  C   UNL     1      -1.978   1.142  -0.250  1.00  0.00     0.042 A 
ATOM     13  Cl  UNL     1      -2.902   2.356   0.536  1.00  0.00    -0.084 Cl
BRANCH   8  14
ATOM     14  N   UNL     1       0.572  -1.916  -1.591  1.00  0.00    -0.332 N 
ATOM     15  H   UNL     1       0.178  -2.766  -1.892  1.00  0.00     0.169 HD
BRANCH  14  16
ATOM     16  C   UNL     1       1.931  -1.897  -1.526  1.00  0.00     0.177 C 
ATOM     17  S   UNL     1       2.808  -2.981  -2.451  1.00  0.00    -0.040 S 
BRANCH  16  18
ATOM     18  N   UNL     1       2.625  -1.061  -0.688  1.00  0.00    -0.300 N 
ATOM     19  O   UNL     1       1.217  -0.654   1.127  1.00  0.00    -0.271 OA
ATOM     20  C   UNL     1       2.235  -0.406   0.486  1.00  0.00     0.264 C 
ATOM     21  H   UNL     1       3.556  -0.893  -0.959  1.00  0.00     0.172 HD
BRANCH  20  22
ATOM     22  C   UNL     1       3.273   0.606   0.984  1.00  0.00     0.329 C 
BRANCH  22  23
ATOM     23  O   UNL     1       4.395  -0.011   1.616  1.00  0.00    -0.484 OA
BRANCH  23  24
ATOM     24  C   UNL     1       4.077  -0.381   2.898  1.00  0.00     0.120 A 
ATOM     25  C   UNL     1       3.472  -1.615   3.129  1.00  0.00     0.047 A 
ATOM     26  C   UNL     1       4.409   0.457   3.962  1.00  0.00     0.047 A 
ATOM     27  C   UNL     1       3.139  -1.987   4.430  1.00  0.00     0.019 A 
ATOM     28  C   UNL     1       4.073   0.082   5.266  1.00  0.00     0.019 A 
ATOM     29  C   UNL     1       3.427  -1.133   5.493  1.00  0.00     0.018 A 
ATOM     30  Br  UNL     1       2.939  -1.631   7.249  1.00  0.00    -0.051 Br
ENDBRANCH  23  24
ENDBRANCH  22  23
ENDBRANCH  20  22
ENDBRANCH  16  18
ENDBRANCH  14  16
ENDBRANCH   8  14
ENDBRANCH   5   7
ENDBRANCH   4   5
ENDBRANCH   3   4
ENDBRANCH   2   3
ENDBRANCH   1   2
BRANCH   1  31
ATOM     31  C   UNL     1      -1.713  -3.593   2.011  1.00  0.00     0.188 C 
BRANCH  31  32
ATOM     32  C   UNL     1      -0.191  -3.554   1.744  1.00  0.00     0.188 C 
BRANCH  32  33
ATOM     33  O   UNL     1       0.441  -4.799   1.470  1.00  0.00    -0.376 OA
BRANCH  33  34
ATOM     34  C   UNL     1       1.160  -5.372   2.560  1.00  0.00     0.202 C 
BRANCH  34  35
ATOM     35  C   UNL     1       0.262  -5.875   3.689  1.00  0.00     0.261 C 
BRANCH  35  36
ATOM     36  O   UNL     1      -0.374  -4.775   4.362  1.00  0.00    -0.460 OA
BRANCH  36  37
ATOM     37  C   UNL     1       0.229  -4.288   5.462  1.00  0.00     0.338 C 
ATOM     38  O   UNL     1       1.236  -4.722   5.999  1.00  0.00    -0.246 OA
BRANCH  37  39
ATOM     39  C   UNL     1      -0.539  -3.114   5.915  1.00  0.00     0.060 A 
ATOM     40  C   UNL     1      -0.453  -1.899   5.225  1.00  0.00     0.016 A 
ATOM     41  C   UNL     1      -1.330  -3.220   7.059  1.00  0.00     0.016 A 
ATOM     42  C   UNL     1      -1.140  -0.777   5.694  1.00  0.00     0.010 A 
ATOM     43  C   UNL     1      -2.035  -2.101   7.514  1.00  0.00     0.010 A 
ATOM     44  C   UNL     1      -1.927  -0.866   6.850  1.00  0.00    -0.014 A 
BRANCH  44  45
ATOM     45  C   UNL     1      -2.563   0.349   7.424  1.00  0.00     0.031 A 
ATOM     46  C   UNL     1      -1.990   0.962   8.674  1.00  0.00     0.074 A 
ATOM     47  C   UNL     1      -3.643   0.902   6.840  1.00  0.00     0.049 A 
ATOM     48  N   UNL     1      -2.433   1.966   9.386  1.00  0.00    -0.248 NA
ATOM     49  C   UNL     1      -0.755   0.353   9.190  1.00  0.00     0.031 C 
ATOM     50  C   UNL     1      -4.275   0.428   5.609  1.00  0.00     0.029 A 
ATOM     51  N   UNL     1      -4.407   1.981   7.214  1.00  0.00    -0.354 N 
ATOM     52  C   UNL     1      -1.538   2.106  10.442  1.00  0.00     0.074 A 
ATOM     53  C   UNL     1      -0.549   1.058  10.293  1.00  0.00     0.031 C 
ATOM     54  C   UNL     1      -5.334   1.208   5.333  1.00  0.00     0.029 A 
ATOM     55  C   UNL     1      -5.483   2.208   6.388  1.00  0.00     0.049 A 
ATOM     56  H   UNL     1      -4.203   2.539   7.999  1.00  0.00     0.167 HD
ATOM     57  C   UNL     1      -1.536   3.027  11.438  1.00  0.00     0.034 A 
ATOM     58  C   UNL     1      -6.490   3.100   6.486  1.00  0.00     0.034 A 
ATOM     59  C   UNL     1      -2.532   4.063  11.584  1.00  0.00     0.049 A 
ATOM     60  C   UNL     1      -6.510   4.065   7.647  1.00  0.00     0.074 A 
ATOM     61  C   UNL     1      -2.610   5.055  12.547  1.00  0.00     0.029 A 
ATOM     62  N   UNL     1      -3.631   4.237  10.753  1.00  0.00    -0.354 N 
ATOM     63  N   UNL     1      -5.657   4.188   8.638  1.00  0.00    -0.248 NA
ATOM     64  C   UNL     1      -7.628   5.016   7.694  1.00  0.00     0.031 C 
ATOM     65  C   UNL     1      -3.788   5.783  12.339  1.00  0.00     0.029 A 
ATOM     66  C   UNL     1      -4.408   5.297  11.200  1.00  0.00     0.049 A 
ATOM     67  H   UNL     1      -3.831   3.687   9.961  1.00  0.00     0.167 HD
ATOM     68  C   UNL     1      -6.126   5.247   9.412  1.00  0.00     0.074 A 
ATOM     69  C   UNL     1      -7.321   5.741   8.759  1.00  0.00     0.031 C 
ATOM     70  C   UNL     1      -5.615   5.767  10.559  1.00  0.00     0.034 A 
BRANCH  57  71
ATOM     71  C   UNL     1      -0.446   2.917  12.477  1.00  0.00     0.023 A 
ATOM     72  C   UNL     1       0.910   3.106  12.152  1.00  0.00     0.031 A 
ATOM     73  C   UNL     1      -0.764   2.590  13.807  1.00  0.00     0.131 A 
ATOM     74  C   UNL     1       1.899   2.901  13.127  1.00  0.00     0.055 A 
ATOM     75  C   UNL     1       0.218   2.461  14.790  1.00  0.00     0.041 A 
ATOM     76  F   UNL     1      -2.039   2.377  14.172  1.00  0.00    -0.206 F 
ATOM     77  C   UNL     1       1.560   2.603  14.449  1.00  0.00     0.022 A 
BRANCH  74  78
ATOM     78  S   UNL     1       3.639   2.902  12.614  1.00  0.00     0.124 S 
ATOM     79  O   UNL     1       3.652   1.844  11.605  1.00  0.00    -0.237 OA
ATOM     80  O   UNL     1       3.821   4.260  12.115  1.00  0.00    -0.237 OA
ATOM     81  O   UNL     1       4.360   2.587  13.845  1.00  0.00    -0.744 OA
ENDBRANCH  74  78
ENDBRANCH  57  71
BRANCH  58  82
ATOM     82  C   UNL     1      -7.598   3.103   5.487  1.00  0.00     0.023 A 
ATOM     83  C   UNL     1      -7.818   4.207   4.649  1.00  0.00     0.031 A 
ATOM     84  C   UNL     1      -8.494   2.022   5.406  1.00  0.00     0.131 A 
ATOM     85  C   UNL     1      -8.935   4.228   3.799  1.00  0.00     0.055 A 
ATOM     86  C   UNL     1      -9.572   2.024   4.520  1.00  0.00     0.041 A 
ATOM     87  F   UNL     1      -8.331   0.944   6.189  1.00  0.00    -0.206 F 
ATOM     88  C   UNL     1      -9.806   3.138   3.720  1.00  0.00     0.022 A 
BRANCH  85  89
ATOM     89  S   UNL     1      -9.286   5.740   2.860  1.00  0.00     0.124 S 
ATOM     90  O   UNL     1      -9.437   6.724   3.925  1.00  0.00    -0.237 OA
ATOM     91  O   UNL     1      -8.090   5.869   2.034  1.00  0.00    -0.237 OA
ATOM     92  O   UNL     1     -10.510   5.413   2.132  1.00  0.00    -0.744 OA
ENDBRANCH  85  89
ENDBRANCH  58  82
BRANCH  70  93
ATOM     93  C   UNL     1      -6.339   6.954  11.152  1.00  0.00     0.023 A 
ATOM     94  C   UNL     1      -7.651   6.848  11.651  1.00  0.00     0.031 A 
ATOM     95  C   UNL     1      -5.728   8.220  11.174  1.00  0.00     0.131 A 
ATOM     96  C   UNL     1      -8.332   7.996  12.082  1.00  0.00     0.055 A 
ATOM     97  C   UNL     1      -6.388   9.348  11.666  1.00  0.00     0.041 A 
ATOM     98  F   UNL     1      -4.479   8.386  10.710  1.00  0.00    -0.206 F 
ATOM     99  C   UNL     1      -7.704   9.244  12.106  1.00  0.00     0.022 A 
BRANCH  96 100
ATOM    100  S   UNL     1     -10.095   7.861  12.495  1.00  0.00     0.124 S 
ATOM    101  O   UNL     1     -10.651   7.290  11.273  1.00  0.00    -0.237 OA
ATOM    102  O   UNL     1     -10.075   6.982  13.659  1.00  0.00    -0.237 OA
ATOM    103  O   UNL     1     -10.489   9.242  12.769  1.00  0.00    -0.744 OA
ENDBRANCH  96 100
ENDBRANCH  70  93
ENDBRANCH  44  45
ENDBRANCH  37  39
ENDBRANCH  36  37
ENDBRANCH  35  36
ENDBRANCH  34  35
ENDBRANCH  33  34
ENDBRANCH  32  33
ENDBRANCH  31  32
ENDBRANCH   1  31
TORSDOF 26
