REMARK SMILES Cc1ccccc1[C@@H]1[NH2+][C@H](C(=O)OCCOCCOCCOC(=O)c2ccc(-c3c4nc(c(-c5cc(S(=O)(=O)[O-])ccc5F)c5ccc([nH]5)c(-c5cc(S(=O)(=O)[O-])ccc5F)c5nc(c(-c6cc(S(=O)(=O)[O-])ccc6F)c6ccc3[nH]6)C=C5)C=C4)cc2)CC2=c3ccccc3=N[C@@H]21
REMARK SMILES IDX 18 1 17 2 16 3 15 4 14 5 13 6 11 7 12 8 10 9 8 10 9 11 97 12
REMARK SMILES IDX 89 15 96 16 88 17 90 18 95 19 91 20 94 21 92 22 93 23 7 24
REMARK SMILES IDX 1 25 2 26 3 27 4 28 6 29 5 30 19 31 20 32 21 33 22 34 23 35
REMARK SMILES IDX 24 36 25 37 26 38 87 39 27 40 86 41 28 42 29 43 30 44 80 45
REMARK SMILES IDX 31 46 85 47 79 48 81 49 32 50 84 51 78 52 77 53 33 55 65 56
REMARK SMILES IDX 45 57 64 58 46 59 49 60 63 61 82 62 47 63 48 64 62 66 83 67
REMARK SMILES IDX 50 68 34 69 35 70 43 71 36 72 42 73 44 74 41 75 37 76 38 77
REMARK SMILES IDX 39 78 40 79 66 80 67 81 75 82 68 83 74 84 76 85 73 86 69 87
REMARK SMILES IDX 70 88 71 89 72 90 51 91 52 92 60 93 53 94 59 95 61 96 58 97
REMARK SMILES IDX 54 98 55 99 56 100 57 101
REMARK H PARENT 9 13 9 14 81 54 49 65
REMARK Flexibility Score: inf
ROOT
ATOM      1  C   UNL     1      -0.854   2.944  -0.895  1.00  0.00     0.188 C 
ENDROOT
BRANCH   1   2
ATOM      2  C   UNL     1      -1.600   4.208  -1.215  1.00  0.00     0.188 C 
BRANCH   2   3
ATOM      3  O   UNL     1      -1.749   4.493  -2.583  1.00  0.00    -0.376 OA
BRANCH   3   4
ATOM      4  C   UNL     1      -0.505   4.464  -3.227  1.00  0.00     0.202 C 
BRANCH   4   5
ATOM      5  C   UNL     1       0.756   4.919  -2.466  1.00  0.00     0.261 C 
BRANCH   5   6
ATOM      6  O   UNL     1       0.934   4.690  -0.938  1.00  0.00    -0.459 OA
BRANCH   6   7
ATOM      7  C   UNL     1       1.901   4.941   0.130  1.00  0.00     0.365 C 
ATOM      8  O   UNL     1       1.976   5.839   0.971  1.00  0.00    -0.245 OA
BRANCH   7   9
ATOM      9  C   UNL     1       2.503   3.692   0.503  1.00  0.00     0.298 C 
ATOM     10  C   UNL     1       2.747   1.738  -0.617  1.00  0.00     0.243 C 
ATOM     11  N   UNL     1       2.995   3.166  -0.760  1.00  0.00    -0.326 N 
ATOM     12  C   UNL     1       4.032   1.403   0.450  1.00  0.00     0.196 C 
ATOM     13  H   UNL     1       2.478   3.554  -1.548  1.00  0.00     0.347 HD
ATOM     14  H   UNL     1       3.972   3.394  -0.945  1.00  0.00     0.347 HD
ATOM     15  C   UNL     1       4.220   2.565   1.576  1.00  0.00    -0.024 C 
ATOM     16  N   UNL     1       5.339   1.519  -0.244  1.00  0.00    -0.270 NA
ATOM     17  C   UNL     1       3.094   3.482   1.895  1.00  0.00     0.111 C 
ATOM     18  C   UNL     1       5.421   3.145   1.550  1.00  0.00     0.002 A 
ATOM     19  C   UNL     1       5.952   2.520   0.330  1.00  0.00     0.066 A 
ATOM     20  C   UNL     1       5.817   4.476   1.976  1.00  0.00     0.010 A 
ATOM     21  C   UNL     1       7.074   3.250  -0.294  1.00  0.00     0.028 A 
ATOM     22  C   UNL     1       6.715   5.143   1.238  1.00  0.00     0.001 A 
ATOM     23  C   UNL     1       7.367   4.498   0.117  1.00  0.00     0.002 A 
BRANCH  10  24
ATOM     24  C   UNL     1       1.488   1.277  -1.816  1.00  0.00     0.015 A 
ATOM     25  C   UNL     1      -1.376   1.049  -0.160  1.00  0.00     0.045 C 
ATOM     26  C   UNL     1      -0.169   0.862  -1.672  1.00  0.00    -0.042 A 
ATOM     27  C   UNL     1      -0.962   0.726  -2.812  1.00  0.00     0.004 A 
ATOM     28  C   UNL     1      -0.380   1.100  -4.021  1.00  0.00     0.000 A 
ATOM     29  C   UNL     1       1.898   1.644  -3.101  1.00  0.00     0.010 A 
ATOM     30  C   UNL     1       0.970   1.560  -4.156  1.00  0.00     0.001 A 
ENDBRANCH  10  24
ENDBRANCH   7   9
ENDBRANCH   6   7
ENDBRANCH   5   6
ENDBRANCH   4   5
ENDBRANCH   3   4
ENDBRANCH   2   3
ENDBRANCH   1   2
BRANCH   1  31
ATOM     31  O   UNL     1       0.390   1.998   0.059  1.00  0.00    -0.376 OA
BRANCH  31  32
ATOM     32  C   UNL     1       0.479   0.114   0.343  1.00  0.00     0.202 C 
BRANCH  32  33
ATOM     33  C   UNL     1      -1.148  -0.915   0.424  1.00  0.00     0.261 C 
BRANCH  33  34
ATOM     34  O   UNL     1      -2.388  -0.120   1.512  1.00  0.00    -0.460 OA
BRANCH  34  35
ATOM     35  C   UNL     1      -2.837   1.304   2.132  1.00  0.00     0.338 C 
ATOM     36  O   UNL     1      -4.019   1.223   2.615  1.00  0.00    -0.246 OA
BRANCH  35  37
ATOM     37  C   UNL     1      -2.141   2.953   2.290  1.00  0.00     0.060 A 
ATOM     38  C   UNL     1      -2.690   4.279   2.359  1.00  0.00     0.016 A 
ATOM     39  C   UNL     1      -0.811   3.263   2.342  1.00  0.00     0.016 A 
ATOM     40  C   UNL     1      -1.972   5.694   1.899  1.00  0.00     0.010 A 
ATOM     41  C   UNL     1      -0.284   4.568   1.679  1.00  0.00     0.010 A 
ATOM     42  C   UNL     1      -0.730   5.858   1.284  1.00  0.00    -0.014 A 
BRANCH  42  43
ATOM     43  C   UNL     1      -0.157   6.938  -0.090  1.00  0.00     0.031 A 
ATOM     44  C   UNL     1       1.524   7.456  -0.628  1.00  0.00     0.074 A 
ATOM     45  C   UNL     1      -1.087   7.163  -1.089  1.00  0.00     0.049 A 
ATOM     46  N   UNL     1       2.248   8.552  -0.377  1.00  0.00    -0.248 NA
ATOM     47  C   UNL     1       2.549   6.605  -1.432  1.00  0.00     0.031 C 
ATOM     48  C   UNL     1      -0.964   7.677  -2.479  1.00  0.00     0.029 A 
ATOM     49  N   UNL     1      -2.471   6.901  -1.046  1.00  0.00    -0.354 N 
ATOM     50  C   UNL     1       3.571   8.384  -1.025  1.00  0.00     0.074 A 
ATOM     51  C   UNL     1       3.766   6.987  -1.069  1.00  0.00     0.031 C 
ATOM     52  C   UNL     1      -2.184   8.018  -2.955  1.00  0.00     0.029 A 
ATOM     53  C   UNL     1      -3.110   7.856  -1.855  1.00  0.00     0.049 A 
ATOM     54  H   UNL     1      -2.910   6.180  -0.541  1.00  0.00     0.167 HD
ATOM     55  C   UNL     1       3.992   8.934  -2.243  1.00  0.00     0.034 A 
ATOM     56  C   UNL     1      -3.755   8.833  -1.165  1.00  0.00     0.034 A 
ATOM     57  C   UNL     1       2.831   9.429  -2.940  1.00  0.00     0.049 A 
ATOM     58  C   UNL     1      -2.856  10.070  -1.196  1.00  0.00     0.074 A 
ATOM     59  C   UNL     1       2.136   9.129  -4.096  1.00  0.00     0.029 A 
ATOM     60  N   UNL     1       2.040  10.260  -2.207  1.00  0.00    -0.354 N 
ATOM     61  N   UNL     1      -1.568  10.064  -1.462  1.00  0.00    -0.248 NA
ATOM     62  C   UNL     1      -3.385  11.422  -1.158  1.00  0.00     0.031 C 
ATOM     63  C   UNL     1       0.913   9.875  -4.045  1.00  0.00     0.029 A 
ATOM     64  C   UNL     1       0.893  10.581  -2.852  1.00  0.00     0.049 A 
ATOM     65  H   UNL     1       2.275  10.591  -1.310  1.00  0.00     0.167 HD
ATOM     66  C   UNL     1      -1.130  11.325  -1.755  1.00  0.00     0.074 A 
ATOM     67  C   UNL     1      -2.307  12.141  -1.521  1.00  0.00     0.031 C 
ATOM     68  C   UNL     1       0.128  11.623  -2.217  1.00  0.00     0.034 A 
BRANCH  55  69
ATOM     69  C   UNL     1       5.311   8.616  -3.038  1.00  0.00     0.023 A 
ATOM     70  C   UNL     1       5.477   9.162  -4.337  1.00  0.00     0.031 A 
ATOM     71  C   UNL     1       6.422   7.853  -2.594  1.00  0.00     0.131 A 
ATOM     72  C   UNL     1       6.627   8.918  -5.129  1.00  0.00     0.055 A 
ATOM     73  C   UNL     1       7.550   7.571  -3.400  1.00  0.00     0.041 A 
ATOM     74  F   UNL     1       6.485   7.355  -1.349  1.00  0.00    -0.206 F 
ATOM     75  C   UNL     1       7.661   8.108  -4.673  1.00  0.00     0.022 A 
BRANCH  72  76
ATOM     76  S   UNL     1       6.781   9.729  -6.751  1.00  0.00     0.124 S 
ATOM     77  O   UNL     1       5.743   9.056  -7.525  1.00  0.00    -0.237 OA
ATOM     78  O   UNL     1       6.542  11.129  -6.422  1.00  0.00    -0.237 OA
ATOM     79  O   UNL     1       8.152   9.422  -7.159  1.00  0.00    -0.744 OA
ENDBRANCH  72  76
ENDBRANCH  55  69
BRANCH  56  80
ATOM     80  C   UNL     1      -4.571   8.172  -0.067  1.00  0.00     0.023 A 
ATOM     81  C   UNL     1      -5.433   7.103  -0.483  1.00  0.00     0.031 A 
ATOM     82  C   UNL     1      -4.223   8.189   1.286  1.00  0.00     0.131 A 
ATOM     83  C   UNL     1      -5.731   6.021   0.364  1.00  0.00     0.055 A 
ATOM     84  C   UNL     1      -4.661   7.175   2.171  1.00  0.00     0.041 A 
ATOM     85  F   UNL     1      -3.304   9.052   1.744  1.00  0.00    -0.206 F 
ATOM     86  C   UNL     1      -5.348   6.054   1.696  1.00  0.00     0.022 A 
BRANCH  83  87
ATOM     87  S   UNL     1      -6.368   4.460  -0.339  1.00  0.00     0.124 S 
ATOM     88  O   UNL     1      -7.810   4.673  -0.270  1.00  0.00    -0.237 OA
ATOM     89  O   UNL     1      -5.791   4.439  -1.680  1.00  0.00    -0.237 OA
ATOM     90  O   UNL     1      -5.838   3.439   0.560  1.00  0.00    -0.744 OA
ENDBRANCH  83  87
ENDBRANCH  56  80
BRANCH  68  91
ATOM     91  C   UNL     1       0.853  12.953  -2.016  1.00  0.00     0.023 A 
ATOM     92  C   UNL     1       0.238  13.994  -1.343  1.00  0.00     0.031 A 
ATOM     93  C   UNL     1       2.218  13.198  -2.369  1.00  0.00     0.131 A 
ATOM     94  C   UNL     1       0.867  15.229  -1.172  1.00  0.00     0.055 A 
ATOM     95  C   UNL     1       2.897  14.379  -2.058  1.00  0.00     0.041 A 
ATOM     96  F   UNL     1       2.984  12.309  -3.015  1.00  0.00    -0.206 F 
ATOM     97  C   UNL     1       2.204  15.429  -1.491  1.00  0.00     0.022 A 
BRANCH  94  98
ATOM     98  S   UNL     1      -0.197  16.581  -0.650  1.00  0.00     0.124 S 
ATOM     99  O   UNL     1      -1.200  16.590  -1.714  1.00  0.00    -0.237 OA
ATOM    100  O   UNL     1      -0.667  16.119   0.652  1.00  0.00    -0.237 OA
ATOM    101  O   UNL     1       0.699  17.732  -0.627  1.00  0.00    -0.744 OA
ENDBRANCH  94  98
ENDBRANCH  68  91
ENDBRANCH  42  43
ENDBRANCH  35  37
ENDBRANCH  34  35
ENDBRANCH  33  34
ENDBRANCH  32  33
ENDBRANCH  31  32
ENDBRANCH   1  31
TORSDOF 21
