REMARK SMILES O=C(OCCOCCOCCOC(=O)c1ccc(-c2c3nc(c(-c4cc(S(=O)(=O)[O-])ccc4F)c4ccc([nH]4)c(-c4cc(S(=O)(=O)[O-])ccc4F)c4nc(c(-c5cc(S(=O)(=O)[O-])ccc5F)c5ccc2[nH]5)C=C4)C=C3)cc1)C1=Cc2cc(S(F)(F)(F)(F)F)cc(Br)c2O[C@@H]1C(F)(F)F
REMARK SMILES IDX 8 1 7 2 6 3 5 4 4 5 3 6 2 7 1 8 78 9 79 10 94 11 80 12 93 13
REMARK SMILES IDX 81 14 92 15 82 16 90 17 89 18 91 19 95 20 96 21 97 22 98 23
REMARK SMILES IDX 83 24 84 25 85 26 86 27 87 28 88 29 9 30 10 31 11 32 12 33
REMARK SMILES IDX 13 34 14 35 15 36 16 37 77 38 17 39 76 40 18 41 19 42 20 43
REMARK SMILES IDX 70 44 21 45 75 46 69 47 71 48 22 49 74 50 68 51 67 52 23 54
REMARK SMILES IDX 55 55 35 56 54 57 36 58 39 59 53 60 72 61 37 62 38 63 52 65
REMARK SMILES IDX 73 66 40 67 24 68 25 69 33 70 26 71 32 72 34 73 31 74 27 75
REMARK SMILES IDX 28 76 29 77 30 78 56 79 57 80 65 81 58 82 64 83 66 84 63 85
REMARK SMILES IDX 59 86 60 87 61 88 62 89 41 90 42 91 50 92 43 93 49 94 51 95
REMARK SMILES IDX 48 96 44 97 45 98 46 99 47 100
REMARK H PARENT 71 53 39 64
REMARK Flexibility Score: inf
ROOT
ATOM      1  C   UNL     1       2.490   2.268  -0.779  1.00  0.00     0.188 C 
ENDROOT
BRANCH   1   2
ATOM      2  C   UNL     1       2.997   1.398   0.359  1.00  0.00     0.188 C 
BRANCH   2   3
ATOM      3  O   UNL     1       4.417   1.398   0.359  1.00  0.00    -0.376 OA
BRANCH   3   4
ATOM      4  C   UNL     1       4.890   0.883  -0.877  1.00  0.00     0.202 C 
BRANCH   4   5
ATOM      5  C   UNL     1       4.383  -0.538  -1.062  1.00  0.00     0.261 C 
BRANCH   5   6
ATOM      6  O   UNL     1       2.963  -0.538  -1.062  1.00  0.00    -0.460 OA
BRANCH   6   7
ATOM      7  C   UNL     1       2.253  -0.065   0.074  1.00  0.00     0.338 C 
ATOM      8  O   UNL     1       0.982  -0.065   0.074  1.00  0.00    -0.246 OA
BRANCH   7   9
ATOM      9  C   UNL     1       3.013   0.440   1.289  1.00  0.00     0.087 C 
ATOM     10  C   UNL     1       4.374   0.440   1.289  1.00  0.00     0.027 C 
ATOM     11  C   UNL     1       2.253   0.946   2.505  1.00  0.00     0.316 C 
ATOM     12  C   UNL     1       5.134  -0.065   0.074  1.00  0.00     0.020 A 
ATOM     13  O   UNL     1       3.625   1.107  -1.340  1.00  0.00    -0.474 OA
ATOM     14  C   UNL     1       6.155  -0.977   0.284  1.00  0.00     0.036 A 
ATOM     15  C   UNL     1       4.777   0.297  -1.153  1.00  0.00     0.142 A 
ATOM     16  C   UNL     1       6.940  -1.234  -0.865  1.00  0.00     0.109 A 
ATOM     17  C   UNL     1       5.511  -0.103  -2.243  1.00  0.00     0.062 A 
ATOM     18  C   UNL     1       6.570  -0.956  -2.102  1.00  0.00     0.044 A 
ATOM     19  Br  UNL     1       5.034   0.558  -4.025  1.00  0.00    -0.047 Br
BRANCH  11  20
ATOM     20  C   UNL     1       2.620   2.398   2.764  1.00  0.00     0.430 C 
ATOM     21  F   UNL     1       2.299   3.132   1.703  1.00  0.00    -0.167 F 
ATOM     22  F   UNL     1       1.956   2.840   3.827  1.00  0.00    -0.167 F 
ATOM     23  F   UNL     1       3.928   2.491   2.988  1.00  0.00    -0.167 F 
ENDBRANCH  11  20
BRANCH  16  24
ATOM     24  S   UNL     1       8.563  -1.998  -0.622  1.00  0.00     0.310 S 
ATOM     25  F   UNL     1       8.393  -2.000   0.955  1.00  0.00    -0.094 F 
ATOM     26  F   UNL     1       9.193  -0.561  -0.484  1.00  0.00    -0.094 F 
ATOM     27  F   UNL     1       9.954  -2.660  -0.412  1.00  0.00    -0.094 F 
ATOM     28  F   UNL     1       7.892  -3.428  -0.623  1.00  0.00    -0.094 F 
ATOM     29  F   UNL     1       7.128  -1.342  -0.723  1.00  0.00    -0.094 F 
ENDBRANCH  16  24
ENDBRANCH   7   9
ENDBRANCH   6   7
ENDBRANCH   5   6
ENDBRANCH   4   5
ENDBRANCH   3   4
ENDBRANCH   2   3
ENDBRANCH   1   2
BRANCH   1  30
ATOM     30  O   UNL     1       2.963   1.754  -2.015  1.00  0.00    -0.376 OA
BRANCH  30  31
ATOM     31  C   UNL     1       4.383   1.754  -2.015  1.00  0.00     0.202 C 
BRANCH  31  32
ATOM     32  C   UNL     1       4.890   3.175  -1.830  1.00  0.00     0.261 C 
BRANCH  32  33
ATOM     33  O   UNL     1       4.417   3.689  -0.594  1.00  0.00    -0.460 OA
BRANCH  33  34
ATOM     34  C   UNL     1       3.021   3.789  -0.354  1.00  0.00     0.338 C 
ATOM     35  O   UNL     1       2.195   3.418  -1.246  1.00  0.00    -0.246 OA
BRANCH  34  36
ATOM     36  C   UNL     1       2.514   4.339   0.969  1.00  0.00     0.060 A 
ATOM     37  C   UNL     1       1.402   3.751   1.549  1.00  0.00     0.016 A 
ATOM     38  C   UNL     1       3.060   5.435   1.484  1.00  0.00     0.016 A 
ATOM     39  C   UNL     1       0.760   4.564   2.512  1.00  0.00     0.010 A 
ATOM     40  C   UNL     1       2.448   6.104   2.516  1.00  0.00     0.010 A 
ATOM     41  C   UNL     1       1.313   5.610   3.098  1.00  0.00    -0.014 A 
BRANCH  41  42
ATOM     42  C   UNL     1       0.720   6.233   4.351  1.00  0.00     0.031 A 
ATOM     43  C   UNL     1       0.311   7.568   4.336  1.00  0.00     0.074 A 
ATOM     44  C   UNL     1       0.509   5.371   5.413  1.00  0.00     0.049 A 
ATOM     45  N   UNL     1      -0.358   8.224   5.285  1.00  0.00    -0.248 NA
ATOM     46  C   UNL     1       0.564   8.495   3.223  1.00  0.00     0.031 C 
ATOM     47  C   UNL     1       0.911   4.021   5.432  1.00  0.00     0.029 A 
ATOM     48  N   UNL     1      -0.107   5.644   6.614  1.00  0.00    -0.354 N 
ATOM     49  C   UNL     1      -0.585   9.483   4.902  1.00  0.00     0.074 A 
ATOM     50  C   UNL     1       0.010   9.676   3.573  1.00  0.00     0.031 C 
ATOM     51  C   UNL     1       0.552   3.491   6.631  1.00  0.00     0.029 A 
ATOM     52  C   UNL     1      -0.079   4.501   7.382  1.00  0.00     0.049 A 
ATOM     53  H   UNL     1      -0.499   6.508   6.879  1.00  0.00     0.167 HD
ATOM     54  C   UNL     1      -1.267  10.475   5.608  1.00  0.00     0.034 A 
ATOM     55  C   UNL     1      -0.571   4.329   8.666  1.00  0.00     0.034 A 
ATOM     56  C   UNL     1      -1.797  10.290   6.876  1.00  0.00     0.049 A 
ATOM     57  C   UNL     1      -1.202   5.339   9.397  1.00  0.00     0.074 A 
ATOM     58  C   UNL     1      -2.494  11.278   7.598  1.00  0.00     0.029 A 
ATOM     59  N   UNL     1      -1.748   9.154   7.653  1.00  0.00    -0.354 N 
ATOM     60  N   UNL     1      -1.463   6.585   8.998  1.00  0.00    -0.248 NA
ATOM     61  C   UNL     1      -1.697   5.178  10.770  1.00  0.00     0.031 C 
ATOM     62  C   UNL     1      -2.852  10.748   8.798  1.00  0.00     0.029 A 
ATOM     63  C   UNL     1      -2.384   9.421   8.845  1.00  0.00     0.049 A 
ATOM     64  H   UNL     1      -1.330   8.299   7.400  1.00  0.00     0.167 HD
ATOM     65  C   UNL     1      -2.096   7.253   9.964  1.00  0.00     0.074 A 
ATOM     66  C   UNL     1      -2.249   6.360  11.121  1.00  0.00     0.031 C 
ATOM     67  C   UNL     1      -2.556   8.571   9.926  1.00  0.00     0.034 A 
BRANCH  54  68
ATOM     68  C   UNL     1      -1.439  11.834   4.950  1.00  0.00     0.023 A 
ATOM     69  C   UNL     1      -2.176  11.851   3.778  1.00  0.00     0.031 A 
ATOM     70  C   UNL     1      -0.962  12.954   5.480  1.00  0.00     0.131 A 
ATOM     71  C   UNL     1      -2.112  13.079   3.078  1.00  0.00     0.055 A 
ATOM     72  C   UNL     1      -1.054  14.145   4.800  1.00  0.00     0.041 A 
ATOM     73  F   UNL     1      -0.389  12.924   6.680  1.00  0.00    -0.206 F 
ATOM     74  C   UNL     1      -1.718  14.223   3.607  1.00  0.00     0.022 A 
BRANCH  71  75
ATOM     75  S   UNL     1      -2.606  13.083   1.337  1.00  0.00     0.124 S 
ATOM     76  O   UNL     1      -1.707  12.126   0.550  1.00  0.00    -0.237 OA
ATOM     77  O   UNL     1      -4.062  12.629   1.218  1.00  0.00    -0.237 OA
ATOM     78  O   UNL     1      -2.448  14.663   0.703  1.00  0.00    -0.744 OA
ENDBRANCH  71  75
ENDBRANCH  54  68
BRANCH  55  79
ATOM     79  C   UNL     1      -0.414   2.965   9.317  1.00  0.00     0.023 A 
ATOM     80  C   UNL     1      -1.509   2.265   9.795  1.00  0.00     0.031 A 
ATOM     81  C   UNL     1       0.821   2.504   9.477  1.00  0.00     0.131 A 
ATOM     82  C   UNL     1      -1.177   1.220  10.690  1.00  0.00     0.055 A 
ATOM     83  C   UNL     1       1.060   1.397  10.255  1.00  0.00     0.041 A 
ATOM     84  F   UNL     1       1.837   3.119   8.878  1.00  0.00    -0.206 F 
ATOM     85  C   UNL     1       0.027   0.690  10.808  1.00  0.00     0.022 A 
BRANCH  82  86
ATOM     86  S   UNL     1      -2.492   0.564  11.745  1.00  0.00     0.124 S 
ATOM     87  O   UNL     1      -3.046   1.686  12.627  1.00  0.00    -0.237 OA
ATOM     88  O   UNL     1      -3.615   0.001  10.871  1.00  0.00    -0.237 OA
ATOM     89  O   UNL     1      -1.863  -0.680  12.735  1.00  0.00    -0.744 OA
ENDBRANCH  82  86
ENDBRANCH  55  79
BRANCH  67  90
ATOM     90  C   UNL     1      -3.291   9.105  11.145  1.00  0.00     0.023 A 
ATOM     91  C   UNL     1      -2.657   9.043  12.375  1.00  0.00     0.031 A 
ATOM     92  C   UNL     1      -4.543   9.535  11.037  1.00  0.00     0.131 A 
ATOM     93  C   UNL     1      -3.531   9.184  13.478  1.00  0.00     0.055 A 
ATOM     94  C   UNL     1      -5.296   9.783  12.158  1.00  0.00     0.041 A 
ATOM     95  F   UNL     1      -5.072   9.726   9.831  1.00  0.00    -0.206 F 
ATOM     96  C   UNL     1      -4.751   9.683  13.408  1.00  0.00     0.022 A 
BRANCH  93  97
ATOM     97  S   UNL     1      -2.936   8.641  15.099  1.00  0.00     0.124 S 
ATOM     98  O   UNL     1      -2.595   7.150  15.045  1.00  0.00    -0.237 OA
ATOM     99  O   UNL     1      -1.683   9.437  15.475  1.00  0.00    -0.237 OA
ATOM    100  O   UNL     1      -4.152   8.906  16.271  1.00  0.00    -0.744 OA
ENDBRANCH  93  97
ENDBRANCH  67  90
ENDBRANCH  41  42
ENDBRANCH  34  36
ENDBRANCH  33  34
ENDBRANCH  32  33
ENDBRANCH  31  32
ENDBRANCH  30  31
ENDBRANCH   1  30
TORSDOF 22
