REMARK SMILES CC1(C)Cc2c(-c3ccccc3)c(-c3ccc(Cl)cc3)c(CC(=O)OCCOCCOCCOC(=O)c3ccc(-c4c5nc(c(-c6cc(S(=O)(=O)[O-])ccc6F)c6ccc([nH]6)c(-c6cc(S(=O)(=O)[O-])ccc6F)c6nc(c(-c7cc(S(=O)(=O)[O-])ccc7F)c7ccc4[nH]7)C=C6)C=C5)cc3)n2C1
REMARK SMILES IDX 30 1 29 2 28 3 27 4 26 5 25 6 23 7 24 8 22 9 21 10 1 11 2 12
REMARK SMILES IDX 3 13 4 14 101 15 5 16 100 17 6 18 13 19 7 20 8 21 12 22 9 23
REMARK SMILES IDX 11 24 10 25 14 26 15 27 20 28 16 29 19 30 17 31 18 32 31 33
REMARK SMILES IDX 32 34 33 35 34 36 35 37 36 38 37 39 38 40 99 41 39 42 98 43
REMARK SMILES IDX 40 44 41 45 42 46 92 47 43 48 97 49 91 50 93 51 44 52 96 53
REMARK SMILES IDX 90 54 89 55 45 57 77 58 57 59 76 60 58 61 61 62 75 63 94 64
REMARK SMILES IDX 59 65 60 66 74 68 95 69 62 70 46 71 47 72 55 73 48 74 54 75
REMARK SMILES IDX 56 76 53 77 49 78 50 79 51 80 52 81 78 82 79 83 87 84 80 85
REMARK SMILES IDX 86 86 88 87 85 88 81 89 82 90 83 91 84 92 63 93 64 94 72 95
REMARK SMILES IDX 65 96 71 97 73 98 70 99 66 100 67 101 68 102 69 103
REMARK H PARENT 93 56 61 67
REMARK Flexibility Score: inf
ROOT
ATOM      1  C   UNL     1      -1.621   6.915   1.339  1.00  0.00     0.188 C 
ENDROOT
BRANCH   1   2
ATOM      2  C   UNL     1      -1.750   8.174   0.435  1.00  0.00     0.188 C 
BRANCH   2   3
ATOM      3  O   UNL     1      -3.039   8.675   0.183  1.00  0.00    -0.376 OA
BRANCH   3   4
ATOM      4  C   UNL     1      -3.970   7.653  -0.101  1.00  0.00     0.202 C 
BRANCH   4   5
ATOM      5  C   UNL     1      -3.501   6.498  -1.069  1.00  0.00     0.261 C 
BRANCH   5   6
ATOM      6  O   UNL     1      -2.189   5.813  -0.825  1.00  0.00    -0.463 OA
BRANCH   6   7
ATOM      7  C   UNL     1      -1.079   6.011  -1.603  1.00  0.00     0.311 C 
ATOM      8  O   UNL     1      -1.223   6.362  -2.779  1.00  0.00    -0.252 OA
BRANCH   7   9
ATOM      9  C   UNL     1       0.426   5.984  -0.975  1.00  0.00     0.177 C 
BRANCH   9  10
ATOM     10  C   UNL     1       0.961   5.396   0.415  1.00  0.00     0.037 A 
ATOM     11  C   UNL     1       1.080   0.379  -0.070  1.00  0.00     0.013 C 
ATOM     12  C   UNL     1       0.493   1.656   0.551  1.00  0.00    -0.012 C 
ATOM     13  C   UNL     1      -0.968   1.367   0.941  1.00  0.00     0.013 C 
ATOM     14  C   UNL     1       1.314   2.066   1.804  1.00  0.00     0.063 C 
ATOM     15  C   UNL     1       0.582   2.902  -0.398  1.00  0.00     0.129 C 
ATOM     16  C   UNL     1       1.414   3.539   1.675  1.00  0.00     0.027 A 
ATOM     17  N   UNL     1       0.985   4.007   0.484  1.00  0.00    -0.346 N 
ATOM     18  C   UNL     1       1.772   4.584   2.471  1.00  0.00     0.011 A 
ATOM     19  C   UNL     1       1.599   5.849   1.702  1.00  0.00     0.011 A 
BRANCH  18  20
ATOM     20  C   UNL     1       2.069   4.296   3.865  1.00  0.00    -0.016 A 
ATOM     21  C   UNL     1       3.361   3.965   4.274  1.00  0.00     0.009 A 
ATOM     22  C   UNL     1       1.052   4.416   4.824  1.00  0.00     0.009 A 
ATOM     23  C   UNL     1       3.658   3.919   5.638  1.00  0.00     0.001 A 
ATOM     24  C   UNL     1       1.366   4.456   6.181  1.00  0.00     0.001 A 
ATOM     25  C   UNL     1       2.677   4.225   6.586  1.00  0.00     0.000 A 
ENDBRANCH  18  20
BRANCH  19  26
ATOM     26  C   UNL     1       1.805   7.326   2.471  1.00  0.00    -0.016 A 
ATOM     27  C   UNL     1       1.940   7.273   4.307  1.00  0.00     0.010 A 
ATOM     28  C   UNL     1       0.906   8.696   1.762  1.00  0.00     0.010 A 
ATOM     29  C   UNL     1       0.991   8.433   5.390  1.00  0.00     0.021 A 
ATOM     30  C   UNL     1      -0.056   9.874   2.769  1.00  0.00     0.021 A 
ATOM     31  C   UNL     1      -0.036   9.734   4.627  1.00  0.00     0.041 A 
ATOM     32  Cl  UNL     1      -1.065  10.727   5.582  1.00  0.00    -0.084 Cl
ENDBRANCH  19  26
ENDBRANCH   9  10
ENDBRANCH   7   9
ENDBRANCH   6   7
ENDBRANCH   5   6
ENDBRANCH   4   5
ENDBRANCH   3   4
ENDBRANCH   2   3
ENDBRANCH   1   2
BRANCH   1  33
ATOM     33  O   UNL     1      -2.782   6.378   1.905  1.00  0.00    -0.376 OA
BRANCH  33  34
ATOM     34  C   UNL     1      -2.993   6.514   3.287  1.00  0.00     0.202 C 
BRANCH  34  35
ATOM     35  C   UNL     1      -2.306   7.590   4.115  1.00  0.00     0.261 C 
BRANCH  35  36
ATOM     36  O   UNL     1      -1.326   8.388   3.440  1.00  0.00    -0.460 OA
BRANCH  36  37
ATOM     37  C   UNL     1       0.148   8.004   3.603  1.00  0.00     0.338 C 
ATOM     38  O   UNL     1      -0.028   6.778   3.859  1.00  0.00    -0.246 OA
BRANCH  37  39
ATOM     39  C   UNL     1       1.811   9.335   3.643  1.00  0.00     0.060 A 
ATOM     40  C   UNL     1       3.215   9.186   4.132  1.00  0.00     0.016 A 
ATOM     41  C   UNL     1       1.842  10.807   3.645  1.00  0.00     0.016 A 
ATOM     42  C   UNL     1       3.752   9.922   5.279  1.00  0.00     0.010 A 
ATOM     43  C   UNL     1       2.464  11.536   4.654  1.00  0.00     0.010 A 
ATOM     44  C   UNL     1       3.011  10.967   5.788  1.00  0.00    -0.014 A 
BRANCH  44  45
ATOM     45  C   UNL     1       3.224  11.979   6.930  1.00  0.00     0.031 A 
ATOM     46  C   UNL     1       3.906  13.147   6.291  1.00  0.00     0.074 A 
ATOM     47  C   UNL     1       2.735  12.155   8.216  1.00  0.00     0.049 A 
ATOM     48  N   UNL     1       5.137  13.087   5.867  1.00  0.00    -0.248 NA
ATOM     49  C   UNL     1       3.092  14.165   5.559  1.00  0.00     0.031 C 
ATOM     50  C   UNL     1       1.857  11.312   9.042  1.00  0.00     0.029 A 
ATOM     51  N   UNL     1       2.939  13.225   9.113  1.00  0.00    -0.354 N 
ATOM     52  C   UNL     1       5.293  14.280   5.193  1.00  0.00     0.074 A 
ATOM     53  C   UNL     1       4.003  14.543   4.647  1.00  0.00     0.031 C 
ATOM     54  C   UNL     1       1.462  11.961  10.182  1.00  0.00     0.029 A 
ATOM     55  C   UNL     1       2.119  13.260  10.295  1.00  0.00     0.049 A 
ATOM     56  H   UNL     1       3.614  13.920   8.937  1.00  0.00     0.167 HD
ATOM     57  C   UNL     1       6.175  15.203   5.664  1.00  0.00     0.034 A 
ATOM     58  C   UNL     1       2.077  14.190  11.342  1.00  0.00     0.034 A 
ATOM     59  C   UNL     1       7.042  14.576   6.662  1.00  0.00     0.049 A 
ATOM     60  C   UNL     1       3.383  14.886  11.330  1.00  0.00     0.074 A 
ATOM     61  C   UNL     1       7.820  13.431   6.721  1.00  0.00     0.029 A 
ATOM     62  N   UNL     1       6.777  14.906   7.971  1.00  0.00    -0.354 N 
ATOM     63  N   UNL     1       4.503  14.285  11.604  1.00  0.00    -0.248 NA
ATOM     64  C   UNL     1       3.471  16.043  10.463  1.00  0.00     0.031 C 
ATOM     65  C   UNL     1       7.626  12.899   8.036  1.00  0.00     0.029 A 
ATOM     66  C   UNL     1       6.876  13.806   8.782  1.00  0.00     0.049 A 
ATOM     67  H   UNL     1       6.546  15.810   8.283  1.00  0.00     0.167 HD
ATOM     68  C   UNL     1       5.325  14.627  10.546  1.00  0.00     0.074 A 
ATOM     69  C   UNL     1       4.644  15.754   9.894  1.00  0.00     0.031 C 
ATOM     70  C   UNL     1       6.278  13.749  10.106  1.00  0.00     0.034 A 
BRANCH  57  71
ATOM     71  C   UNL     1       5.875  16.704   5.668  1.00  0.00     0.023 A 
ATOM     72  C   UNL     1       6.868  17.510   6.239  1.00  0.00     0.031 A 
ATOM     73  C   UNL     1       4.643  17.368   5.405  1.00  0.00     0.131 A 
ATOM     74  C   UNL     1       6.587  18.827   6.639  1.00  0.00     0.055 A 
ATOM     75  C   UNL     1       4.383  18.689   5.771  1.00  0.00     0.041 A 
ATOM     76  F   UNL     1       3.580  16.803   4.829  1.00  0.00    -0.206 F 
ATOM     77  C   UNL     1       5.351  19.422   6.417  1.00  0.00     0.022 A 
BRANCH  74  78
ATOM     78  S   UNL     1       7.839  19.692   7.604  1.00  0.00     0.124 S 
ATOM     79  O   UNL     1       7.962  18.810   8.758  1.00  0.00    -0.237 OA
ATOM     80  O   UNL     1       8.966  19.707   6.678  1.00  0.00    -0.237 OA
ATOM     81  O   UNL     1       7.223  20.991   7.861  1.00  0.00    -0.744 OA
ENDBRANCH  74  78
ENDBRANCH  57  71
BRANCH  58  82
ATOM     82  C   UNL     1       0.937  14.839  12.168  1.00  0.00     0.023 A 
ATOM     83  C   UNL     1       1.082  15.746  13.294  1.00  0.00     0.031 A 
ATOM     84  C   UNL     1      -0.351  14.808  11.609  1.00  0.00     0.131 A 
ATOM     85  C   UNL     1      -0.021  16.543  13.767  1.00  0.00     0.055 A 
ATOM     86  C   UNL     1      -1.411  15.616  12.056  1.00  0.00     0.041 A 
ATOM     87  F   UNL     1      -0.608  14.045  10.538  1.00  0.00    -0.206 F 
ATOM     88  C   UNL     1      -1.251  16.490  13.120  1.00  0.00     0.022 A 
BRANCH  85  89
ATOM     89  S   UNL     1       0.070  17.724  15.201  1.00  0.00     0.124 S 
ATOM     90  O   UNL     1       0.272  16.836  16.340  1.00  0.00    -0.237 OA
ATOM     91  O   UNL     1       1.185  18.594  14.847  1.00  0.00    -0.237 OA
ATOM     92  O   UNL     1      -1.237  18.390  15.187  1.00  0.00    -0.744 OA
ENDBRANCH  85  89
ENDBRANCH  58  82
BRANCH  70  93
ATOM     93  C   UNL     1       6.677  12.605  11.028  1.00  0.00     0.023 A 
ATOM     94  C   UNL     1       5.819  11.627  11.597  1.00  0.00     0.031 A 
ATOM     95  C   UNL     1       8.048  12.505  11.322  1.00  0.00     0.131 A 
ATOM     96  C   UNL     1       6.351  10.627  12.444  1.00  0.00     0.055 A 
ATOM     97  C   UNL     1       8.571  11.501  12.132  1.00  0.00     0.041 A 
ATOM     98  F   UNL     1       8.918  13.392  10.812  1.00  0.00    -0.206 F 
ATOM     99  C   UNL     1       7.723  10.565  12.707  1.00  0.00     0.022 A 
BRANCH  96 100
ATOM    100  S   UNL     1       5.270   9.419  13.287  1.00  0.00     0.124 S 
ATOM    101  O   UNL     1       4.185  10.239  13.811  1.00  0.00    -0.237 OA
ATOM    102  O   UNL     1       4.914   8.505  12.204  1.00  0.00    -0.237 OA
ATOM    103  O   UNL     1       6.142   8.835  14.309  1.00  0.00    -0.744 OA
ENDBRANCH  96 100
ENDBRANCH  70  93
ENDBRANCH  44  45
ENDBRANCH  37  39
ENDBRANCH  36  37
ENDBRANCH  35  36
ENDBRANCH  34  35
ENDBRANCH  33  34
ENDBRANCH   1  33
TORSDOF 23
