REMARK SMILES O=C(OCCOCCOCCOC(=O)[C@H]1C=NC2=C(CCCC2)C1=O)c1ccc(-c2c3nc(c(-c4cc(S(=O)(=O)[O-])ccc4F)c4ccc([nH]4)c(-c4cc(S(=O)(=O)[O-])ccc4F)c4nc(c(-c5cc(S(=O)(=O)[O-])ccc5F)c5ccc2[nH]5)C=C4)C=C3)cc1
REMARK SMILES IDX 6 1 5 2 4 3 3 4 2 5 1 6 26 7 27 8 88 9 28 10 87 11 29 12
REMARK SMILES IDX 30 13 31 14 81 15 32 16 86 17 80 18 82 19 33 20 85 21 79 22
REMARK SMILES IDX 78 23 34 25 66 26 46 27 65 28 47 29 50 30 64 31 83 32 48 33
REMARK SMILES IDX 49 34 63 36 84 37 51 38 35 39 36 40 44 41 37 42 43 43 45 44
REMARK SMILES IDX 42 45 38 46 39 47 40 48 41 49 67 50 68 51 76 52 69 53 75 54
REMARK SMILES IDX 77 55 74 56 70 57 71 58 72 59 73 60 52 61 53 62 61 63 54 64
REMARK SMILES IDX 60 65 62 66 59 67 55 68 56 69 57 70 58 71 7 72 8 73 9 74
REMARK SMILES IDX 10 75 11 76 12 77 13 78 14 79 15 80 16 81 24 82 17 83 19 84
REMARK SMILES IDX 25 85 18 86 20 87 23 88 21 89 22 90
REMARK H PARENT 82 24 50 35
REMARK Flexibility Score: inf
ROOT
ATOM      1  O   UNL     1       3.810  -0.259  -1.589  1.00  0.00    -0.376 OA
ENDROOT
BRANCH   1   2
ATOM      2  C   UNL     1       4.614  -1.225  -0.901  1.00  0.00     0.202 C 
BRANCH   2   3
ATOM      3  C   UNL     1       4.322  -1.371   0.600  1.00  0.00     0.261 C 
BRANCH   3   4
ATOM      4  O   UNL     1       2.923  -1.229   0.896  1.00  0.00    -0.460 OA
BRANCH   4   5
ATOM      5  C   UNL     1       2.277  -0.126   1.355  1.00  0.00     0.338 C 
ATOM      6  O   UNL     1       1.085  -0.224   1.641  1.00  0.00    -0.246 OA
BRANCH   5   7
ATOM      7  C   UNL     1       2.941   1.202   1.553  1.00  0.00     0.060 A 
ATOM      8  C   UNL     1       4.079   1.640   0.874  1.00  0.00     0.016 A 
ATOM      9  C   UNL     1       2.346   2.087   2.470  1.00  0.00     0.016 A 
ATOM     10  C   UNL     1       4.703   2.836   1.204  1.00  0.00     0.010 A 
ATOM     11  C   UNL     1       2.929   3.326   2.760  1.00  0.00     0.010 A 
ATOM     12  C   UNL     1       4.147   3.674   2.168  1.00  0.00    -0.014 A 
BRANCH  12  13
ATOM     13  C   UNL     1       4.965   4.807   2.651  1.00  0.00     0.031 A 
ATOM     14  C   UNL     1       5.638   4.675   3.987  1.00  0.00     0.074 A 
ATOM     15  C   UNL     1       5.224   5.845   1.835  1.00  0.00     0.049 A 
ATOM     16  N   UNL     1       6.424   5.510   4.609  1.00  0.00    -0.248 NA
ATOM     17  C   UNL     1       5.393   3.420   4.715  1.00  0.00     0.031 C 
ATOM     18  C   UNL     1       4.690   5.994   0.480  1.00  0.00     0.029 A 
ATOM     19  N   UNL     1       6.028   6.940   1.998  1.00  0.00    -0.354 N 
ATOM     20  C   UNL     1       6.742   4.897   5.817  1.00  0.00     0.074 A 
ATOM     21  C   UNL     1       6.047   3.629   5.844  1.00  0.00     0.031 C 
ATOM     22  C   UNL     1       5.226   7.088  -0.085  1.00  0.00     0.029 A 
ATOM     23  C   UNL     1       6.079   7.757   0.892  1.00  0.00     0.049 A 
ATOM     24  H   UNL     1       6.523   7.125   2.829  1.00  0.00     0.167 HD
ATOM     25  C   UNL     1       7.537   5.360   6.813  1.00  0.00     0.034 A 
ATOM     26  C   UNL     1       6.727   8.925   0.710  1.00  0.00     0.034 A 
ATOM     27  C   UNL     1       8.197   6.640   6.752  1.00  0.00     0.049 A 
ATOM     28  C   UNL     1       7.536   9.463   1.865  1.00  0.00     0.074 A 
ATOM     29  C   UNL     1       8.960   7.274   7.715  1.00  0.00     0.029 A 
ATOM     30  N   UNL     1       8.163   7.490   5.649  1.00  0.00    -0.354 N 
ATOM     31  N   UNL     1       7.765   8.916   3.039  1.00  0.00    -0.248 NA
ATOM     32  C   UNL     1       8.161  10.776   1.678  1.00  0.00     0.031 C 
ATOM     33  C   UNL     1       9.333   8.529   7.218  1.00  0.00     0.029 A 
ATOM     34  C   UNL     1       8.871   8.649   5.915  1.00  0.00     0.049 A 
ATOM     35  H   UNL     1       7.702   7.294   4.801  1.00  0.00     0.167 HD
ATOM     36  C   UNL     1       8.576   9.814   3.726  1.00  0.00     0.074 A 
ATOM     37  C   UNL     1       8.814  10.924   2.822  1.00  0.00     0.031 C 
ATOM     38  C   UNL     1       9.080   9.737   4.986  1.00  0.00     0.034 A 
BRANCH  25  39
ATOM     39  C   UNL     1       7.613   4.516   8.064  1.00  0.00     0.023 A 
ATOM     40  C   UNL     1       8.137   3.210   8.051  1.00  0.00     0.031 A 
ATOM     41  C   UNL     1       7.026   4.974   9.257  1.00  0.00     0.131 A 
ATOM     42  C   UNL     1       7.960   2.373   9.165  1.00  0.00     0.055 A 
ATOM     43  C   UNL     1       6.938   4.168  10.394  1.00  0.00     0.041 A 
ATOM     44  F   UNL     1       6.482   6.200   9.324  1.00  0.00    -0.206 F 
ATOM     45  C   UNL     1       7.384   2.851  10.345  1.00  0.00     0.022 A 
BRANCH  42  46
ATOM     46  S   UNL     1       8.300   0.599   8.980  1.00  0.00     0.124 S 
ATOM     47  O   UNL     1       7.419   0.244   7.869  1.00  0.00    -0.237 OA
ATOM     48  O   UNL     1       9.729   0.580   8.690  1.00  0.00    -0.237 OA
ATOM     49  O   UNL     1       7.917   0.038  10.273  1.00  0.00    -0.744 OA
ENDBRANCH  42  46
ENDBRANCH  25  39
BRANCH  26  50
ATOM     50  C   UNL     1       6.602   9.679  -0.573  1.00  0.00     0.023 A 
ATOM     51  C   UNL     1       7.724   9.965  -1.368  1.00  0.00     0.031 A 
ATOM     52  C   UNL     1       5.352  10.159  -1.010  1.00  0.00     0.131 A 
ATOM     53  C   UNL     1       7.580  10.732  -2.537  1.00  0.00     0.055 A 
ATOM     54  C   UNL     1       5.206  10.872  -2.201  1.00  0.00     0.041 A 
ATOM     55  F   UNL     1       4.245   9.928  -0.287  1.00  0.00    -0.206 F 
ATOM     56  C   UNL     1       6.327  11.173  -2.967  1.00  0.00     0.022 A 
BRANCH  53  57
ATOM     57  S   UNL     1       9.070  11.212  -3.456  1.00  0.00     0.124 S 
ATOM     58  O   UNL     1       9.825  11.938  -2.441  1.00  0.00    -0.237 OA
ATOM     59  O   UNL     1       9.612   9.917  -3.854  1.00  0.00    -0.237 OA
ATOM     60  O   UNL     1       8.549  12.030  -4.549  1.00  0.00    -0.744 OA
ENDBRANCH  53  57
ENDBRANCH  26  50
BRANCH  38  61
ATOM     61  C   UNL     1       9.972  10.870   5.424  1.00  0.00     0.023 A 
ATOM     62  C   UNL     1       9.474  12.168   5.627  1.00  0.00     0.031 A 
ATOM     63  C   UNL     1      11.345  10.644   5.629  1.00  0.00     0.131 A 
ATOM     64  C   UNL     1      10.354  13.206   5.964  1.00  0.00     0.055 A 
ATOM     65  C   UNL     1      12.204  11.668   6.025  1.00  0.00     0.041 A 
ATOM     66  F   UNL     1      11.870   9.421   5.448  1.00  0.00    -0.206 F 
ATOM     67  C   UNL     1      11.713  12.961   6.181  1.00  0.00     0.022 A 
BRANCH  64  68
ATOM     68  S   UNL     1       9.716  14.902   6.018  1.00  0.00     0.124 S 
ATOM     69  O   UNL     1       9.182  15.069   4.670  1.00  0.00    -0.237 OA
ATOM     70  O   UNL     1       8.729  14.831   7.090  1.00  0.00    -0.237 OA
ATOM     71  O   UNL     1      10.901  15.704   6.319  1.00  0.00    -0.744 OA
ENDBRANCH  64  68
ENDBRANCH  38  61
ENDBRANCH  12  13
ENDBRANCH   5   7
ENDBRANCH   4   5
ENDBRANCH   3   4
ENDBRANCH   2   3
ENDBRANCH   1   2
BRANCH   1  72
ATOM     72  C   UNL     1       2.512  -0.744  -1.958  1.00  0.00     0.188 C 
BRANCH  72  73
ATOM     73  C   UNL     1       2.070  -0.184  -3.313  1.00  0.00     0.188 C 
BRANCH  73  74
ATOM     74  O   UNL     1       2.761  -0.699  -4.455  1.00  0.00    -0.376 OA
BRANCH  74  75
ATOM     75  C   UNL     1       4.176  -0.522  -4.497  1.00  0.00     0.202 C 
BRANCH  75  76
ATOM     76  C   UNL     1       4.684   0.900  -4.767  1.00  0.00     0.261 C 
BRANCH  76  77
ATOM     77  O   UNL     1       4.242   1.851  -3.786  1.00  0.00    -0.462 OA
BRANCH  77  78
ATOM     78  C   UNL     1       3.447   2.856  -4.258  1.00  0.00     0.322 C 
ATOM     79  O   UNL     1       3.201   3.056  -5.437  1.00  0.00    -0.251 OA
BRANCH  78  80
ATOM     80  C   UNL     1       2.880   3.675  -3.131  1.00  0.00     0.212 C 
ATOM     81  C   UNL     1       3.555   5.003  -3.054  1.00  0.00     0.107 C 
ATOM     82  C   UNL     1       1.403   3.835  -3.336  1.00  0.00     0.180 C 
ATOM     83  N   UNL     1       3.054   6.112  -3.498  1.00  0.00    -0.264 NA
ATOM     84  C   UNL     1       0.958   5.048  -4.060  1.00  0.00     0.018 C 
ATOM     85  O   UNL     1       0.595   2.964  -3.013  1.00  0.00    -0.293 OA
ATOM     86  C   UNL     1       1.822   6.077  -4.109  1.00  0.00     0.047 C 
ATOM     87  C   UNL     1      -0.380   5.010  -4.735  1.00  0.00     0.041 C 
ATOM     88  C   UNL     1       1.484   7.319  -4.904  1.00  0.00     0.056 C 
ATOM     89  C   UNL     1      -0.807   6.361  -5.307  1.00  0.00     0.005 C 
ATOM     90  C   UNL     1       0.372   7.098  -5.932  1.00  0.00     0.007 C 
ENDBRANCH  78  80
ENDBRANCH  77  78
ENDBRANCH  76  77
ENDBRANCH  75  76
ENDBRANCH  74  75
ENDBRANCH  73  74
ENDBRANCH  72  73
ENDBRANCH   1  72
TORSDOF 20
