REMARK SMILES N#Cc1ccccc1Cn1cccc1C(=O)OCCOCCOCCOC(=O)c1ccc(-c2c3nc(c(-c4cc(S(=O)(=O)[O-])ccc4F)c4ccc([nH]4)c(-c4cc(S(=O)(=O)[O-])ccc4F)c4nc(c(-c5cc(S(=O)(=O)[O-])ccc5F)c5ccc2[nH]5)C=C4)C=C3)cc1
REMARK SMILES IDX 21 1 20 2 19 3 18 4 17 5 15 6 16 7 14 8 10 9 11 10 12 11
REMARK SMILES IDX 13 12 9 13 8 14 3 15 4 16 5 17 7 18 6 19 2 20 1 21 22 22
REMARK SMILES IDX 23 23 24 24 25 25 26 26 27 27 28 28 29 29 30 30 91 31 31 32
REMARK SMILES IDX 90 33 32 34 33 35 34 36 84 37 35 38 89 39 83 40 85 41 36 42
REMARK SMILES IDX 88 43 82 44 81 45 37 47 69 48 49 49 68 50 50 51 53 52 67 53
REMARK SMILES IDX 86 54 51 55 52 56 66 58 87 59 54 60 38 61 39 62 47 63 40 64
REMARK SMILES IDX 46 65 48 66 45 67 41 68 42 69 43 70 44 71 70 72 71 73 79 74
REMARK SMILES IDX 72 75 78 76 80 77 77 78 73 79 74 80 75 81 76 82 55 83 56 84
REMARK SMILES IDX 64 85 57 86 63 87 65 88 62 89 58 90 59 91 60 92 61 93
REMARK H PARENT 85 46 53 57
REMARK Flexibility Score: inf
ROOT
ATOM      1  C   UNL     1      -3.011  -1.877  -4.077  1.00  0.00     0.188 C 
ENDROOT
BRANCH   1   2
ATOM      2  O   UNL     1      -4.335  -1.468  -3.833  1.00  0.00    -0.376 OA
BRANCH   2   3
ATOM      3  C   UNL     1      -5.057  -1.976  -2.726  1.00  0.00     0.202 C 
BRANCH   3   4
ATOM      4  C   UNL     1      -4.467  -2.756  -1.528  1.00  0.00     0.261 C 
BRANCH   4   5
ATOM      5  O   UNL     1      -3.045  -2.875  -1.430  1.00  0.00    -0.459 OA
BRANCH   5   6
ATOM      6  C   UNL     1      -2.535  -4.103  -1.716  1.00  0.00     0.355 C 
ATOM      7  O   UNL     1      -3.209  -5.091  -1.982  1.00  0.00    -0.244 OA
BRANCH   6   8
ATOM      8  C   UNL     1      -1.097  -4.040  -1.871  1.00  0.00     0.127 A 
ATOM      9  N   UNL     1      -0.129  -3.445  -1.067  1.00  0.00    -0.338 N 
ATOM     10  C   UNL     1       1.109  -3.835  -1.544  1.00  0.00     0.087 A 
ATOM     11  C   UNL     1       0.955  -4.425  -2.773  1.00  0.00     0.020 A 
ATOM     12  C   UNL     1      -0.425  -4.584  -2.964  1.00  0.00     0.035 A 
BRANCH   9  13
ATOM     13  C   UNL     1      -0.327  -2.695   0.189  1.00  0.00     0.159 C 
BRANCH  13  14
ATOM     14  C   UNL     1       0.310  -1.307   0.207  1.00  0.00    -0.010 A 
ATOM     15  C   UNL     1      -0.448  -0.123   0.336  1.00  0.00     0.057 A 
ATOM     16  C   UNL     1       0.176   1.137   0.229  1.00  0.00     0.020 A 
ATOM     17  C   UNL     1       1.556   1.241   0.069  1.00  0.00     0.001 A 
ATOM     18  C   UNL     1       1.711  -1.163   0.145  1.00  0.00     0.007 A 
ATOM     19  C   UNL     1       2.326   0.089   0.060  1.00  0.00     0.000 A 
BRANCH  15  20
ATOM     20  C   UNL     1      -1.835  -0.147   0.679  1.00  0.00     0.099 C 
ATOM     21  N   UNL     1      -2.955  -0.168   1.034  1.00  0.00    -0.192 NA
ENDBRANCH  15  20
ENDBRANCH  13  14
ENDBRANCH   9  13
ENDBRANCH   6   8
ENDBRANCH   5   6
ENDBRANCH   4   5
ENDBRANCH   3   4
ENDBRANCH   2   3
ENDBRANCH   1   2
BRANCH   1  22
ATOM     22  C   UNL     1      -1.926  -1.046  -3.377  1.00  0.00     0.188 C 
BRANCH  22  23
ATOM     23  O   UNL     1      -2.228  -0.246  -2.251  1.00  0.00    -0.376 OA
BRANCH  23  24
ATOM     24  C   UNL     1      -3.250   0.737  -2.212  1.00  0.00     0.202 C 
BRANCH  24  25
ATOM     25  C   UNL     1      -3.732   1.562  -3.404  1.00  0.00     0.261 C 
BRANCH  25  26
ATOM     26  O   UNL     1      -3.300   1.139  -4.676  1.00  0.00    -0.460 OA
BRANCH  26  27
ATOM     27  C   UNL     1      -2.037   1.541  -4.902  1.00  0.00     0.338 C 
ATOM     28  O   UNL     1      -1.224   1.970  -4.099  1.00  0.00    -0.246 OA
BRANCH  27  29
ATOM     29  C   UNL     1      -1.786   1.509  -6.327  1.00  0.00     0.060 A 
ATOM     30  C   UNL     1      -0.484   1.199  -6.719  1.00  0.00     0.016 A 
ATOM     31  C   UNL     1      -2.677   2.262  -7.096  1.00  0.00     0.016 A 
ATOM     32  C   UNL     1       0.004   1.835  -7.831  1.00  0.00     0.010 A 
ATOM     33  C   UNL     1      -2.166   2.952  -8.163  1.00  0.00     0.010 A 
ATOM     34  C   UNL     1      -0.821   2.758  -8.493  1.00  0.00    -0.014 A 
BRANCH  34  35
ATOM     35  C   UNL     1      -0.301   3.338  -9.728  1.00  0.00     0.031 A 
ATOM     36  C   UNL     1      -0.601   2.303 -10.860  1.00  0.00     0.074 A 
ATOM     37  C   UNL     1       0.373   4.531  -9.568  1.00  0.00     0.049 A 
ATOM     38  N   UNL     1       0.098   1.985 -11.898  1.00  0.00    -0.248 NA
ATOM     39  C   UNL     1      -1.785   1.378 -10.760  1.00  0.00     0.031 C 
ATOM     40  C   UNL     1       0.437   5.345  -8.316  1.00  0.00     0.029 A 
ATOM     41  N   UNL     1       1.140   5.325 -10.394  1.00  0.00    -0.354 N 
ATOM     42  C   UNL     1      -0.683   1.117 -12.701  1.00  0.00     0.074 A 
ATOM     43  C   UNL     1      -1.735   0.639 -11.871  1.00  0.00     0.031 C 
ATOM     44  C   UNL     1       1.270   6.412  -8.446  1.00  0.00     0.029 A 
ATOM     45  C   UNL     1       1.832   6.432  -9.784  1.00  0.00     0.049 A 
ATOM     46  H   UNL     1       1.211   5.144 -11.359  1.00  0.00     0.167 HD
ATOM     47  C   UNL     1      -0.503   1.024 -14.051  1.00  0.00     0.034 A 
ATOM     48  C   UNL     1       2.812   7.240 -10.335  1.00  0.00     0.034 A 
ATOM     49  C   UNL     1       0.595   1.859 -14.410  1.00  0.00     0.049 A 
ATOM     50  C   UNL     1       2.803   6.795 -11.737  1.00  0.00     0.074 A 
ATOM     51  C   UNL     1       1.934   1.754 -14.142  1.00  0.00     0.029 A 
ATOM     52  N   UNL     1       0.287   3.164 -14.732  1.00  0.00    -0.354 N 
ATOM     53  N   UNL     1       1.871   7.075 -12.594  1.00  0.00    -0.248 NA
ATOM     54  C   UNL     1       3.841   5.853 -12.176  1.00  0.00     0.031 C 
ATOM     55  C   UNL     1       2.242   3.062 -13.730  1.00  0.00     0.029 A 
ATOM     56  C   UNL     1       1.235   3.950 -14.135  1.00  0.00     0.049 A 
ATOM     57  H   UNL     1      -0.469   3.470 -15.283  1.00  0.00     0.167 HD
ATOM     58  C   UNL     1       2.030   6.090 -13.532  1.00  0.00     0.074 A 
ATOM     59  C   UNL     1       3.399   5.625 -13.410  1.00  0.00     0.031 C 
ATOM     60  C   UNL     1       0.958   5.350 -13.921  1.00  0.00     0.034 A 
BRANCH  47  61
ATOM     61  C   UNL     1      -1.336   0.503 -15.191  1.00  0.00     0.023 A 
ATOM     62  C   UNL     1      -0.703   0.545 -16.458  1.00  0.00     0.031 A 
ATOM     63  C   UNL     1      -2.724   0.337 -15.195  1.00  0.00     0.131 A 
ATOM     64  C   UNL     1      -1.437   0.646 -17.641  1.00  0.00     0.055 A 
ATOM     65  C   UNL     1      -3.457   0.338 -16.395  1.00  0.00     0.041 A 
ATOM     66  F   UNL     1      -3.428   0.258 -14.057  1.00  0.00    -0.206 F 
ATOM     67  C   UNL     1      -2.821   0.545 -17.620  1.00  0.00     0.022 A 
BRANCH  64  68
ATOM     68  S   UNL     1      -0.540   1.134 -19.142  1.00  0.00     0.124 S 
ATOM     69  O   UNL     1       0.045   2.409 -18.742  1.00  0.00    -0.237 OA
ATOM     70  O   UNL     1       0.398   0.028 -19.311  1.00  0.00    -0.237 OA
ATOM     71  O   UNL     1      -1.592   1.217 -20.151  1.00  0.00    -0.744 OA
ENDBRANCH  64  68
ENDBRANCH  47  61
BRANCH  48  72
ATOM     72  C   UNL     1       3.897   8.301 -10.027  1.00  0.00     0.023 A 
ATOM     73  C   UNL     1       4.109   9.045  -8.848  1.00  0.00     0.031 A 
ATOM     74  C   UNL     1       4.898   8.548 -11.036  1.00  0.00     0.131 A 
ATOM     75  C   UNL     1       5.291   9.856  -8.702  1.00  0.00     0.055 A 
ATOM     76  C   UNL     1       6.093   9.242 -10.847  1.00  0.00     0.041 A 
ATOM     77  F   UNL     1       4.765   8.127 -12.300  1.00  0.00    -0.206 F 
ATOM     78  C   UNL     1       6.308   9.888  -9.661  1.00  0.00     0.022 A 
BRANCH  75  79
ATOM     79  S   UNL     1       5.575  10.924  -7.247  1.00  0.00     0.124 S 
ATOM     80  O   UNL     1       4.836  12.129  -7.605  1.00  0.00    -0.237 OA
ATOM     81  O   UNL     1       5.028  10.132  -6.152  1.00  0.00    -0.237 OA
ATOM     82  O   UNL     1       7.030  11.082  -7.217  1.00  0.00    -0.744 OA
ENDBRANCH  75  79
ENDBRANCH  48  72
BRANCH  60  83
ATOM     83  C   UNL     1      -0.409   6.009 -13.722  1.00  0.00     0.023 A 
ATOM     84  C   UNL     1      -0.647   7.288 -14.264  1.00  0.00     0.031 A 
ATOM     85  C   UNL     1      -1.449   5.481 -12.933  1.00  0.00     0.131 A 
ATOM     86  C   UNL     1      -1.841   7.989 -13.997  1.00  0.00     0.055 A 
ATOM     87  C   UNL     1      -2.641   6.176 -12.664  1.00  0.00     0.041 A 
ATOM     88  F   UNL     1      -1.347   4.272 -12.380  1.00  0.00    -0.206 F 
ATOM     89  C   UNL     1      -2.842   7.440 -13.197  1.00  0.00     0.022 A 
BRANCH  86  90
ATOM     90  S   UNL     1      -2.081   9.632 -14.727  1.00  0.00     0.124 S 
ATOM     91  O   UNL     1      -1.105  10.447 -14.013  1.00  0.00    -0.237 OA
ATOM     92  O   UNL     1      -1.804   9.392 -16.140  1.00  0.00    -0.237 OA
ATOM     93  O   UNL     1      -3.479   9.941 -14.424  1.00  0.00    -0.744 OA
ENDBRANCH  86  90
ENDBRANCH  60  83
ENDBRANCH  34  35
ENDBRANCH  27  29
ENDBRANCH  26  27
ENDBRANCH  25  26
ENDBRANCH  24  25
ENDBRANCH  23  24
ENDBRANCH  22  23
ENDBRANCH   1  22
TORSDOF 23
