REMARK SMILES O=C(OCCOCCOCCOC(=O)c1cncc(OCCCc2ccccc2)n1)c1ccc(-c2c3nc(c(-c4cc(S(=O)(=O)[O-])ccc4F)c4ccc([nH]4)c(-c4cc(S(=O)(=O)[O-])ccc4F)c4nc(c(-c5cc(S(=O)(=O)[O-])ccc5F)c5ccc2[nH]5)C=C4)C=C3)cc1
REMARK SMILES IDX 8 1 7 2 6 3 5 4 4 5 3 6 2 7 1 8 31 9 32 10 93 11 33 12 92 13
REMARK SMILES IDX 34 14 35 15 36 16 86 17 37 18 91 19 85 20 87 21 38 22 90 23
REMARK SMILES IDX 84 24 83 25 39 27 71 28 51 29 70 30 52 31 55 32 69 33 88 34
REMARK SMILES IDX 53 35 54 36 68 38 89 39 56 40 40 41 41 42 49 43 42 44 48 45
REMARK SMILES IDX 50 46 47 47 43 48 44 49 45 50 46 51 72 52 73 53 81 54 74 55
REMARK SMILES IDX 80 56 82 57 79 58 75 59 76 60 77 61 78 62 57 63 58 64 66 65
REMARK SMILES IDX 59 66 65 67 67 68 64 69 60 70 61 71 62 72 63 73 9 74 10 75
REMARK SMILES IDX 11 76 12 77 13 78 14 79 15 80 16 81 30 82 17 83 19 84 18 85
REMARK SMILES IDX 20 86 21 87 22 88 23 89 24 90 25 91 29 92 26 93 28 94 27 95
REMARK H PARENT 87 26 55 37
REMARK Flexibility Score: inf
ROOT
ATOM      1  C   UNL     1       2.709  -3.124  -0.822  1.00  0.00     0.188 C 
ENDROOT
BRANCH   1   2
ATOM      2  C   UNL     1       3.259  -1.975   0.023  1.00  0.00     0.188 C 
BRANCH   2   3
ATOM      3  O   UNL     1       4.637  -1.705  -0.274  1.00  0.00    -0.376 OA
BRANCH   3   4
ATOM      4  C   UNL     1       5.445  -1.569   0.899  1.00  0.00     0.202 C 
BRANCH   4   5
ATOM      5  C   UNL     1       5.341  -0.201   1.582  1.00  0.00     0.261 C 
BRANCH   5   6
ATOM      6  O   UNL     1       4.033   0.358   1.423  1.00  0.00    -0.460 OA
BRANCH   6   7
ATOM      7  C   UNL     1       3.927   1.601   0.895  1.00  0.00     0.338 C 
ATOM      8  O   UNL     1       3.454   2.526   1.544  1.00  0.00    -0.246 OA
BRANCH   7   9
ATOM      9  C   UNL     1       4.119   1.716  -0.585  1.00  0.00     0.060 A 
ATOM     10  C   UNL     1       5.160   1.111  -1.296  1.00  0.00     0.016 A 
ATOM     11  C   UNL     1       3.246   2.569  -1.275  1.00  0.00     0.016 A 
ATOM     12  C   UNL     1       5.360   1.389  -2.648  1.00  0.00     0.010 A 
ATOM     13  C   UNL     1       3.414   2.822  -2.639  1.00  0.00     0.010 A 
ATOM     14  C   UNL     1       4.519   2.284  -3.311  1.00  0.00    -0.014 A 
BRANCH  14  15
ATOM     15  C   UNL     1       4.997   2.892  -4.573  1.00  0.00     0.031 A 
ATOM     16  C   UNL     1       5.633   4.252  -4.489  1.00  0.00     0.074 A 
ATOM     17  C   UNL     1       4.970   2.219  -5.735  1.00  0.00     0.049 A 
ATOM     18  N   UNL     1       6.141   4.996  -5.434  1.00  0.00    -0.248 NA
ATOM     19  C   UNL     1       5.706   4.848  -3.145  1.00  0.00     0.031 C 
ATOM     20  C   UNL     1       4.463   0.860  -5.908  1.00  0.00     0.029 A 
ATOM     21  N   UNL     1       5.393   2.587  -6.987  1.00  0.00    -0.354 N 
ATOM     22  C   UNL     1       6.598   6.144  -4.797  1.00  0.00     0.074 A 
ATOM     23  C   UNL     1       6.243   6.027  -3.401  1.00  0.00     0.031 C 
ATOM     24  C   UNL     1       4.601   0.514  -7.199  1.00  0.00     0.029 A 
ATOM     25  C   UNL     1       5.152   1.636  -7.948  1.00  0.00     0.049 A 
ATOM     26  H   UNL     1       5.827   3.450  -7.178  1.00  0.00     0.167 HD
ATOM     27  C   UNL     1       7.278   7.192  -5.322  1.00  0.00     0.034 A 
ATOM     28  C   UNL     1       5.329   1.672  -9.284  1.00  0.00     0.034 A 
ATOM     29  C   UNL     1       7.598   7.298  -6.721  1.00  0.00     0.049 A 
ATOM     30  C   UNL     1       5.967   2.897  -9.882  1.00  0.00     0.074 A 
ATOM     31  C   UNL     1       8.242   8.323  -7.389  1.00  0.00     0.029 A 
ATOM     32  N   UNL     1       7.276   6.338  -7.675  1.00  0.00    -0.354 N 
ATOM     33  N   UNL     1       6.386   3.984  -9.273  1.00  0.00    -0.248 NA
ATOM     34  C   UNL     1       6.175   2.900 -11.335  1.00  0.00     0.031 C 
ATOM     35  C   UNL     1       8.255   8.009  -8.754  1.00  0.00     0.029 A 
ATOM     36  C   UNL     1       7.678   6.759  -8.930  1.00  0.00     0.049 A 
ATOM     37  H   UNL     1       6.827   5.483  -7.484  1.00  0.00     0.167 HD
ATOM     38  C   UNL     1       6.934   4.789 -10.265  1.00  0.00     0.074 A 
ATOM     39  C   UNL     1       6.790   4.062 -11.513  1.00  0.00     0.031 C 
ATOM     40  C   UNL     1       7.514   6.011 -10.155  1.00  0.00     0.034 A 
BRANCH  27  41
ATOM     41  C   UNL     1       7.626   8.306  -4.366  1.00  0.00     0.023 A 
ATOM     42  C   UNL     1       8.473   8.085  -3.262  1.00  0.00     0.031 A 
ATOM     43  C   UNL     1       6.986   9.551  -4.467  1.00  0.00     0.131 A 
ATOM     44  C   UNL     1       8.554   9.046  -2.243  1.00  0.00     0.055 A 
ATOM     45  C   UNL     1       7.147  10.541  -3.495  1.00  0.00     0.041 A 
ATOM     46  F   UNL     1       6.147   9.808  -5.483  1.00  0.00    -0.206 F 
ATOM     47  C   UNL     1       7.914  10.281  -2.361  1.00  0.00     0.022 A 
BRANCH  44  48
ATOM     48  S   UNL     1       9.322   8.568  -0.667  1.00  0.00     0.124 S 
ATOM     49  O   UNL     1       8.537   7.392  -0.300  1.00  0.00    -0.237 OA
ATOM     50  O   UNL     1      10.705   8.317  -1.054  1.00  0.00    -0.237 OA
ATOM     51  O   UNL     1       9.112   9.737   0.185  1.00  0.00    -0.744 OA
ENDBRANCH  44  48
ENDBRANCH  27  41
BRANCH  28  52
ATOM     52  C   UNL     1       4.840   0.544 -10.130  1.00  0.00     0.023 A 
ATOM     53  C   UNL     1       5.716  -0.288 -10.843  1.00  0.00     0.031 A 
ATOM     54  C   UNL     1       3.458   0.283 -10.228  1.00  0.00     0.131 A 
ATOM     55  C   UNL     1       5.202  -1.330 -11.635  1.00  0.00     0.055 A 
ATOM     56  C   UNL     1       2.955  -0.773 -10.989  1.00  0.00     0.041 A 
ATOM     57  F   UNL     1       2.574   1.042  -9.560  1.00  0.00    -0.206 F 
ATOM     58  C   UNL     1       3.829  -1.584 -11.704  1.00  0.00     0.022 A 
BRANCH  55  59
ATOM     59  S   UNL     1       6.351  -2.334 -12.616  1.00  0.00     0.124 S 
ATOM     60  O   UNL     1       6.991  -1.325 -13.454  1.00  0.00    -0.237 OA
ATOM     61  O   UNL     1       7.189  -2.936 -11.584  1.00  0.00    -0.237 OA
ATOM     62  O   UNL     1       5.475  -3.266 -13.324  1.00  0.00    -0.744 OA
ENDBRANCH  55  59
ENDBRANCH  28  52
BRANCH  40  63
ATOM     63  C   UNL     1       8.075   6.615 -11.413  1.00  0.00     0.023 A 
ATOM     64  C   UNL     1       7.240   7.129 -12.418  1.00  0.00     0.031 A 
ATOM     65  C   UNL     1       9.467   6.709 -11.585  1.00  0.00     0.131 A 
ATOM     66  C   UNL     1       7.808   7.691 -13.571  1.00  0.00     0.055 A 
ATOM     67  C   UNL     1      10.026   7.309 -12.713  1.00  0.00     0.041 A 
ATOM     68  F   UNL     1      10.304   6.232 -10.649  1.00  0.00    -0.206 F 
ATOM     69  C   UNL     1       9.195   7.799 -13.716  1.00  0.00     0.022 A 
BRANCH  66  70
ATOM     70  S   UNL     1       6.710   8.249 -14.900  1.00  0.00     0.124 S 
ATOM     71  O   UNL     1       6.089   6.998 -15.324  1.00  0.00    -0.237 OA
ATOM     72  O   UNL     1       5.835   9.194 -14.211  1.00  0.00    -0.237 OA
ATOM     73  O   UNL     1       7.624   8.849 -15.870  1.00  0.00    -0.744 OA
ENDBRANCH  66  70
ENDBRANCH  40  63
ENDBRANCH  14  15
ENDBRANCH   7   9
ENDBRANCH   6   7
ENDBRANCH   5   6
ENDBRANCH   4   5
ENDBRANCH   3   4
ENDBRANCH   2   3
ENDBRANCH   1   2
BRANCH   1  74
ATOM     74  O   UNL     1       3.286  -4.407  -0.566  1.00  0.00    -0.376 OA
BRANCH  74  75
ATOM     75  C   UNL     1       4.635  -4.594  -0.980  1.00  0.00     0.202 C 
BRANCH  75  76
ATOM     76  C   UNL     1       4.891  -4.829  -2.474  1.00  0.00     0.261 C 
BRANCH  76  77
ATOM     77  O   UNL     1       4.314  -3.865  -3.368  1.00  0.00    -0.458 OA
BRANCH  77  78
ATOM     78  C   UNL     1       3.150  -4.265  -3.950  1.00  0.00     0.358 C 
ATOM     79  O   UNL     1       2.544  -5.302  -3.727  1.00  0.00    -0.244 OA
BRANCH  78  80
ATOM     80  C   UNL     1       2.702  -3.270  -4.942  1.00  0.00     0.170 A 
ATOM     81  C   UNL     1       3.449  -3.103  -6.098  1.00  0.00     0.147 A 
ATOM     82  N   UNL     1       1.461  -2.732  -4.776  1.00  0.00    -0.203 NA
ATOM     83  N   UNL     1       2.974  -2.405  -7.157  1.00  0.00    -0.257 NA
ATOM     84  C   UNL     1       1.012  -2.016  -5.829  1.00  0.00     0.233 A 
ATOM     85  C   UNL     1       1.736  -1.875  -7.003  1.00  0.00     0.179 A 
BRANCH  84  86
ATOM     86  O   UNL     1      -0.283  -1.564  -5.797  1.00  0.00    -0.477 OA
BRANCH  86  87
ATOM     87  C   UNL     1      -0.490  -0.594  -4.765  1.00  0.00     0.232 C 
BRANCH  87  88
ATOM     88  C   UNL     1      -1.511  -1.111  -3.747  1.00  0.00     0.046 C 
BRANCH  88  89
ATOM     89  C   UNL     1      -0.879  -1.751  -2.503  1.00  0.00     0.039 C 
BRANCH  89  90
ATOM     90  C   UNL     1      -0.534  -0.825  -1.354  1.00  0.00    -0.048 A 
ATOM     91  C   UNL     1      -0.471  -1.364  -0.057  1.00  0.00     0.004 A 
ATOM     92  C   UNL     1      -0.227   0.530  -1.520  1.00  0.00     0.004 A 
ATOM     93  C   UNL     1      -0.104  -0.577   1.036  1.00  0.00     0.000 A 
ATOM     94  C   UNL     1       0.110   1.323  -0.420  1.00  0.00     0.000 A 
ATOM     95  C   UNL     1       0.191   0.769   0.853  1.00  0.00     0.000 A 
ENDBRANCH  89  90
ENDBRANCH  88  89
ENDBRANCH  87  88
ENDBRANCH  86  87
ENDBRANCH  84  86
ENDBRANCH  78  80
ENDBRANCH  77  78
ENDBRANCH  76  77
ENDBRANCH  75  76
ENDBRANCH  74  75
ENDBRANCH   1  74
TORSDOF 25
