REMARK SMILES C[C@H](C(=O)OCCOCCOCCOC(=O)c1ccc(-c2c3nc(c(-c4cc(S(=O)(=O)[O-])ccc4F)c4ccc([nH]4)c(-c4cc(S(=O)(=O)[O-])ccc4F)c4nc(c(-c5cc(S(=O)(=O)[O-])ccc5F)c5ccc2[nH]5)C=C4)C=C3)cc1)[N@@H+](C)C[C@@H]1CCC[N@H+]1C
REMARK SMILES IDX 9 1 8 2 7 3 6 4 5 5 3 6 4 7 2 8 1 9 80 10 81 11 82 13 83 14
REMARK SMILES IDX 84 15 87 16 85 17 86 18 88 19 10 21 11 22 12 23 13 24 14 25
REMARK SMILES IDX 15 26 16 27 17 28 18 29 79 30 19 31 78 32 20 33 21 34 22 35
REMARK SMILES IDX 72 36 23 37 77 38 71 39 73 40 24 41 76 42 70 43 69 44 25 46
REMARK SMILES IDX 57 47 37 48 56 49 38 50 41 51 55 52 74 53 39 54 40 55 54 57
REMARK SMILES IDX 75 58 42 59 26 60 27 61 35 62 28 63 34 64 36 65 33 66 29 67
REMARK SMILES IDX 30 68 31 69 32 70 58 71 59 72 67 73 60 74 66 75 68 76 65 77
REMARK SMILES IDX 61 78 62 79 63 80 64 81 43 82 44 83 52 84 45 85 51 86 53 87
REMARK SMILES IDX 50 88 46 89 47 90 48 91 49 92
REMARK H PARENT 80 12 87 20 73 45 41 56
REMARK Flexibility Score: inf
ROOT
ATOM      1  C   UNL     1      -3.390  -3.419  -2.079  1.00  0.00     0.188 C 
ENDROOT
BRANCH   1   2
ATOM      2  O   UNL     1      -4.638  -3.801  -2.656  1.00  0.00    -0.376 OA
BRANCH   2   3
ATOM      3  C   UNL     1      -4.964  -3.316  -3.950  1.00  0.00     0.202 C 
BRANCH   3   4
ATOM      4  C   UNL     1      -5.467  -1.873  -4.006  1.00  0.00     0.261 C 
BRANCH   4   5
ATOM      5  O   UNL     1      -4.510  -0.904  -3.529  1.00  0.00    -0.459 OA
BRANCH   5   6
ATOM      6  C   UNL     1      -4.887  -0.211  -2.421  1.00  0.00     0.364 C 
ATOM      7  O   UNL     1      -5.924  -0.433  -1.800  1.00  0.00    -0.245 OA
BRANCH   6   8
ATOM      8  C   UNL     1      -3.880   0.847  -1.931  1.00  0.00     0.291 C 
ATOM      9  C   UNL     1      -3.017   0.266  -0.819  1.00  0.00     0.088 C 
BRANCH   8  10
ATOM     10  N   UNL     1      -3.190   1.613  -3.006  1.00  0.00    -0.321 N 
ATOM     11  C   UNL     1      -3.133   3.034  -2.678  1.00  0.00     0.333 C 
ATOM     12  H   UNL     1      -3.802   1.460  -3.807  1.00  0.00     0.348 HD
BRANCH  10  13
ATOM     13  C   UNL     1      -1.927   1.095  -3.567  1.00  0.00     0.328 C 
BRANCH  13  14
ATOM     14  C   UNL     1      -0.559   1.195  -2.812  1.00  0.00     0.239 C 
ATOM     15  C   UNL     1      -0.035   2.614  -2.567  1.00  0.00     0.077 C 
ATOM     16  N   UNL     1       0.591   0.634  -3.564  1.00  0.00    -0.330 N 
ATOM     17  C   UNL     1       1.489   2.489  -2.503  1.00  0.00     0.068 C 
ATOM     18  C   UNL     1       1.773   1.031  -2.793  1.00  0.00     0.262 C 
ATOM     19  C   UNL     1       0.544  -0.808  -3.710  1.00  0.00     0.333 C 
ATOM     20  H   UNL     1       0.591   0.989  -4.521  1.00  0.00     0.348 HD
ENDBRANCH  13  14
ENDBRANCH  10  13
ENDBRANCH   8  10
ENDBRANCH   6   8
ENDBRANCH   5   6
ENDBRANCH   4   5
ENDBRANCH   3   4
ENDBRANCH   2   3
ENDBRANCH   1   2
BRANCH   1  21
ATOM     21  C   UNL     1      -2.248  -3.027  -3.019  1.00  0.00     0.188 C 
BRANCH  21  22
ATOM     22  O   UNL     1      -2.046  -4.039  -4.005  1.00  0.00    -0.376 OA
BRANCH  22  23
ATOM     23  C   UNL     1      -0.699  -4.176  -4.435  1.00  0.00     0.202 C 
BRANCH  23  24
ATOM     24  C   UNL     1      -0.014  -5.297  -3.656  1.00  0.00     0.261 C 
BRANCH  24  25
ATOM     25  O   UNL     1      -0.134  -5.155  -2.229  1.00  0.00    -0.460 OA
BRANCH  25  26
ATOM     26  C   UNL     1       0.665  -4.233  -1.644  1.00  0.00     0.338 C 
ATOM     27  O   UNL     1       1.474  -3.516  -2.201  1.00  0.00    -0.246 OA
BRANCH  26  28
ATOM     28  C   UNL     1       0.281  -4.132  -0.218  1.00  0.00     0.060 A 
ATOM     29  C   UNL     1       0.022  -2.874   0.342  1.00  0.00     0.016 A 
ATOM     30  C   UNL     1       0.200  -5.284   0.568  1.00  0.00     0.016 A 
ATOM     31  C   UNL     1      -0.295  -2.767   1.700  1.00  0.00     0.010 A 
ATOM     32  C   UNL     1      -0.105  -5.174   1.926  1.00  0.00     0.010 A 
ATOM     33  C   UNL     1      -0.331  -3.914   2.506  1.00  0.00    -0.014 A 
BRANCH  33  34
ATOM     34  C   UNL     1      -0.455  -3.814   3.982  1.00  0.00     0.031 A 
ATOM     35  C   UNL     1       0.792  -3.909   4.818  1.00  0.00     0.074 A 
ATOM     36  C   UNL     1      -1.655  -3.681   4.574  1.00  0.00     0.049 A 
ATOM     37  N   UNL     1       0.921  -4.014   6.115  1.00  0.00    -0.248 NA
ATOM     38  C   UNL     1       2.066  -3.892   4.082  1.00  0.00     0.031 C 
ATOM     39  C   UNL     1      -2.930  -3.533   3.876  1.00  0.00     0.029 A 
ATOM     40  N   UNL     1      -1.996  -3.672   5.905  1.00  0.00    -0.354 N 
ATOM     41  C   UNL     1       2.289  -4.078   6.354  1.00  0.00     0.074 A 
ATOM     42  C   UNL     1       2.944  -4.033   5.063  1.00  0.00     0.031 C 
ATOM     43  C   UNL     1      -3.920  -3.474   4.785  1.00  0.00     0.029 A 
ATOM     44  C   UNL     1      -3.353  -3.625   6.124  1.00  0.00     0.049 A 
ATOM     45  H   UNL     1      -1.333  -3.696   6.632  1.00  0.00     0.167 HD
ATOM     46  C   UNL     1       2.940  -4.162   7.541  1.00  0.00     0.034 A 
ATOM     47  C   UNL     1      -4.058  -3.736   7.269  1.00  0.00     0.034 A 
ATOM     48  C   UNL     1       2.275  -4.237   8.819  1.00  0.00     0.049 A 
ATOM     49  C   UNL     1      -3.320  -3.923   8.574  1.00  0.00     0.074 A 
ATOM     50  C   UNL     1       2.835  -4.357  10.079  1.00  0.00     0.029 A 
ATOM     51  N   UNL     1       0.898  -4.208   9.000  1.00  0.00    -0.354 N 
ATOM     52  N   UNL     1      -2.028  -4.020   8.787  1.00  0.00    -0.248 NA
ATOM     53  C   UNL     1      -4.138  -4.014   9.791  1.00  0.00     0.031 C 
ATOM     54  C   UNL     1       1.797  -4.456  11.014  1.00  0.00     0.029 A 
ATOM     55  C   UNL     1       0.590  -4.326  10.346  1.00  0.00     0.049 A 
ATOM     56  H   UNL     1       0.236  -4.117   8.276  1.00  0.00     0.167 HD
ATOM     57  C   UNL     1      -1.879  -4.159  10.165  1.00  0.00     0.074 A 
ATOM     58  C   UNL     1      -3.212  -4.122  10.733  1.00  0.00     0.031 C 
ATOM     59  C   UNL     1      -0.744  -4.300  10.897  1.00  0.00     0.034 A 
BRANCH  46  60
ATOM     60  C   UNL     1       4.446  -4.229   7.494  1.00  0.00     0.023 A 
ATOM     61  C   UNL     1       5.215  -3.149   7.026  1.00  0.00     0.031 A 
ATOM     62  C   UNL     1       5.120  -5.400   7.881  1.00  0.00     0.131 A 
ATOM     63  C   UNL     1       6.605  -3.286   6.893  1.00  0.00     0.055 A 
ATOM     64  C   UNL     1       6.511  -5.504   7.817  1.00  0.00     0.041 A 
ATOM     65  F   UNL     1       4.436  -6.472   8.312  1.00  0.00    -0.206 F 
ATOM     66  C   UNL     1       7.261  -4.447   7.308  1.00  0.00     0.022 A 
BRANCH  63  67
ATOM     67  S   UNL     1       7.528  -1.976   6.043  1.00  0.00     0.124 S 
ATOM     68  O   UNL     1       6.894  -1.976   4.726  1.00  0.00    -0.237 OA
ATOM     69  O   UNL     1       7.264  -0.810   6.879  1.00  0.00    -0.237 OA
ATOM     70  O   UNL     1       8.907  -2.459   6.063  1.00  0.00    -0.744 OA
ENDBRANCH  63  67
ENDBRANCH  46  60
BRANCH  47  71
ATOM     71  C   UNL     1      -5.548  -3.736   7.238  1.00  0.00     0.023 A 
ATOM     72  C   UNL     1      -6.289  -2.704   7.833  1.00  0.00     0.031 A 
ATOM     73  C   UNL     1      -6.252  -4.800   6.646  1.00  0.00     0.131 A 
ATOM     74  C   UNL     1      -7.691  -2.776   7.858  1.00  0.00     0.055 A 
ATOM     75  C   UNL     1      -7.647  -4.843   6.631  1.00  0.00     0.041 A 
ATOM     76  F   UNL     1      -5.589  -5.813   6.066  1.00  0.00    -0.206 F 
ATOM     77  C   UNL     1      -8.375  -3.831   7.249  1.00  0.00     0.022 A 
BRANCH  74  78
ATOM     78  S   UNL     1      -8.612  -1.499   8.759  1.00  0.00     0.124 S 
ATOM     79  O   UNL     1      -8.095  -1.660  10.113  1.00  0.00    -0.237 OA
ATOM     80  O   UNL     1      -8.209  -0.283   8.060  1.00  0.00    -0.237 OA
ATOM     81  O   UNL     1     -10.008  -1.889   8.572  1.00  0.00    -0.744 OA
ENDBRANCH  74  78
ENDBRANCH  47  71
BRANCH  59  82
ATOM     82  C   UNL     1      -0.896  -4.374  12.397  1.00  0.00     0.023 A 
ATOM     83  C   UNL     1      -1.488  -5.481  13.030  1.00  0.00     0.031 A 
ATOM     84  C   UNL     1      -0.440  -3.315  13.203  1.00  0.00     0.131 A 
ATOM     85  C   UNL     1      -1.652  -5.482  14.424  1.00  0.00     0.055 A 
ATOM     86  C   UNL     1      -0.559  -3.346  14.593  1.00  0.00     0.041 A 
ATOM     87  F   UNL     1       0.133  -2.234  12.650  1.00  0.00    -0.206 F 
ATOM     88  C   UNL     1      -1.178  -4.428  15.210  1.00  0.00     0.022 A 
BRANCH  85  89
ATOM     89  S   UNL     1      -2.564  -6.848  15.195  1.00  0.00     0.124 S 
ATOM     90  O   UNL     1      -3.859  -6.764  14.527  1.00  0.00    -0.237 OA
ATOM     91  O   UNL     1      -1.744  -8.005  14.853  1.00  0.00    -0.237 OA
ATOM     92  O   UNL     1      -2.575  -6.496  16.614  1.00  0.00    -0.744 OA
ENDBRANCH  85  89
ENDBRANCH  59  82
ENDBRANCH  33  34
ENDBRANCH  26  28
ENDBRANCH  25  26
ENDBRANCH  24  25
ENDBRANCH  23  24
ENDBRANCH  22  23
ENDBRANCH  21  22
ENDBRANCH   1  21
TORSDOF 23
