REMARK SMILES O=C(OCCOCCOCCOCCOC(=O)[C@H]1Cc2c([nH]c3ccccc23)[C@H](c2c[nH]c3ccccc23)[NH2+]1)c1ccc(-c2c3nc(c(-c4cc(S(=O)(=O)[O-])ccc4F)c4ccc([nH]4)c(-c4cc(S(=O)(=O)[O-])ccc4F)c4nc(c(-c5cc(S(=O)(=O)[O-])ccc5F)c5ccc2[nH]5)C=C4)C=C3)cc1
REMARK SMILES IDX 8 1 7 2 6 3 5 4 4 5 3 6 2 7 1 8 40 9 41 10 102 11 42 12
REMARK SMILES IDX 101 13 43 14 44 15 45 16 95 17 46 18 100 19 94 20 96 21
REMARK SMILES IDX 47 22 99 23 93 24 92 25 48 27 80 28 60 29 79 30 61 31 64 32
REMARK SMILES IDX 78 33 97 34 62 35 63 36 77 38 98 39 65 40 49 41 50 42 58 43
REMARK SMILES IDX 51 44 57 45 59 46 56 47 52 48 53 49 54 50 55 51 81 52 82 53
REMARK SMILES IDX 90 54 83 55 89 56 91 57 88 58 84 59 85 60 86 61 87 62 66 63
REMARK SMILES IDX 67 64 75 65 68 66 74 67 76 68 73 69 69 70 70 71 71 72 72 73
REMARK SMILES IDX 9 74 10 75 11 76 12 77 13 78 14 79 15 80 16 81 17 82 18 83
REMARK SMILES IDX 19 84 39 85 20 86 29 87 21 90 28 91 22 92 23 93 27 94 24 96
REMARK SMILES IDX 26 97 25 98 30 99 31 100 38 101 32 102 33 103 37 104 34 106
REMARK SMILES IDX 36 107 35 108
REMARK H PARENT 96 26 64 37 39 88 39 89 22 95 32 105
REMARK Flexibility Score: inf
ROOT
ATOM      1  C   UNL     1       2.813   0.769  -2.591  1.00  0.00     0.188 C 
ENDROOT
BRANCH   1   2
ATOM      2  C   UNL     1       3.028  -0.379  -1.622  1.00  0.00     0.188 C 
BRANCH   2   3
ATOM      3  O   UNL     1       3.998   0.055  -0.688  1.00  0.00    -0.376 OA
BRANCH   3   4
ATOM      4  C   UNL     1       4.621  -0.910   0.125  1.00  0.00     0.202 C 
BRANCH   4   5
ATOM      5  C   UNL     1       3.693  -1.699   1.046  1.00  0.00     0.261 C 
BRANCH   5   6
ATOM      6  O   UNL     1       2.300  -1.303   1.047  1.00  0.00    -0.460 OA
BRANCH   6   7
ATOM      7  C   UNL     1       1.695  -0.292   1.715  1.00  0.00     0.338 C 
ATOM      8  O   UNL     1       0.472  -0.238   1.795  1.00  0.00    -0.246 OA
BRANCH   7   9
ATOM      9  C   UNL     1       2.498   0.745   2.388  1.00  0.00     0.060 A 
ATOM     10  C   UNL     1       3.354   1.577   1.677  1.00  0.00     0.016 A 
ATOM     11  C   UNL     1       2.304   0.978   3.749  1.00  0.00     0.016 A 
ATOM     12  C   UNL     1       4.233   2.419   2.344  1.00  0.00     0.010 A 
ATOM     13  C   UNL     1       3.079   1.941   4.402  1.00  0.00     0.010 A 
ATOM     14  C   UNL     1       4.122   2.598   3.722  1.00  0.00    -0.014 A 
BRANCH  14  15
ATOM     15  C   UNL     1       5.181   3.328   4.472  1.00  0.00     0.031 A 
ATOM     16  C   UNL     1       5.907   2.587   5.566  1.00  0.00     0.074 A 
ATOM     17  C   UNL     1       5.558   4.578   4.137  1.00  0.00     0.049 A 
ATOM     18  N   UNL     1       6.682   3.040   6.514  1.00  0.00    -0.248 NA
ATOM     19  C   UNL     1       5.696   1.131   5.614  1.00  0.00     0.031 C 
ATOM     20  C   UNL     1       5.018   5.360   3.023  1.00  0.00     0.029 A 
ATOM     21  N   UNL     1       6.513   5.401   4.680  1.00  0.00    -0.354 N 
ATOM     22  C   UNL     1       6.965   1.944   7.326  1.00  0.00     0.074 A 
ATOM     23  C   UNL     1       6.273   0.809   6.759  1.00  0.00     0.031 C 
ATOM     24  C   UNL     1       5.699   6.513   2.921  1.00  0.00     0.029 A 
ATOM     25  C   UNL     1       6.637   6.609   4.032  1.00  0.00     0.049 A 
ATOM     26  H   UNL     1       7.058   5.150   5.461  1.00  0.00     0.167 HD
ATOM     27  C   UNL     1       7.728   1.901   8.446  1.00  0.00     0.034 A 
ATOM     28  C   UNL     1       7.391   7.686   4.332  1.00  0.00     0.034 A 
ATOM     29  C   UNL     1       8.460   3.044   8.931  1.00  0.00     0.049 A 
ATOM     30  C   UNL     1       8.229   7.626   5.586  1.00  0.00     0.074 A 
ATOM     31  C   UNL     1       9.223   3.171  10.078  1.00  0.00     0.029 A 
ATOM     32  N   UNL     1       8.542   4.262   8.262  1.00  0.00    -0.354 N 
ATOM     33  N   UNL     1       8.371   6.634   6.438  1.00  0.00    -0.248 NA
ATOM     34  C   UNL     1       8.986   8.833   5.933  1.00  0.00     0.031 C 
ATOM     35  C   UNL     1       9.732   4.476  10.120  1.00  0.00     0.029 A 
ATOM     36  C   UNL     1       9.339   5.144   8.969  1.00  0.00     0.049 A 
ATOM     37  H   UNL     1       8.096   4.466   7.408  1.00  0.00     0.167 HD
ATOM     38  C   UNL     1       9.241   7.097   7.418  1.00  0.00     0.074 A 
ATOM     39  C   UNL     1       9.615   8.445   7.032  1.00  0.00     0.031 C 
ATOM     40  C   UNL     1       9.685   6.480   8.544  1.00  0.00     0.034 A 
BRANCH  27  41
ATOM     41  C   UNL     1       7.707   0.615   9.241  1.00  0.00     0.023 A 
ATOM     42  C   UNL     1       8.175  -0.603   8.716  1.00  0.00     0.031 A 
ATOM     43  C   UNL     1       7.094   0.588  10.507  1.00  0.00     0.131 A 
ATOM     44  C   UNL     1       7.923  -1.804   9.400  1.00  0.00     0.055 A 
ATOM     45  C   UNL     1       6.931  -0.598  11.226  1.00  0.00     0.041 A 
ATOM     46  F   UNL     1       6.603   1.712  11.053  1.00  0.00    -0.206 F 
ATOM     47  C   UNL     1       7.326  -1.808  10.663  1.00  0.00     0.022 A 
BRANCH  44  48
ATOM     48  S   UNL     1       8.208  -3.373   8.533  1.00  0.00     0.124 S 
ATOM     49  O   UNL     1       7.325  -3.237   7.378  1.00  0.00    -0.237 OA
ATOM     50  O   UNL     1       9.640  -3.321   8.250  1.00  0.00    -0.237 OA
ATOM     51  O   UNL     1       7.802  -4.384   9.505  1.00  0.00    -0.744 OA
ENDBRANCH  44  48
ENDBRANCH  27  41
BRANCH  28  52
ATOM     52  C   UNL     1       7.337   8.922   3.493  1.00  0.00     0.023 A 
ATOM     53  C   UNL     1       8.485   9.423   2.856  1.00  0.00     0.031 A 
ATOM     54  C   UNL     1       6.140   9.647   3.341  1.00  0.00     0.131 A 
ATOM     55  C   UNL     1       8.419  10.624   2.127  1.00  0.00     0.055 A 
ATOM     56  C   UNL     1       6.065  10.807   2.567  1.00  0.00     0.041 A 
ATOM     57  F   UNL     1       5.011   9.227   3.934  1.00  0.00    -0.206 F 
ATOM     58  C   UNL     1       7.213  11.309   1.963  1.00  0.00     0.022 A 
BRANCH  55  59
ATOM     59  S   UNL     1       9.953  11.329   1.460  1.00  0.00     0.124 S 
ATOM     60  O   UNL     1      10.769  11.457   2.662  1.00  0.00    -0.237 OA
ATOM     61  O   UNL     1      10.368  10.305   0.508  1.00  0.00    -0.237 OA
ATOM     62  O   UNL     1       9.517  12.591   0.865  1.00  0.00    -0.744 OA
ENDBRANCH  55  59
ENDBRANCH  28  52
BRANCH  40  63
ATOM     63  C   UNL     1      10.657   7.256   9.393  1.00  0.00     0.023 A 
ATOM     64  C   UNL     1      10.257   8.395  10.111  1.00  0.00     0.031 A 
ATOM     65  C   UNL     1      12.004   6.862   9.460  1.00  0.00     0.131 A 
ATOM     66  C   UNL     1      11.210   9.140  10.819  1.00  0.00     0.055 A 
ATOM     67  C   UNL     1      12.936   7.574  10.213  1.00  0.00     0.041 A 
ATOM     68  F   UNL     1      12.433   5.779   8.792  1.00  0.00    -0.206 F 
ATOM     69  C   UNL     1      12.544   8.729  10.886  1.00  0.00     0.022 A 
BRANCH  66  70
ATOM     70  S   UNL     1      10.701  10.709  11.570  1.00  0.00     0.124 S 
ATOM     71  O   UNL     1      10.191  11.446  10.419  1.00  0.00    -0.237 OA
ATOM     72  O   UNL     1       9.704  10.279  12.545  1.00  0.00    -0.237 OA
ATOM     73  O   UNL     1      11.941  11.233  12.142  1.00  0.00    -0.744 OA
ENDBRANCH  66  70
ENDBRANCH  40  63
ENDBRANCH  14  15
ENDBRANCH   7   9
ENDBRANCH   6   7
ENDBRANCH   5   6
ENDBRANCH   4   5
ENDBRANCH   3   4
ENDBRANCH   2   3
ENDBRANCH   1   2
BRANCH   1  74
ATOM     74  O   UNL     1       3.947   1.026  -3.410  1.00  0.00    -0.377 OA
BRANCH  74  75
ATOM     75  C   UNL     1       5.142   1.562  -2.859  1.00  0.00     0.188 C 
BRANCH  75  76
ATOM     76  C   UNL     1       5.111   3.055  -2.516  1.00  0.00     0.188 C 
BRANCH  76  77
ATOM     77  O   UNL     1       3.909   3.421  -1.868  1.00  0.00    -0.376 OA
BRANCH  77  78
ATOM     78  C   UNL     1       2.982   4.236  -2.580  1.00  0.00     0.202 C 
BRANCH  78  79
ATOM     79  C   UNL     1       2.937   4.271  -4.122  1.00  0.00     0.261 C 
BRANCH  79  80
ATOM     80  O   UNL     1       3.068   3.003  -4.809  1.00  0.00    -0.459 OA
BRANCH  80  81
ATOM     81  C   UNL     1       3.976   3.011  -5.820  1.00  0.00     0.365 C 
ATOM     82  O   UNL     1       4.569   4.040  -6.158  1.00  0.00    -0.245 OA
BRANCH  81  83
ATOM     83  C   UNL     1       4.231   1.698  -6.607  1.00  0.00     0.298 C 
ATOM     84  C   UNL     1       3.746   0.350  -6.046  1.00  0.00     0.115 C 
ATOM     85  N   UNL     1       3.792   1.934  -8.024  1.00  0.00    -0.323 N 
ATOM     86  C   UNL     1       3.987  -0.741  -7.032  1.00  0.00    -0.006 A 
ATOM     87  C   UNL     1       4.255   0.914  -8.979  1.00  0.00     0.264 C 
ATOM     88  H   UNL     1       4.154   2.840  -8.323  1.00  0.00     0.347 HD
ATOM     89  H   UNL     1       2.773   1.895  -8.025  1.00  0.00     0.347 HD
ATOM     90  C   UNL     1       4.205  -0.454  -8.361  1.00  0.00     0.083 A 
ATOM     91  C   UNL     1       4.170  -2.137  -6.838  1.00  0.00     0.003 A 
ATOM     92  N   UNL     1       4.377  -1.649  -9.009  1.00  0.00    -0.353 N 
ATOM     93  C   UNL     1       4.395  -2.689  -8.100  1.00  0.00     0.046 A 
ATOM     94  C   UNL     1       4.199  -2.985  -5.711  1.00  0.00     0.010 A 
ATOM     95  H   UNL     1       4.473  -1.752  -9.983  1.00  0.00     0.166 HD
ATOM     96  C   UNL     1       4.613  -4.060  -8.292  1.00  0.00     0.026 A 
ATOM     97  C   UNL     1       4.443  -4.353  -5.885  1.00  0.00     0.001 A 
ATOM     98  C   UNL     1       4.637  -4.881  -7.159  1.00  0.00     0.002 A 
BRANCH  87  99
ATOM     99  C   UNL     1       5.595   1.240  -9.634  1.00  0.00     0.041 A 
ATOM    100  C   UNL     1       6.012   0.625 -10.810  1.00  0.00     0.093 A 
ATOM    101  C   UNL     1       6.649   2.187  -9.310  1.00  0.00     0.009 A 
ATOM    102  N   UNL     1       7.240   1.102 -11.164  1.00  0.00    -0.361 N 
ATOM    103  C   UNL     1       7.648   2.067 -10.283  1.00  0.00     0.046 A 
ATOM    104  C   UNL     1       6.882   3.158  -8.310  1.00  0.00     0.011 A 
ATOM    105  H   UNL     1       7.759   0.796 -11.943  1.00  0.00     0.166 HD
ATOM    106  C   UNL     1       8.823   2.836 -10.289  1.00  0.00     0.026 A 
ATOM    107  C   UNL     1       8.045   3.936  -8.291  1.00  0.00     0.001 A 
ATOM    108  C   UNL     1       9.006   3.775  -9.273  1.00  0.00     0.002 A 
ENDBRANCH  87  99
ENDBRANCH  81  83
ENDBRANCH  80  81
ENDBRANCH  79  80
ENDBRANCH  78  79
ENDBRANCH  77  78
ENDBRANCH  76  77
ENDBRANCH  75  76
ENDBRANCH  74  75
ENDBRANCH   1  74
TORSDOF 24
