REMARK SMILES Cc1cc(S(=O)(=O)Nc2ccc(Cl)cc2F)ccc1OCC(=O)OCCOCCOCCOCCOC(=O)c1ccc(-c2c3nc(c(-c4cc(S(=O)(=O)[O-])ccc4F)c4ccc([nH]4)c(-c4cc(S(=O)(=O)[O-])ccc4F)c4nc(c(-c5cc(S(=O)(=O)[O-])ccc5F)c5ccc2[nH]5)C=C4)C=C3)cc1
REMARK SMILES IDX 29 1 28 2 27 3 26 4 25 5 24 6 22 7 23 8 21 9 20 10 19 11
REMARK SMILES IDX 1 12 2 13 3 14 4 15 18 16 17 17 5 18 6 19 7 20 8 21 9 23
REMARK SMILES IDX 10 24 15 25 11 26 14 27 16 28 12 29 13 30 30 31 31 32 32 33
REMARK SMILES IDX 33 34 34 35 35 36 36 37 37 38 38 39 39 40 40 41 101 42 41 43
REMARK SMILES IDX 100 44 42 45 43 46 44 47 94 48 45 49 99 50 93 51 95 52 46 53
REMARK SMILES IDX 98 54 92 55 91 56 47 58 79 59 59 60 78 61 60 62 63 63 77 64
REMARK SMILES IDX 96 65 61 66 62 67 76 69 97 70 64 71 48 72 49 73 57 74 50 75
REMARK SMILES IDX 56 76 58 77 55 78 51 79 52 80 53 81 54 82 80 83 81 84 89 85
REMARK SMILES IDX 82 86 88 87 90 88 87 89 83 90 84 91 85 92 86 93 65 94 66 95
REMARK SMILES IDX 74 96 67 97 73 98 75 99 72 100 68 101 69 102 70 103 71 104
REMARK H PARENT 8 22 95 57 63 68
REMARK Flexibility Score: inf
ROOT
ATOM      1  C   UNL     1       1.080   0.489   1.007  1.00  0.00     0.188 C 
ENDROOT
BRANCH   1   2
ATOM      2  C   UNL     1       2.038  -0.597   0.473  1.00  0.00     0.188 C 
BRANCH   2   3
ATOM      3  O   UNL     1       3.377  -0.761   0.883  1.00  0.00    -0.376 OA
BRANCH   3   4
ATOM      4  C   UNL     1       3.972   0.428   1.332  1.00  0.00     0.202 C 
BRANCH   4   5
ATOM      5  C   UNL     1       4.411   1.486   0.342  1.00  0.00     0.261 C 
BRANCH   5   6
ATOM      6  O   UNL     1       3.293   2.047  -0.340  1.00  0.00    -0.461 OA
BRANCH   6   7
ATOM      7  C   UNL     1       3.455   2.220  -1.666  1.00  0.00     0.344 C 
ATOM      8  O   UNL     1       4.477   1.994  -2.300  1.00  0.00    -0.248 OA
BRANCH   7   9
ATOM      9  C   UNL     1       2.188   2.759  -2.309  1.00  0.00     0.351 C 
BRANCH   9  10
ATOM     10  O   UNL     1       0.919   2.407  -1.819  1.00  0.00    -0.482 OA
BRANCH  10  11
ATOM     11  C   UNL     1       0.275   1.220  -1.966  1.00  0.00     0.123 A 
ATOM     12  C   UNL     1       1.998  -0.389  -3.082  1.00  0.00     0.048 C 
ATOM     13  C   UNL     1       0.664  -0.023  -2.493  1.00  0.00    -0.008 A 
ATOM     14  C   UNL     1      -0.234  -1.126  -2.372  1.00  0.00     0.029 A 
ATOM     15  C   UNL     1      -1.454  -1.028  -1.694  1.00  0.00     0.088 A 
ATOM     16  C   UNL     1      -0.961   1.297  -1.297  1.00  0.00     0.048 A 
ATOM     17  C   UNL     1      -1.767   0.176  -1.088  1.00  0.00     0.026 A 
BRANCH  15  18
ATOM     18  S   UNL     1      -2.525  -2.458  -1.688  1.00  0.00     0.262 S 
ATOM     19  O   UNL     1      -3.004  -2.652  -3.051  1.00  0.00    -0.201 OA
ATOM     20  O   UNL     1      -1.803  -3.520  -1.034  1.00  0.00    -0.201 OA
BRANCH  18  21
ATOM     21  N   UNL     1      -3.851  -2.185  -0.689  1.00  0.00    -0.277 N 
ATOM     22  H   UNL     1      -4.104  -2.905  -0.067  1.00  0.00     0.180 HD
BRANCH  21  23
ATOM     23  C   UNL     1      -4.640  -0.995  -0.669  1.00  0.00     0.085 A 
ATOM     24  C   UNL     1      -5.234  -0.663   0.556  1.00  0.00     0.031 A 
ATOM     25  C   UNL     1      -4.742  -0.088  -1.733  1.00  0.00     0.148 A 
ATOM     26  C   UNL     1      -5.770   0.614   0.753  1.00  0.00     0.023 A 
ATOM     27  C   UNL     1      -5.243   1.195  -1.531  1.00  0.00     0.062 A 
ATOM     28  F   UNL     1      -4.216  -0.362  -2.933  1.00  0.00    -0.205 F 
ATOM     29  C   UNL     1      -5.735   1.549  -0.280  1.00  0.00     0.044 A 
ATOM     30  Cl  UNL     1      -6.280   3.156  -0.008  1.00  0.00    -0.084 Cl
ENDBRANCH  21  23
ENDBRANCH  18  21
ENDBRANCH  15  18
ENDBRANCH  10  11
ENDBRANCH   9  10
ENDBRANCH   7   9
ENDBRANCH   6   7
ENDBRANCH   5   6
ENDBRANCH   4   5
ENDBRANCH   3   4
ENDBRANCH   2   3
ENDBRANCH   1   2
BRANCH   1  31
ATOM     31  O   UNL     1       0.858   0.636   2.396  1.00  0.00    -0.377 OA
BRANCH  31  32
ATOM     32  C   UNL     1      -0.546   0.598   2.701  1.00  0.00     0.188 C 
BRANCH  32  33
ATOM     33  C   UNL     1      -0.808  -0.772   3.263  1.00  0.00     0.188 C 
BRANCH  33  34
ATOM     34  O   UNL     1      -0.104  -1.744   2.493  1.00  0.00    -0.376 OA
BRANCH  34  35
ATOM     35  C   UNL     1      -0.866  -2.737   1.850  1.00  0.00     0.202 C 
BRANCH  35  36
ATOM     36  C   UNL     1      -1.677  -3.586   2.829  1.00  0.00     0.261 C 
BRANCH  36  37
ATOM     37  O   UNL     1      -0.790  -4.174   3.808  1.00  0.00    -0.460 OA
BRANCH  37  38
ATOM     38  C   UNL     1      -0.779  -3.563   5.029  1.00  0.00     0.338 C 
ATOM     39  O   UNL     1      -1.769  -3.400   5.725  1.00  0.00    -0.246 OA
BRANCH  38  40
ATOM     40  C   UNL     1       0.564  -2.950   5.311  1.00  0.00     0.060 A 
ATOM     41  C   UNL     1       0.694  -1.984   6.329  1.00  0.00     0.016 A 
ATOM     42  C   UNL     1       1.554  -3.042   4.337  1.00  0.00     0.016 A 
ATOM     43  C   UNL     1       1.714  -1.009   6.265  1.00  0.00     0.010 A 
ATOM     44  C   UNL     1       2.469  -2.006   4.216  1.00  0.00     0.010 A 
ATOM     45  C   UNL     1       2.571  -0.970   5.162  1.00  0.00    -0.014 A 
BRANCH  45  46
ATOM     46  C   UNL     1       3.500   0.142   4.814  1.00  0.00     0.031 A 
ATOM     47  C   UNL     1       4.912  -0.185   4.416  1.00  0.00     0.074 A 
ATOM     48  C   UNL     1       2.965   1.347   4.476  1.00  0.00     0.049 A 
ATOM     49  N   UNL     1       5.811   0.658   4.029  1.00  0.00    -0.248 NA
ATOM     50  C   UNL     1       5.417  -1.553   4.350  1.00  0.00     0.031 C 
ATOM     51  C   UNL     1       3.507   2.366   3.565  1.00  0.00     0.029 A 
ATOM     52  N   UNL     1       1.692   1.847   4.749  1.00  0.00    -0.354 N 
ATOM     53  C   UNL     1       6.799  -0.025   3.322  1.00  0.00     0.074 A 
ATOM     54  C   UNL     1       6.540  -1.407   3.638  1.00  0.00     0.031 C 
ATOM     55  C   UNL     1       2.631   3.367   3.374  1.00  0.00     0.029 A 
ATOM     56  C   UNL     1       1.655   3.227   4.423  1.00  0.00     0.049 A 
ATOM     57  H   UNL     1       0.940   1.326   5.111  1.00  0.00     0.167 HD
ATOM     58  C   UNL     1       7.596   0.660   2.430  1.00  0.00     0.034 A 
ATOM     59  C   UNL     1       1.549   4.139   5.436  1.00  0.00     0.034 A 
ATOM     60  C   UNL     1       7.303   2.121   2.467  1.00  0.00     0.049 A 
ATOM     61  C   UNL     1       2.948   4.740   5.718  1.00  0.00     0.074 A 
ATOM     62  C   UNL     1       7.070   3.127   1.540  1.00  0.00     0.029 A 
ATOM     63  N   UNL     1       7.074   2.728   3.707  1.00  0.00    -0.354 N 
ATOM     64  N   UNL     1       4.063   4.174   5.301  1.00  0.00    -0.248 NA
ATOM     65  C   UNL     1       3.230   6.069   6.260  1.00  0.00     0.031 C 
ATOM     66  C   UNL     1       6.514   4.254   2.228  1.00  0.00     0.029 A 
ATOM     67  C   UNL     1       6.500   3.976   3.587  1.00  0.00     0.049 A 
ATOM     68  H   UNL     1       7.297   2.311   4.570  1.00  0.00     0.167 HD
ATOM     69  C   UNL     1       5.113   5.040   5.333  1.00  0.00     0.074 A 
ATOM     70  C   UNL     1       4.556   6.195   6.024  1.00  0.00     0.031 C 
ATOM     71  C   UNL     1       6.346   4.806   4.773  1.00  0.00     0.034 A 
BRANCH  58  72
ATOM     72  C   UNL     1       8.536   0.043   1.359  1.00  0.00     0.023 A 
ATOM     73  C   UNL     1       9.148   0.881   0.391  1.00  0.00     0.031 A 
ATOM     74  C   UNL     1       8.881  -1.319   1.205  1.00  0.00     0.131 A 
ATOM     75  C   UNL     1       9.965   0.386  -0.656  1.00  0.00     0.055 A 
ATOM     76  C   UNL     1       9.706  -1.816   0.175  1.00  0.00     0.041 A 
ATOM     77  F   UNL     1       8.485  -2.265   2.055  1.00  0.00    -0.206 F 
ATOM     78  C   UNL     1      10.250  -0.966  -0.768  1.00  0.00     0.022 A 
BRANCH  75  79
ATOM     79  S   UNL     1      10.678   1.543  -1.865  1.00  0.00     0.124 S 
ATOM     80  O   UNL     1       9.504   1.954  -2.625  1.00  0.00    -0.237 OA
ATOM     81  O   UNL     1      11.281   2.560  -1.011  1.00  0.00    -0.237 OA
ATOM     82  O   UNL     1      11.635   0.718  -2.604  1.00  0.00    -0.744 OA
ENDBRANCH  75  79
ENDBRANCH  58  72
BRANCH  59  83
ATOM     83  C   UNL     1       0.343   3.746   6.262  1.00  0.00     0.023 A 
ATOM     84  C   UNL     1      -0.898   3.789   5.545  1.00  0.00     0.031 A 
ATOM     85  C   UNL     1       0.453   2.766   7.263  1.00  0.00     0.131 A 
ATOM     86  C   UNL     1      -1.840   2.741   5.652  1.00  0.00     0.055 A 
ATOM     87  C   UNL     1      -0.513   1.747   7.394  1.00  0.00     0.041 A 
ATOM     88  F   UNL     1       1.581   2.649   7.980  1.00  0.00    -0.206 F 
ATOM     89  C   UNL     1      -1.625   1.695   6.548  1.00  0.00     0.022 A 
BRANCH  86  90
ATOM     90  S   UNL     1      -3.150   2.550   4.373  1.00  0.00     0.124 S 
ATOM     91  O   UNL     1      -4.282   3.248   4.969  1.00  0.00    -0.237 OA
ATOM     92  O   UNL     1      -2.566   3.177   3.191  1.00  0.00    -0.237 OA
ATOM     93  O   UNL     1      -3.305   1.099   4.250  1.00  0.00    -0.744 OA
ENDBRANCH  86  90
ENDBRANCH  59  83
BRANCH  71  94
ATOM     94  C   UNL     1       7.623   5.344   5.362  1.00  0.00     0.023 A 
ATOM     95  C   UNL     1       7.638   5.858   6.654  1.00  0.00     0.031 A 
ATOM     96  C   UNL     1       8.891   5.173   4.743  1.00  0.00     0.131 A 
ATOM     97  C   UNL     1       8.829   6.286   7.241  1.00  0.00     0.055 A 
ATOM     98  C   UNL     1      10.090   5.487   5.380  1.00  0.00     0.041 A 
ATOM     99  F   UNL     1       9.029   4.667   3.510  1.00  0.00    -0.206 F 
ATOM    100  C   UNL     1      10.063   6.075   6.633  1.00  0.00     0.022 A 
BRANCH  97 101
ATOM    101  S   UNL     1       8.671   7.240   8.759  1.00  0.00     0.124 S 
ATOM    102  O   UNL     1       7.842   8.358   8.314  1.00  0.00    -0.237 OA
ATOM    103  O   UNL     1       8.023   6.293   9.660  1.00  0.00    -0.237 OA
ATOM    104  O   UNL     1      10.051   7.581   9.092  1.00  0.00    -0.744 OA
ENDBRANCH  97 101
ENDBRANCH  71  94
ENDBRANCH  45  46
ENDBRANCH  38  40
ENDBRANCH  37  38
ENDBRANCH  36  37
ENDBRANCH  35  36
ENDBRANCH  34  35
ENDBRANCH  33  34
ENDBRANCH  32  33
ENDBRANCH  31  32
ENDBRANCH   1  31
TORSDOF 28
