REMARK SMILES C[NH2+][C@](CSc1cccc(F)c1)(C(=O)OCCOCCOCCOCCOC(=O)c1ccc(-c2c3nc(c(-c4cc(S(=O)(=O)[O-])ccc4F)c4ccc([nH]4)c(-c4cc(S(=O)(=O)[O-])ccc4F)c4nc(c(-c5cc(S(=O)(=O)[O-])ccc5F)c5ccc2[nH]5)C=C4)C=C3)cc1)c1ccccc1
REMARK SMILES IDX 21 1 20 2 19 3 18 4 17 5 16 6 15 7 13 8 14 9 3 10 2 11 1 12
REMARK SMILES IDX 93 15 94 16 98 17 95 18 97 19 96 20 4 21 5 22 6 23 7 24
REMARK SMILES IDX 12 25 8 26 10 27 9 28 11 29 22 30 23 31 24 32 25 33 26 34
REMARK SMILES IDX 27 35 28 36 29 37 30 38 31 39 92 40 32 41 91 42 33 43 34 44
REMARK SMILES IDX 35 45 85 46 36 47 90 48 84 49 86 50 37 51 89 52 83 53 82 54
REMARK SMILES IDX 38 56 70 57 50 58 69 59 51 60 54 61 68 62 87 63 52 64 53 65
REMARK SMILES IDX 67 67 88 68 55 69 39 70 40 71 48 72 41 73 47 74 49 75 46 76
REMARK SMILES IDX 42 77 43 78 44 79 45 80 71 81 72 82 80 83 73 84 79 85 81 86
REMARK SMILES IDX 78 87 74 88 75 89 76 90 77 91 56 92 57 93 65 94 58 95 64 96
REMARK SMILES IDX 66 97 63 98 59 99 60 100 61 101 62 102
REMARK H PARENT 2 13 2 14 86 55 54 66
REMARK Flexibility Score: inf
ROOT
ATOM      1  O   UNL     1       0.408   4.542  -0.158  1.00  0.00    -0.377 OA
ENDROOT
BRANCH   1   2
ATOM      2  C   UNL     1      -0.060   3.922  -1.337  1.00  0.00     0.188 C 
BRANCH   2   3
ATOM      3  C   UNL     1      -1.483   4.314  -1.743  1.00  0.00     0.188 C 
BRANCH   3   4
ATOM      4  O   UNL     1      -2.097   5.470  -1.213  1.00  0.00    -0.376 OA
BRANCH   4   5
ATOM      5  C   UNL     1      -2.236   5.669   0.186  1.00  0.00     0.202 C 
BRANCH   5   6
ATOM      6  C   UNL     1      -2.372   4.549   1.238  1.00  0.00     0.261 C 
BRANCH   6   7
ATOM      7  O   UNL     1      -1.624   3.340   1.045  1.00  0.00    -0.458 OA
BRANCH   7   8
ATOM      8  C   UNL     1      -2.340   2.230   0.726  1.00  0.00     0.374 C 
ATOM      9  O   UNL     1      -3.558   2.264   0.553  1.00  0.00    -0.244 OA
BRANCH   8  10
ATOM     10  C   UNL     1      -1.467   0.902   0.632  1.00  0.00     0.229 C 
BRANCH  10  11
ATOM     11  N   UNL     1      -1.927  -0.095   1.670  1.00  0.00    -0.330 N 
ATOM     12  C   UNL     1      -2.751   0.459   2.739  1.00  0.00     0.332 C 
ATOM     13  H   UNL     1      -2.469  -0.818   1.196  1.00  0.00     0.347 HD
ATOM     14  H   UNL     1      -1.082  -0.449   2.118  1.00  0.00     0.347 HD
ENDBRANCH  10  11
BRANCH  10  15
ATOM     15  C   UNL     1      -1.688   0.224  -0.774  1.00  0.00     0.025 A 
ATOM     16  C   UNL     1      -2.464   0.796  -1.802  1.00  0.00     0.011 A 
ATOM     17  C   UNL     1      -1.097  -1.023  -1.061  1.00  0.00     0.011 A 
ATOM     18  C   UNL     1      -2.594   0.202  -3.061  1.00  0.00     0.001 A 
ATOM     19  C   UNL     1      -1.247  -1.635  -2.313  1.00  0.00     0.001 A 
ATOM     20  C   UNL     1      -1.985  -1.016  -3.317  1.00  0.00     0.000 A 
ENDBRANCH  10  15
BRANCH  10  21
ATOM     21  C   UNL     1       0.094   1.166   0.784  1.00  0.00     0.161 C 
BRANCH  21  22
ATOM     22  S   UNL     1       0.957   0.610   2.331  1.00  0.00    -0.118 SA
BRANCH  22  23
ATOM     23  C   UNL     1       0.672   2.039   3.361  1.00  0.00     0.010 A 
ATOM     24  C   UNL     1      -0.072   1.880   4.534  1.00  0.00     0.015 A 
ATOM     25  C   UNL     1       1.129   3.311   3.006  1.00  0.00     0.054 A 
ATOM     26  C   UNL     1      -0.446   2.992   5.290  1.00  0.00     0.004 A 
ATOM     27  C   UNL     1       0.760   4.412   3.771  1.00  0.00     0.124 A 
ATOM     28  C   UNL     1      -0.040   4.266   4.898  1.00  0.00     0.039 A 
ATOM     29  F   UNL     1       1.154   5.636   3.396  1.00  0.00    -0.207 F 
ENDBRANCH  22  23
ENDBRANCH  21  22
ENDBRANCH  10  21
ENDBRANCH   8  10
ENDBRANCH   7   8
ENDBRANCH   6   7
ENDBRANCH   5   6
ENDBRANCH   4   5
ENDBRANCH   3   4
ENDBRANCH   2   3
ENDBRANCH   1   2
BRANCH   1  30
ATOM     30  C   UNL     1       1.034   5.816  -0.279  1.00  0.00     0.188 C 
BRANCH  30  31
ATOM     31  C   UNL     1       0.788   6.672  -1.540  1.00  0.00     0.188 C 
BRANCH  31  32
ATOM     32  O   UNL     1       0.852   5.955  -2.766  1.00  0.00    -0.376 OA
BRANCH  32  33
ATOM     33  C   UNL     1       2.082   5.913  -3.476  1.00  0.00     0.202 C 
BRANCH  33  34
ATOM     34  C   UNL     1       3.292   5.240  -2.803  1.00  0.00     0.261 C 
BRANCH  34  35
ATOM     35  O   UNL     1       3.744   5.804  -1.563  1.00  0.00    -0.460 OA
BRANCH  35  36
ATOM     36  C   UNL     1       4.019   7.128  -1.542  1.00  0.00     0.338 C 
ATOM     37  O   UNL     1       4.006   7.888  -2.488  1.00  0.00    -0.246 OA
BRANCH  36  38
ATOM     38  C   UNL     1       4.136   7.550  -0.129  1.00  0.00     0.060 A 
ATOM     39  C   UNL     1       3.306   8.579   0.332  1.00  0.00     0.016 A 
ATOM     40  C   UNL     1       5.080   6.965   0.719  1.00  0.00     0.016 A 
ATOM     41  C   UNL     1       3.474   9.085   1.618  1.00  0.00     0.010 A 
ATOM     42  C   UNL     1       5.264   7.489   2.002  1.00  0.00     0.010 A 
ATOM     43  C   UNL     1       4.503   8.592   2.429  1.00  0.00    -0.014 A 
BRANCH  43  44
ATOM     44  C   UNL     1       4.957   9.422   3.572  1.00  0.00     0.031 A 
ATOM     45  C   UNL     1       6.130  10.342   3.345  1.00  0.00     0.074 A 
ATOM     46  C   UNL     1       4.292   9.442   4.740  1.00  0.00     0.049 A 
ATOM     47  N   UNL     1       6.700  11.181   4.169  1.00  0.00    -0.248 NA
ATOM     48  C   UNL     1       6.739  10.312   2.004  1.00  0.00     0.031 C 
ATOM     49  C   UNL     1       3.100   8.653   5.048  1.00  0.00     0.029 A 
ATOM     50  N   UNL     1       4.518  10.172   5.880  1.00  0.00    -0.354 N 
ATOM     51  C   UNL     1       7.729  11.777   3.447  1.00  0.00     0.074 A 
ATOM     52  C   UNL     1       7.737  11.172   2.135  1.00  0.00     0.031 C 
ATOM     53  C   UNL     1       2.691   8.955   6.293  1.00  0.00     0.029 A 
ATOM     54  C   UNL     1       3.611   9.928   6.883  1.00  0.00     0.049 A 
ATOM     55  H   UNL     1       5.262  10.811   5.971  1.00  0.00     0.167 HD
ATOM     56  C   UNL     1       8.578  12.757   3.834  1.00  0.00     0.034 A 
ATOM     57  C   UNL     1       3.540  10.424   8.136  1.00  0.00     0.034 A 
ATOM     58  C   UNL     1       8.555  13.361   5.138  1.00  0.00     0.049 A 
ATOM     59  C   UNL     1       4.571  11.429   8.590  1.00  0.00     0.074 A 
ATOM     60  C   UNL     1       9.362  14.370   5.630  1.00  0.00     0.029 A 
ATOM     61  N   UNL     1       7.685  13.008   6.160  1.00  0.00    -0.354 N 
ATOM     62  N   UNL     1       5.549  11.972   7.903  1.00  0.00    -0.248 NA
ATOM     63  C   UNL     1       4.498  11.881   9.988  1.00  0.00     0.031 C 
ATOM     64  C   UNL     1       9.031  14.576   6.971  1.00  0.00     0.029 A 
ATOM     65  C   UNL     1       7.968  13.747   7.295  1.00  0.00     0.049 A 
ATOM     66  H   UNL     1       6.973  12.331   6.088  1.00  0.00     0.167 HD
ATOM     67  C   UNL     1       6.198  12.838   8.779  1.00  0.00     0.074 A 
ATOM     68  C   UNL     1       5.499  12.751  10.045  1.00  0.00     0.031 C 
ATOM     69  C   UNL     1       7.271  13.636   8.553  1.00  0.00     0.034 A 
BRANCH  56  70
ATOM     70  C   UNL     1       9.621  13.210   2.849  1.00  0.00     0.023 A 
ATOM     71  C   UNL     1       9.276  13.904   1.677  1.00  0.00     0.031 A 
ATOM     72  C   UNL     1      10.982  12.955   3.093  1.00  0.00     0.131 A 
ATOM     73  C   UNL     1      10.277  14.282   0.771  1.00  0.00     0.055 A 
ATOM     74  C   UNL     1      11.978  13.392   2.220  1.00  0.00     0.041 A 
ATOM     75  F   UNL     1      11.363  12.277   4.187  1.00  0.00    -0.206 F 
ATOM     76  C   UNL     1      11.628  14.053   1.047  1.00  0.00     0.022 A 
BRANCH  73  77
ATOM     77  S   UNL     1       9.783  15.001  -0.818  1.00  0.00     0.124 S 
ATOM     78  O   UNL     1       9.040  13.898  -1.422  1.00  0.00    -0.237 OA
ATOM     79  O   UNL     1       8.993  16.157  -0.411  1.00  0.00    -0.237 OA
ATOM     80  O   UNL     1      11.057  15.313  -1.464  1.00  0.00    -0.744 OA
ENDBRANCH  73  77
ENDBRANCH  56  70
BRANCH  57  81
ATOM     81  C   UNL     1       2.471   9.952   9.060  1.00  0.00     0.023 A 
ATOM     82  C   UNL     1       1.442  10.808   9.480  1.00  0.00     0.031 A 
ATOM     83  C   UNL     1       2.461   8.624   9.527  1.00  0.00     0.131 A 
ATOM     84  C   UNL     1       0.448  10.329  10.348  1.00  0.00     0.055 A 
ATOM     85  C   UNL     1       1.451   8.144  10.361  1.00  0.00     0.041 A 
ATOM     86  F   UNL     1       3.424   7.767   9.153  1.00  0.00    -0.206 F 
ATOM     87  C   UNL     1       0.438   8.999  10.779  1.00  0.00     0.022 A 
BRANCH  84  88
ATOM     88  S   UNL     1      -0.836  11.474  10.924  1.00  0.00     0.124 S 
ATOM     89  O   UNL     1      -0.056  12.421  11.713  1.00  0.00    -0.237 OA
ATOM     90  O   UNL     1      -1.381  11.978   9.668  1.00  0.00    -0.237 OA
ATOM     91  O   UNL     1      -1.738  10.616  11.690  1.00  0.00    -0.744 OA
ENDBRANCH  84  88
ENDBRANCH  57  81
BRANCH  69  92
ATOM     92  C   UNL     1       7.773  14.492   9.684  1.00  0.00     0.023 A 
ATOM     93  C   UNL     1       8.505  13.936  10.745  1.00  0.00     0.031 A 
ATOM     94  C   UNL     1       7.625  15.890   9.633  1.00  0.00     0.131 A 
ATOM     95  C   UNL     1       9.066  14.777  11.717  1.00  0.00     0.055 A 
ATOM     96  C   UNL     1       8.218  16.724  10.581  1.00  0.00     0.041 A 
ATOM     97  F   UNL     1       6.942  16.467   8.631  1.00  0.00    -0.206 F 
ATOM     98  C   UNL     1       8.945  16.168  11.630  1.00  0.00     0.022 A 
BRANCH  95  99
ATOM     99  S   UNL     1       9.971  14.031  13.100  1.00  0.00     0.124 S 
ATOM    100  O   UNL     1       8.907  13.330  13.813  1.00  0.00    -0.237 OA
ATOM    101  O   UNL     1      10.948  13.185  12.422  1.00  0.00    -0.237 OA
ATOM    102  O   UNL     1      10.534  15.183  13.803  1.00  0.00    -0.744 OA
ENDBRANCH  95  99
ENDBRANCH  69  92
ENDBRANCH  43  44
ENDBRANCH  36  38
ENDBRANCH  35  36
ENDBRANCH  34  35
ENDBRANCH  33  34
ENDBRANCH  32  33
ENDBRANCH  31  32
ENDBRANCH  30  31
ENDBRANCH   1  30
TORSDOF 28
