REMARK SMILES C[C@](Nc1ccc(S(N)(=O)=O)cc1)(C(=O)OCCOCCOCCOCCOC(=O)c1ccc(-c2c3nc(c(-c4cc(S(=O)(=O)[O-])ccc4F)c4ccc([nH]4)c(-c4cc(S(=O)(=O)[O-])ccc4F)c4nc(c(-c5cc(S(=O)(=O)[O-])ccc5F)c5ccc2[nH]5)C=C4)C=C3)cc1)C(F)(F)F
REMARK SMILES IDX 21 1 20 2 19 3 18 4 17 5 16 6 14 7 15 8 2 9 1 10 94 11 95 12
REMARK SMILES IDX 96 13 97 14 3 15 4 17 5 18 13 19 6 20 12 21 7 22 8 23 10 24
REMARK SMILES IDX 11 25 9 26 22 29 23 30 24 31 25 32 26 33 27 34 28 35 29 36
REMARK SMILES IDX 30 37 31 38 32 39 93 40 33 41 92 42 34 43 35 44 36 45 86 46
REMARK SMILES IDX 37 47 91 48 85 49 87 50 38 51 90 52 84 53 83 54 39 56 71 57
REMARK SMILES IDX 51 58 70 59 52 60 55 61 69 62 88 63 53 64 54 65 68 67 89 68
REMARK SMILES IDX 56 69 40 70 41 71 49 72 42 73 48 74 50 75 47 76 43 77 44 78
REMARK SMILES IDX 45 79 46 80 72 81 73 82 81 83 74 84 80 85 82 86 79 87 75 88
REMARK SMILES IDX 76 89 77 90 78 91 57 92 58 93 66 94 59 95 65 96 67 97 64 98
REMARK SMILES IDX 60 99 61 100 62 101 63 102
REMARK H PARENT 3 16 9 27 9 28 87 55 55 66
REMARK Flexibility Score: inf
ROOT
ATOM      1  C   UNL     1      -1.393   0.610  -1.166  1.00  0.00     0.188 C 
ENDROOT
BRANCH   1   2
ATOM      2  C   UNL     1      -2.046  -0.621  -1.809  1.00  0.00     0.188 C 
BRANCH   2   3
ATOM      3  O   UNL     1      -3.400  -0.860  -1.478  1.00  0.00    -0.376 OA
BRANCH   3   4
ATOM      4  C   UNL     1      -3.788  -1.338  -0.198  1.00  0.00     0.202 C 
BRANCH   4   5
ATOM      5  C   UNL     1      -2.868  -1.516   1.032  1.00  0.00     0.261 C 
BRANCH   5   6
ATOM      6  O   UNL     1      -1.450  -1.454   0.827  1.00  0.00    -0.461 OA
BRANCH   6   7
ATOM      7  C   UNL     1      -0.819  -2.614   0.521  1.00  0.00     0.341 C 
ATOM      8  O   UNL     1      -1.396  -3.694   0.495  1.00  0.00    -0.249 OA
BRANCH   7   9
ATOM      9  C   UNL     1       0.690  -2.416   0.278  1.00  0.00     0.229 C 
ATOM     10  C   UNL     1       1.395  -3.035   1.489  1.00  0.00     0.057 C 
BRANCH   9  11
ATOM     11  C   UNL     1       0.964  -3.242  -1.001  1.00  0.00     0.422 C 
ATOM     12  F   UNL     1       0.416  -2.677  -2.106  1.00  0.00    -0.168 F 
ATOM     13  F   UNL     1       2.295  -3.368  -1.243  1.00  0.00    -0.168 F 
ATOM     14  F   UNL     1       0.501  -4.511  -0.939  1.00  0.00    -0.168 F 
ENDBRANCH   9  11
BRANCH   9  15
ATOM     15  N   UNL     1       1.095  -0.945   0.223  1.00  0.00    -0.363 N 
ATOM     16  H   UNL     1       0.478  -0.252   0.552  1.00  0.00     0.162 HD
BRANCH  15  17
ATOM     17  C   UNL     1       2.338  -0.582  -0.292  1.00  0.00     0.035 A 
ATOM     18  C   UNL     1       3.409  -0.311   0.565  1.00  0.00     0.027 A 
ATOM     19  C   UNL     1       2.594  -0.682  -1.665  1.00  0.00     0.027 A 
ATOM     20  C   UNL     1       4.726  -0.357   0.092  1.00  0.00     0.024 A 
ATOM     21  C   UNL     1       3.900  -0.747  -2.149  1.00  0.00     0.024 A 
ATOM     22  C   UNL     1       4.963  -0.647  -1.253  1.00  0.00     0.082 A 
BRANCH  22  23
ATOM     23  S   UNL     1       6.574  -1.145  -1.787  1.00  0.00     0.238 S 
ATOM     24  O   UNL     1       7.326  -1.619  -0.642  1.00  0.00    -0.207 OA
ATOM     25  O   UNL     1       6.464  -1.918  -2.998  1.00  0.00    -0.207 OA
BRANCH  23  26
ATOM     26  N   UNL     1       7.292   0.300  -2.238  1.00  0.00    -0.225 NA
ATOM     27  H   UNL     1       7.399   0.897  -1.418  1.00  0.00     0.137 HD
ATOM     28  H   UNL     1       6.705   0.771  -2.927  1.00  0.00     0.137 HD
ENDBRANCH  23  26
ENDBRANCH  22  23
ENDBRANCH  15  17
ENDBRANCH   9  15
ENDBRANCH   7   9
ENDBRANCH   6   7
ENDBRANCH   5   6
ENDBRANCH   4   5
ENDBRANCH   3   4
ENDBRANCH   2   3
ENDBRANCH   1   2
BRANCH   1  29
ATOM     29  O   UNL     1      -2.041   1.038   0.017  1.00  0.00    -0.377 OA
BRANCH  29  30
ATOM     30  C   UNL     1      -3.077   2.003  -0.127  1.00  0.00     0.188 C 
BRANCH  30  31
ATOM     31  C   UNL     1      -3.894   2.077  -1.438  1.00  0.00     0.188 C 
BRANCH  31  32
ATOM     32  O   UNL     1      -3.130   1.969  -2.633  1.00  0.00    -0.376 OA
BRANCH  32  33
ATOM     33  C   UNL     1      -2.736   3.151  -3.313  1.00  0.00     0.202 C 
BRANCH  33  34
ATOM     34  C   UNL     1      -1.782   4.120  -2.592  1.00  0.00     0.261 C 
BRANCH  34  35
ATOM     35  O   UNL     1      -2.228   4.634  -1.328  1.00  0.00    -0.460 OA
BRANCH  35  36
ATOM     36  C   UNL     1      -3.396   5.314  -1.321  1.00  0.00     0.338 C 
ATOM     37  O   UNL     1      -4.073   5.601  -2.290  1.00  0.00    -0.246 OA
BRANCH  36  38
ATOM     38  C   UNL     1      -3.835   5.462   0.085  1.00  0.00     0.060 A 
ATOM     39  C   UNL     1      -5.092   4.960   0.444  1.00  0.00     0.016 A 
ATOM     40  C   UNL     1      -3.027   6.088   1.038  1.00  0.00     0.016 A 
ATOM     41  C   UNL     1      -5.569   5.134   1.742  1.00  0.00     0.010 A 
ATOM     42  C   UNL     1      -3.517   6.282   2.335  1.00  0.00     0.010 A 
ATOM     43  C   UNL     1      -4.809   5.845   2.679  1.00  0.00    -0.014 A 
BRANCH  43  44
ATOM     44  C   UNL     1      -5.470   6.307   3.926  1.00  0.00     0.031 A 
ATOM     45  C   UNL     1      -5.977   7.725   3.982  1.00  0.00     0.074 A 
ATOM     46  C   UNL     1      -5.703   5.465   4.949  1.00  0.00     0.049 A 
ATOM     47  N   UNL     1      -6.609   8.347   4.943  1.00  0.00    -0.248 NA
ATOM     48  C   UNL     1      -5.738   8.551   2.787  1.00  0.00     0.031 C 
ATOM     49  C   UNL     1      -5.305   4.058   4.989  1.00  0.00     0.029 A 
ATOM     50  N   UNL     1      -6.338   5.669   6.148  1.00  0.00    -0.354 N 
ATOM     51  C   UNL     1      -6.856   9.630   4.465  1.00  0.00     0.074 A 
ATOM     52  C   UNL     1      -6.252   9.714   3.153  1.00  0.00     0.031 C 
ATOM     53  C   UNL     1      -5.704   3.527   6.159  1.00  0.00     0.029 A 
ATOM     54  C   UNL     1      -6.351   4.561   6.964  1.00  0.00     0.049 A 
ATOM     55  H   UNL     1      -6.747   6.528   6.401  1.00  0.00     0.167 HD
ATOM     56  C   UNL     1      -7.543  10.639   5.055  1.00  0.00     0.034 A 
ATOM     57  C   UNL     1      -6.812   4.409   8.223  1.00  0.00     0.034 A 
ATOM     58  C   UNL     1      -8.123  10.550   6.372  1.00  0.00     0.049 A 
ATOM     59  C   UNL     1      -7.485   5.581   8.902  1.00  0.00     0.074 A 
ATOM     60  C   UNL     1      -8.822  11.517   7.074  1.00  0.00     0.029 A 
ATOM     61  N   UNL     1      -8.067   9.430   7.193  1.00  0.00    -0.354 N 
ATOM     62  N   UNL     1      -7.711   6.790   8.438  1.00  0.00    -0.248 NA
ATOM     63  C   UNL     1      -7.981   5.361  10.266  1.00  0.00     0.031 C 
ATOM     64  C   UNL     1      -9.120  11.010   8.343  1.00  0.00     0.029 A 
ATOM     65  C   UNL     1      -8.692   9.694   8.403  1.00  0.00     0.049 A 
ATOM     66  H   UNL     1      -7.645   8.574   6.951  1.00  0.00     0.167 HD
ATOM     67  C   UNL     1      -8.405   7.460   9.445  1.00  0.00     0.074 A 
ATOM     68  C   UNL     1      -8.583   6.511  10.524  1.00  0.00     0.031 C 
ATOM     69  C   UNL     1      -8.854   8.742   9.477  1.00  0.00     0.034 A 
BRANCH  56  70
ATOM     70  C   UNL     1      -7.663  11.936   4.290  1.00  0.00     0.023 A 
ATOM     71  C   UNL     1      -8.348  12.008   3.064  1.00  0.00     0.031 A 
ATOM     72  C   UNL     1      -7.068  13.112   4.780  1.00  0.00     0.131 A 
ATOM     73  C   UNL     1      -8.364  13.210   2.340  1.00  0.00     0.055 A 
ATOM     74  C   UNL     1      -7.160  14.325   4.096  1.00  0.00     0.041 A 
ATOM     75  F   UNL     1      -6.376  13.099   5.931  1.00  0.00    -0.206 F 
ATOM     76  C   UNL     1      -7.799  14.376   2.861  1.00  0.00     0.022 A 
BRANCH  73  77
ATOM     77  S   UNL     1      -9.006  13.191   0.644  1.00  0.00     0.124 S 
ATOM     78  O   UNL     1      -8.132  12.206   0.010  1.00  0.00    -0.237 OA
ATOM     79  O   UNL     1     -10.393  12.785   0.835  1.00  0.00    -0.237 OA
ATOM     80  O   UNL     1      -8.814  14.567   0.189  1.00  0.00    -0.744 OA
ENDBRANCH  73  77
ENDBRANCH  56  70
BRANCH  57  81
ATOM     81  C   UNL     1      -6.614   3.121   8.955  1.00  0.00     0.023 A 
ATOM     82  C   UNL     1      -7.700   2.375   9.441  1.00  0.00     0.031 A 
ATOM     83  C   UNL     1      -5.318   2.661   9.254  1.00  0.00     0.131 A 
ATOM     84  C   UNL     1      -7.472   1.250  10.250  1.00  0.00     0.055 A 
ATOM     85  C   UNL     1      -5.096   1.503  10.001  1.00  0.00     0.041 A 
ATOM     86  F   UNL     1      -4.240   3.337   8.824  1.00  0.00    -0.206 F 
ATOM     87  C   UNL     1      -6.178   0.800  10.519  1.00  0.00     0.022 A 
BRANCH  84  88
ATOM     88  S   UNL     1      -8.892   0.451  11.050  1.00  0.00     0.124 S 
ATOM     89  O   UNL     1      -9.480   1.564  11.786  1.00  0.00    -0.237 OA
ATOM     90  O   UNL     1      -9.651  -0.033   9.902  1.00  0.00    -0.237 OA
ATOM     91  O   UNL     1      -8.277  -0.589  11.872  1.00  0.00    -0.744 OA
ENDBRANCH  84  88
ENDBRANCH  57  81
BRANCH  69  92
ATOM     92  C   UNL     1      -9.625   9.170  10.706  1.00  0.00     0.023 A 
ATOM     93  C   UNL     1      -9.034   9.197  11.982  1.00  0.00     0.031 A 
ATOM     94  C   UNL     1     -10.983   9.524  10.604  1.00  0.00     0.131 A 
ATOM     95  C   UNL     1      -9.816   9.485  13.111  1.00  0.00     0.055 A 
ATOM     96  C   UNL     1     -11.736   9.889  11.722  1.00  0.00     0.041 A 
ATOM     97  F   UNL     1     -11.606   9.516   9.415  1.00  0.00    -0.206 F 
ATOM     98  C   UNL     1     -11.158   9.851  12.987  1.00  0.00     0.022 A 
BRANCH  95  99
ATOM     99  S   UNL     1      -9.091   9.236  14.755  1.00  0.00     0.124 S 
ATOM    100  O   UNL     1      -8.670   7.840  14.691  1.00  0.00    -0.237 OA
ATOM    101  O   UNL     1      -8.018  10.225  14.774  1.00  0.00    -0.237 OA
ATOM    102  O   UNL     1     -10.202   9.509  15.664  1.00  0.00    -0.744 OA
ENDBRANCH  95  99
ENDBRANCH  69  92
ENDBRANCH  43  44
ENDBRANCH  36  38
ENDBRANCH  35  36
ENDBRANCH  34  35
ENDBRANCH  33  34
ENDBRANCH  32  33
ENDBRANCH  31  32
ENDBRANCH  30  31
ENDBRANCH  29  30
ENDBRANCH   1  29
TORSDOF 28
