REMARK SMILES CC(C)[C@H](NC(=O)[C@H](C)NC(=O)CNC(=O)OCc1ccccc1)C(=O)OCCOCCOCCOCCOC(=O)c1ccc(-c2c3nc(c(-c4cc(S(=O)(=O)[O-])ccc4F)c4ccc([nH]4)c(-c4cc(S(=O)(=O)[O-])ccc4F)c4nc(c(-c5cc(S(=O)(=O)[O-])ccc5F)c5ccc2[nH]5)C=C4)C=C3)cc1
REMARK SMILES IDX 31 1 30 2 29 3 28 4 27 5 25 6 26 7 4 8 2 9 1 10 3 11 5 12
REMARK SMILES IDX 6 13 7 15 8 16 9 17 10 18 11 19 12 21 13 22 14 23 15 24
REMARK SMILES IDX 16 26 17 27 18 28 19 29 20 30 24 31 21 32 23 33 22 34 32 35
REMARK SMILES IDX 33 36 34 37 35 38 36 39 37 40 38 41 39 42 40 43 41 44 42 45
REMARK SMILES IDX 43 46 104 47 44 48 103 49 45 50 46 51 47 52 97 53 48 54
REMARK SMILES IDX 102 55 96 56 98 57 49 58 101 59 95 60 94 61 50 63 82 64
REMARK SMILES IDX 62 65 81 66 63 67 66 68 80 69 99 70 64 71 65 72 79 74 100 75
REMARK SMILES IDX 67 76 51 77 52 78 60 79 53 80 59 81 61 82 58 83 54 84 55 85
REMARK SMILES IDX 56 86 57 87 83 88 84 89 92 90 85 91 91 92 93 93 90 94 86 95
REMARK SMILES IDX 87 96 88 97 89 98 68 99 69 100 77 101 70 102 76 103 78 104
REMARK SMILES IDX 75 105 71 106 72 107 73 108 74 109
REMARK H PARENT 5 14 10 20 14 25 98 62 66 73
REMARK Flexibility Score: inf
ROOT
ATOM      1  C   UNL     1      -2.940   3.236  -6.856  1.00  0.00     0.188 C 
ENDROOT
BRANCH   1   2
ATOM      2  O   UNL     1      -2.270   4.077  -7.782  1.00  0.00    -0.376 OA
BRANCH   2   3
ATOM      3  C   UNL     1      -0.873   4.250  -7.953  1.00  0.00     0.202 C 
BRANCH   3   4
ATOM      4  C   UNL     1       0.173   4.332  -6.838  1.00  0.00     0.261 C 
BRANCH   4   5
ATOM      5  O   UNL     1       0.013   3.439  -5.748  1.00  0.00    -0.462 OA
BRANCH   5   6
ATOM      6  C   UNL     1      -0.851   3.892  -4.812  1.00  0.00     0.328 C 
ATOM      7  O   UNL     1      -1.469   4.950  -4.880  1.00  0.00    -0.250 OA
BRANCH   6   8
ATOM      8  C   UNL     1      -0.863   3.009  -3.568  1.00  0.00     0.194 C 
BRANCH   8   9
ATOM      9  C   UNL     1      -0.267   3.881  -2.454  1.00  0.00     0.017 C 
ATOM     10  C   UNL     1       0.659   5.031  -2.887  1.00  0.00     0.010 C 
ATOM     11  C   UNL     1      -1.381   4.403  -1.549  1.00  0.00     0.010 C 
ENDBRANCH   8   9
BRANCH   8  12
ATOM     12  N   UNL     1      -0.253   1.659  -3.728  1.00  0.00    -0.341 N 
ATOM     13  C   UNL     1      -0.312   0.641  -2.789  1.00  0.00     0.242 C 
ATOM     14  H   UNL     1       0.230   1.475  -4.566  1.00  0.00     0.164 HD
ATOM     15  O   UNL     1      -1.057  -0.321  -2.972  1.00  0.00    -0.273 OA
BRANCH  13  16
ATOM     16  C   UNL     1       0.639   0.740  -1.567  1.00  0.00     0.168 C 
ATOM     17  C   UNL     1       1.178  -0.625  -1.149  1.00  0.00     0.041 C 
BRANCH  16  18
ATOM     18  N   UNL     1       0.102   1.413  -0.392  1.00  0.00    -0.343 N 
ATOM     19  C   UNL     1       0.667   2.389   0.386  1.00  0.00     0.240 C 
ATOM     20  H   UNL     1      -0.798   1.125  -0.116  1.00  0.00     0.164 HD
ATOM     21  O   UNL     1      -0.038   2.841   1.296  1.00  0.00    -0.273 OA
BRANCH  19  22
ATOM     22  C   UNL     1       2.019   3.084   0.043  1.00  0.00     0.219 C 
BRANCH  22  23
ATOM     23  N   UNL     1       3.148   2.259  -0.323  1.00  0.00    -0.312 N 
ATOM     24  C   UNL     1       3.690   2.004  -1.552  1.00  0.00     0.407 C 
ATOM     25  H   UNL     1       3.596   1.810   0.430  1.00  0.00     0.167 HD
ATOM     26  O   UNL     1       4.562   1.162  -1.653  1.00  0.00    -0.225 OA
BRANCH  24  27
ATOM     27  O   UNL     1       3.095   2.666  -2.583  1.00  0.00    -0.445 OA
BRANCH  27  28
ATOM     28  C   UNL     1       3.433   2.176  -3.901  1.00  0.00     0.270 C 
BRANCH  28  29
ATOM     29  C   UNL     1       4.679   2.847  -4.403  1.00  0.00    -0.011 A 
ATOM     30  C   UNL     1       5.930   2.266  -4.156  1.00  0.00     0.007 A 
ATOM     31  C   UNL     1       4.620   4.092  -5.042  1.00  0.00     0.007 A 
ATOM     32  C   UNL     1       7.102   2.947  -4.471  1.00  0.00     0.000 A 
ATOM     33  C   UNL     1       5.797   4.761  -5.380  1.00  0.00     0.000 A 
ATOM     34  C   UNL     1       7.036   4.198  -5.077  1.00  0.00     0.000 A 
ENDBRANCH  28  29
ENDBRANCH  27  28
ENDBRANCH  24  27
ENDBRANCH  22  23
ENDBRANCH  19  22
ENDBRANCH  16  18
ENDBRANCH  13  16
ENDBRANCH   8  12
ENDBRANCH   6   8
ENDBRANCH   5   6
ENDBRANCH   4   5
ENDBRANCH   3   4
ENDBRANCH   2   3
ENDBRANCH   1   2
BRANCH   1  35
ATOM     35  C   UNL     1      -2.476   1.817  -6.473  1.00  0.00     0.188 C 
BRANCH  35  36
ATOM     36  O   UNL     1      -1.168   1.476  -6.874  1.00  0.00    -0.377 OA
BRANCH  36  37
ATOM     37  C   UNL     1      -0.996   0.974  -8.199  1.00  0.00     0.188 C 
BRANCH  37  38
ATOM     38  C   UNL     1      -2.039   1.315  -9.289  1.00  0.00     0.188 C 
BRANCH  38  39
ATOM     39  O   UNL     1      -3.388   1.206  -8.864  1.00  0.00    -0.376 OA
BRANCH  39  40
ATOM     40  C   UNL     1      -4.106   0.020  -9.156  1.00  0.00     0.202 C 
BRANCH  40  41
ATOM     41  C   UNL     1      -3.568  -1.301  -8.585  1.00  0.00     0.261 C 
BRANCH  41  42
ATOM     42  O   UNL     1      -2.234  -1.672  -8.964  1.00  0.00    -0.460 OA
BRANCH  42  43
ATOM     43  C   UNL     1      -1.946  -1.759 -10.283  1.00  0.00     0.338 C 
ATOM     44  O   UNL     1      -2.720  -1.613 -11.209  1.00  0.00    -0.246 OA
BRANCH  43  45
ATOM     45  C   UNL     1      -0.474  -1.840 -10.405  1.00  0.00     0.060 A 
ATOM     46  C   UNL     1       0.212  -0.848 -11.120  1.00  0.00     0.016 A 
ATOM     47  C   UNL     1       0.225  -2.888  -9.804  1.00  0.00     0.016 A 
ATOM     48  C   UNL     1       1.598  -0.919 -11.263  1.00  0.00     0.010 A 
ATOM     49  C   UNL     1       1.609  -2.975  -9.973  1.00  0.00     0.010 A 
ATOM     50  C   UNL     1       2.297  -2.009 -10.730  1.00  0.00    -0.014 A 
BRANCH  50  51
ATOM     51  C   UNL     1       3.697  -2.267 -11.148  1.00  0.00     0.031 A 
ATOM     52  C   UNL     1       3.929  -3.255 -12.259  1.00  0.00     0.074 A 
ATOM     53  C   UNL     1       4.734  -1.639 -10.569  1.00  0.00     0.049 A 
ATOM     54  N   UNL     1       5.051  -3.730 -12.732  1.00  0.00    -0.248 NA
ATOM     55  C   UNL     1       2.724  -3.780 -12.919  1.00  0.00     0.031 C 
ATOM     56  C   UNL     1       4.632  -0.612  -9.534  1.00  0.00     0.029 A 
ATOM     57  N   UNL     1       6.085  -1.784 -10.768  1.00  0.00    -0.354 N 
ATOM     58  C   UNL     1       4.689  -4.616 -13.741  1.00  0.00     0.074 A 
ATOM     59  C   UNL     1       3.242  -4.641 -13.780  1.00  0.00     0.031 C 
ATOM     60  C   UNL     1       5.871  -0.228  -9.180  1.00  0.00     0.029 A 
ATOM     61  C   UNL     1       6.852  -1.016  -9.925  1.00  0.00     0.049 A 
ATOM     62  H   UNL     1       6.467  -2.382 -11.451  1.00  0.00     0.167 HD
ATOM     63  C   UNL     1       5.489  -5.336 -14.564  1.00  0.00     0.034 A 
ATOM     64  C   UNL     1       8.190  -0.985  -9.753  1.00  0.00     0.034 A 
ATOM     65  C   UNL     1       6.929  -5.316 -14.495  1.00  0.00     0.049 A 
ATOM     66  C   UNL     1       9.061  -1.895 -10.590  1.00  0.00     0.074 A 
ATOM     67  C   UNL     1       7.839  -6.007 -15.275  1.00  0.00     0.029 A 
ATOM     68  N   UNL     1       7.671  -4.577 -13.582  1.00  0.00    -0.354 N 
ATOM     69  N   UNL     1       8.711  -2.739 -11.534  1.00  0.00    -0.248 NA
ATOM     70  C   UNL     1      10.507  -1.846 -10.337  1.00  0.00     0.031 C 
ATOM     71  C   UNL     1       9.122  -5.753 -14.780  1.00  0.00     0.029 A 
ATOM     72  C   UNL     1       9.024  -4.827 -13.753  1.00  0.00     0.049 A 
ATOM     73  H   UNL     1       7.292  -3.964 -12.911  1.00  0.00     0.167 HD
ATOM     74  C   UNL     1       9.899  -3.291 -12.012  1.00  0.00     0.074 A 
ATOM     75  C   UNL     1      10.972  -2.677 -11.258  1.00  0.00     0.031 C 
ATOM     76  C   UNL     1      10.087  -4.214 -12.990  1.00  0.00     0.034 A 
BRANCH  63  77
ATOM     77  C   UNL     1       4.814  -6.248 -15.561  1.00  0.00     0.023 A 
ATOM     78  C   UNL     1       3.973  -5.748 -16.571  1.00  0.00     0.031 A 
ATOM     79  C   UNL     1       4.977  -7.642 -15.473  1.00  0.00     0.131 A 
ATOM     80  C   UNL     1       3.265  -6.634 -17.395  1.00  0.00     0.055 A 
ATOM     81  C   UNL     1       4.341  -8.516 -16.357  1.00  0.00     0.041 A 
ATOM     82  F   UNL     1       5.744  -8.182 -14.513  1.00  0.00    -0.206 F 
ATOM     83  C   UNL     1       3.464  -8.014 -17.314  1.00  0.00     0.022 A 
BRANCH  80  84
ATOM     84  S   UNL     1       1.954  -5.967 -18.457  1.00  0.00     0.124 S 
ATOM     85  O   UNL     1       1.091  -5.307 -17.480  1.00  0.00    -0.237 OA
ATOM     86  O   UNL     1       2.693  -5.086 -19.354  1.00  0.00    -0.237 OA
ATOM     87  O   UNL     1       1.380  -7.157 -19.081  1.00  0.00    -0.744 OA
ENDBRANCH  80  84
ENDBRANCH  63  77
BRANCH  64  88
ATOM     88  C   UNL     1       8.801  -0.103  -8.716  1.00  0.00     0.023 A 
ATOM     89  C   UNL     1       9.699   0.917  -9.069  1.00  0.00     0.031 A 
ATOM     90  C   UNL     1       8.548  -0.314  -7.349  1.00  0.00     0.131 A 
ATOM     91  C   UNL     1      10.348   1.655  -8.067  1.00  0.00     0.055 A 
ATOM     92  C   UNL     1       9.154   0.460  -6.359  1.00  0.00     0.041 A 
ATOM     93  F   UNL     1       7.705  -1.282  -6.954  1.00  0.00    -0.206 F 
ATOM     94  C   UNL     1      10.069   1.445  -6.715  1.00  0.00     0.022 A 
BRANCH  91  95
ATOM     95  S   UNL     1      11.641   2.831  -8.553  1.00  0.00     0.124 S 
ATOM     96  O   UNL     1      12.592   1.959  -9.232  1.00  0.00    -0.237 OA
ATOM     97  O   UNL     1      10.903   3.761  -9.401  1.00  0.00    -0.237 OA
ATOM     98  O   UNL     1      12.096   3.382  -7.279  1.00  0.00    -0.744 OA
ENDBRANCH  91  95
ENDBRANCH  64  88
BRANCH  76  99
ATOM     99  C   UNL     1      11.511  -4.574 -13.344  1.00  0.00     0.023 A 
ATOM    100  C   UNL     1      12.359  -5.241 -12.441  1.00  0.00     0.031 A 
ATOM    101  C   UNL     1      12.025  -4.249 -14.613  1.00  0.00     0.131 A 
ATOM    102  C   UNL     1      13.688  -5.513 -12.802  1.00  0.00     0.055 A 
ATOM    103  C   UNL     1      13.327  -4.583 -14.989  1.00  0.00     0.041 A 
ATOM    104  F   UNL     1      11.264  -3.608 -15.515  1.00  0.00    -0.206 F 
ATOM    105  C   UNL     1      14.171  -5.208 -14.077  1.00  0.00     0.022 A 
BRANCH 102 106
ATOM    106  S   UNL     1      14.812  -6.187 -11.547  1.00  0.00     0.124 S 
ATOM    107  O   UNL     1      14.754  -5.165 -10.508  1.00  0.00    -0.237 OA
ATOM    108  O   UNL     1      14.185  -7.464 -11.220  1.00  0.00    -0.237 OA
ATOM    109  O   UNL     1      16.090  -6.286 -12.249  1.00  0.00    -0.744 OA
ENDBRANCH 102 106
ENDBRANCH  76  99
ENDBRANCH  50  51
ENDBRANCH  43  45
ENDBRANCH  42  43
ENDBRANCH  41  42
ENDBRANCH  40  41
ENDBRANCH  39  40
ENDBRANCH  38  39
ENDBRANCH  37  38
ENDBRANCH  36  37
ENDBRANCH  35  36
ENDBRANCH   1  35
TORSDOF 32
