REMARK SMILES O=C(OCCOCCOCCOCCOC(=O)c1cccnc1NC[C@H](c1ccccc1)[NH+]1CCOCC1)c1ccc(-c2c3nc(c(-c4cc(S(=O)(=O)[O-])ccc4F)c4ccc([nH]4)c(-c4cc(S(=O)(=O)[O-])ccc4F)c4nc(c(-c5cc(S(=O)(=O)[O-])ccc5F)c5ccc2[nH]5)C=C4)C=C3)cc1
REMARK SMILES IDX 10 1 9 2 8 3 7 4 6 5 5 6 4 7 3 8 2 9 1 10 39 11 40 12 101 13
REMARK SMILES IDX 41 14 100 15 42 16 43 17 44 18 94 19 45 20 99 21 93 22 95 23
REMARK SMILES IDX 46 24 98 25 92 26 91 27 47 29 79 30 59 31 78 32 60 33 63 34
REMARK SMILES IDX 77 35 96 36 61 37 62 38 76 40 97 41 64 42 48 43 49 44 57 45
REMARK SMILES IDX 50 46 56 47 58 48 55 49 51 50 52 51 53 52 54 53 80 54 81 55
REMARK SMILES IDX 89 56 82 57 88 58 90 59 87 60 83 61 84 62 85 63 86 64 65 65
REMARK SMILES IDX 66 66 74 67 67 68 73 69 75 70 72 71 68 72 69 73 70 74 71 75
REMARK SMILES IDX 11 76 12 77 13 78 14 79 15 80 16 81 17 82 18 83 19 84 23 85
REMARK SMILES IDX 20 86 22 87 21 88 24 89 25 91 26 92 33 93 34 94 38 95 35 97
REMARK SMILES IDX 37 98 36 99 27 100 28 101 32 102 29 103 31 104 30 105
REMARK H PARENT 95 28 63 39 24 90 33 96
REMARK Flexibility Score: inf
ROOT
ATOM      1  C   UNL     1       8.199  -5.567   2.158  1.00  0.00     0.188 C 
ENDROOT
BRANCH   1   2
ATOM      2  O   UNL     1       8.140  -6.911   1.682  1.00  0.00    -0.377 OA
BRANCH   2   3
ATOM      3  C   UNL     1       9.332  -7.681   1.802  1.00  0.00     0.188 C 
BRANCH   3   4
ATOM      4  C   UNL     1      10.534  -7.065   1.090  1.00  0.00     0.188 C 
BRANCH   4   5
ATOM      5  O   UNL     1      10.949  -5.890   1.787  1.00  0.00    -0.376 OA
BRANCH   5   6
ATOM      6  C   UNL     1      11.415  -4.821   0.969  1.00  0.00     0.202 C 
BRANCH   6   7
ATOM      7  C   UNL     1      12.918  -4.883   0.696  1.00  0.00     0.261 C 
BRANCH   7   8
ATOM      8  O   UNL     1      13.377  -6.233   0.539  1.00  0.00    -0.460 OA
BRANCH   8   9
ATOM      9  C   UNL     1      13.836  -7.071   1.504  1.00  0.00     0.338 C 
ATOM     10  O   UNL     1      14.175  -8.205   1.160  1.00  0.00    -0.246 OA
BRANCH   9  11
ATOM     11  C   UNL     1      13.974  -6.715   2.956  1.00  0.00     0.060 A 
ATOM     12  C   UNL     1      13.254  -5.728   3.636  1.00  0.00     0.016 A 
ATOM     13  C   UNL     1      14.860  -7.505   3.711  1.00  0.00     0.016 A 
ATOM     14  C   UNL     1      13.424  -5.501   4.998  1.00  0.00     0.010 A 
ATOM     15  C   UNL     1      15.030  -7.295   5.084  1.00  0.00     0.010 A 
ATOM     16  C   UNL     1      14.317  -6.278   5.727  1.00  0.00    -0.014 A 
BRANCH  16  17
ATOM     17  C   UNL     1      14.589  -5.907   7.127  1.00  0.00     0.031 A 
ATOM     18  C   UNL     1      15.836  -5.126   7.411  1.00  0.00     0.074 A 
ATOM     19  C   UNL     1      13.686  -6.180   8.086  1.00  0.00     0.049 A 
ATOM     20  N   UNL     1      16.350  -4.772   8.555  1.00  0.00    -0.248 NA
ATOM     21  C   UNL     1      16.601  -4.669   6.236  1.00  0.00     0.031 C 
ATOM     22  C   UNL     1      12.382  -6.811   7.859  1.00  0.00     0.029 A 
ATOM     23  N   UNL     1      13.716  -5.957   9.437  1.00  0.00    -0.354 N 
ATOM     24  C   UNL     1      17.517  -4.083   8.243  1.00  0.00     0.074 A 
ATOM     25  C   UNL     1      17.629  -4.057   6.802  1.00  0.00     0.031 C 
ATOM     26  C   UNL     1      11.744  -6.931   9.035  1.00  0.00     0.029 A 
ATOM     27  C   UNL     1      12.621  -6.462  10.102  1.00  0.00     0.049 A 
ATOM     28  H   UNL     1      14.450  -5.482   9.889  1.00  0.00     0.167 HD
ATOM     29  C   UNL     1      18.417  -3.546   9.097  1.00  0.00     0.034 A 
ATOM     30  C   UNL     1      12.397  -6.582  11.427  1.00  0.00     0.034 A 
ATOM     31  C   UNL     1      18.265  -3.609  10.527  1.00  0.00     0.049 A 
ATOM     32  C   UNL     1      13.478  -6.081  12.360  1.00  0.00     0.074 A 
ATOM     33  C   UNL     1      19.117  -3.145  11.510  1.00  0.00     0.029 A 
ATOM     34  N   UNL     1      17.182  -4.193  11.175  1.00  0.00    -0.354 N 
ATOM     35  N   UNL     1      14.605  -5.470  12.063  1.00  0.00    -0.248 NA
ATOM     36  C   UNL     1      13.273  -6.300  13.796  1.00  0.00     0.031 C 
ATOM     37  C   UNL     1      18.584  -3.511  12.751  1.00  0.00     0.029 A 
ATOM     38  C   UNL     1      17.364  -4.141  12.545  1.00  0.00     0.049 A 
ATOM     39  H   UNL     1      16.400  -4.585  10.725  1.00  0.00     0.167 HD
ATOM     40  C   UNL     1      15.238  -5.227  13.278  1.00  0.00     0.074 A 
ATOM     41  C   UNL     1      14.349  -5.724  14.310  1.00  0.00     0.031 C 
ATOM     42  C   UNL     1      16.446  -4.659  13.531  1.00  0.00     0.034 A 
BRANCH  29  43
ATOM     43  C   UNL     1      19.674  -2.966   8.502  1.00  0.00     0.023 A 
ATOM     44  C   UNL     1      19.667  -1.798   7.720  1.00  0.00     0.031 A 
ATOM     45  C   UNL     1      20.896  -3.639   8.677  1.00  0.00     0.131 A 
ATOM     46  C   UNL     1      20.851  -1.371   7.096  1.00  0.00     0.055 A 
ATOM     47  C   UNL     1      22.082  -3.172   8.109  1.00  0.00     0.041 A 
ATOM     48  F   UNL     1      20.953  -4.777   9.386  1.00  0.00    -0.206 F 
ATOM     49  C   UNL     1      22.062  -2.037   7.304  1.00  0.00     0.022 A 
BRANCH  46  50
ATOM     50  S   UNL     1      20.771   0.005   5.915  1.00  0.00     0.124 S 
ATOM     51  O   UNL     1      19.912  -0.551   4.873  1.00  0.00    -0.237 OA
ATOM     52  O   UNL     1      20.191   1.077   6.716  1.00  0.00    -0.237 OA
ATOM     53  O   UNL     1      22.166   0.204   5.525  1.00  0.00    -0.744 OA
ENDBRANCH  46  50
ENDBRANCH  29  43
BRANCH  30  54
ATOM     54  C   UNL     1      11.189  -7.290  11.954  1.00  0.00     0.023 A 
ATOM     55  C   UNL     1      10.310  -6.672  12.858  1.00  0.00     0.031 A 
ATOM     56  C   UNL     1      10.946  -8.640  11.632  1.00  0.00     0.131 A 
ATOM     57  C   UNL     1       9.272  -7.414  13.450  1.00  0.00     0.055 A 
ATOM     58  C   UNL     1       9.873  -9.353  12.170  1.00  0.00     0.041 A 
ATOM     59  F   UNL     1      11.758  -9.297  10.789  1.00  0.00    -0.206 F 
ATOM     60  C   UNL     1       9.039  -8.745  13.100  1.00  0.00     0.022 A 
BRANCH  57  61
ATOM     61  S   UNL     1       8.310  -6.653  14.789  1.00  0.00     0.124 S 
ATOM     62  O   UNL     1       9.362  -6.214  15.699  1.00  0.00    -0.237 OA
ATOM     63  O   UNL     1       7.591  -5.599  14.083  1.00  0.00    -0.237 OA
ATOM     64  O   UNL     1       7.481  -7.752  15.279  1.00  0.00    -0.744 OA
ENDBRANCH  57  61
ENDBRANCH  30  54
BRANCH  42  65
ATOM     65  C   UNL     1      16.843  -4.541  14.978  1.00  0.00     0.023 A 
ATOM     66  C   UNL     1      17.159  -5.676  15.741  1.00  0.00     0.031 A 
ATOM     67  C   UNL     1      16.916  -3.279  15.592  1.00  0.00     0.131 A 
ATOM     68  C   UNL     1      17.490  -5.532  17.094  1.00  0.00     0.055 A 
ATOM     69  C   UNL     1      17.305  -3.137  16.923  1.00  0.00     0.041 A 
ATOM     70  F   UNL     1      16.623  -2.165  14.902  1.00  0.00    -0.206 F 
ATOM     71  C   UNL     1      17.584  -4.269  17.685  1.00  0.00     0.022 A 
BRANCH  68  72
ATOM     72  S   UNL     1      17.727  -7.026  18.092  1.00  0.00     0.124 S 
ATOM     73  O   UNL     1      16.417  -7.661  18.003  1.00  0.00    -0.237 OA
ATOM     74  O   UNL     1      18.813  -7.704  17.391  1.00  0.00    -0.237 OA
ATOM     75  O   UNL     1      18.076  -6.504  19.412  1.00  0.00    -0.744 OA
ENDBRANCH  68  72
ENDBRANCH  42  65
ENDBRANCH  16  17
ENDBRANCH   9  11
ENDBRANCH   8   9
ENDBRANCH   7   8
ENDBRANCH   6   7
ENDBRANCH   5   6
ENDBRANCH   4   5
ENDBRANCH   3   4
ENDBRANCH   2   3
ENDBRANCH   1   2
BRANCH   1  76
ATOM     76  C   UNL     1       8.694  -5.320   3.598  1.00  0.00     0.188 C 
BRANCH  76  77
ATOM     77  O   UNL     1       8.608  -6.461   4.442  1.00  0.00    -0.376 OA
BRANCH  77  78
ATOM     78  C   UNL     1       7.555  -6.424   5.398  1.00  0.00     0.202 C 
BRANCH  78  79
ATOM     79  C   UNL     1       6.192  -6.782   4.801  1.00  0.00     0.261 C 
BRANCH  79  80
ATOM     80  O   UNL     1       5.656  -5.866   3.823  1.00  0.00    -0.460 OA
BRANCH  80  81
ATOM     81  C   UNL     1       5.517  -4.552   4.121  1.00  0.00     0.341 C 
ATOM     82  O   UNL     1       5.747  -4.005   5.185  1.00  0.00    -0.246 OA
BRANCH  81  83
ATOM     83  C   UNL     1       5.151  -3.850   2.871  1.00  0.00     0.102 A 
ATOM     84  C   UNL     1       4.076  -4.341   2.119  1.00  0.00     0.021 A 
ATOM     85  C   UNL     1       5.934  -2.794   2.368  1.00  0.00     0.140 A 
ATOM     86  C   UNL     1       3.788  -3.763   0.893  1.00  0.00     0.021 A 
ATOM     87  N   UNL     1       5.649  -2.245   1.163  1.00  0.00    -0.239 NA
ATOM     88  C   UNL     1       4.592  -2.722   0.467  1.00  0.00     0.113 A 
BRANCH  85  89
ATOM     89  N   UNL     1       7.088  -2.385   3.010  1.00  0.00    -0.363 N 
ATOM     90  H   UNL     1       7.245  -2.700   3.930  1.00  0.00     0.162 HD
BRANCH  89  91
ATOM     91  C   UNL     1       8.093  -1.506   2.394  1.00  0.00     0.184 C 
BRANCH  91  92
ATOM     92  C   UNL     1       8.546  -0.393   3.400  1.00  0.00     0.234 C 
BRANCH  92  93
ATOM     93  N   UNL     1       9.864   0.217   3.122  1.00  0.00    -0.323 N 
ATOM     94  C   UNL     1      10.473   0.902   4.280  1.00  0.00     0.291 C 
ATOM     95  C   UNL     1      10.072   0.990   1.893  1.00  0.00     0.291 C 
ATOM     96  H   UNL     1      10.367  -0.647   2.921  1.00  0.00     0.348 HD
ATOM     97  C   UNL     1      10.190   2.409   4.344  1.00  0.00     0.221 C 
ATOM     98  C   UNL     1       9.936   2.524   2.014  1.00  0.00     0.221 C 
ATOM     99  O   UNL     1      10.634   3.053   3.144  1.00  0.00    -0.370 OA
ENDBRANCH  92  93
BRANCH  92 100
ATOM    100  C   UNL     1       7.394   0.566   3.672  1.00  0.00     0.011 A 
ATOM    101  C   UNL     1       6.800   1.331   2.657  1.00  0.00     0.010 A 
ATOM    102  C   UNL     1       6.846   0.630   4.963  1.00  0.00     0.010 A 
ATOM    103  C   UNL     1       5.724   2.174   2.934  1.00  0.00     0.001 A 
ATOM    104  C   UNL     1       5.751   1.450   5.233  1.00  0.00     0.001 A 
ATOM    105  C   UNL     1       5.199   2.231   4.221  1.00  0.00     0.000 A 
ENDBRANCH  92 100
ENDBRANCH  91  92
ENDBRANCH  89  91
ENDBRANCH  85  89
ENDBRANCH  81  83
ENDBRANCH  80  81
ENDBRANCH  79  80
ENDBRANCH  78  79
ENDBRANCH  77  78
ENDBRANCH  76  77
ENDBRANCH   1  76
TORSDOF 28
