REMARK SMILES Cc1cc(OC(F)(F)F)cc2c1O[C@@H](C(F)(F)F)C(C(=O)OCCOCCOCCOCCOC(=O)c1ccc(-c3c4nc(c(-c5cc(S(=O)(=O)[O-])ccc5F)c5ccc([nH]5)c(-c5cc(S(=O)(=O)[O-])ccc5F)c5nc(c(-c6cc(S(=O)(=O)[O-])ccc6F)c6ccc3[nH]6)C=C5)C=C4)cc1)=C2
REMARK SMILES IDX 29 1 28 2 27 3 26 4 25 5 24 6 23 7 22 8 20 9 21 10 19 11
REMARK SMILES IDX 1 12 2 13 3 14 12 15 4 16 11 17 13 18 10 19 100 20 14 21
REMARK SMILES IDX 5 22 6 23 7 24 8 25 9 26 15 27 16 28 17 29 18 30 30 31 31 32
REMARK SMILES IDX 32 33 33 34 34 35 35 36 36 37 37 38 38 39 99 40 39 41 98 42
REMARK SMILES IDX 40 43 41 44 42 45 92 46 43 47 97 48 91 49 93 50 44 51 96 52
REMARK SMILES IDX 90 53 89 54 45 56 77 57 57 58 76 59 58 60 61 61 75 62 94 63
REMARK SMILES IDX 59 64 60 65 74 67 95 68 62 69 46 70 47 71 55 72 48 73 54 74
REMARK SMILES IDX 56 75 53 76 49 77 50 78 51 79 52 80 78 81 79 82 87 83 80 84
REMARK SMILES IDX 86 85 88 86 85 87 81 88 82 89 83 90 84 91 63 92 64 93 72 94
REMARK SMILES IDX 65 95 71 96 73 97 70 98 66 99 67 100 68 101 69 102
REMARK H PARENT 93 55 61 66
REMARK Flexibility Score: inf
ROOT
ATOM      1  C   UNL     1       2.598  -6.883   5.085  1.00  0.00     0.188 C 
ENDROOT
BRANCH   1   2
ATOM      2  O   UNL     1       1.595  -6.176   4.367  1.00  0.00    -0.377 OA
BRANCH   2   3
ATOM      3  C   UNL     1       1.598  -6.305   2.954  1.00  0.00     0.188 C 
BRANCH   3   4
ATOM      4  C   UNL     1       2.009  -7.620   2.262  1.00  0.00     0.188 C 
BRANCH   4   5
ATOM      5  O   UNL     1       3.143  -8.243   2.845  1.00  0.00    -0.376 OA
BRANCH   5   6
ATOM      6  C   UNL     1       4.396  -8.221   2.192  1.00  0.00     0.202 C 
BRANCH   6   7
ATOM      7  C   UNL     1       5.153  -6.887   2.102  1.00  0.00     0.261 C 
BRANCH   7   8
ATOM      8  O   UNL     1       4.360  -5.731   1.810  1.00  0.00    -0.460 OA
BRANCH   8   9
ATOM      9  C   UNL     1       4.017  -5.528   0.527  1.00  0.00     0.338 C 
ATOM     10  O   UNL     1       4.326  -6.237  -0.417  1.00  0.00    -0.246 OA
BRANCH   9  11
ATOM     11  C   UNL     1       3.061  -4.404   0.442  1.00  0.00     0.087 C 
ATOM     12  C   UNL     1       0.934   0.239   0.026  1.00  0.00     0.048 C 
ATOM     13  C   UNL     1       0.599  -1.149  -0.447  1.00  0.00    -0.005 A 
ATOM     14  C   UNL     1      -0.602  -1.371  -1.147  1.00  0.00     0.054 A 
ATOM     15  C   UNL     1       1.435  -2.235  -0.156  1.00  0.00     0.131 A 
ATOM     16  C   UNL     1      -0.954  -2.654  -1.571  1.00  0.00     0.130 A 
ATOM     17  C   UNL     1       1.070  -3.525  -0.552  1.00  0.00     0.021 A 
ATOM     18  O   UNL     1       2.644  -1.970   0.436  1.00  0.00    -0.475 OA
ATOM     19  C   UNL     1      -0.128  -3.731  -1.243  1.00  0.00     0.058 A 
ATOM     20  C   UNL     1       1.990  -4.628  -0.332  1.00  0.00     0.027 C 
ATOM     21  C   UNL     1       3.325  -3.073   1.113  1.00  0.00     0.316 C 
BRANCH  16  22
ATOM     22  O   UNL     1      -2.060  -2.991  -2.299  1.00  0.00    -0.406 OA
BRANCH  22  23
ATOM     23  C   UNL     1      -2.732  -1.946  -2.982  1.00  0.00     0.573 C 
ATOM     24  F   UNL     1      -3.381  -1.140  -2.116  1.00  0.00    -0.132 F 
ATOM     25  F   UNL     1      -1.881  -1.213  -3.732  1.00  0.00    -0.132 F 
ATOM     26  F   UNL     1      -3.649  -2.494  -3.812  1.00  0.00    -0.132 F 
ENDBRANCH  22  23
ENDBRANCH  16  22
BRANCH  21  27
ATOM     27  C   UNL     1       3.012  -2.965   2.622  1.00  0.00     0.430 C 
ATOM     28  F   UNL     1       3.753  -3.810   3.369  1.00  0.00    -0.167 F 
ATOM     29  F   UNL     1       3.274  -1.715   3.077  1.00  0.00    -0.167 F 
ATOM     30  F   UNL     1       1.706  -3.213   2.882  1.00  0.00    -0.167 F 
ENDBRANCH  21  27
ENDBRANCH   9  11
ENDBRANCH   8   9
ENDBRANCH   7   8
ENDBRANCH   6   7
ENDBRANCH   5   6
ENDBRANCH   4   5
ENDBRANCH   3   4
ENDBRANCH   2   3
ENDBRANCH   1   2
BRANCH   1  31
ATOM     31  C   UNL     1       2.125  -8.310   5.421  1.00  0.00     0.188 C 
BRANCH  31  32
ATOM     32  O   UNL     1       0.836  -8.591   4.878  1.00  0.00    -0.376 OA
BRANCH  32  33
ATOM     33  C   UNL     1      -0.278  -8.327   5.727  1.00  0.00     0.202 C 
BRANCH  33  34
ATOM     34  C   UNL     1      -0.451  -6.930   6.359  1.00  0.00     0.261 C 
BRANCH  34  35
ATOM     35  O   UNL     1       0.615  -6.445   7.195  1.00  0.00    -0.460 OA
BRANCH  35  36
ATOM     36  C   UNL     1       1.000  -7.178   8.259  1.00  0.00     0.338 C 
ATOM     37  O   UNL     1       0.513  -8.222   8.654  1.00  0.00    -0.246 OA
BRANCH  36  38
ATOM     38  C   UNL     1       2.262  -6.586   8.754  1.00  0.00     0.060 A 
ATOM     39  C   UNL     1       3.453  -7.320   8.656  1.00  0.00     0.016 A 
ATOM     40  C   UNL     1       2.269  -5.295   9.288  1.00  0.00     0.016 A 
ATOM     41  C   UNL     1       4.652  -6.770   9.109  1.00  0.00     0.010 A 
ATOM     42  C   UNL     1       3.464  -4.760   9.776  1.00  0.00     0.010 A 
ATOM     43  C   UNL     1       4.652  -5.509   9.717  1.00  0.00    -0.014 A 
BRANCH  43  44
ATOM     44  C   UNL     1       5.830  -5.089  10.509  1.00  0.00     0.031 A 
ATOM     45  C   UNL     1       5.877  -5.491  11.956  1.00  0.00     0.074 A 
ATOM     46  C   UNL     1       6.833  -4.376   9.971  1.00  0.00     0.049 A 
ATOM     47  N   UNL     1       6.801  -5.259  12.849  1.00  0.00    -0.248 NA
ATOM     48  C   UNL     1       4.727  -6.260  12.461  1.00  0.00     0.031 C 
ATOM     49  C   UNL     1       6.909  -3.949   8.578  1.00  0.00     0.029 A 
ATOM     50  N   UNL     1       7.977  -3.878  10.544  1.00  0.00    -0.354 N 
ATOM     51  C   UNL     1       6.342  -5.846  14.021  1.00  0.00     0.074 A 
ATOM     52  C   UNL     1       5.050  -6.426  13.734  1.00  0.00     0.031 C 
ATOM     53  C   UNL     1       8.035  -3.235   8.406  1.00  0.00     0.029 A 
ATOM     54  C   UNL     1       8.747  -3.134   9.683  1.00  0.00     0.049 A 
ATOM     55  H   UNL     1       8.223  -4.038  11.484  1.00  0.00     0.167 HD
ATOM     56  C   UNL     1       6.946  -5.899  15.229  1.00  0.00     0.034 A 
ATOM     57  C   UNL     1       9.885  -2.441   9.901  1.00  0.00     0.034 A 
ATOM     58  C   UNL     1       8.225  -5.306  15.512  1.00  0.00     0.049 A 
ATOM     59  C   UNL     1      10.524  -2.472  11.268  1.00  0.00     0.074 A 
ATOM     60  C   UNL     1       8.937  -5.348  16.696  1.00  0.00     0.029 A 
ATOM     61  N   UNL     1       8.969  -4.551  14.619  1.00  0.00    -0.354 N 
ATOM     62  N   UNL     1      10.126  -3.103  12.348  1.00  0.00    -0.248 NA
ATOM     63  C   UNL     1      11.768  -1.710  11.449  1.00  0.00     0.031 C 
ATOM     64  C   UNL     1      10.077  -4.558  16.542  1.00  0.00     0.029 A 
ATOM     65  C   UNL     1      10.116  -4.087  15.238  1.00  0.00     0.049 A 
ATOM     66  H   UNL     1       8.718  -4.371  13.684  1.00  0.00     0.167 HD
ATOM     67  C   UNL     1      11.082  -2.838  13.326  1.00  0.00     0.074 A 
ATOM     68  C   UNL     1      12.084  -1.996  12.708  1.00  0.00     0.031 C 
ATOM     69  C   UNL     1      11.123  -3.260  14.616  1.00  0.00     0.034 A 
BRANCH  56  70
ATOM     70  C   UNL     1       6.231  -6.599  16.351  1.00  0.00     0.023 A 
ATOM     71  C   UNL     1       5.801  -5.860  17.466  1.00  0.00     0.031 A 
ATOM     72  C   UNL     1       6.062  -7.994  16.364  1.00  0.00     0.131 A 
ATOM     73  C   UNL     1       5.249  -6.524  18.566  1.00  0.00     0.055 A 
ATOM     74  C   UNL     1       5.475  -8.648  17.447  1.00  0.00     0.041 A 
ATOM     75  F   UNL     1       6.450  -8.738  15.315  1.00  0.00    -0.206 F 
ATOM     76  C   UNL     1       5.076  -7.912  18.560  1.00  0.00     0.022 A 
BRANCH  73  77
ATOM     77  S   UNL     1       4.776  -5.616  20.061  1.00  0.00     0.124 S 
ATOM     78  O   UNL     1       3.373  -5.996  20.213  1.00  0.00    -0.237 OA
ATOM     79  O   UNL     1       5.686  -6.177  21.056  1.00  0.00    -0.237 OA
ATOM     80  O   UNL     1       5.004  -4.219  19.711  1.00  0.00    -0.744 OA
ENDBRANCH  73  77
ENDBRANCH  56  70
BRANCH  57  81
ATOM     81  C   UNL     1      10.499  -1.702   8.763  1.00  0.00     0.023 A 
ATOM     82  C   UNL     1       9.832  -0.617   8.166  1.00  0.00     0.031 A 
ATOM     83  C   UNL     1      11.697  -2.147   8.180  1.00  0.00     0.131 A 
ATOM     84  C   UNL     1      10.328  -0.064   6.979  1.00  0.00     0.055 A 
ATOM     85  C   UNL     1      12.221  -1.551   7.031  1.00  0.00     0.041 A 
ATOM     86  F   UNL     1      12.364  -3.183   8.712  1.00  0.00    -0.206 F 
ATOM     87  C   UNL     1      11.526  -0.514   6.415  1.00  0.00     0.022 A 
BRANCH  84  88
ATOM     88  S   UNL     1       9.378   1.187   6.072  1.00  0.00     0.124 S 
ATOM     89  O   UNL     1      10.384   2.212   5.810  1.00  0.00    -0.237 OA
ATOM     90  O   UNL     1       8.935   0.426   4.905  1.00  0.00    -0.237 OA
ATOM     91  O   UNL     1       8.326   1.566   7.009  1.00  0.00    -0.744 OA
ENDBRANCH  84  88
ENDBRANCH  57  81
BRANCH  69  92
ATOM     92  C   UNL     1      12.288  -2.854  15.487  1.00  0.00     0.023 A 
ATOM     93  C   UNL     1      13.147  -3.842  16.007  1.00  0.00     0.031 A 
ATOM     94  C   UNL     1      12.434  -1.536  15.948  1.00  0.00     0.131 A 
ATOM     95  C   UNL     1      14.079  -3.507  16.996  1.00  0.00     0.055 A 
ATOM     96  C   UNL     1      13.398  -1.197  16.900  1.00  0.00     0.041 A 
ATOM     97  F   UNL     1      11.632  -0.561  15.491  1.00  0.00    -0.206 F 
ATOM     98  C   UNL     1      14.214  -2.188  17.440  1.00  0.00     0.022 A 
BRANCH  95  99
ATOM     99  S   UNL     1      15.091  -4.781  17.799  1.00  0.00     0.124 S 
ATOM    100  O   UNL     1      16.446  -4.288  17.561  1.00  0.00    -0.237 OA
ATOM    101  O   UNL     1      14.635  -4.707  19.184  1.00  0.00    -0.237 OA
ATOM    102  O   UNL     1      14.745  -6.007  17.087  1.00  0.00    -0.744 OA
ENDBRANCH  95  99
ENDBRANCH  69  92
ENDBRANCH  43  44
ENDBRANCH  36  38
ENDBRANCH  35  36
ENDBRANCH  34  35
ENDBRANCH  33  34
ENDBRANCH  32  33
ENDBRANCH  31  32
ENDBRANCH   1  31
TORSDOF 26
