REMARK SMILES CCC[NH2+][C@]1(C(=O)OCCOCCOCCOCCOC(=O)c2ccc(-c3c4nc(c(-c5cc(S(=O)(=O)[O-])ccc5F)c5ccc([nH]5)c(-c5cc(S(=O)(=O)[O-])ccc5F)c5nc(c(-c6cc(S(=O)(=O)[O-])ccc6F)c6ccc3[nH]6)C=C5)C=C4)cc2)CCC[C@H](OC(C)(C)C)C1
REMARK SMILES IDX 14 1 13 2 12 3 11 4 10 5 9 6 8 7 6 8 7 9 5 10 86 11 95 12
REMARK SMILES IDX 87 13 89 14 88 15 4 16 3 19 2 20 1 21 90 22 91 23 92 24
REMARK SMILES IDX 93 25 94 26 15 27 16 28 17 29 18 30 19 31 20 32 21 33 22 34
REMARK SMILES IDX 23 35 24 36 85 37 25 38 84 39 26 40 27 41 28 42 78 43 29 44
REMARK SMILES IDX 83 45 77 46 79 47 30 48 82 49 76 50 75 51 31 53 63 54 43 55
REMARK SMILES IDX 62 56 44 57 47 58 61 59 80 60 45 61 46 62 60 64 81 65 48 66
REMARK SMILES IDX 32 67 33 68 41 69 34 70 40 71 42 72 39 73 35 74 36 75 37 76
REMARK SMILES IDX 38 77 64 78 65 79 73 80 66 81 72 82 74 83 71 84 67 85 68 86
REMARK SMILES IDX 69 87 70 88 49 89 50 90 58 91 51 92 57 93 59 94 56 95 52 96
REMARK SMILES IDX 53 97 54 98 55 99
REMARK H PARENT 4 17 4 18 79 52 47 63
REMARK Flexibility Score: inf
ROOT
ATOM      1  O   UNL     1      -3.396   2.623  -0.608  1.00  0.00    -0.377 OA
ENDROOT
BRANCH   1   2
ATOM      2  C   UNL     1      -2.279   2.436  -1.452  1.00  0.00     0.188 C 
BRANCH   2   3
ATOM      3  C   UNL     1      -1.598   1.061  -1.745  1.00  0.00     0.188 C 
BRANCH   3   4
ATOM      4  O   UNL     1      -1.537   0.062  -0.757  1.00  0.00    -0.376 OA
BRANCH   4   5
ATOM      5  C   UNL     1      -0.877   0.321   0.464  1.00  0.00     0.202 C 
BRANCH   5   6
ATOM      6  C   UNL     1       0.314   1.292   0.602  1.00  0.00     0.261 C 
BRANCH   6   7
ATOM      7  O   UNL     1       0.404   2.370  -0.345  1.00  0.00    -0.459 OA
BRANCH   7   8
ATOM      8  C   UNL     1       1.424   2.374  -1.255  1.00  0.00     0.368 C 
ATOM      9  O   UNL     1       2.287   1.504  -1.310  1.00  0.00    -0.245 OA
BRANCH   8  10
ATOM     10  C   UNL     1       1.288   3.561  -2.323  1.00  0.00     0.196 C 
ATOM     11  C   UNL     1       0.608   4.759  -1.615  1.00  0.00     0.081 C 
ATOM     12  C   UNL     1       2.756   3.946  -2.724  1.00  0.00     0.113 C 
ATOM     13  C   UNL     1       0.878   6.171  -2.099  1.00  0.00     0.010 C 
ATOM     14  C   UNL     1       3.045   5.367  -3.265  1.00  0.00     0.125 C 
ATOM     15  C   UNL     1       2.319   6.465  -2.485  1.00  0.00     0.032 C 
BRANCH  10  16
ATOM     16  N   UNL     1       0.709   2.966  -3.551  1.00  0.00    -0.332 N 
ATOM     17  H   UNL     1       1.378   3.192  -4.287  1.00  0.00     0.347 HD
ATOM     18  H   UNL     1       0.531   2.026  -3.196  1.00  0.00     0.347 HD
BRANCH  16  19
ATOM     19  C   UNL     1      -0.583   3.222  -4.143  1.00  0.00     0.261 C 
BRANCH  19  20
ATOM     20  C   UNL     1      -0.737   2.871  -5.645  1.00  0.00     0.058 C 
ATOM     21  C   UNL     1      -0.351   1.450  -6.038  1.00  0.00     0.010 C 
ENDBRANCH  19  20
ENDBRANCH  16  19
ENDBRANCH  10  16
BRANCH  14  22
ATOM     22  O   UNL     1       3.284   5.662  -4.659  1.00  0.00    -0.372 OA
BRANCH  22  23
ATOM     23  C   UNL     1       2.406   5.345  -5.744  1.00  0.00     0.060 C 
ATOM     24  C   UNL     1       2.416   3.842  -5.986  1.00  0.00     0.042 C 
ATOM     25  C   UNL     1       1.060   6.068  -5.624  1.00  0.00     0.042 C 
ATOM     26  C   UNL     1       3.018   5.875  -7.064  1.00  0.00     0.042 C 
ENDBRANCH  22  23
ENDBRANCH  14  22
ENDBRANCH   8  10
ENDBRANCH   7   8
ENDBRANCH   6   7
ENDBRANCH   5   6
ENDBRANCH   4   5
ENDBRANCH   3   4
ENDBRANCH   2   3
ENDBRANCH   1   2
BRANCH   1  27
ATOM     27  C   UNL     1      -4.193   1.499  -0.333  1.00  0.00     0.188 C 
BRANCH  27  28
ATOM     28  C   UNL     1      -4.913   0.848  -1.526  1.00  0.00     0.188 C 
BRANCH  28  29
ATOM     29  O   UNL     1      -4.127   0.862  -2.700  1.00  0.00    -0.376 OA
BRANCH  29  30
ATOM     30  C   UNL     1      -4.597   1.432  -3.906  1.00  0.00     0.202 C 
BRANCH  30  31
ATOM     31  C   UNL     1      -4.988   2.917  -4.006  1.00  0.00     0.261 C 
BRANCH  31  32
ATOM     32  O   UNL     1      -5.339   3.574  -2.796  1.00  0.00    -0.460 OA
BRANCH  32  33
ATOM     33  C   UNL     1      -6.633   3.437  -2.412  1.00  0.00     0.338 C 
ATOM     34  O   UNL     1      -7.490   2.777  -2.941  1.00  0.00    -0.246 OA
BRANCH  33  35
ATOM     35  C   UNL     1      -6.737   4.111  -1.106  1.00  0.00     0.060 A 
ATOM     36  C   UNL     1      -6.985   3.337   0.032  1.00  0.00     0.016 A 
ATOM     37  C   UNL     1      -6.552   5.491  -1.018  1.00  0.00     0.016 A 
ATOM     38  C   UNL     1      -6.999   3.937   1.285  1.00  0.00     0.010 A 
ATOM     39  C   UNL     1      -6.642   6.104   0.228  1.00  0.00     0.010 A 
ATOM     40  C   UNL     1      -6.882   5.327   1.375  1.00  0.00    -0.014 A 
BRANCH  40  41
ATOM     41  C   UNL     1      -7.339   5.999   2.605  1.00  0.00     0.031 A 
ATOM     42  C   UNL     1      -8.800   6.331   2.680  1.00  0.00     0.074 A 
ATOM     43  C   UNL     1      -6.491   6.302   3.600  1.00  0.00     0.049 A 
ATOM     44  N   UNL     1      -9.448   7.040   3.561  1.00  0.00    -0.248 NA
ATOM     45  C   UNL     1      -9.644   5.793   1.597  1.00  0.00     0.031 C 
ATOM     46  C   UNL     1      -5.075   5.941   3.647  1.00  0.00     0.029 A 
ATOM     47  N   UNL     1      -6.703   7.002   4.758  1.00  0.00    -0.354 N 
ATOM     48  C   UNL     1     -10.772   7.038   3.137  1.00  0.00     0.074 A 
ATOM     49  C   UNL     1     -10.830   6.285   1.906  1.00  0.00     0.031 C 
ATOM     50  C   UNL     1      -4.538   6.449   4.772  1.00  0.00     0.029 A 
ATOM     51  C   UNL     1      -5.558   7.211   5.490  1.00  0.00     0.049 A 
ATOM     52  H   UNL     1      -7.590   7.324   5.040  1.00  0.00     0.167 HD
ATOM     53  C   UNL     1     -11.842   7.619   3.727  1.00  0.00     0.034 A 
ATOM     54  C   UNL     1      -5.366   7.970   6.588  1.00  0.00     0.034 A 
ATOM     55  C   UNL     1     -11.740   8.400   4.929  1.00  0.00     0.049 A 
ATOM     56  C   UNL     1      -6.552   8.718   7.160  1.00  0.00     0.074 A 
ATOM     57  C   UNL     1     -12.738   9.071   5.609  1.00  0.00     0.029 A 
ATOM     58  N   UNL     1     -10.557   8.628   5.623  1.00  0.00    -0.354 N 
ATOM     59  N   UNL     1      -7.798   8.739   6.741  1.00  0.00    -0.248 NA
ATOM     60  C   UNL     1      -6.308   9.541   8.351  1.00  0.00     0.031 C 
ATOM     61  C   UNL     1     -12.147   9.767   6.667  1.00  0.00     0.029 A 
ATOM     62  C   UNL     1     -10.797   9.449   6.709  1.00  0.00     0.049 A 
ATOM     63  H   UNL     1      -9.678   8.259   5.377  1.00  0.00     0.167 HD
ATOM     64  C   UNL     1      -8.494   9.534   7.651  1.00  0.00     0.074 A 
ATOM     65  C   UNL     1      -7.527   9.977   8.634  1.00  0.00     0.031 C 
ATOM     66  C   UNL     1      -9.812   9.859   7.683  1.00  0.00     0.034 A 
BRANCH  53  67
ATOM     67  C   UNL     1     -13.170   7.483   3.029  1.00  0.00     0.023 A 
ATOM     68  C   UNL     1     -13.778   6.229   2.835  1.00  0.00     0.031 A 
ATOM     69  C   UNL     1     -13.810   8.615   2.497  1.00  0.00     0.131 A 
ATOM     70  C   UNL     1     -14.947   6.131   2.066  1.00  0.00     0.055 A 
ATOM     71  C   UNL     1     -15.020   8.520   1.808  1.00  0.00     0.041 A 
ATOM     72  F   UNL     1     -13.258   9.832   2.617  1.00  0.00    -0.206 F 
ATOM     73  C   UNL     1     -15.588   7.271   1.577  1.00  0.00     0.022 A 
BRANCH  70  74
ATOM     74  S   UNL     1     -15.529   4.482   1.584  1.00  0.00     0.124 S 
ATOM     75  O   UNL     1     -14.381   3.969   0.841  1.00  0.00    -0.237 OA
ATOM     76  O   UNL     1     -15.791   3.850   2.871  1.00  0.00    -0.237 OA
ATOM     77  O   UNL     1     -16.713   4.761   0.773  1.00  0.00    -0.744 OA
ENDBRANCH  70  74
ENDBRANCH  53  67
BRANCH  54  78
ATOM     78  C   UNL     1      -4.011   8.108   7.195  1.00  0.00     0.023 A 
ATOM     79  C   UNL     1      -3.769   7.708   8.519  1.00  0.00     0.031 A 
ATOM     80  C   UNL     1      -2.953   8.708   6.488  1.00  0.00     0.131 A 
ATOM     81  C   UNL     1      -2.524   7.966   9.114  1.00  0.00     0.055 A 
ATOM     82  C   UNL     1      -1.695   8.903   7.063  1.00  0.00     0.041 A 
ATOM     83  F   UNL     1      -3.126   9.116   5.221  1.00  0.00    -0.206 F 
ATOM     84  C   UNL     1      -1.480   8.546   8.390  1.00  0.00     0.022 A 
BRANCH  81  85
ATOM     85  S   UNL     1      -2.326   7.634  10.886  1.00  0.00     0.124 S 
ATOM     86  O   UNL     1      -3.387   8.455  11.459  1.00  0.00    -0.237 OA
ATOM     87  O   UNL     1      -2.526   6.190  10.947  1.00  0.00    -0.237 OA
ATOM     88  O   UNL     1      -0.965   8.087  11.166  1.00  0.00    -0.744 OA
ENDBRANCH  81  85
ENDBRANCH  54  78
BRANCH  66  89
ATOM     89  C   UNL     1     -10.305  10.655   8.866  1.00  0.00     0.023 A 
ATOM     90  C   UNL     1      -9.933  11.992   9.081  1.00  0.00     0.031 A 
ATOM     91  C   UNL     1     -11.203  10.060   9.773  1.00  0.00     0.131 A 
ATOM     92  C   UNL     1     -10.427  12.678  10.200  1.00  0.00     0.055 A 
ATOM     93  C   UNL     1     -11.740  10.768  10.846  1.00  0.00     0.041 A 
ATOM     94  F   UNL     1     -11.589   8.784   9.614  1.00  0.00    -0.206 F 
ATOM     95  C   UNL     1     -11.345  12.083  11.071  1.00  0.00     0.022 A 
BRANCH  92  96
ATOM     96  S   UNL     1      -9.795  14.341  10.552  1.00  0.00     0.124 S 
ATOM     97  O   UNL     1      -8.363  14.098  10.693  1.00  0.00    -0.237 OA
ATOM     98  O   UNL     1     -10.201  15.088   9.366  1.00  0.00    -0.237 OA
ATOM     99  O   UNL     1     -10.485  14.717  11.785  1.00  0.00    -0.744 OA
ENDBRANCH  92  96
ENDBRANCH  66  89
ENDBRANCH  40  41
ENDBRANCH  33  35
ENDBRANCH  32  33
ENDBRANCH  31  32
ENDBRANCH  30  31
ENDBRANCH  29  30
ENDBRANCH  28  29
ENDBRANCH  27  28
ENDBRANCH   1  27
TORSDOF 28
