REMARK SMILES O=C(OCCOCCOCCOCCOC(=O)[C@H]1CC=CC[C@@H]1C(=O)Nc1ccccc1C(=O)NCc1ccco1)c1ccc(-c2c3nc(c(-c4cc(S(=O)(=O)[O-])ccc4F)c4ccc([nH]4)c(-c4cc(S(=O)(=O)[O-])ccc4F)c4nc(c(-c5cc(S(=O)(=O)[O-])ccc5F)c5ccc2[nH]5)C=C4)C=C3)cc1
REMARK SMILES IDX 10 1 9 2 8 3 7 4 6 5 5 6 4 7 3 8 2 9 1 10 42 11 43 12 104 13
REMARK SMILES IDX 44 14 103 15 45 16 46 17 47 18 97 19 48 20 102 21 96 22
REMARK SMILES IDX 98 23 49 24 101 25 95 26 94 27 50 29 82 30 62 31 81 32 63 33
REMARK SMILES IDX 66 34 80 35 99 36 64 37 65 38 79 40 100 41 67 42 51 43 52 44
REMARK SMILES IDX 60 45 53 46 59 47 61 48 58 49 54 50 55 51 56 52 57 53 83 54
REMARK SMILES IDX 84 55 92 56 85 57 91 58 93 59 90 60 86 61 87 62 88 63 89 64
REMARK SMILES IDX 68 65 69 66 77 67 70 68 76 69 78 70 75 71 71 72 72 73 73 74
REMARK SMILES IDX 74 75 11 76 12 77 13 78 14 79 15 80 16 81 17 82 18 83 19 84
REMARK SMILES IDX 23 85 20 86 22 87 21 88 24 89 25 90 26 91 27 93 28 94 32 95
REMARK SMILES IDX 29 96 31 97 30 98 33 99 34 100 35 101 36 103 37 104 38 105
REMARK SMILES IDX 41 106 39 107 40 108
REMARK H PARENT 98 28 66 39 26 92 35 102
REMARK Flexibility Score: inf
ROOT
ATOM      1  C   UNL     1       4.011  -0.754  -3.373  1.00  0.00     0.188 C 
ENDROOT
BRANCH   1   2
ATOM      2  O   UNL     1       2.639  -1.129  -3.423  1.00  0.00    -0.377 OA
BRANCH   2   3
ATOM      3  C   UNL     1       1.796  -0.583  -2.415  1.00  0.00     0.188 C 
BRANCH   3   4
ATOM      4  C   UNL     1       2.205  -0.915  -0.984  1.00  0.00     0.188 C 
BRANCH   4   5
ATOM      5  O   UNL     1       3.513  -0.419  -0.702  1.00  0.00    -0.376 OA
BRANCH   5   6
ATOM      6  C   UNL     1       4.366  -1.340  -0.017  1.00  0.00     0.202 C 
BRANCH   6   7
ATOM      7  C   UNL     1       4.289  -1.203   1.504  1.00  0.00     0.261 C 
BRANCH   7   8
ATOM      8  O   UNL     1       2.953  -0.914   1.943  1.00  0.00    -0.460 OA
BRANCH   8   9
ATOM      9  C   UNL     1       2.355   0.301   2.030  1.00  0.00     0.338 C 
ATOM     10  O   UNL     1       1.167   0.330   2.356  1.00  0.00    -0.246 OA
BRANCH   9  11
ATOM     11  C   UNL     1       3.040   1.616   1.784  1.00  0.00     0.060 A 
ATOM     12  C   UNL     1       4.197   1.819   1.026  1.00  0.00     0.016 A 
ATOM     13  C   UNL     1       2.430   2.752   2.349  1.00  0.00     0.016 A 
ATOM     14  C   UNL     1       4.782   3.072   0.901  1.00  0.00     0.010 A 
ATOM     15  C   UNL     1       3.003   4.022   2.224  1.00  0.00     0.010 A 
ATOM     16  C   UNL     1       4.212   4.168   1.536  1.00  0.00    -0.014 A 
BRANCH  16  17
ATOM     17  C   UNL     1       5.052   5.369   1.690  1.00  0.00     0.031 A 
ATOM     18  C   UNL     1       5.793   5.519   2.986  1.00  0.00     0.074 A 
ATOM     19  C   UNL     1       5.272   6.187   0.647  1.00  0.00     0.049 A 
ATOM     20  N   UNL     1       6.566   6.483   3.401  1.00  0.00    -0.248 NA
ATOM     21  C   UNL     1       5.647   4.408   3.942  1.00  0.00     0.031 C 
ATOM     22  C   UNL     1       4.720   6.004  -0.696  1.00  0.00     0.029 A 
ATOM     23  N   UNL     1       6.046   7.309   0.544  1.00  0.00    -0.354 N 
ATOM     24  C   UNL     1       6.976   6.109   4.678  1.00  0.00     0.074 A 
ATOM     25  C   UNL     1       6.354   4.838   4.971  1.00  0.00     0.031 C 
ATOM     26  C   UNL     1       5.188   6.978  -1.494  1.00  0.00     0.029 A 
ATOM     27  C   UNL     1       6.014   7.886  -0.704  1.00  0.00     0.049 A 
ATOM     28  H   UNL     1       6.575   7.670   1.292  1.00  0.00     0.167 HD
ATOM     29  C   UNL     1       7.792   6.779   5.526  1.00  0.00     0.034 A 
ATOM     30  C   UNL     1       6.565   9.038  -1.131  1.00  0.00     0.034 A 
ATOM     31  C   UNL     1       8.364   8.059   5.193  1.00  0.00     0.049 A 
ATOM     32  C   UNL     1       7.359   9.841  -0.129  1.00  0.00     0.074 A 
ATOM     33  C   UNL     1       9.116   8.911   5.978  1.00  0.00     0.029 A 
ATOM     34  N   UNL     1       8.229   8.675   3.950  1.00  0.00    -0.354 N 
ATOM     35  N   UNL     1       7.656   9.545   1.119  1.00  0.00    -0.248 NA
ATOM     36  C   UNL     1       7.879  11.135  -0.582  1.00  0.00     0.031 C 
ATOM     37  C   UNL     1       9.382  10.066   5.231  1.00  0.00     0.029 A 
ATOM     38  C   UNL     1       8.862   9.905   3.954  1.00  0.00     0.049 A 
ATOM     39  H   UNL     1       7.752   8.290   3.180  1.00  0.00     0.167 HD
ATOM     40  C   UNL     1       8.413  10.610   1.596  1.00  0.00     0.074 A 
ATOM     41  C   UNL     1       8.541  11.544   0.491  1.00  0.00     0.031 C 
ATOM     42  C   UNL     1       8.953  10.808   2.827  1.00  0.00     0.034 A 
BRANCH  29  43
ATOM     43  C   UNL     1       7.973   6.179   6.901  1.00  0.00     0.023 A 
ATOM     44  C   UNL     1       8.563   4.915   7.090  1.00  0.00     0.031 A 
ATOM     45  C   UNL     1       7.404   6.811   8.021  1.00  0.00     0.131 A 
ATOM     46  C   UNL     1       8.466   4.278   8.339  1.00  0.00     0.055 A 
ATOM     47  C   UNL     1       7.394   6.211   9.281  1.00  0.00     0.041 A 
ATOM     48  F   UNL     1       6.798   8.003   7.899  1.00  0.00    -0.206 F 
ATOM     49  C   UNL     1       7.905   4.926   9.441  1.00  0.00     0.022 A 
BRANCH  46  50
ATOM     50  S   UNL     1       8.898   2.516   8.445  1.00  0.00     0.124 S 
ATOM     51  O   UNL     1       7.979   1.929   7.462  1.00  0.00    -0.237 OA
ATOM     52  O   UNL     1      10.298   2.506   8.098  1.00  0.00    -0.237 OA
ATOM     53  O   UNL     1       8.588   2.174   9.841  1.00  0.00    -0.744 OA
ENDBRANCH  46  50
ENDBRANCH  29  43
BRANCH  30  54
ATOM     54  C   UNL     1       6.330   9.527  -2.521  1.00  0.00     0.023 A 
ATOM     55  C   UNL     1       7.389   9.719  -3.423  1.00  0.00     0.031 A 
ATOM     56  C   UNL     1       5.029   9.837  -2.964  1.00  0.00     0.131 A 
ATOM     57  C   UNL     1       7.133  10.226  -4.709  1.00  0.00     0.055 A 
ATOM     58  C   UNL     1       4.774  10.295  -4.258  1.00  0.00     0.041 A 
ATOM     59  F   UNL     1       3.977   9.682  -2.144  1.00  0.00    -0.206 F 
ATOM     60  C   UNL     1       5.831  10.501  -5.137  1.00  0.00     0.022 A 
BRANCH  57  61
ATOM     61  S   UNL     1       8.534  10.579  -5.807  1.00  0.00     0.124 S 
ATOM     62  O   UNL     1       9.296  11.541  -5.019  1.00  0.00    -0.237 OA
ATOM     63  O   UNL     1       9.136   9.258  -5.964  1.00  0.00    -0.237 OA
ATOM     64  O   UNL     1       7.901  11.117  -7.008  1.00  0.00    -0.744 OA
ENDBRANCH  57  61
ENDBRANCH  30  54
BRANCH  42  65
ATOM     65  C   UNL     1       9.762  12.065   3.011  1.00  0.00     0.023 A 
ATOM     66  C   UNL     1       9.160  13.334   3.010  1.00  0.00     0.031 A 
ATOM     67  C   UNL     1      11.154  11.985   3.188  1.00  0.00     0.131 A 
ATOM     68  C   UNL     1       9.958  14.480   3.127  1.00  0.00     0.055 A 
ATOM     69  C   UNL     1      11.934  13.126   3.367  1.00  0.00     0.041 A 
ATOM     70  F   UNL     1      11.774  10.794   3.197  1.00  0.00    -0.206 F 
ATOM     71  C   UNL     1      11.339  14.384   3.324  1.00  0.00     0.022 A 
BRANCH  68  72
ATOM     72  S   UNL     1       9.178  16.104   2.927  1.00  0.00     0.124 S 
ATOM     73  O   UNL     1       8.614  16.006   1.585  1.00  0.00    -0.237 OA
ATOM     74  O   UNL     1       8.216  16.127   4.024  1.00  0.00    -0.237 OA
ATOM     75  O   UNL     1      10.294  17.039   3.063  1.00  0.00    -0.744 OA
ENDBRANCH  68  72
ENDBRANCH  42  65
ENDBRANCH  16  17
ENDBRANCH   9  11
ENDBRANCH   8   9
ENDBRANCH   7   8
ENDBRANCH   6   7
ENDBRANCH   5   6
ENDBRANCH   4   5
ENDBRANCH   3   4
ENDBRANCH   2   3
ENDBRANCH   1   2
BRANCH   1  76
ATOM     76  C   UNL     1       4.421   0.729  -3.440  1.00  0.00     0.188 C 
BRANCH  76  77
ATOM     77  O   UNL     1       3.360   1.676  -3.482  1.00  0.00    -0.376 OA
BRANCH  77  78
ATOM     78  C   UNL     1       3.131   2.260  -4.763  1.00  0.00     0.202 C 
BRANCH  78  79
ATOM     79  C   UNL     1       2.203   1.412  -5.639  1.00  0.00     0.261 C 
BRANCH  79  80
ATOM     80  O   UNL     1       2.758   0.125  -5.964  1.00  0.00    -0.463 OA
BRANCH  80  81
ATOM     81  C   UNL     1       3.773   0.110  -6.852  1.00  0.00     0.310 C 
ATOM     82  O   UNL     1       4.153   1.105  -7.459  1.00  0.00    -0.252 OA
BRANCH  81  83
ATOM     83  C   UNL     1       4.500  -1.234  -6.908  1.00  0.00     0.116 C 
ATOM     84  C   UNL     1       3.742  -2.461  -6.341  1.00  0.00     0.043 C 
ATOM     85  C   UNL     1       5.091  -1.413  -8.311  1.00  0.00     0.097 C 
ATOM     86  C   UNL     1       3.427  -3.572  -7.286  1.00  0.00    -0.030 C 
ATOM     87  C   UNL     1       4.144  -2.220  -9.228  1.00  0.00     0.041 C 
ATOM     88  C   UNL     1       3.600  -3.466  -8.605  1.00  0.00    -0.030 C 
BRANCH  85  89
ATOM     89  C   UNL     1       6.514  -1.967  -8.368  1.00  0.00     0.228 C 
ATOM     90  O   UNL     1       6.777  -2.986  -9.020  1.00  0.00    -0.274 OA
ATOM     91  N   UNL     1       7.604  -1.303  -7.886  1.00  0.00    -0.325 N 
ATOM     92  H   UNL     1       8.444  -1.641  -8.274  1.00  0.00     0.169 HD
BRANCH  91  93
ATOM     93  C   UNL     1       7.830  -0.259  -6.975  1.00  0.00     0.054 A 
ATOM     94  C   UNL     1       8.467   0.857  -7.561  1.00  0.00     0.027 A 
ATOM     95  C   UNL     1       7.703  -0.303  -5.568  1.00  0.00     0.063 A 
ATOM     96  C   UNL     1       8.845   1.974  -6.814  1.00  0.00     0.002 A 
ATOM     97  C   UNL     1       8.051   0.872  -4.845  1.00  0.00     0.016 A 
ATOM     98  C   UNL     1       8.603   1.997  -5.455  1.00  0.00     0.001 A 
BRANCH  95  99
ATOM     99  C   UNL     1       7.314  -1.424  -4.642  1.00  0.00     0.253 C 
ATOM    100  O   UNL     1       6.918  -1.132  -3.508  1.00  0.00    -0.269 OA
ATOM    101  N   UNL     1       7.379  -2.763  -4.886  1.00  0.00    -0.345 N 
ATOM    102  H   UNL     1       7.047  -3.312  -4.139  1.00  0.00     0.164 HD
BRANCH 101 103
ATOM    103  C   UNL     1       7.831  -3.540  -6.005  1.00  0.00     0.191 C 
BRANCH 103 104
ATOM    104  C   UNL     1       8.561  -4.737  -5.541  1.00  0.00     0.122 A 
ATOM    105  C   UNL     1       9.908  -5.008  -5.431  1.00  0.00     0.047 A 
ATOM    106  O   UNL     1       7.828  -5.838  -5.216  1.00  0.00    -0.467 OA
ATOM    107  C   UNL     1      10.007  -6.363  -5.048  1.00  0.00     0.042 A 
ATOM    108  C   UNL     1       8.716  -6.823  -4.924  1.00  0.00     0.195 A 
ENDBRANCH 103 104
ENDBRANCH 101 103
ENDBRANCH  95  99
ENDBRANCH  91  93
ENDBRANCH  85  89
ENDBRANCH  81  83
ENDBRANCH  80  81
ENDBRANCH  79  80
ENDBRANCH  78  79
ENDBRANCH  77  78
ENDBRANCH  76  77
ENDBRANCH   1  76
TORSDOF 28
