REMARK SMILES Cc1cc(N2CCCC2)nc2sc3c(=O)n(CC(=O)OCCOCCOCCOCCOC(=O)c4ccc(-c5c6nc(c(-c7cc(S(=O)(=O)[O-])ccc7F)c7ccc([nH]7)c(-c7cc(S(=O)(=O)[O-])ccc7F)c7nc(c(-c8cc(S(=O)(=O)[O-])ccc8F)c8ccc5[nH]8)C=C7)C=C6)cc4)cnc3c12
REMARK SMILES IDX 27 1 26 2 25 3 24 4 23 5 22 6 21 7 20 8 18 9 19 10 17 11
REMARK SMILES IDX 16 12 1 13 2 14 3 15 101 16 4 17 11 18 100 19 10 20 12 21
REMARK SMILES IDX 13 22 99 23 14 24 98 25 15 26 5 27 6 28 9 29 7 30 8 31 28 32
REMARK SMILES IDX 29 33 30 34 31 35 32 36 33 37 34 38 35 39 36 40 97 41 37 42
REMARK SMILES IDX 96 43 38 44 39 45 40 46 90 47 41 48 95 49 89 50 91 51 42 52
REMARK SMILES IDX 94 53 88 54 87 55 43 57 75 58 55 59 74 60 56 61 59 62 73 63
REMARK SMILES IDX 92 64 57 65 58 66 72 68 93 69 60 70 44 71 45 72 53 73 46 74
REMARK SMILES IDX 52 75 54 76 51 77 47 78 48 79 49 80 50 81 76 82 77 83 85 84
REMARK SMILES IDX 78 85 84 86 86 87 83 88 79 89 80 90 81 91 82 92 61 93 62 94
REMARK SMILES IDX 70 95 63 96 69 97 71 98 68 99 64 100 65 101 66 102 67 103
REMARK H PARENT 91 56 59 67
REMARK Flexibility Score: inf
ROOT
ATOM      1  C   UNL     1       4.704  -4.989  -0.376  1.00  0.00     0.188 C 
ENDROOT
BRANCH   1   2
ATOM      2  O   UNL     1       3.780  -5.811  -1.084  1.00  0.00    -0.377 OA
BRANCH   2   3
ATOM      3  C   UNL     1       2.431  -5.680  -0.651  1.00  0.00     0.188 C 
BRANCH   3   4
ATOM      4  C   UNL     1       1.964  -6.882   0.196  1.00  0.00     0.188 C 
BRANCH   4   5
ATOM      5  O   UNL     1       1.880  -8.176  -0.411  1.00  0.00    -0.376 OA
BRANCH   5   6
ATOM      6  C   UNL     1       2.845  -8.481  -1.410  1.00  0.00     0.202 C 
BRANCH   6   7
ATOM      7  C   UNL     1       2.264  -8.271  -2.818  1.00  0.00     0.261 C 
BRANCH   7   8
ATOM      8  O   UNL     1       1.220  -7.268  -2.861  1.00  0.00    -0.462 OA
BRANCH   8   9
ATOM      9  C   UNL     1      -0.037  -7.711  -2.612  1.00  0.00     0.326 C 
ATOM     10  O   UNL     1      -0.353  -8.897  -2.534  1.00  0.00    -0.250 OA
BRANCH   9  11
ATOM     11  C   UNL     1      -1.077  -6.603  -2.413  1.00  0.00     0.249 C 
BRANCH  11  12
ATOM     12  N   UNL     1      -0.707  -5.186  -2.417  1.00  0.00    -0.287 N 
ATOM     13  C   UNL     1       0.807  -0.336   0.033  1.00  0.00     0.045 C 
ATOM     14  C   UNL     1       0.391  -0.092  -1.390  1.00  0.00    -0.035 A 
ATOM     15  C   UNL     1       0.464   1.227  -1.872  1.00  0.00     0.051 A 
ATOM     16  C   UNL     1      -0.009  -1.086  -2.317  1.00  0.00     0.041 A 
ATOM     17  C   UNL     1       0.058   1.562  -3.161  1.00  0.00     0.130 A 
ATOM     18  C   UNL     1      -0.309  -0.643  -3.608  1.00  0.00     0.128 A 
ATOM     19  C   UNL     1      -0.228  -2.502  -2.247  1.00  0.00     0.098 A 
ATOM     20  N   UNL     1      -0.355   0.635  -4.040  1.00  0.00    -0.220 NA
ATOM     21  S   UNL     1      -0.635  -1.933  -4.692  1.00  0.00    -0.108 S 
ATOM     22  C   UNL     1      -0.489  -3.082  -3.458  1.00  0.00     0.121 A 
ATOM     23  N   UNL     1      -0.228  -3.256  -1.060  1.00  0.00    -0.236 NA
ATOM     24  C   UNL     1      -0.690  -4.498  -3.629  1.00  0.00     0.271 A 
ATOM     25  C   UNL     1      -0.504  -4.513  -1.225  1.00  0.00     0.203 A 
ATOM     26  O   UNL     1      -0.879  -5.063  -4.704  1.00  0.00    -0.268 OA
BRANCH  17  27
ATOM     27  N   UNL     1       0.009   2.889  -3.505  1.00  0.00    -0.357 N 
ATOM     28  C   UNL     1       1.169   3.762  -3.486  1.00  0.00     0.118 C 
ATOM     29  C   UNL     1      -1.091   3.455  -4.261  1.00  0.00     0.118 C 
ATOM     30  C   UNL     1       0.523   5.140  -3.582  1.00  0.00     0.023 C 
ATOM     31  C   UNL     1      -0.667   4.909  -4.509  1.00  0.00     0.023 C 
ENDBRANCH  17  27
ENDBRANCH  11  12
ENDBRANCH   9  11
ENDBRANCH   8   9
ENDBRANCH   7   8
ENDBRANCH   6   7
ENDBRANCH   5   6
ENDBRANCH   4   5
ENDBRANCH   3   4
ENDBRANCH   2   3
ENDBRANCH   1   2
BRANCH   1  32
ATOM     32  C   UNL     1       4.774  -5.307   1.124  1.00  0.00     0.188 C 
BRANCH  32  33
ATOM     33  O   UNL     1       3.569  -4.957   1.814  1.00  0.00    -0.376 OA
BRANCH  33  34
ATOM     34  C   UNL     1       3.610  -3.738   2.555  1.00  0.00     0.202 C 
BRANCH  34  35
ATOM     35  C   UNL     1       3.492  -2.473   1.693  1.00  0.00     0.261 C 
BRANCH  35  36
ATOM     36  O   UNL     1       4.625  -2.197   0.856  1.00  0.00    -0.460 OA
BRANCH  36  37
ATOM     37  C   UNL     1       5.810  -2.062   1.490  1.00  0.00     0.338 C 
ATOM     38  O   UNL     1       6.023  -2.156   2.681  1.00  0.00    -0.246 OA
BRANCH  37  39
ATOM     39  C   UNL     1       6.851  -1.958   0.468  1.00  0.00     0.060 A 
ATOM     40  C   UNL     1       7.606  -3.087   0.136  1.00  0.00     0.016 A 
ATOM     41  C   UNL     1       7.132  -0.714  -0.079  1.00  0.00     0.016 A 
ATOM     42  C   UNL     1       8.679  -2.966  -0.737  1.00  0.00     0.010 A 
ATOM     43  C   UNL     1       8.241  -0.587  -0.906  1.00  0.00     0.010 A 
ATOM     44  C   UNL     1       9.047  -1.700  -1.210  1.00  0.00    -0.014 A 
BRANCH  44  45
ATOM     45  C   UNL     1      10.353  -1.545  -1.894  1.00  0.00     0.031 A 
ATOM     46  C   UNL     1      10.454  -0.469  -2.912  1.00  0.00     0.074 A 
ATOM     47  C   UNL     1      11.492  -1.840  -1.224  1.00  0.00     0.049 A 
ATOM     48  N   UNL     1      10.493   0.775  -2.544  1.00  0.00    -0.248 NA
ATOM     49  C   UNL     1      10.289  -0.657  -4.349  1.00  0.00     0.031 C 
ATOM     50  C   UNL     1      11.558  -2.034   0.236  1.00  0.00     0.029 A 
ATOM     51  N   UNL     1      12.809  -1.805  -1.618  1.00  0.00    -0.354 N 
ATOM     52  C   UNL     1      10.230   1.539  -3.657  1.00  0.00     0.074 A 
ATOM     53  C   UNL     1      10.164   0.615  -4.767  1.00  0.00     0.031 C 
ATOM     54  C   UNL     1      12.838  -1.936   0.634  1.00  0.00     0.029 A 
ATOM     55  C   UNL     1      13.685  -1.814  -0.539  1.00  0.00     0.049 A 
ATOM     56  H   UNL     1      13.098  -1.776  -2.559  1.00  0.00     0.167 HD
ATOM     57  C   UNL     1      10.080   2.887  -3.567  1.00  0.00     0.034 A 
ATOM     58  C   UNL     1      14.940  -1.302  -0.527  1.00  0.00     0.034 A 
ATOM     59  C   UNL     1      10.298   3.448  -2.259  1.00  0.00     0.049 A 
ATOM     60  C   UNL     1      14.667   0.184  -0.570  1.00  0.00     0.074 A 
ATOM     61  C   UNL     1       9.595   4.094  -1.269  1.00  0.00     0.029 A 
ATOM     62  N   UNL     1      11.553   3.227  -1.755  1.00  0.00    -0.354 N 
ATOM     63  N   UNL     1      14.240   0.916   0.432  1.00  0.00    -0.248 NA
ATOM     64  C   UNL     1      14.674   0.888  -1.860  1.00  0.00     0.031 C 
ATOM     65  C   UNL     1      10.428   4.080  -0.099  1.00  0.00     0.029 A 
ATOM     66  C   UNL     1      11.611   3.406  -0.398  1.00  0.00     0.049 A 
ATOM     67  H   UNL     1      12.326   2.967  -2.306  1.00  0.00     0.167 HD
ATOM     68  C   UNL     1      13.673   2.045  -0.157  1.00  0.00     0.074 A 
ATOM     69  C   UNL     1      14.158   2.062  -1.517  1.00  0.00     0.031 C 
ATOM     70  C   UNL     1      12.651   2.764   0.397  1.00  0.00     0.034 A 
BRANCH  57  71
ATOM     71  C   UNL     1      10.025   3.747  -4.763  1.00  0.00     0.023 A 
ATOM     72  C   UNL     1       8.826   4.133  -5.370  1.00  0.00     0.031 A 
ATOM     73  C   UNL     1      11.237   4.276  -5.241  1.00  0.00     0.131 A 
ATOM     74  C   UNL     1       8.870   5.047  -6.433  1.00  0.00     0.055 A 
ATOM     75  C   UNL     1      11.275   5.187  -6.291  1.00  0.00     0.041 A 
ATOM     76  F   UNL     1      12.401   3.921  -4.669  1.00  0.00    -0.206 F 
ATOM     77  C   UNL     1      10.084   5.580  -6.890  1.00  0.00     0.022 A 
BRANCH  74  78
ATOM     78  S   UNL     1       7.352   5.613  -7.248  1.00  0.00     0.124 S 
ATOM     79  O   UNL     1       7.452   7.065  -7.115  1.00  0.00    -0.237 OA
ATOM     80  O   UNL     1       7.527   5.094  -8.601  1.00  0.00    -0.237 OA
ATOM     81  O   UNL     1       6.286   4.989  -6.471  1.00  0.00    -0.744 OA
ENDBRANCH  74  78
ENDBRANCH  57  71
BRANCH  58  82
ATOM     82  C   UNL     1      15.883  -2.036  -1.431  1.00  0.00     0.023 A 
ATOM     83  C   UNL     1      16.694  -1.435  -2.398  1.00  0.00     0.031 A 
ATOM     84  C   UNL     1      15.945  -3.449  -1.349  1.00  0.00     0.131 A 
ATOM     85  C   UNL     1      17.333  -2.217  -3.372  1.00  0.00     0.055 A 
ATOM     86  C   UNL     1      16.646  -4.229  -2.273  1.00  0.00     0.041 A 
ATOM     87  F   UNL     1      15.301  -4.105  -0.368  1.00  0.00    -0.206 F 
ATOM     88  C   UNL     1      17.314  -3.611  -3.320  1.00  0.00     0.022 A 
BRANCH  85  89
ATOM     89  S   UNL     1      18.133  -1.410  -4.784  1.00  0.00     0.124 S 
ATOM     90  O   UNL     1      19.296  -2.260  -5.022  1.00  0.00    -0.237 OA
ATOM     91  O   UNL     1      17.076  -1.486  -5.787  1.00  0.00    -0.237 OA
ATOM     92  O   UNL     1      18.430  -0.074  -4.277  1.00  0.00    -0.744 OA
ENDBRANCH  85  89
ENDBRANCH  58  82
BRANCH  70  93
ATOM     93  C   UNL     1      12.557   2.730   1.891  1.00  0.00     0.023 A 
ATOM     94  C   UNL     1      11.382   2.364   2.570  1.00  0.00     0.031 A 
ATOM     95  C   UNL     1      13.642   3.209   2.651  1.00  0.00     0.131 A 
ATOM     96  C   UNL     1      11.307   2.521   3.962  1.00  0.00     0.055 A 
ATOM     97  C   UNL     1      13.579   3.318   4.038  1.00  0.00     0.041 A 
ATOM     98  F   UNL     1      14.765   3.634   2.047  1.00  0.00    -0.206 F 
ATOM     99  C   UNL     1      12.404   2.982   4.700  1.00  0.00     0.022 A 
BRANCH  96 100
ATOM    100  S   UNL     1       9.769   2.195   4.865  1.00  0.00     0.124 S 
ATOM    101  O   UNL     1      10.230   1.387   5.993  1.00  0.00    -0.237 OA
ATOM    102  O   UNL     1       9.331   3.546   5.208  1.00  0.00    -0.237 OA
ATOM    103  O   UNL     1       8.933   1.492   3.898  1.00  0.00    -0.744 OA
ENDBRANCH  96 100
ENDBRANCH  70  93
ENDBRANCH  44  45
ENDBRANCH  37  39
ENDBRANCH  36  37
ENDBRANCH  35  36
ENDBRANCH  34  35
ENDBRANCH  33  34
ENDBRANCH  32  33
ENDBRANCH   1  32
TORSDOF 25
