REMARK SMILES Cc1ncccc1C(=O)NCCOCC(=O)OCCOCCOCCOCCOC(=O)c1ccc(-c2c3nc(c(-c4cc(S(=O)(=O)[O-])ccc4F)c4ccc([nH]4)c(-c4cc(S(=O)(=O)[O-])ccc4F)c4nc(c(-c5cc(S(=O)(=O)[O-])ccc5F)c5ccc2[nH]5)C=C4)C=C3)cc1
REMARK SMILES IDX 22 1 21 2 20 3 19 4 18 5 17 6 15 7 16 8 14 9 13 10 12 11
REMARK SMILES IDX 11 12 10 13 8 14 9 15 7 17 1 18 2 19 3 20 4 21 6 22 5 23
REMARK SMILES IDX 23 24 24 25 25 26 26 27 27 28 28 29 29 30 30 31 31 32 32 33
REMARK SMILES IDX 33 34 94 35 34 36 93 37 35 38 36 39 37 40 87 41 38 42 92 43
REMARK SMILES IDX 86 44 88 45 39 46 91 47 85 48 84 49 40 51 72 52 52 53 71 54
REMARK SMILES IDX 53 55 56 56 70 57 89 58 54 59 55 60 69 62 90 63 57 64 41 65
REMARK SMILES IDX 42 66 50 67 43 68 49 69 51 70 48 71 44 72 45 73 46 74 47 75
REMARK SMILES IDX 73 76 74 77 82 78 75 79 81 80 83 81 80 82 76 83 77 84 78 85
REMARK SMILES IDX 79 86 58 87 59 88 67 89 60 90 66 91 68 92 65 93 61 94 62 95
REMARK SMILES IDX 63 96 64 97
REMARK H PARENT 10 16 88 50 56 61
REMARK Flexibility Score: inf
ROOT
ATOM      1  C   UNL     1       1.513  -1.800   3.003  1.00  0.00     0.188 C 
ENDROOT
BRANCH   1   2
ATOM      2  C   UNL     1       1.105  -3.256   2.796  1.00  0.00     0.188 C 
BRANCH   2   3
ATOM      3  O   UNL     1       0.752  -3.982   3.970  1.00  0.00    -0.376 OA
BRANCH   3   4
ATOM      4  C   UNL     1       1.700  -4.011   5.035  1.00  0.00     0.202 C 
BRANCH   4   5
ATOM      5  C   UNL     1       3.039  -4.733   4.789  1.00  0.00     0.261 C 
BRANCH   5   6
ATOM      6  O   UNL     1       3.781  -4.336   3.611  1.00  0.00    -0.462 OA
BRANCH   6   7
ATOM      7  C   UNL     1       3.772  -5.233   2.591  1.00  0.00     0.332 C 
ATOM      8  O   UNL     1       3.156  -6.297   2.606  1.00  0.00    -0.250 OA
BRANCH   7   9
ATOM      9  C   UNL     1       4.599  -4.824   1.346  1.00  0.00     0.282 C 
BRANCH   9  10
ATOM     10  O   UNL     1       5.297  -3.643   1.032  1.00  0.00    -0.368 OA
BRANCH  10  11
ATOM     11  C   UNL     1       4.616  -2.408   1.173  1.00  0.00     0.182 C 
BRANCH  11  12
ATOM     12  C   UNL     1       3.737  -1.939  -0.003  1.00  0.00     0.144 C 
BRANCH  12  13
ATOM     13  N   UNL     1       2.535  -2.703  -0.297  1.00  0.00    -0.350 N 
ATOM     14  C   UNL     1       1.226  -2.401  -0.583  1.00  0.00     0.253 C 
ATOM     15  O   UNL     1       0.536  -3.365  -0.935  1.00  0.00    -0.269 OA
ATOM     16  H   UNL     1       2.700  -3.674  -0.290  1.00  0.00     0.163 HD
BRANCH  14  17
ATOM     17  C   UNL     1       0.520  -1.092  -0.414  1.00  0.00     0.061 A 
ATOM     18  C   UNL     1       2.263   0.579  -1.300  1.00  0.00     0.067 C 
ATOM     19  C   UNL     1       0.948   0.205  -0.703  1.00  0.00     0.050 A 
ATOM     20  N   UNL     1       0.154   1.305  -0.500  1.00  0.00    -0.261 NA
ATOM     21  C   UNL     1      -1.116   1.129  -0.083  1.00  0.00     0.111 A 
ATOM     22  C   UNL     1      -0.826  -1.218   0.005  1.00  0.00     0.017 A 
ATOM     23  C   UNL     1      -1.656  -0.110   0.164  1.00  0.00     0.021 A 
ENDBRANCH  14  17
ENDBRANCH  12  13
ENDBRANCH  11  12
ENDBRANCH  10  11
ENDBRANCH   9  10
ENDBRANCH   7   9
ENDBRANCH   6   7
ENDBRANCH   5   6
ENDBRANCH   4   5
ENDBRANCH   3   4
ENDBRANCH   2   3
ENDBRANCH   1   2
BRANCH   1  24
ATOM     24  O   UNL     1       2.650  -1.691   3.844  1.00  0.00    -0.377 OA
BRANCH  24  25
ATOM     25  C   UNL     1       2.752  -0.570   4.719  1.00  0.00     0.188 C 
BRANCH  25  26
ATOM     26  C   UNL     1       1.453   0.156   5.087  1.00  0.00     0.188 C 
BRANCH  26  27
ATOM     27  O   UNL     1       0.855   1.049   4.142  1.00  0.00    -0.376 OA
BRANCH  27  28
ATOM     28  C   UNL     1       1.582   1.489   3.004  1.00  0.00     0.202 C 
BRANCH  28  29
ATOM     29  C   UNL     1       2.582   2.635   3.180  1.00  0.00     0.261 C 
BRANCH  29  30
ATOM     30  O   UNL     1       3.477   2.451   4.278  1.00  0.00    -0.460 OA
BRANCH  30  31
ATOM     31  C   UNL     1       3.016   2.938   5.454  1.00  0.00     0.338 C 
ATOM     32  O   UNL     1       1.965   3.530   5.650  1.00  0.00    -0.246 OA
BRANCH  31  33
ATOM     33  C   UNL     1       3.920   2.492   6.524  1.00  0.00     0.060 A 
ATOM     34  C   UNL     1       3.368   1.862   7.646  1.00  0.00     0.016 A 
ATOM     35  C   UNL     1       5.294   2.730   6.436  1.00  0.00     0.016 A 
ATOM     36  C   UNL     1       4.187   1.479   8.698  1.00  0.00     0.010 A 
ATOM     37  C   UNL     1       6.110   2.384   7.510  1.00  0.00     0.010 A 
ATOM     38  C   UNL     1       5.549   1.790   8.654  1.00  0.00    -0.014 A 
BRANCH  38  39
ATOM     39  C   UNL     1       6.329   1.725   9.905  1.00  0.00     0.031 A 
ATOM     40  C   UNL     1       6.465   2.987  10.707  1.00  0.00     0.074 A 
ATOM     41  C   UNL     1       6.856   0.565  10.325  1.00  0.00     0.049 A 
ATOM     42  N   UNL     1       7.143   3.208  11.799  1.00  0.00    -0.248 NA
ATOM     43  C   UNL     1       5.736   4.162  10.199  1.00  0.00     0.031 C 
ATOM     44  C   UNL     1       6.710  -0.722   9.647  1.00  0.00     0.029 A 
ATOM     45  N   UNL     1       7.624   0.286  11.423  1.00  0.00    -0.354 N 
ATOM     46  C   UNL     1       6.930   4.547  12.107  1.00  0.00     0.074 A 
ATOM     47  C   UNL     1       6.092   5.096  11.065  1.00  0.00     0.031 C 
ATOM     48  C   UNL     1       7.383  -1.655  10.341  1.00  0.00     0.029 A 
ATOM     49  C   UNL     1       8.042  -1.021  11.481  1.00  0.00     0.049 A 
ATOM     50  H   UNL     1       7.855   0.958  12.105  1.00  0.00     0.167 HD
ATOM     51  C   UNL     1       7.392   5.247  13.171  1.00  0.00     0.034 A 
ATOM     52  C   UNL     1       8.888  -1.619  12.343  1.00  0.00     0.034 A 
ATOM     53  C   UNL     1       8.244   4.672  14.181  1.00  0.00     0.049 A 
ATOM     54  C   UNL     1       9.480  -0.790  13.459  1.00  0.00     0.074 A 
ATOM     55  C   UNL     1       8.780   5.277  15.303  1.00  0.00     0.029 A 
ATOM     56  N   UNL     1       8.696   3.357  14.182  1.00  0.00    -0.354 N 
ATOM     57  N   UNL     1       9.282   0.478  13.744  1.00  0.00    -0.248 NA
ATOM     58  C   UNL     1      10.401  -1.474  14.373  1.00  0.00     0.031 C 
ATOM     59  C   UNL     1       9.623   4.355  15.932  1.00  0.00     0.029 A 
ATOM     60  C   UNL     1       9.536   3.144  15.262  1.00  0.00     0.049 A 
ATOM     61  H   UNL     1       8.455   2.678  13.512  1.00  0.00     0.167 HD
ATOM     62  C   UNL     1      10.027   0.732  14.893  1.00  0.00     0.074 A 
ATOM     63  C   UNL     1      10.665  -0.519  15.253  1.00  0.00     0.031 C 
ATOM     64  C   UNL     1      10.168   1.887  15.594  1.00  0.00     0.034 A 
BRANCH  51  65
ATOM     65  C   UNL     1       7.039   6.713  13.243  1.00  0.00     0.023 A 
ATOM     66  C   UNL     1       5.708   7.154  13.354  1.00  0.00     0.031 A 
ATOM     67  C   UNL     1       8.048   7.688  13.154  1.00  0.00     0.131 A 
ATOM     68  C   UNL     1       5.418   8.525  13.298  1.00  0.00     0.055 A 
ATOM     69  C   UNL     1       7.760   9.053  13.188  1.00  0.00     0.041 A 
ATOM     70  F   UNL     1       9.334   7.330  13.013  1.00  0.00    -0.206 F 
ATOM     71  C   UNL     1       6.436   9.479  13.245  1.00  0.00     0.022 A 
BRANCH  68  72
ATOM     72  S   UNL     1       3.685   9.039  13.136  1.00  0.00     0.124 S 
ATOM     73  O   UNL     1       3.289   8.355  11.908  1.00  0.00    -0.237 OA
ATOM     74  O   UNL     1       3.090   8.536  14.368  1.00  0.00    -0.237 OA
ATOM     75  O   UNL     1       3.768  10.495  13.031  1.00  0.00    -0.744 OA
ENDBRANCH  68  72
ENDBRANCH  51  65
BRANCH  52  76
ATOM     76  C   UNL     1       9.263  -3.051  12.166  1.00  0.00     0.023 A 
ATOM     77  C   UNL     1       8.976  -4.002  13.156  1.00  0.00     0.031 A 
ATOM     78  C   UNL     1       9.964  -3.480  11.024  1.00  0.00     0.131 A 
ATOM     79  C   UNL     1       9.432  -5.322  13.012  1.00  0.00     0.055 A 
ATOM     80  C   UNL     1      10.361  -4.808  10.857  1.00  0.00     0.041 A 
ATOM     81  F   UNL     1      10.269  -2.612  10.047  1.00  0.00    -0.206 F 
ATOM     82  C   UNL     1      10.108  -5.735  11.862  1.00  0.00     0.022 A 
BRANCH  79  83
ATOM     83  S   UNL     1       9.217  -6.469  14.400  1.00  0.00     0.124 S 
ATOM     84  O   UNL     1       9.913  -5.768  15.473  1.00  0.00    -0.237 OA
ATOM     85  O   UNL     1       7.764  -6.536  14.513  1.00  0.00    -0.237 OA
ATOM     86  O   UNL     1       9.862  -7.694  13.931  1.00  0.00    -0.744 OA
ENDBRANCH  79  83
ENDBRANCH  52  76
BRANCH  64  87
ATOM     87  C   UNL     1      11.003   1.831  16.851  1.00  0.00     0.023 A 
ATOM     88  C   UNL     1      12.383   1.567  16.815  1.00  0.00     0.031 A 
ATOM     89  C   UNL     1      10.403   2.042  18.106  1.00  0.00     0.131 A 
ATOM     90  C   UNL     1      13.104   1.460  18.014  1.00  0.00     0.055 A 
ATOM     91  C   UNL     1      11.140   2.009  19.289  1.00  0.00     0.041 A 
ATOM     92  F   UNL     1       9.087   2.293  18.201  1.00  0.00    -0.206 F 
ATOM     93  C   UNL     1      12.496   1.701  19.249  1.00  0.00     0.022 A 
BRANCH  90  94
ATOM     94  S   UNL     1      14.825   0.893  17.945  1.00  0.00     0.124 S 
ATOM     95  O   UNL     1      14.690  -0.400  17.282  1.00  0.00    -0.237 OA
ATOM     96  O   UNL     1      15.470   1.945  17.165  1.00  0.00    -0.237 OA
ATOM     97  O   UNL     1      15.222   0.832  19.350  1.00  0.00    -0.744 OA
ENDBRANCH  90  94
ENDBRANCH  64  87
ENDBRANCH  38  39
ENDBRANCH  31  33
ENDBRANCH  30  31
ENDBRANCH  29  30
ENDBRANCH  28  29
ENDBRANCH  27  28
ENDBRANCH  26  27
ENDBRANCH  25  26
ENDBRANCH  24  25
ENDBRANCH   1  24
TORSDOF 28
