REMARK SMILES O=C(Cc1c(C(=O)c2cc3c(cn2)CCCC3)[nH]c2cc(Cl)ccc12)OCCOCCOCCOCCOC(=O)c1ccc(-c2c3nc(c(-c4cc(S(=O)(=O)[O-])ccc4F)c4ccc([nH]4)c(-c4cc(S(=O)(=O)[O-])ccc4F)c4nc(c(-c5cc(S(=O)(=O)[O-])ccc5F)c5ccc2[nH]5)C=C4)C=C3)cc1
REMARK SMILES IDX 32 1 31 2 30 3 29 4 28 5 27 6 26 7 2 8 1 9 3 10 4 11 5 12
REMARK SMILES IDX 25 13 18 14 19 15 24 16 20 18 23 19 21 20 22 21 6 22 7 23
REMARK SMILES IDX 8 24 9 25 13 26 10 27 12 28 11 29 17 30 14 31 16 32 15 33
REMARK SMILES IDX 33 34 34 35 35 36 36 37 37 38 38 39 39 40 40 41 41 42 42 43
REMARK SMILES IDX 103 44 43 45 102 46 44 47 45 48 46 49 96 50 47 51 101 52
REMARK SMILES IDX 95 53 97 54 48 55 100 56 94 57 93 58 49 60 81 61 61 62 80 63
REMARK SMILES IDX 62 64 65 65 79 66 98 67 63 68 64 69 78 71 99 72 66 73 50 74
REMARK SMILES IDX 51 75 59 76 52 77 58 78 60 79 57 80 53 81 54 82 55 83 56 84
REMARK SMILES IDX 82 85 83 86 91 87 84 88 90 89 92 90 89 91 85 92 86 93 87 94
REMARK SMILES IDX 88 95 67 96 68 97 76 98 69 99 75 100 77 101 74 102 70 103
REMARK SMILES IDX 71 104 72 105 73 106
REMARK H PARENT 18 17 97 59 65 70
REMARK Flexibility Score: inf
ROOT
ATOM      1  O   UNL     1       2.836  -2.884   2.605  1.00  0.00    -0.377 OA
ENDROOT
BRANCH   1   2
ATOM      2  C   UNL     1       2.186  -2.132   1.591  1.00  0.00     0.188 C 
BRANCH   2   3
ATOM      3  C   UNL     1       2.787  -2.309   0.196  1.00  0.00     0.188 C 
BRANCH   3   4
ATOM      4  O   UNL     1       4.115  -1.892  -0.061  1.00  0.00    -0.376 OA
BRANCH   4   5
ATOM      5  C   UNL     1       4.648  -0.595   0.106  1.00  0.00     0.202 C 
BRANCH   5   6
ATOM      6  C   UNL     1       3.838   0.630   0.518  1.00  0.00     0.261 C 
BRANCH   6   7
ATOM      7  O   UNL     1       2.432   0.664   0.236  1.00  0.00    -0.463 OA
BRANCH   7   8
ATOM      8  C   UNL     1       1.774   0.283  -0.875  1.00  0.00     0.310 C 
ATOM      9  O   UNL     1       0.580  -0.015  -0.772  1.00  0.00    -0.252 OA
BRANCH   8  10
ATOM     10  C   UNL     1       2.507   0.066  -2.186  1.00  0.00     0.161 C 
BRANCH  10  11
ATOM     11  C   UNL     1       3.554   1.068  -2.546  1.00  0.00     0.000 A 
ATOM     12  C   UNL     1       3.425   2.441  -2.420  1.00  0.00     0.093 A 
ATOM     13  C   UNL     1       4.832   0.801  -3.125  1.00  0.00     0.004 A 
ATOM     14  N   UNL     1       4.631   2.996  -2.782  1.00  0.00    -0.351 N 
ATOM     15  C   UNL     1       5.475   2.027  -3.279  1.00  0.00     0.048 A 
ATOM     16  C   UNL     1       5.507  -0.377  -3.514  1.00  0.00     0.012 A 
ATOM     17  H   UNL     1       4.858   3.950  -2.698  1.00  0.00     0.167 HD
ATOM     18  C   UNL     1       6.753   2.138  -3.843  1.00  0.00     0.047 A 
ATOM     19  C   UNL     1       6.788  -0.287  -4.067  1.00  0.00     0.021 A 
ATOM     20  C   UNL     1       7.389   0.956  -4.240  1.00  0.00     0.043 A 
ATOM     21  Cl  UNL     1       8.950   1.043  -4.963  1.00  0.00    -0.084 Cl
BRANCH  12  22
ATOM     22  C   UNL     1       2.223   3.136  -2.010  1.00  0.00     0.227 C 
ATOM     23  O   UNL     1       1.109   2.617  -2.003  1.00  0.00    -0.285 OA
BRANCH  22  24
ATOM     24  C   UNL     1       2.256   4.570  -1.776  1.00  0.00     0.113 A 
ATOM     25  C   UNL     1       2.011   5.338  -2.896  1.00  0.00     0.036 A 
ATOM     26  N   UNL     1       2.321   5.016  -0.503  1.00  0.00    -0.252 NA
ATOM     27  C   UNL     1       1.757   6.681  -2.703  1.00  0.00    -0.041 A 
ATOM     28  C   UNL     1       2.067   6.330  -0.341  1.00  0.00     0.115 A 
ATOM     29  C   UNL     1       1.786   7.199  -1.398  1.00  0.00    -0.026 A 
ATOM     30  C   UNL     1       1.460   7.517  -3.913  1.00  0.00     0.036 C 
ATOM     31  C   UNL     1       1.425   8.632  -1.128  1.00  0.00     0.037 C 
ATOM     32  C   UNL     1       0.812   8.845  -3.555  1.00  0.00     0.005 C 
ATOM     33  C   UNL     1       1.543   9.495  -2.385  1.00  0.00     0.005 C 
ENDBRANCH  22  24
ENDBRANCH  12  22
ENDBRANCH  10  11
ENDBRANCH   8  10
ENDBRANCH   7   8
ENDBRANCH   6   7
ENDBRANCH   5   6
ENDBRANCH   4   5
ENDBRANCH   3   4
ENDBRANCH   2   3
ENDBRANCH   1   2
BRANCH   1  34
ATOM     34  C   UNL     1       4.189  -2.522   2.799  1.00  0.00     0.188 C 
BRANCH  34  35
ATOM     35  C   UNL     1       5.206  -3.513   2.204  1.00  0.00     0.188 C 
BRANCH  35  36
ATOM     36  O   UNL     1       4.820  -4.524   1.288  1.00  0.00    -0.376 OA
BRANCH  36  37
ATOM     37  C   UNL     1       3.708  -5.378   1.491  1.00  0.00     0.202 C 
BRANCH  37  38
ATOM     38  C   UNL     1       3.232  -5.935   2.840  1.00  0.00     0.261 C 
BRANCH  38  39
ATOM     39  O   UNL     1       3.507  -5.163   3.998  1.00  0.00    -0.460 OA
BRANCH  39  40
ATOM     40  C   UNL     1       4.665  -5.453   4.630  1.00  0.00     0.338 C 
ATOM     41  O   UNL     1       5.474  -6.312   4.323  1.00  0.00    -0.246 OA
BRANCH  40  42
ATOM     42  C   UNL     1       4.896  -4.385   5.625  1.00  0.00     0.060 A 
ATOM     43  C   UNL     1       3.858  -3.925   6.440  1.00  0.00     0.016 A 
ATOM     44  C   UNL     1       6.161  -3.782   5.672  1.00  0.00     0.016 A 
ATOM     45  C   UNL     1       4.104  -2.893   7.344  1.00  0.00     0.010 A 
ATOM     46  C   UNL     1       6.402  -2.738   6.562  1.00  0.00     0.010 A 
ATOM     47  C   UNL     1       5.387  -2.320   7.433  1.00  0.00    -0.014 A 
BRANCH  47  48
ATOM     48  C   UNL     1       5.732  -1.518   8.628  1.00  0.00     0.031 A 
ATOM     49  C   UNL     1       5.818  -0.027   8.610  1.00  0.00     0.074 A 
ATOM     50  C   UNL     1       5.984  -2.211   9.755  1.00  0.00     0.049 A 
ATOM     51  N   UNL     1       5.958   0.787   9.623  1.00  0.00    -0.248 NA
ATOM     52  C   UNL     1       5.755   0.639   7.302  1.00  0.00     0.031 C 
ATOM     53  C   UNL     1       5.987  -3.674   9.842  1.00  0.00     0.029 A 
ATOM     54  N   UNL     1       6.264  -1.800  11.030  1.00  0.00    -0.354 N 
ATOM     55  C   UNL     1       5.982   2.067   9.086  1.00  0.00     0.074 A 
ATOM     56  C   UNL     1       5.889   1.916   7.647  1.00  0.00     0.031 C 
ATOM     57  C   UNL     1       6.206  -4.037  11.111  1.00  0.00     0.029 A 
ATOM     58  C   UNL     1       6.385  -2.839  11.924  1.00  0.00     0.049 A 
ATOM     59  H   UNL     1       6.369  -0.854  11.283  1.00  0.00     0.167 HD
ATOM     60  C   UNL     1       6.056   3.246   9.748  1.00  0.00     0.034 A 
ATOM     61  C   UNL     1       6.589  -2.831  13.255  1.00  0.00     0.034 A 
ATOM     62  C   UNL     1       6.157   3.351  11.186  1.00  0.00     0.049 A 
ATOM     63  C   UNL     1       6.648  -1.505  13.962  1.00  0.00     0.074 A 
ATOM     64  C   UNL     1       6.165   4.500  11.958  1.00  0.00     0.029 A 
ATOM     65  N   UNL     1       6.279   2.283  12.066  1.00  0.00    -0.354 N 
ATOM     66  N   UNL     1       6.523  -0.298  13.461  1.00  0.00    -0.248 NA
ATOM     67  C   UNL     1       6.849  -1.532  15.416  1.00  0.00     0.031 C 
ATOM     68  C   UNL     1       6.376   4.134  13.287  1.00  0.00     0.029 A 
ATOM     69  C   UNL     1       6.401   2.751  13.365  1.00  0.00     0.049 A 
ATOM     70  H   UNL     1       6.279   1.334  11.805  1.00  0.00     0.167 HD
ATOM     71  C   UNL     1       6.593   0.575  14.542  1.00  0.00     0.074 A 
ATOM     72  C   UNL     1       6.748  -0.246  15.725  1.00  0.00     0.031 C 
ATOM     73  C   UNL     1       6.535   1.930  14.548  1.00  0.00     0.034 A 
BRANCH  60  74
ATOM     74  C   UNL     1       6.000   4.538   8.967  1.00  0.00     0.023 A 
ATOM     75  C   UNL     1       7.062   5.460   9.048  1.00  0.00     0.031 A 
ATOM     76  C   UNL     1       4.824   4.939   8.308  1.00  0.00     0.131 A 
ATOM     77  C   UNL     1       6.907   6.752   8.528  1.00  0.00     0.055 A 
ATOM     78  C   UNL     1       4.691   6.213   7.752  1.00  0.00     0.041 A 
ATOM     79  F   UNL     1       3.778   4.102   8.210  1.00  0.00    -0.206 F 
ATOM     80  C   UNL     1       5.729   7.131   7.876  1.00  0.00     0.022 A 
BRANCH  77  81
ATOM     81  S   UNL     1       8.188   8.017   8.752  1.00  0.00     0.124 S 
ATOM     82  O   UNL     1       8.489   8.384   7.370  1.00  0.00    -0.237 OA
ATOM     83  O   UNL     1       7.482   9.033   9.527  1.00  0.00    -0.237 OA
ATOM     84  O   UNL     1       9.257   7.314   9.453  1.00  0.00    -0.744 OA
ENDBRANCH  77  81
ENDBRANCH  60  74
BRANCH  61  85
ATOM     85  C   UNL     1       6.630  -4.129  13.988  1.00  0.00     0.023 A 
ATOM     86  C   UNL     1       7.610  -5.096  13.695  1.00  0.00     0.031 A 
ATOM     87  C   UNL     1       5.617  -4.470  14.899  1.00  0.00     0.131 A 
ATOM     88  C   UNL     1       7.517  -6.374  14.260  1.00  0.00     0.055 A 
ATOM     89  C   UNL     1       5.572  -5.720  15.517  1.00  0.00     0.041 A 
ATOM     90  F   UNL     1       4.645  -3.591  15.190  1.00  0.00    -0.206 F 
ATOM     91  C   UNL     1       6.516  -6.686  15.184  1.00  0.00     0.022 A 
BRANCH  88  92
ATOM     92  S   UNL     1       8.606  -7.716  13.706  1.00  0.00     0.124 S 
ATOM     93  O   UNL     1       9.299  -8.072  14.940  1.00  0.00    -0.237 OA
ATOM     94  O   UNL     1       7.643  -8.699  13.216  1.00  0.00    -0.237 OA
ATOM     95  O   UNL     1       9.429  -7.089  12.677  1.00  0.00    -0.744 OA
ENDBRANCH  88  92
ENDBRANCH  61  85
BRANCH  73  96
ATOM     96  C   UNL     1       6.619   2.653  15.874  1.00  0.00     0.023 A 
ATOM     97  C   UNL     1       5.558   3.483  16.286  1.00  0.00     0.031 A 
ATOM     98  C   UNL     1       7.793   2.647  16.646  1.00  0.00     0.131 A 
ATOM     99  C   UNL     1       5.710   4.307  17.408  1.00  0.00     0.055 A 
ATOM    100  C   UNL     1       7.917   3.425  17.798  1.00  0.00     0.041 A 
ATOM    101  F   UNL     1       8.840   1.885  16.291  1.00  0.00    -0.206 F 
ATOM    102  C   UNL     1       6.879   4.274  18.173  1.00  0.00     0.022 A 
BRANCH  99 103
ATOM    103  S   UNL     1       4.443   5.528  17.852  1.00  0.00     0.124 S 
ATOM    104  O   UNL     1       4.046   5.079  19.184  1.00  0.00    -0.237 OA
ATOM    105  O   UNL     1       5.196   6.779  17.815  1.00  0.00    -0.237 OA
ATOM    106  O   UNL     1       3.427   5.376  16.816  1.00  0.00    -0.744 OA
ENDBRANCH  99 103
ENDBRANCH  73  96
ENDBRANCH  47  48
ENDBRANCH  40  42
ENDBRANCH  39  40
ENDBRANCH  38  39
ENDBRANCH  37  38
ENDBRANCH  36  37
ENDBRANCH  35  36
ENDBRANCH  34  35
ENDBRANCH   1  34
TORSDOF 26
