REMARK SMILES COc1ncccc1CS(=O)(=O)[C@H](C)C(=O)OCCOCCOCCOCCOC(=O)c1ccc(-c2c3nc(c(-c4cc(S(=O)(=O)[O-])ccc4F)c4ccc([nH]4)c(-c4cc(S(=O)(=O)[O-])ccc4F)c4nc(c(-c5cc(S(=O)(=O)[O-])ccc5F)c5ccc2[nH]5)C=C4)C=C3)cc1
REMARK SMILES IDX 22 1 21 2 20 3 19 4 18 5 17 6 15 7 16 8 13 9 14 10 10 11
REMARK SMILES IDX 11 12 12 13 9 14 8 15 3 16 4 17 5 18 7 19 6 20 2 21 1 22
REMARK SMILES IDX 23 23 24 24 25 25 26 26 27 27 28 28 29 29 30 30 31 31 32 32
REMARK SMILES IDX 33 33 94 34 34 35 93 36 35 37 36 38 37 39 87 40 38 41 92 42
REMARK SMILES IDX 86 43 88 44 39 45 91 46 85 47 84 48 40 50 72 51 52 52 71 53
REMARK SMILES IDX 53 54 56 55 70 56 89 57 54 58 55 59 69 61 90 62 57 63 41 64
REMARK SMILES IDX 42 65 50 66 43 67 49 68 51 69 48 70 44 71 45 72 46 73 47 74
REMARK SMILES IDX 73 75 74 76 82 77 75 78 81 79 83 80 80 81 76 82 77 83 78 84
REMARK SMILES IDX 79 85 58 86 59 87 67 88 60 89 66 90 68 91 65 92 61 93 62 94
REMARK SMILES IDX 63 95 64 96
REMARK H PARENT 88 49 56 60
REMARK Flexibility Score: inf
ROOT
ATOM      1  C   UNL     1      -0.188   1.788   0.715  1.00  0.00     0.188 C 
ENDROOT
BRANCH   1   2
ATOM      2  C   UNL     1      -0.826   2.714   1.758  1.00  0.00     0.188 C 
BRANCH   2   3
ATOM      3  O   UNL     1      -1.342   3.989   1.416  1.00  0.00    -0.376 OA
BRANCH   3   4
ATOM      4  C   UNL     1      -0.716   4.859   0.489  1.00  0.00     0.202 C 
BRANCH   4   5
ATOM      5  C   UNL     1       0.787   5.195   0.496  1.00  0.00     0.261 C 
BRANCH   5   6
ATOM      6  O   UNL     1       1.728   4.150   0.786  1.00  0.00    -0.462 OA
BRANCH   6   7
ATOM      7  C   UNL     1       2.051   4.045   2.097  1.00  0.00     0.324 C 
ATOM      8  O   UNL     1       1.494   4.666   2.997  1.00  0.00    -0.251 OA
BRANCH   7   9
ATOM      9  C   UNL     1       3.169   3.085   2.362  1.00  0.00     0.215 C 
ATOM     10  C   UNL     1       3.031   1.669   1.855  1.00  0.00     0.037 C 
BRANCH   9  11
ATOM     11  S   UNL     1       4.713   3.900   2.052  1.00  0.00     0.168 S 
ATOM     12  O   UNL     1       5.634   3.336   3.024  1.00  0.00    -0.228 OA
ATOM     13  O   UNL     1       4.471   5.333   2.120  1.00  0.00    -0.228 OA
BRANCH  11  14
ATOM     14  C   UNL     1       5.366   3.610   0.401  1.00  0.00     0.179 C 
BRANCH  14  15
ATOM     15  C   UNL     1       5.290   2.212  -0.136  1.00  0.00     0.029 A 
ATOM     16  C   UNL     1       6.144   1.186   0.269  1.00  0.00     0.217 A 
ATOM     17  N   UNL     1       6.106  -0.074  -0.221  1.00  0.00    -0.222 NA
ATOM     18  C   UNL     1       5.217  -0.318  -1.212  1.00  0.00     0.115 A 
ATOM     19  C   UNL     1       4.399   1.916  -1.179  1.00  0.00     0.012 A 
ATOM     20  C   UNL     1       4.363   0.639  -1.731  1.00  0.00     0.021 A 
BRANCH  16  21
ATOM     21  O   UNL     1       7.246   1.511   1.018  1.00  0.00    -0.481 OA
ATOM     22  C   UNL     1       7.144   1.044   2.357  1.00  0.00     0.280 C 
ENDBRANCH  16  21
ENDBRANCH  14  15
ENDBRANCH  11  14
ENDBRANCH   9  11
ENDBRANCH   7   9
ENDBRANCH   6   7
ENDBRANCH   5   6
ENDBRANCH   4   5
ENDBRANCH   3   4
ENDBRANCH   2   3
ENDBRANCH   1   2
BRANCH   1  23
ATOM     23  O   UNL     1       0.149   2.407  -0.505  1.00  0.00    -0.377 OA
BRANCH  23  24
ATOM     24  C   UNL     1      -0.783   2.239  -1.569  1.00  0.00     0.188 C 
BRANCH  24  25
ATOM     25  C   UNL     1      -2.289   2.176  -1.222  1.00  0.00     0.188 C 
BRANCH  25  26
ATOM     26  O   UNL     1      -2.617   1.266  -0.179  1.00  0.00    -0.376 OA
BRANCH  26  27
ATOM     27  C   UNL     1      -3.048  -0.044  -0.517  1.00  0.00     0.202 C 
BRANCH  27  28
ATOM     28  C   UNL     1      -2.060  -0.968  -1.251  1.00  0.00     0.261 C 
BRANCH  28  29
ATOM     29  O   UNL     1      -1.558  -0.509  -2.515  1.00  0.00    -0.460 OA
BRANCH  29  30
ATOM     30  C   UNL     1      -2.451  -0.177  -3.471  1.00  0.00     0.338 C 
ATOM     31  O   UNL     1      -3.665  -0.285  -3.407  1.00  0.00    -0.246 OA
BRANCH  30  32
ATOM     32  C   UNL     1      -1.717   0.542  -4.533  1.00  0.00     0.060 A 
ATOM     33  C   UNL     1      -2.062   1.869  -4.829  1.00  0.00     0.016 A 
ATOM     34  C   UNL     1      -0.681  -0.089  -5.222  1.00  0.00     0.016 A 
ATOM     35  C   UNL     1      -1.390   2.559  -5.838  1.00  0.00     0.010 A 
ATOM     36  C   UNL     1      -0.030   0.592  -6.252  1.00  0.00     0.010 A 
ATOM     37  C   UNL     1      -0.404   1.907  -6.587  1.00  0.00    -0.014 A 
BRANCH  37  38
ATOM     38  C   UNL     1       0.082   2.498  -7.857  1.00  0.00     0.031 A 
ATOM     39  C   UNL     1      -0.539   2.010  -9.138  1.00  0.00     0.074 A 
ATOM     40  C   UNL     1       1.056   3.425  -7.881  1.00  0.00     0.049 A 
ATOM     41  N   UNL     1      -0.192   2.245 -10.374  1.00  0.00    -0.248 NA
ATOM     42  C   UNL     1      -1.707   1.123  -8.996  1.00  0.00     0.031 C 
ATOM     43  C   UNL     1       1.683   4.023  -6.704  1.00  0.00     0.029 A 
ATOM     44  N   UNL     1       1.703   4.010  -8.941  1.00  0.00    -0.354 N 
ATOM     45  C   UNL     1      -1.081   1.518 -11.159  1.00  0.00     0.074 A 
ATOM     46  C   UNL     1      -1.969   0.819 -10.257  1.00  0.00     0.031 C 
ATOM     47  C   UNL     1       2.647   4.869  -7.108  1.00  0.00     0.029 A 
ATOM     48  C   UNL     1       2.742   4.832  -8.567  1.00  0.00     0.049 A 
ATOM     49  H   UNL     1       1.449   3.856  -9.880  1.00  0.00     0.167 HD
ATOM     50  C   UNL     1      -1.144   1.441 -12.510  1.00  0.00     0.034 A 
ATOM     51  C   UNL     1       3.687   5.440  -9.315  1.00  0.00     0.034 A 
ATOM     52  C   UNL     1      -0.244   2.144 -13.390  1.00  0.00     0.049 A 
ATOM     53  C   UNL     1       3.655   5.264 -10.819  1.00  0.00     0.074 A 
ATOM     54  C   UNL     1      -0.233   2.158 -14.773  1.00  0.00     0.029 A 
ATOM     55  N   UNL     1       0.814   2.942 -12.975  1.00  0.00    -0.354 N 
ATOM     56  N   UNL     1       2.809   4.577 -11.553  1.00  0.00    -0.248 NA
ATOM     57  C   UNL     1       4.702   5.946 -11.594  1.00  0.00     0.031 C 
ATOM     58  C   UNL     1       0.883   2.887 -15.193  1.00  0.00     0.029 A 
ATOM     59  C   UNL     1       1.509   3.416 -14.075  1.00  0.00     0.049 A 
ATOM     60  H   UNL     1       1.036   3.141 -12.037  1.00  0.00     0.167 HD
ATOM     61  C   UNL     1       3.201   4.780 -12.876  1.00  0.00     0.074 A 
ATOM     62  C   UNL     1       4.352   5.656 -12.838  1.00  0.00     0.031 C 
ATOM     63  C   UNL     1       2.655   4.293 -14.020  1.00  0.00     0.034 A 
BRANCH  50  64
ATOM     64  C   UNL     1      -2.172   0.516 -13.113  1.00  0.00     0.023 A 
ATOM     65  C   UNL     1      -3.552   0.732 -12.961  1.00  0.00     0.031 A 
ATOM     66  C   UNL     1      -1.757  -0.610 -13.847  1.00  0.00     0.131 A 
ATOM     67  C   UNL     1      -4.465  -0.196 -13.485  1.00  0.00     0.055 A 
ATOM     68  C   UNL     1      -2.671  -1.484 -14.436  1.00  0.00     0.041 A 
ATOM     69  F   UNL     1      -0.451  -0.884 -13.998  1.00  0.00    -0.206 F 
ATOM     70  C   UNL     1      -4.035  -1.286 -14.247  1.00  0.00     0.022 A 
BRANCH  67  71
ATOM     71  S   UNL     1      -6.216  -0.032 -13.044  1.00  0.00     0.124 S 
ATOM     72  O   UNL     1      -6.161  -0.111 -11.586  1.00  0.00    -0.237 OA
ATOM     73  O   UNL     1      -6.562   1.270 -13.601  1.00  0.00    -0.237 OA
ATOM     74  O   UNL     1      -6.843  -1.179 -13.699  1.00  0.00    -0.744 OA
ENDBRANCH  67  71
ENDBRANCH  50  64
BRANCH  51  75
ATOM     75  C   UNL     1       4.787   6.216  -8.668  1.00  0.00     0.023 A 
ATOM     76  C   UNL     1       4.975   7.580  -8.941  1.00  0.00     0.031 A 
ATOM     77  C   UNL     1       5.719   5.583  -7.825  1.00  0.00     0.131 A 
ATOM     78  C   UNL     1       6.096   8.251  -8.426  1.00  0.00     0.055 A 
ATOM     79  C   UNL     1       6.796   6.270  -7.262  1.00  0.00     0.041 A 
ATOM     80  F   UNL     1       5.595   4.278  -7.534  1.00  0.00    -0.206 F 
ATOM     81  C   UNL     1       6.998   7.610  -7.575  1.00  0.00     0.022 A 
BRANCH  78  82
ATOM     82  S   UNL     1       6.423   9.946  -8.983  1.00  0.00     0.124 S 
ATOM     83  O   UNL     1       6.499   9.772 -10.429  1.00  0.00    -0.237 OA
ATOM     84  O   UNL     1       5.253  10.659  -8.481  1.00  0.00    -0.237 OA
ATOM     85  O   UNL     1       7.685  10.282  -8.326  1.00  0.00    -0.744 OA
ENDBRANCH  78  82
ENDBRANCH  51  75
BRANCH  63  86
ATOM     86  C   UNL     1       3.251   4.750 -15.331  1.00  0.00     0.023 A 
ATOM     87  C   UNL     1       4.550   4.390 -15.728  1.00  0.00     0.031 A 
ATOM     88  C   UNL     1       2.487   5.541 -16.209  1.00  0.00     0.131 A 
ATOM     89  C   UNL     1       5.061   4.857 -16.950  1.00  0.00     0.055 A 
ATOM     90  C   UNL     1       2.976   5.947 -17.451  1.00  0.00     0.041 A 
ATOM     91  F   UNL     1       1.241   5.918 -15.880  1.00  0.00    -0.206 F 
ATOM     92  C   UNL     1       4.275   5.614 -17.822  1.00  0.00     0.022 A 
BRANCH  89  93
ATOM     93  S   UNL     1       6.800   4.533 -17.350  1.00  0.00     0.124 S 
ATOM     94  O   UNL     1       7.491   5.166 -16.232  1.00  0.00    -0.237 OA
ATOM     95  O   UNL     1       6.846   3.075 -17.385  1.00  0.00    -0.237 OA
ATOM     96  O   UNL     1       6.982   5.189 -18.643  1.00  0.00    -0.744 OA
ENDBRANCH  89  93
ENDBRANCH  63  86
ENDBRANCH  37  38
ENDBRANCH  30  32
ENDBRANCH  29  30
ENDBRANCH  28  29
ENDBRANCH  27  28
ENDBRANCH  26  27
ENDBRANCH  25  26
ENDBRANCH  24  25
ENDBRANCH  23  24
ENDBRANCH   1  23
TORSDOF 27
