REMARK SMILES CCC[C@]1(C(=O)OCCOCCOCCOCCOC(=O)c2ccc(-c3c4nc(c(-c5cc(S(=O)(=O)[O-])ccc5F)c5ccc([nH]5)c(-c5cc(S(=O)(=O)[O-])ccc5F)c5nc(c(-c6cc(S(=O)(=O)[O-])ccc6F)c6ccc3[nH]6)C=C5)C=C4)cc2)CCN(c2cncc(C(=O)OC)n2)C1
REMARK SMILES IDX 13 1 12 2 11 3 10 4 9 5 8 6 7 7 5 8 6 9 4 10 85 11 98 12
REMARK SMILES IDX 86 13 87 14 3 15 2 16 1 17 88 18 89 19 97 20 90 21 92 22
REMARK SMILES IDX 91 23 93 24 94 25 95 26 96 27 14 28 15 29 16 30 17 31 18 32
REMARK SMILES IDX 19 33 20 34 21 35 22 36 23 37 84 38 24 39 83 40 25 41 26 42
REMARK SMILES IDX 27 43 77 44 28 45 82 46 76 47 78 48 29 49 81 50 75 51 74 52
REMARK SMILES IDX 30 54 62 55 42 56 61 57 43 58 46 59 60 60 79 61 44 62 45 63
REMARK SMILES IDX 59 65 80 66 47 67 31 68 32 69 40 70 33 71 39 72 41 73 38 74
REMARK SMILES IDX 34 75 35 76 36 77 37 78 63 79 64 80 72 81 65 82 71 83 73 84
REMARK SMILES IDX 70 85 66 86 67 87 68 88 69 89 48 90 49 91 57 92 50 93 56 94
REMARK SMILES IDX 58 95 55 96 51 97 52 98 53 99 54 100
REMARK H PARENT 78 53 46 64
REMARK Flexibility Score: inf
ROOT
ATOM      1  O   UNL     1      -2.382   0.724  -2.316  1.00  0.00    -0.377 OA
ENDROOT
BRANCH   1   2
ATOM      2  C   UNL     1      -1.655   0.533  -1.122  1.00  0.00     0.188 C 
BRANCH   2   3
ATOM      3  C   UNL     1      -2.318   1.091   0.148  1.00  0.00     0.188 C 
BRANCH   3   4
ATOM      4  O   UNL     1      -3.558   1.773   0.070  1.00  0.00    -0.376 OA
BRANCH   4   5
ATOM      5  C   UNL     1      -3.808   2.650  -1.019  1.00  0.00     0.202 C 
BRANCH   5   6
ATOM      6  C   UNL     1      -2.767   3.702  -1.466  1.00  0.00     0.261 C 
BRANCH   6   7
ATOM      7  O   UNL     1      -1.403   3.263  -1.654  1.00  0.00    -0.463 OA
BRANCH   7   8
ATOM      8  C   UNL     1      -0.485   3.620  -0.716  1.00  0.00     0.314 C 
ATOM      9  O   UNL     1      -0.752   4.293   0.275  1.00  0.00    -0.252 OA
BRANCH   8  10
ATOM     10  C   UNL     1       0.944   3.133  -1.024  1.00  0.00     0.087 C 
ATOM     11  C   UNL     1       1.155   2.144  -2.194  1.00  0.00     0.042 C 
ATOM     12  C   UNL     1       1.631   4.405  -1.603  1.00  0.00     0.137 C 
ATOM     13  C   UNL     1       2.541   2.467  -2.715  1.00  0.00     0.119 C 
ATOM     14  N   UNL     1       2.570   3.903  -2.612  1.00  0.00    -0.354 N 
BRANCH  10  15
ATOM     15  C   UNL     1       1.679   2.704   0.290  1.00  0.00     0.020 C 
BRANCH  15  16
ATOM     16  C   UNL     1       1.260   1.436   1.057  1.00  0.00    -0.002 C 
ATOM     17  C   UNL     1       1.697   0.095   0.489  1.00  0.00     0.004 C 
ENDBRANCH  15  16
ENDBRANCH  10  15
BRANCH  14  18
ATOM     18  C   UNL     1       2.916   4.760  -3.621  1.00  0.00     0.148 A 
ATOM     19  C   UNL     1       2.863   4.430  -4.980  1.00  0.00     0.157 A 
ATOM     20  N   UNL     1       3.296   5.999  -3.255  1.00  0.00    -0.221 NA
ATOM     21  N   UNL     1       3.187   5.281  -5.988  1.00  0.00    -0.258 NA
ATOM     22  C   UNL     1       3.645   6.857  -4.249  1.00  0.00     0.169 A 
ATOM     23  C   UNL     1       3.582   6.509  -5.587  1.00  0.00     0.147 A 
BRANCH  22  24
ATOM     24  C   UNL     1       4.165   8.192  -3.871  1.00  0.00     0.358 C 
ATOM     25  O   UNL     1       4.537   9.034  -4.674  1.00  0.00    -0.244 OA
BRANCH  24  26
ATOM     26  O   UNL     1       4.200   8.310  -2.518  1.00  0.00    -0.464 OA
ATOM     27  C   UNL     1       4.757   9.531  -2.043  1.00  0.00     0.282 C 
ENDBRANCH  24  26
ENDBRANCH  22  24
ENDBRANCH  14  18
ENDBRANCH   8  10
ENDBRANCH   7   8
ENDBRANCH   6   7
ENDBRANCH   5   6
ENDBRANCH   4   5
ENDBRANCH   3   4
ENDBRANCH   2   3
ENDBRANCH   1   2
BRANCH   1  28
ATOM     28  C   UNL     1      -3.183  -0.372  -2.729  1.00  0.00     0.188 C 
BRANCH  28  29
ATOM     29  C   UNL     1      -3.876  -1.185  -1.619  1.00  0.00     0.188 C 
BRANCH  29  30
ATOM     30  O   UNL     1      -2.980  -1.665  -0.621  1.00  0.00    -0.376 OA
BRANCH  30  31
ATOM     31  C   UNL     1      -2.441  -2.973  -0.720  1.00  0.00     0.202 C 
BRANCH  31  32
ATOM     32  C   UNL     1      -1.532  -3.333  -1.909  1.00  0.00     0.261 C 
BRANCH  32  33
ATOM     33  O   UNL     1      -2.050  -3.121  -3.229  1.00  0.00    -0.460 OA
BRANCH  33  34
ATOM     34  C   UNL     1      -3.219  -3.708  -3.562  1.00  0.00     0.338 C 
ATOM     35  O   UNL     1      -3.870  -4.475  -2.873  1.00  0.00    -0.246 OA
BRANCH  34  36
ATOM     36  C   UNL     1      -3.687  -3.070  -4.815  1.00  0.00     0.060 A 
ATOM     37  C   UNL     1      -4.932  -2.428  -4.825  1.00  0.00     0.016 A 
ATOM     38  C   UNL     1      -2.880  -3.061  -5.956  1.00  0.00     0.016 A 
ATOM     39  C   UNL     1      -5.383  -1.790  -5.981  1.00  0.00     0.010 A 
ATOM     40  C   UNL     1      -3.348  -2.452  -7.124  1.00  0.00     0.010 A 
ATOM     41  C   UNL     1      -4.613  -1.839  -7.150  1.00  0.00    -0.014 A 
BRANCH  41  42
ATOM     42  C   UNL     1      -5.228  -1.464  -8.447  1.00  0.00     0.031 A 
ATOM     43  C   UNL     1      -5.809  -2.567  -9.289  1.00  0.00     0.074 A 
ATOM     44  C   UNL     1      -5.296  -0.185  -8.857  1.00  0.00     0.049 A 
ATOM     45  N   UNL     1      -6.329  -2.517 -10.487  1.00  0.00    -0.248 NA
ATOM     46  C   UNL     1      -5.793  -3.913  -8.694  1.00  0.00     0.031 C 
ATOM     47  C   UNL     1      -4.830   0.973  -8.096  1.00  0.00     0.029 A 
ATOM     48  N   UNL     1      -5.781   0.352 -10.024  1.00  0.00    -0.354 N 
ATOM     49  C   UNL     1      -6.695  -3.824 -10.792  1.00  0.00     0.074 A 
ATOM     50  C   UNL     1      -6.303  -4.646  -9.669  1.00  0.00     0.031 C 
ATOM     51  C   UNL     1      -5.039   2.084  -8.825  1.00  0.00     0.029 A 
ATOM     52  C   UNL     1      -5.609   1.713 -10.120  1.00  0.00     0.049 A 
ATOM     53  H   UNL     1      -6.211  -0.188 -10.727  1.00  0.00     0.167 HD
ATOM     54  C   UNL     1      -7.308  -4.291 -11.906  1.00  0.00     0.034 A 
ATOM     55  C   UNL     1      -5.853   2.552 -11.149  1.00  0.00     0.034 A 
ATOM     56  C   UNL     1      -7.675  -3.457 -13.023  1.00  0.00     0.049 A 
ATOM     57  C   UNL     1      -6.432   1.991 -12.429  1.00  0.00     0.074 A 
ATOM     58  C   UNL     1      -8.303  -3.822 -14.200  1.00  0.00     0.029 A 
ATOM     59  N   UNL     1      -7.431  -2.092 -13.109  1.00  0.00    -0.354 N 
ATOM     60  N   UNL     1      -6.774   0.753 -12.710  1.00  0.00    -0.248 NA
ATOM     61  C   UNL     1      -6.661   2.939 -13.528  1.00  0.00     0.031 C 
ATOM     62  C   UNL     1      -8.361  -2.699 -15.031  1.00  0.00     0.029 A 
ATOM     63  C   UNL     1      -7.859  -1.610 -14.336  1.00  0.00     0.049 A 
ATOM     64  H   UNL     1      -7.016  -1.547 -12.402  1.00  0.00     0.167 HD
ATOM     65  C   UNL     1      -7.291   0.785 -14.005  1.00  0.00     0.074 A 
ATOM     66  C   UNL     1      -7.226   2.164 -14.442  1.00  0.00     0.031 C 
ATOM     67  C   UNL     1      -7.781  -0.231 -14.761  1.00  0.00     0.034 A 
BRANCH  54  68
ATOM     68  C   UNL     1      -7.555  -5.778 -11.989  1.00  0.00     0.023 A 
ATOM     69  C   UNL     1      -8.402  -6.443 -11.085  1.00  0.00     0.031 A 
ATOM     70  C   UNL     1      -6.903  -6.549 -12.968  1.00  0.00     0.131 A 
ATOM     71  C   UNL     1      -8.516  -7.840 -11.131  1.00  0.00     0.055 A 
ATOM     72  C   UNL     1      -7.089  -7.929 -13.064  1.00  0.00     0.041 A 
ATOM     73  F   UNL     1      -6.059  -5.976 -13.840  1.00  0.00    -0.206 F 
ATOM     74  C   UNL     1      -7.888  -8.585 -12.132  1.00  0.00     0.022 A 
BRANCH  71  75
ATOM     75  S   UNL     1      -9.369  -8.685  -9.771  1.00  0.00     0.124 S 
ATOM     76  O   UNL     1      -8.591  -8.243  -8.616  1.00  0.00    -0.237 OA
ATOM     77  O   UNL     1     -10.723  -8.155  -9.871  1.00  0.00    -0.237 OA
ATOM     78  O   UNL     1      -9.226 -10.101 -10.104  1.00  0.00    -0.744 OA
ENDBRANCH  71  75
ENDBRANCH  54  68
BRANCH  55  79
ATOM     79  C   UNL     1      -5.506   4.001 -11.047  1.00  0.00     0.023 A 
ATOM     80  C   UNL     1      -6.490   4.996 -11.162  1.00  0.00     0.031 A 
ATOM     81  C   UNL     1      -4.169   4.415 -10.902  1.00  0.00     0.131 A 
ATOM     82  C   UNL     1      -6.119   6.351 -11.181  1.00  0.00     0.055 A 
ATOM     83  C   UNL     1      -3.811   5.764 -10.859  1.00  0.00     0.041 A 
ATOM     84  F   UNL     1      -3.184   3.508 -10.798  1.00  0.00    -0.206 F 
ATOM     85  C   UNL     1      -4.789   6.742 -11.014  1.00  0.00     0.022 A 
BRANCH  82  86
ATOM     86  S   UNL     1      -7.392   7.595 -11.531  1.00  0.00     0.124 S 
ATOM     87  O   UNL     1      -7.879   7.160 -12.835  1.00  0.00    -0.237 OA
ATOM     88  O   UNL     1      -8.308   7.415 -10.410  1.00  0.00    -0.237 OA
ATOM     89  O   UNL     1      -6.647   8.853 -11.530  1.00  0.00    -0.744 OA
ENDBRANCH  82  86
ENDBRANCH  55  79
BRANCH  67  90
ATOM     90  C   UNL     1      -8.339   0.121 -16.121  1.00  0.00     0.023 A 
ATOM     91  C   UNL     1      -7.524   0.607 -17.158  1.00  0.00     0.031 A 
ATOM     92  C   UNL     1      -9.712  -0.044 -16.383  1.00  0.00     0.131 A 
ATOM     93  C   UNL     1      -8.097   0.959 -18.390  1.00  0.00     0.055 A 
ATOM     94  C   UNL     1     -10.264   0.243 -17.632  1.00  0.00     0.041 A 
ATOM     95  F   UNL     1     -10.540  -0.501 -15.429  1.00  0.00    -0.206 F 
ATOM     96  C   UNL     1      -9.457   0.759 -18.640  1.00  0.00     0.022 A 
BRANCH  93  97
ATOM     97  S   UNL     1      -7.057   1.770 -19.635  1.00  0.00     0.124 S 
ATOM     98  O   UNL     1      -6.595   2.954 -18.919  1.00  0.00    -0.237 OA
ATOM     99  O   UNL     1      -6.045   0.754 -19.907  1.00  0.00    -0.237 OA
ATOM    100  O   UNL     1      -7.981   2.033 -20.737  1.00  0.00    -0.744 OA
ENDBRANCH  93  97
ENDBRANCH  67  90
ENDBRANCH  41  42
ENDBRANCH  34  36
ENDBRANCH  33  34
ENDBRANCH  32  33
ENDBRANCH  31  32
ENDBRANCH  30  31
ENDBRANCH  29  30
ENDBRANCH  28  29
ENDBRANCH   1  28
TORSDOF 28
