REMARK SMILES NC(=O)CC[C@@H](C(=O)OCCOCCOCCOCCOC(=O)c1ccc(-c2c3nc(c(-c4cc(S(=O)(=O)[O-])ccc4F)c4ccc([nH]4)c(-c4cc(S(=O)(=O)[O-])ccc4F)c4nc(c(-c5cc(S(=O)(=O)[O-])ccc5F)c5ccc2[nH]5)C=C4)C=C3)cc1)N1C(=O)/C(=C/c2ccc(C=O)cc2)SC1=S
REMARK SMILES IDX 15 1 14 2 13 3 12 4 11 5 10 6 9 7 7 8 8 9 6 10 5 11 4 12
REMARK SMILES IDX 2 13 1 14 3 17 87 18 88 19 101 20 89 21 90 22 100 23 102 24
REMARK SMILES IDX 91 25 92 26 93 27 99 28 94 29 98 30 95 31 96 32 97 33 16 34
REMARK SMILES IDX 17 35 18 36 19 37 20 38 21 39 22 40 23 41 24 42 25 43 86 44
REMARK SMILES IDX 26 45 85 46 27 47 28 48 29 49 79 50 30 51 84 52 78 53 80 54
REMARK SMILES IDX 31 55 83 56 77 57 76 58 32 60 64 61 44 62 63 63 45 64 48 65
REMARK SMILES IDX 62 66 81 67 46 68 47 69 61 71 82 72 49 73 33 74 34 75 42 76
REMARK SMILES IDX 35 77 41 78 43 79 40 80 36 81 37 82 38 83 39 84 65 85 66 86
REMARK SMILES IDX 74 87 67 88 73 89 75 90 72 91 68 92 69 93 70 94 71 95 50 96
REMARK SMILES IDX 51 97 59 98 52 99 58 100 60 101 57 102 53 103 54 104 55 105
REMARK SMILES IDX 56 106
REMARK H PARENT 1 15 1 16 80 59 48 70
REMARK Flexibility Score: inf
ROOT
ATOM      1  O   UNL     1       3.347   0.215   4.133  1.00  0.00    -0.377 OA
ENDROOT
BRANCH   1   2
ATOM      2  C   UNL     1       4.301  -0.799   3.861  1.00  0.00     0.188 C 
BRANCH   2   3
ATOM      3  C   UNL     1       5.600  -0.371   3.160  1.00  0.00     0.188 C 
BRANCH   3   4
ATOM      4  O   UNL     1       5.849   1.017   3.233  1.00  0.00    -0.376 OA
BRANCH   4   5
ATOM      5  C   UNL     1       5.524   1.838   2.124  1.00  0.00     0.202 C 
BRANCH   5   6
ATOM      6  C   UNL     1       4.254   1.618   1.275  1.00  0.00     0.261 C 
BRANCH   6   7
ATOM      7  O   UNL     1       3.676   0.307   1.370  1.00  0.00    -0.462 OA
BRANCH   7   8
ATOM      8  C   UNL     1       3.280  -0.329   0.244  1.00  0.00     0.329 C 
ATOM      9  O   UNL     1       3.430   0.109  -0.891  1.00  0.00    -0.250 OA
BRANCH   8  10
ATOM     10  C   UNL     1       2.598  -1.688   0.550  1.00  0.00     0.202 C 
BRANCH  10  11
ATOM     11  C   UNL     1       1.515  -1.595   1.676  1.00  0.00     0.047 C 
BRANCH  11  12
ATOM     12  C   UNL     1       0.760  -0.283   1.906  1.00  0.00     0.102 C 
BRANCH  12  13
ATOM     13  C   UNL     1      -0.190  -0.003   0.771  1.00  0.00     0.217 C 
ATOM     14  N   UNL     1       0.314   0.749  -0.244  1.00  0.00    -0.370 N 
ATOM     15  H   UNL     1      -0.251   0.971  -1.019  1.00  0.00     0.159 HD
ATOM     16  H   UNL     1       1.243   1.071  -0.203  1.00  0.00     0.159 HD
ATOM     17  O   UNL     1      -1.319  -0.475   0.711  1.00  0.00    -0.275 OA
ENDBRANCH  12  13
ENDBRANCH  11  12
ENDBRANCH  10  11
BRANCH  10  18
ATOM     18  N   UNL     1       3.532  -2.871   0.714  1.00  0.00    -0.278 N 
ATOM     19  C   UNL     1       4.895  -2.753   0.454  1.00  0.00     0.266 C 
ATOM     20  C   UNL     1       3.110  -4.183   0.887  1.00  0.00     0.149 C 
ATOM     21  O   UNL     1       5.489  -1.757   0.069  1.00  0.00    -0.268 OA
ATOM     22  C   UNL     1       5.600  -4.060   0.598  1.00  0.00     0.081 C 
ATOM     23  S   UNL     1       4.487  -5.263   1.076  1.00  0.00    -0.054 SA
ATOM     24  S   UNL     1       1.577  -4.839   0.878  1.00  0.00    -0.052 S 
ATOM     25  C   UNL     1       6.899  -4.229   0.298  1.00  0.00     0.029 C 
BRANCH  25  26
ATOM     26  C   UNL     1       7.581  -5.529   0.181  1.00  0.00    -0.024 A 
ATOM     27  C   UNL     1       8.671  -5.862   0.991  1.00  0.00     0.009 A 
ATOM     28  C   UNL     1       7.160  -6.437  -0.804  1.00  0.00     0.009 A 
ATOM     29  C   UNL     1       9.311  -7.100   0.838  1.00  0.00     0.012 A 
ATOM     30  C   UNL     1       7.790  -7.674  -0.957  1.00  0.00     0.012 A 
ATOM     31  C   UNL     1       8.864  -8.004  -0.131  1.00  0.00     0.014 A 
BRANCH  31  32
ATOM     32  C   UNL     1       9.517  -9.317  -0.302  1.00  0.00     0.260 C 
ATOM     33  O   UNL     1      10.482  -9.664   0.367  1.00  0.00    -0.298 OA
ENDBRANCH  31  32
ENDBRANCH  25  26
ENDBRANCH  10  18
ENDBRANCH   8  10
ENDBRANCH   7   8
ENDBRANCH   6   7
ENDBRANCH   5   6
ENDBRANCH   4   5
ENDBRANCH   3   4
ENDBRANCH   2   3
ENDBRANCH   1   2
BRANCH   1  34
ATOM     34  C   UNL     1       3.698   1.274   5.029  1.00  0.00     0.188 C 
BRANCH  34  35
ATOM     35  C   UNL     1       4.982   1.219   5.892  1.00  0.00     0.188 C 
BRANCH  35  36
ATOM     36  O   UNL     1       5.494  -0.083   6.134  1.00  0.00    -0.376 OA
BRANCH  36  37
ATOM     37  C   UNL     1       5.186  -0.688   7.381  1.00  0.00     0.202 C 
BRANCH  37  38
ATOM     38  C   UNL     1       3.702  -0.973   7.658  1.00  0.00     0.261 C 
BRANCH  38  39
ATOM     39  O   UNL     1       2.842   0.176   7.721  1.00  0.00    -0.460 OA
BRANCH  39  40
ATOM     40  C   UNL     1       3.150   1.136   8.620  1.00  0.00     0.338 C 
ATOM     41  O   UNL     1       4.060   1.117   9.431  1.00  0.00    -0.246 OA
BRANCH  40  42
ATOM     42  C   UNL     1       2.316   2.315   8.320  1.00  0.00     0.060 A 
ATOM     43  C   UNL     1       2.938   3.517   7.959  1.00  0.00     0.016 A 
ATOM     44  C   UNL     1       0.924   2.230   8.396  1.00  0.00     0.016 A 
ATOM     45  C   UNL     1       2.168   4.652   7.709  1.00  0.00     0.010 A 
ATOM     46  C   UNL     1       0.156   3.374   8.168  1.00  0.00     0.010 A 
ATOM     47  C   UNL     1       0.777   4.598   7.858  1.00  0.00    -0.014 A 
BRANCH  47  48
ATOM     48  C   UNL     1      -0.005   5.857   7.906  1.00  0.00     0.031 A 
ATOM     49  C   UNL     1      -0.346   6.428   9.256  1.00  0.00     0.074 A 
ATOM     50  C   UNL     1      -0.381   6.495   6.783  1.00  0.00     0.049 A 
ATOM     51  N   UNL     1      -1.062   7.478   9.560  1.00  0.00    -0.248 NA
ATOM     52  C   UNL     1       0.194   5.707  10.419  1.00  0.00     0.031 C 
ATOM     53  C   UNL     1      -0.060   6.069   5.423  1.00  0.00     0.029 A 
ATOM     54  N   UNL     1      -1.122   7.638   6.614  1.00  0.00    -0.354 N 
ATOM     55  C   UNL     1      -1.065   7.542  10.950  1.00  0.00     0.074 A 
ATOM     56  C   UNL     1      -0.312   6.401  11.426  1.00  0.00     0.031 C 
ATOM     57  C   UNL     1      -0.611   6.936   4.555  1.00  0.00     0.029 A 
ATOM     58  C   UNL     1      -1.359   7.951   5.296  1.00  0.00     0.049 A 
ATOM     59  H   UNL     1      -1.452   8.181   7.364  1.00  0.00     0.167 HD
ATOM     60  C   UNL     1      -1.636   8.472  11.754  1.00  0.00     0.034 A 
ATOM     61  C   UNL     1      -2.117   8.927   4.755  1.00  0.00     0.034 A 
ATOM     62  C   UNL     1      -2.398   9.593  11.262  1.00  0.00     0.049 A 
ATOM     63  C   UNL     1      -2.834   9.893   5.672  1.00  0.00     0.074 A 
ATOM     64  C   UNL     1      -3.014  10.599  11.985  1.00  0.00     0.029 A 
ATOM     65  N   UNL     1      -2.666   9.847   9.922  1.00  0.00    -0.354 N 
ATOM     66  N   UNL     1      -2.826   9.948   6.985  1.00  0.00    -0.248 NA
ATOM     67  C   UNL     1      -3.655  10.930   5.033  1.00  0.00     0.031 C 
ATOM     68  C   UNL     1      -3.722  11.410  11.091  1.00  0.00     0.029 A 
ATOM     69  C   UNL     1      -3.471  10.970   9.802  1.00  0.00     0.049 A 
ATOM     70  H   UNL     1      -2.333   9.308   9.169  1.00  0.00     0.167 HD
ATOM     71  C   UNL     1      -3.613  11.048   7.324  1.00  0.00     0.074 A 
ATOM     72  C   UNL     1      -4.066  11.632   6.079  1.00  0.00     0.031 C 
ATOM     73  C   UNL     1      -3.925  11.537   8.553  1.00  0.00     0.034 A 
BRANCH  60  74
ATOM     74  C   UNL     1      -1.504   8.273  13.245  1.00  0.00     0.023 A 
ATOM     75  C   UNL     1      -0.254   8.284  13.889  1.00  0.00     0.031 A 
ATOM     76  C   UNL     1      -2.645   8.028  14.030  1.00  0.00     0.131 A 
ATOM     77  C   UNL     1      -0.167   7.979  15.256  1.00  0.00     0.055 A 
ATOM     78  C   UNL     1      -2.560   7.813  15.407  1.00  0.00     0.041 A 
ATOM     79  F   UNL     1      -3.863   7.977  13.469  1.00  0.00    -0.206 F 
ATOM     80  C   UNL     1      -1.314   7.771  16.025  1.00  0.00     0.022 A 
BRANCH  77  81
ATOM     81  S   UNL     1       1.473   7.703  15.980  1.00  0.00     0.124 S 
ATOM     82  O   UNL     1       1.986   6.620  15.144  1.00  0.00    -0.237 OA
ATOM     83  O   UNL     1       2.116   9.001  15.809  1.00  0.00    -0.237 OA
ATOM     84  O   UNL     1       1.179   7.328  17.361  1.00  0.00    -0.744 OA
ENDBRANCH  77  81
ENDBRANCH  60  74
BRANCH  61  85
ATOM     85  C   UNL     1      -2.283   9.025   3.275  1.00  0.00     0.023 A 
ATOM     86  C   UNL     1      -1.855  10.159   2.566  1.00  0.00     0.031 A 
ATOM     87  C   UNL     1      -2.931   8.005   2.553  1.00  0.00     0.131 A 
ATOM     88  C   UNL     1      -2.119  10.267   1.191  1.00  0.00     0.055 A 
ATOM     89  C   UNL     1      -3.140   8.092   1.176  1.00  0.00     0.041 A 
ATOM     90  F   UNL     1      -3.366   6.901   3.180  1.00  0.00    -0.206 F 
ATOM     91  C   UNL     1      -2.744   9.234   0.488  1.00  0.00     0.022 A 
BRANCH  88  92
ATOM     92  S   UNL     1      -1.711  11.820   0.346  1.00  0.00     0.124 S 
ATOM     93  O   UNL     1      -2.502  12.784   1.101  1.00  0.00    -0.237 OA
ATOM     94  O   UNL     1      -0.265  11.891   0.529  1.00  0.00    -0.237 OA
ATOM     95  O   UNL     1      -2.152  11.586  -1.027  1.00  0.00    -0.744 OA
ENDBRANCH  88  92
ENDBRANCH  61  85
BRANCH  73  96
ATOM     96  C   UNL     1      -4.756  12.799   8.607  1.00  0.00     0.023 A 
ATOM     97  C   UNL     1      -6.086  12.837   8.154  1.00  0.00     0.031 A 
ATOM     98  C   UNL     1      -4.201  13.986   9.120  1.00  0.00     0.131 A 
ATOM     99  C   UNL     1      -6.796  14.048   8.170  1.00  0.00     0.055 A 
ATOM    100  C   UNL     1      -4.935  15.171   9.198  1.00  0.00     0.041 A 
ATOM    101  F   UNL     1      -2.934  14.013   9.564  1.00  0.00    -0.206 F 
ATOM    102  C   UNL     1      -6.236  15.210   8.708  1.00  0.00     0.022 A 
BRANCH  99 103
ATOM    103  S   UNL     1      -8.429  14.112   7.382  1.00  0.00     0.124 S 
ATOM    104  O   UNL     1      -8.124  13.690   6.019  1.00  0.00    -0.237 OA
ATOM    105  O   UNL     1      -9.200  13.168   8.185  1.00  0.00    -0.237 OA
ATOM    106  O   UNL     1      -8.825  15.512   7.524  1.00  0.00    -0.744 OA
ENDBRANCH  99 103
ENDBRANCH  73  96
ENDBRANCH  47  48
ENDBRANCH  40  42
ENDBRANCH  39  40
ENDBRANCH  38  39
ENDBRANCH  37  38
ENDBRANCH  36  37
ENDBRANCH  35  36
ENDBRANCH  34  35
ENDBRANCH   1  34
TORSDOF 29
