REMARK SMILES O=C(Cc1cccc(-c2ccn(C(F)F)c(=O)c2)c1)OCCOCCOCCOCCOC(=O)c1ccc(-c2c3nc(c(-c4cc(S(=O)(=O)[O-])ccc4F)c4ccc([nH]4)c(-c4cc(S(=O)(=O)[O-])ccc4F)c4nc(c(-c5cc(S(=O)(=O)[O-])ccc5F)c5ccc2[nH]5)C=C4)C=C3)cc1
REMARK SMILES IDX 26 1 25 2 24 3 23 4 22 5 21 6 20 7 2 8 1 9 3 10 4 11 5 12
REMARK SMILES IDX 19 13 6 14 8 15 7 16 9 17 10 18 18 19 11 20 16 21 12 22
REMARK SMILES IDX 17 23 13 24 14 25 15 26 27 27 28 28 29 29 30 30 31 31 32 32
REMARK SMILES IDX 33 33 34 34 35 35 36 36 97 37 37 38 96 39 38 40 39 41 40 42
REMARK SMILES IDX 90 43 41 44 95 45 89 46 91 47 42 48 94 49 88 50 87 51 43 53
REMARK SMILES IDX 75 54 55 55 74 56 56 57 59 58 73 59 92 60 57 61 58 62 72 64
REMARK SMILES IDX 93 65 60 66 44 67 45 68 53 69 46 70 52 71 54 72 51 73 47 74
REMARK SMILES IDX 48 75 49 76 50 77 76 78 77 79 85 80 78 81 84 82 86 83 83 84
REMARK SMILES IDX 79 85 80 86 81 87 82 88 61 89 62 90 70 91 63 92 69 93 71 94
REMARK SMILES IDX 68 95 64 96 65 97 66 98 67 99
REMARK H PARENT 91 52 59 63
REMARK Flexibility Score: inf
ROOT
ATOM      1  O   UNL     1       2.728  -1.684   3.202  1.00  0.00    -0.377 OA
ENDROOT
BRANCH   1   2
ATOM      2  C   UNL     1       2.034  -1.319   2.022  1.00  0.00     0.188 C 
BRANCH   2   3
ATOM      3  C   UNL     1       2.558  -1.862   0.689  1.00  0.00     0.188 C 
BRANCH   3   4
ATOM      4  O   UNL     1       3.898  -1.654   0.285  1.00  0.00    -0.376 OA
BRANCH   4   5
ATOM      5  C   UNL     1       4.548  -0.422   0.071  1.00  0.00     0.202 C 
BRANCH   5   6
ATOM      6  C   UNL     1       3.831   0.918   0.114  1.00  0.00     0.261 C 
BRANCH   6   7
ATOM      7  O   UNL     1       2.420   0.954  -0.162  1.00  0.00    -0.463 OA
BRANCH   7   8
ATOM      8  C   UNL     1       1.729   0.501  -1.228  1.00  0.00     0.310 C 
ATOM      9  O   UNL     1       0.507   0.650  -1.241  1.00  0.00    -0.252 OA
BRANCH   8  10
ATOM     10  C   UNL     1       2.423  -0.246  -2.353  1.00  0.00     0.158 C 
BRANCH  10  11
ATOM     11  C   UNL     1       3.557   0.494  -2.994  1.00  0.00    -0.036 A 
ATOM     12  C   UNL     1       4.737  -0.144  -3.388  1.00  0.00     0.004 A 
ATOM     13  C   UNL     1       3.462   1.875  -3.113  1.00  0.00     0.013 A 
ATOM     14  C   UNL     1       5.845   0.615  -3.772  1.00  0.00     0.001 A 
ATOM     15  C   UNL     1       4.582   2.641  -3.431  1.00  0.00    -0.018 A 
ATOM     16  C   UNL     1       5.780   2.013  -3.763  1.00  0.00     0.009 A 
BRANCH  15  17
ATOM     17  C   UNL     1       4.399   4.081  -3.234  1.00  0.00    -0.011 A 
ATOM     18  C   UNL     1       4.468   4.676  -1.913  1.00  0.00     0.027 A 
ATOM     19  C   UNL     1       3.843   4.763  -4.247  1.00  0.00     0.080 A 
ATOM     20  C   UNL     1       3.905   5.867  -1.684  1.00  0.00     0.095 A 
ATOM     21  C   UNL     1       3.253   6.108  -4.012  1.00  0.00     0.255 A 
ATOM     22  N   UNL     1       3.302   6.573  -2.707  1.00  0.00    -0.258 N 
ATOM     23  O   UNL     1       2.727   6.682  -4.960  1.00  0.00    -0.269 OA
BRANCH  22  24
ATOM     24  C   UNL     1       2.656   7.830  -2.439  1.00  0.00     0.451 C 
ATOM     25  F   UNL     1       3.165   8.815  -3.217  1.00  0.00    -0.185 F 
ATOM     26  F   UNL     1       1.325   7.748  -2.686  1.00  0.00    -0.185 F 
ENDBRANCH  22  24
ENDBRANCH  15  17
ENDBRANCH  10  11
ENDBRANCH   8  10
ENDBRANCH   7   8
ENDBRANCH   6   7
ENDBRANCH   5   6
ENDBRANCH   4   5
ENDBRANCH   3   4
ENDBRANCH   2   3
ENDBRANCH   1   2
BRANCH   1  27
ATOM     27  C   UNL     1       4.104  -1.347   3.221  1.00  0.00     0.188 C 
BRANCH  27  28
ATOM     28  C   UNL     1       5.019  -2.535   2.883  1.00  0.00     0.188 C 
BRANCH  28  29
ATOM     29  O   UNL     1       4.441  -3.605   2.168  1.00  0.00    -0.376 OA
BRANCH  29  30
ATOM     30  C   UNL     1       3.527  -4.518   2.754  1.00  0.00     0.202 C 
BRANCH  30  31
ATOM     31  C   UNL     1       2.931  -4.495   4.178  1.00  0.00     0.261 C 
BRANCH  31  32
ATOM     32  O   UNL     1       3.357  -3.497   5.098  1.00  0.00    -0.460 OA
BRANCH  32  33
ATOM     33  C   UNL     1       4.502  -3.753   5.755  1.00  0.00     0.338 C 
ATOM     34  O   UNL     1       5.200  -4.751   5.647  1.00  0.00    -0.246 OA
BRANCH  33  35
ATOM     35  C   UNL     1       4.905  -2.512   6.444  1.00  0.00     0.060 A 
ATOM     36  C   UNL     1       6.189  -2.014   6.189  1.00  0.00     0.016 A 
ATOM     37  C   UNL     1       4.036  -1.839   7.309  1.00  0.00     0.016 A 
ATOM     38  C   UNL     1       6.640  -0.883   6.855  1.00  0.00     0.010 A 
ATOM     39  C   UNL     1       4.502  -0.723   8.008  1.00  0.00     0.010 A 
ATOM     40  C   UNL     1       5.827  -0.286   7.826  1.00  0.00    -0.014 A 
BRANCH  40  41
ATOM     41  C   UNL     1       6.496   0.546   8.851  1.00  0.00     0.031 A 
ATOM     42  C   UNL     1       6.935  -0.143  10.116  1.00  0.00     0.074 A 
ATOM     43  C   UNL     1       6.809   1.832   8.619  1.00  0.00     0.049 A 
ATOM     44  N   UNL     1       7.583   0.335  11.145  1.00  0.00    -0.248 NA
ATOM     45  C   UNL     1       6.597  -1.572  10.231  1.00  0.00     0.031 C 
ATOM     46  C   UNL     1       6.498   2.571   7.397  1.00  0.00     0.029 A 
ATOM     47  N   UNL     1       7.475   2.737   9.403  1.00  0.00    -0.354 N 
ATOM     48  C   UNL     1       7.722  -0.730  12.029  1.00  0.00     0.074 A 
ATOM     49  C   UNL     1       7.055  -1.866  11.436  1.00  0.00     0.031 C 
ATOM     50  C   UNL     1       6.979   3.822   7.513  1.00  0.00     0.029 A 
ATOM     51  C   UNL     1       7.599   3.979   8.828  1.00  0.00     0.049 A 
ATOM     52  H   UNL     1       7.832   2.518  10.294  1.00  0.00     0.167 HD
ATOM     53  C   UNL     1       8.360  -0.760  13.224  1.00  0.00     0.034 A 
ATOM     54  C   UNL     1       8.138   5.112   9.321  1.00  0.00     0.034 A 
ATOM     55  C   UNL     1       9.011   0.388  13.801  1.00  0.00     0.049 A 
ATOM     56  C   UNL     1       8.761   5.079  10.699  1.00  0.00     0.074 A 
ATOM     57  C   UNL     1       9.688   0.480  15.003  1.00  0.00     0.029 A 
ATOM     58  N   UNL     1       9.054   1.651  13.222  1.00  0.00    -0.354 N 
ATOM     59  N   UNL     1       8.886   4.068  11.530  1.00  0.00    -0.248 NA
ATOM     60  C   UNL     1       9.329   6.338  11.195  1.00  0.00     0.031 C 
ATOM     61  C   UNL     1      10.062   1.814  15.192  1.00  0.00     0.029 A 
ATOM     62  C   UNL     1       9.714   2.535  14.060  1.00  0.00     0.049 A 
ATOM     63  H   UNL     1       8.672   1.883  12.345  1.00  0.00     0.167 HD
ATOM     64  C   UNL     1       9.591   4.562  12.627  1.00  0.00     0.074 A 
ATOM     65  C   UNL     1       9.870   5.955  12.342  1.00  0.00     0.031 C 
ATOM     66  C   UNL     1       9.981   3.924  13.762  1.00  0.00     0.034 A 
BRANCH  53  67
ATOM     67  C   UNL     1       8.310  -2.053  14.004  1.00  0.00     0.023 A 
ATOM     68  C   UNL     1       8.880  -3.244  13.519  1.00  0.00     0.031 A 
ATOM     69  C   UNL     1       7.637  -2.102  15.238  1.00  0.00     0.131 A 
ATOM     70  C   UNL     1       8.701  -4.444  14.224  1.00  0.00     0.055 A 
ATOM     71  C   UNL     1       7.540  -3.281  15.978  1.00  0.00     0.041 A 
ATOM     72  F   UNL     1       7.044  -1.006  15.737  1.00  0.00    -0.206 F 
ATOM     73  C   UNL     1       8.060  -4.465  15.465  1.00  0.00     0.022 A 
BRANCH  70  74
ATOM     74  S   UNL     1       9.174  -6.002  13.424  1.00  0.00     0.124 S 
ATOM     75  O   UNL     1       8.366  -5.964  12.207  1.00  0.00    -0.237 OA
ATOM     76  O   UNL     1      10.611  -5.839  13.242  1.00  0.00    -0.237 OA
ATOM     77  O   UNL     1       8.778  -7.020  14.394  1.00  0.00    -0.744 OA
ENDBRANCH  70  74
ENDBRANCH  53  67
BRANCH  54  78
ATOM     78  C   UNL     1       8.097   6.379   8.535  1.00  0.00     0.023 A 
ATOM     79  C   UNL     1       9.277   7.034   8.145  1.00  0.00     0.031 A 
ATOM     80  C   UNL     1       6.871   6.993   8.221  1.00  0.00     0.131 A 
ATOM     81  C   UNL     1       9.207   8.287   7.515  1.00  0.00     0.055 A 
ATOM     82  C   UNL     1       6.806   8.210   7.541  1.00  0.00     0.041 A 
ATOM     83  F   UNL     1       5.711   6.414   8.572  1.00  0.00    -0.206 F 
ATOM     84  C   UNL     1       7.979   8.872   7.198  1.00  0.00     0.022 A 
BRANCH  81  85
ATOM     85  S   UNL     1      10.749   9.190   7.205  1.00  0.00     0.124 S 
ATOM     86  O   UNL     1      11.301   9.303   8.550  1.00  0.00    -0.237 OA
ATOM     87  O   UNL     1      11.448   8.289   6.296  1.00  0.00    -0.237 OA
ATOM     88  O   UNL     1      10.293  10.444   6.608  1.00  0.00    -0.744 OA
ENDBRANCH  81  85
ENDBRANCH  54  78
BRANCH  66  89
ATOM     89  C   UNL     1      10.815   4.713  14.746  1.00  0.00     0.023 A 
ATOM     90  C   UNL     1      10.318   5.852  15.403  1.00  0.00     0.031 A 
ATOM     91  C   UNL     1      12.143   4.329  15.008  1.00  0.00     0.131 A 
ATOM     92  C   UNL     1      11.166   6.611  16.224  1.00  0.00     0.055 A 
ATOM     93  C   UNL     1      12.957   5.041  15.890  1.00  0.00     0.041 A 
ATOM     94  F   UNL     1      12.676   3.253  14.408  1.00  0.00    -0.206 F 
ATOM     95  C   UNL     1      12.475   6.201  16.489  1.00  0.00     0.022 A 
BRANCH  92  96
ATOM     96  S   UNL     1      10.579   8.217  16.830  1.00  0.00     0.124 S 
ATOM     97  O   UNL     1      10.211   8.891  15.589  1.00  0.00    -0.237 OA
ATOM     98  O   UNL     1       9.473   7.836  17.701  1.00  0.00    -0.237 OA
ATOM     99  O   UNL     1      11.746   8.772  17.514  1.00  0.00    -0.744 OA
ENDBRANCH  92  96
ENDBRANCH  66  89
ENDBRANCH  40  41
ENDBRANCH  33  35
ENDBRANCH  32  33
ENDBRANCH  31  32
ENDBRANCH  30  31
ENDBRANCH  29  30
ENDBRANCH  28  29
ENDBRANCH  27  28
ENDBRANCH   1  27
TORSDOF 26
