REMARK SMILES CCCCCCCCNC(=O)Oc1cccc(-c2ccc([C@@H](C)C(=O)OCCOCCOCCOCCOC(=O)c3ccc(-c4c5nc(c(-c6cc(S(=O)(=O)[O-])ccc6F)c6ccc([nH]6)c(-c6cc(S(=O)(=O)[O-])ccc6F)c6nc(c(-c7cc(S(=O)(=O)[O-])ccc7F)c7ccc4[nH]7)C=C6)C=C5)cc3)cc2F)c1
REMARK SMILES IDX 28 1 27 2 26 3 24 4 25 5 22 6 23 7 21 8 18 9 19 10 105 11
REMARK SMILES IDX 20 12 104 13 106 14 17 15 13 16 14 17 107 18 15 19 16 20
REMARK SMILES IDX 12 21 10 22 9 23 11 25 8 26 7 27 6 28 5 29 4 30 3 31 2 32
REMARK SMILES IDX 1 33 29 34 30 35 31 36 32 37 33 38 34 39 35 40 36 41 37 42
REMARK SMILES IDX 38 43 39 44 40 45 41 46 42 47 103 48 43 49 102 50 44 51
REMARK SMILES IDX 45 52 46 53 96 54 47 55 101 56 95 57 97 58 48 59 100 60
REMARK SMILES IDX 94 61 93 62 49 64 81 65 61 66 80 67 62 68 65 69 79 70 98 71
REMARK SMILES IDX 63 72 64 73 78 75 99 76 66 77 50 78 51 79 59 80 52 81 58 82
REMARK SMILES IDX 60 83 57 84 53 85 54 86 55 87 56 88 82 89 83 90 91 91 84 92
REMARK SMILES IDX 90 93 92 94 89 95 85 96 86 97 87 98 88 99 67 100 68 101
REMARK SMILES IDX 76 102 69 103 75 104 77 105 74 106 70 107 71 108 72 109
REMARK SMILES IDX 73 110
REMARK H PARENT 9 24 97 63 65 74
REMARK Flexibility Score: inf
ROOT
ATOM      1  C   UNL     1     -12.624  -1.297  -9.191  1.00  0.00     0.202 C 
ENDROOT
BRANCH   1   2
ATOM      2  C   UNL     1     -12.758  -2.227 -10.412  1.00  0.00     0.261 C 
BRANCH   2   3
ATOM      3  O   UNL     1     -11.532  -2.674 -11.031  1.00  0.00    -0.463 OA
BRANCH   3   4
ATOM      4  C   UNL     1     -11.194  -2.078 -12.196  1.00  0.00     0.313 C 
ATOM      5  O   UNL     1     -11.880  -1.213 -12.741  1.00  0.00    -0.252 OA
BRANCH   4   6
ATOM      6  C   UNL     1      -9.898  -2.564 -12.846  1.00  0.00     0.126 C 
ATOM      7  C   UNL     1     -10.255  -3.377 -14.085  1.00  0.00     0.025 C 
BRANCH   6   8
ATOM      8  C   UNL     1      -8.804  -3.254 -12.031  1.00  0.00    -0.031 A 
ATOM      9  C   UNL     1      -6.668  -4.438 -10.512  1.00  0.00     0.018 A 
ATOM     10  C   UNL     1      -7.951  -5.016 -10.564  1.00  0.00     0.012 A 
ATOM     11  C   UNL     1      -6.484  -3.256 -11.235  1.00  0.00     0.131 A 
ATOM     12  C   UNL     1      -8.999  -4.439 -11.311  1.00  0.00     0.005 A 
ATOM     13  C   UNL     1      -7.516  -2.681 -11.989  1.00  0.00     0.044 A 
ATOM     14  F   UNL     1      -5.290  -2.640 -11.234  1.00  0.00    -0.206 F 
BRANCH   9  15
ATOM     15  C   UNL     1      -5.566  -5.075  -9.762  1.00  0.00    -0.012 A 
ATOM     16  C   UNL     1      -3.830  -5.041  -8.054  1.00  0.00     0.133 A 
ATOM     17  C   UNL     1      -3.440  -6.338  -8.378  1.00  0.00     0.047 A 
ATOM     18  C   UNL     1      -4.869  -4.401  -8.743  1.00  0.00     0.056 A 
ATOM     19  C   UNL     1      -4.114  -7.015  -9.389  1.00  0.00     0.004 A 
ATOM     20  C   UNL     1      -5.166  -6.390 -10.071  1.00  0.00     0.009 A 
BRANCH  16  21
ATOM     21  O   UNL     1      -3.069  -4.369  -7.083  1.00  0.00    -0.410 OA
BRANCH  21  22
ATOM     22  C   UNL     1      -3.740  -4.019  -5.922  1.00  0.00     0.412 C 
ATOM     23  N   UNL     1      -2.942  -3.431  -4.981  1.00  0.00    -0.321 N 
ATOM     24  H   UNL     1      -3.391  -3.113  -4.165  1.00  0.00     0.167 HD
ATOM     25  O   UNL     1      -4.932  -4.197  -5.701  1.00  0.00    -0.224 OA
BRANCH  23  26
ATOM     26  C   UNL     1      -1.511  -3.224  -5.050  1.00  0.00     0.119 C 
BRANCH  26  27
ATOM     27  C   UNL     1      -1.141  -1.741  -4.990  1.00  0.00     0.021 C 
BRANCH  27  28
ATOM     28  C   UNL     1      -1.544  -1.028  -3.691  1.00  0.00     0.002 C 
BRANCH  28  29
ATOM     29  C   UNL     1      -0.954  -1.621  -2.407  1.00  0.00     0.000 C 
BRANCH  29  30
ATOM     30  C   UNL     1       0.576  -1.600  -2.326  1.00  0.00    -0.000 C 
BRANCH  30  31
ATOM     31  C   UNL     1       1.206  -0.203  -2.310  1.00  0.00    -0.000 C 
BRANCH  31  32
ATOM     32  C   UNL     1       0.768   0.699  -1.152  1.00  0.00    -0.003 C 
ATOM     33  C   UNL     1       1.121   0.137   0.217  1.00  0.00     0.004 C 
ENDBRANCH  31  32
ENDBRANCH  30  31
ENDBRANCH  29  30
ENDBRANCH  28  29
ENDBRANCH  27  28
ENDBRANCH  26  27
ENDBRANCH  23  26
ENDBRANCH  21  22
ENDBRANCH  16  21
ENDBRANCH   9  15
ENDBRANCH   6   8
ENDBRANCH   4   6
ENDBRANCH   3   4
ENDBRANCH   2   3
ENDBRANCH   1   2
BRANCH   1  34
ATOM     34  O   UNL     1     -11.800  -0.143  -9.259  1.00  0.00    -0.376 OA
BRANCH  34  35
ATOM     35  C   UNL     1     -10.422  -0.252  -9.592  1.00  0.00     0.188 C 
BRANCH  35  36
ATOM     36  C   UNL     1      -9.596  -1.494  -9.226  1.00  0.00     0.188 C 
BRANCH  36  37
ATOM     37  O   UNL     1     -10.319  -2.548  -8.630  1.00  0.00    -0.377 OA
BRANCH  37  38
ATOM     38  C   UNL     1     -10.168  -2.703  -7.227  1.00  0.00     0.188 C 
BRANCH  38  39
ATOM     39  C   UNL     1     -10.161  -1.414  -6.384  1.00  0.00     0.188 C 
BRANCH  39  40
ATOM     40  O   UNL     1      -9.207  -0.443  -6.810  1.00  0.00    -0.376 OA
BRANCH  40  41
ATOM     41  C   UNL     1      -7.946  -0.409  -6.151  1.00  0.00     0.202 C 
BRANCH  41  42
ATOM     42  C   UNL     1      -7.002  -1.607  -6.345  1.00  0.00     0.261 C 
BRANCH  42  43
ATOM     43  O   UNL     1      -7.516  -2.884  -5.952  1.00  0.00    -0.460 OA
BRANCH  43  44
ATOM     44  C   UNL     1      -7.868  -3.045  -4.657  1.00  0.00     0.338 C 
ATOM     45  O   UNL     1      -7.778  -2.219  -3.775  1.00  0.00    -0.246 OA
BRANCH  44  46
ATOM     46  C   UNL     1      -8.615  -4.322  -4.546  1.00  0.00     0.060 A 
ATOM     47  C   UNL     1      -9.929  -4.285  -4.061  1.00  0.00     0.016 A 
ATOM     48  C   UNL     1      -8.025  -5.541  -4.886  1.00  0.00     0.016 A 
ATOM     49  C   UNL     1     -10.629  -5.471  -3.845  1.00  0.00     0.010 A 
ATOM     50  C   UNL     1      -8.718  -6.733  -4.646  1.00  0.00     0.010 A 
ATOM     51  C   UNL     1     -10.002  -6.703  -4.071  1.00  0.00    -0.014 A 
BRANCH  51  52
ATOM     52  C   UNL     1     -10.576  -7.922  -3.443  1.00  0.00     0.031 A 
ATOM     53  C   UNL     1     -10.014  -8.355  -2.113  1.00  0.00     0.074 A 
ATOM     54  C   UNL     1     -11.610  -8.585  -3.990  1.00  0.00     0.049 A 
ATOM     55  N   UNL     1     -10.338  -9.374  -1.359  1.00  0.00    -0.248 NA
ATOM     56  C   UNL     1      -8.935  -7.519  -1.562  1.00  0.00     0.031 C 
ATOM     57  C   UNL     1     -12.277  -8.228  -5.240  1.00  0.00     0.029 A 
ATOM     58  N   UNL     1     -12.283  -9.700  -3.555  1.00  0.00    -0.354 N 
ATOM     59  C   UNL     1      -9.502  -9.303  -0.249  1.00  0.00     0.074 A 
ATOM     60  C   UNL     1      -8.626  -8.171  -0.453  1.00  0.00     0.031 C 
ATOM     61  C   UNL     1     -13.265  -9.112  -5.473  1.00  0.00     0.029 A 
ATOM     62  C   UNL     1     -13.277 -10.116  -4.410  1.00  0.00     0.049 A 
ATOM     63  H   UNL     1     -12.074 -10.159  -2.710  1.00  0.00     0.167 HD
ATOM     64  C   UNL     1      -9.474 -10.101   0.847  1.00  0.00     0.034 A 
ATOM     65  C   UNL     1     -14.087 -11.193  -4.347  1.00  0.00     0.034 A 
ATOM     66  C   UNL     1     -10.343 -11.238   1.028  1.00  0.00     0.049 A 
ATOM     67  C   UNL     1     -13.979 -12.123  -3.159  1.00  0.00     0.074 A 
ATOM     68  C   UNL     1     -10.398 -12.121   2.092  1.00  0.00     0.029 A 
ATOM     69  N   UNL     1     -11.303 -11.659   0.115  1.00  0.00    -0.354 N 
ATOM     70  N   UNL     1     -13.181 -12.051  -2.117  1.00  0.00    -0.248 NA
ATOM     71  C   UNL     1     -14.894 -13.271  -3.134  1.00  0.00     0.031 C 
ATOM     72  C   UNL     1     -11.330 -13.119   1.787  1.00  0.00     0.029 A 
ATOM     73  C   UNL     1     -11.932 -12.805   0.579  1.00  0.00     0.049 A 
ATOM     74  H   UNL     1     -11.506 -11.210  -0.737  1.00  0.00     0.167 HD
ATOM     75  C   UNL     1     -13.534 -13.118  -1.292  1.00  0.00     0.074 A 
ATOM     76  C   UNL     1     -14.622 -13.808  -1.954  1.00  0.00     0.031 C 
ATOM     77  C   UNL     1     -13.014 -13.489  -0.092  1.00  0.00     0.034 A 
BRANCH  64  78
ATOM     78  C   UNL     1      -8.425  -9.801   1.894  1.00  0.00     0.023 A 
ATOM     79  C   UNL     1      -8.403  -8.584   2.599  1.00  0.00     0.031 A 
ATOM     80  C   UNL     1      -7.402 -10.729   2.156  1.00  0.00     0.131 A 
ATOM     81  C   UNL     1      -7.338  -8.296   3.467  1.00  0.00     0.055 A 
ATOM     82  C   UNL     1      -6.396 -10.474   3.090  1.00  0.00     0.041 A 
ATOM     83  F   UNL     1      -7.351 -11.896   1.495  1.00  0.00    -0.206 F 
ATOM     84  C   UNL     1      -6.350  -9.245   3.739  1.00  0.00     0.022 A 
BRANCH  81  85
ATOM     85  S   UNL     1      -7.171  -6.607   4.109  1.00  0.00     0.124 S 
ATOM     86  O   UNL     1      -7.087  -5.830   2.875  1.00  0.00    -0.237 OA
ATOM     87  O   UNL     1      -8.394  -6.443   4.887  1.00  0.00    -0.237 OA
ATOM     88  O   UNL     1      -5.936  -6.657   4.889  1.00  0.00    -0.744 OA
ENDBRANCH  81  85
ENDBRANCH  64  78
BRANCH  65  89
ATOM     89  C   UNL     1     -15.053 -11.482  -5.449  1.00  0.00     0.023 A 
ATOM     90  C   UNL     1     -16.439 -11.518  -5.218  1.00  0.00     0.031 A 
ATOM     91  C   UNL     1     -14.596 -11.797  -6.741  1.00  0.00     0.131 A 
ATOM     92  C   UNL     1     -17.311 -11.912  -6.245  1.00  0.00     0.055 A 
ATOM     93  C   UNL     1     -15.472 -12.130  -7.776  1.00  0.00     0.041 A 
ATOM     94  F   UNL     1     -13.282 -11.786  -7.018  1.00  0.00    -0.206 F 
ATOM     95  C   UNL     1     -16.838 -12.203  -7.527  1.00  0.00     0.022 A 
BRANCH  92  96
ATOM     96  S   UNL     1     -19.070 -12.135  -5.858  1.00  0.00     0.124 S 
ATOM     97  O   UNL     1     -19.015 -13.144  -4.806  1.00  0.00    -0.237 OA
ATOM     98  O   UNL     1     -19.460 -10.793  -5.441  1.00  0.00    -0.237 OA
ATOM     99  O   UNL     1     -19.643 -12.583  -7.125  1.00  0.00    -0.744 OA
ENDBRANCH  92  96
ENDBRANCH  65  89
BRANCH  77 100
ATOM    100  C   UNL     1     -13.670 -14.656   0.615  1.00  0.00     0.023 A 
ATOM    101  C   UNL     1     -13.680 -15.953   0.072  1.00  0.00     0.031 A 
ATOM    102  C   UNL     1     -14.325 -14.454   1.845  1.00  0.00     0.131 A 
ATOM    103  C   UNL     1     -14.399 -16.974   0.712  1.00  0.00     0.055 A 
ATOM    104  C   UNL     1     -14.970 -15.493   2.517  1.00  0.00     0.041 A 
ATOM    105  F   UNL     1     -14.353 -13.238   2.414  1.00  0.00    -0.206 F 
ATOM    106  C   UNL     1     -15.027 -16.758   1.941  1.00  0.00     0.022 A 
BRANCH 103 107
ATOM    107  S   UNL     1     -14.622 -18.554  -0.152  1.00  0.00     0.124 S 
ATOM    108  O   UNL     1     -15.203 -18.126  -1.421  1.00  0.00    -0.237 OA
ATOM    109  O   UNL     1     -13.258 -19.069  -0.217  1.00  0.00    -0.237 OA
ATOM    110  O   UNL     1     -15.525 -19.299   0.723  1.00  0.00    -0.744 OA
ENDBRANCH 103 107
ENDBRANCH  77 100
ENDBRANCH  51  52
ENDBRANCH  44  46
ENDBRANCH  43  44
ENDBRANCH  42  43
ENDBRANCH  41  42
ENDBRANCH  40  41
ENDBRANCH  39  40
ENDBRANCH  38  39
ENDBRANCH  37  38
ENDBRANCH  36  37
ENDBRANCH  35  36
ENDBRANCH  34  35
ENDBRANCH   1  34
TORSDOF 34
