REMARK SMILES O=C(OCCOCCOCCOCCOC(=O)c1ccc(-c2c3nc(c(-c4cc(S(=O)(=O)[O-])ccc4F)c4ccc([nH]4)c(-c4cc(S(=O)(=O)[O-])ccc4F)c4nc(c(-c5cc(S(=O)(=O)[O-])ccc5F)c5ccc2[nH]5)C=C4)C=C3)cc1)C1=NN(c2ccc(S(=O)(=O)[O-])cc2)C(=O)/C1=C/Nc1ccccc1
REMARK SMILES IDX 10 1 9 2 8 3 7 4 6 5 5 6 4 7 3 8 2 9 1 10 81 11 82 12 96 13
REMARK SMILES IDX 83 14 94 15 97 16 95 17 84 18 85 19 93 20 86 21 92 22 87 23
REMARK SMILES IDX 88 24 89 25 90 26 91 27 98 28 99 30 100 31 104 32 101 33
REMARK SMILES IDX 103 34 102 35 11 36 12 37 13 38 14 39 15 40 16 41 17 42
REMARK SMILES IDX 18 43 19 44 80 45 20 46 79 47 21 48 22 49 23 50 73 51 24 52
REMARK SMILES IDX 78 53 72 54 74 55 25 56 77 57 71 58 70 59 26 61 58 62 38 63
REMARK SMILES IDX 57 64 39 65 42 66 56 67 75 68 40 69 41 70 55 72 76 73 43 74
REMARK SMILES IDX 27 75 28 76 36 77 29 78 35 79 37 80 34 81 30 82 31 83 32 84
REMARK SMILES IDX 33 85 59 86 60 87 68 88 61 89 67 90 69 91 66 92 62 93 63 94
REMARK SMILES IDX 64 95 65 96 44 97 45 98 53 99 46 100 52 101 54 102 51 103
REMARK SMILES IDX 47 104 48 105 49 106 50 107
REMARK H PARENT 98 29 74 60 42 71
REMARK Flexibility Score: inf
ROOT
ATOM      1  C   UNL     1       5.502  -2.384  -0.505  1.00  0.00     0.188 C 
ENDROOT
BRANCH   1   2
ATOM      2  O   UNL     1       4.357  -3.122  -0.027  1.00  0.00    -0.377 OA
BRANCH   2   3
ATOM      3  C   UNL     1       3.244  -2.709   0.763  1.00  0.00     0.188 C 
BRANCH   3   4
ATOM      4  C   UNL     1       2.863  -1.255   0.858  1.00  0.00     0.188 C 
BRANCH   4   5
ATOM      5  O   UNL     1       3.863  -0.420   0.320  1.00  0.00    -0.376 OA
BRANCH   5   6
ATOM      6  C   UNL     1       4.634   0.397   1.168  1.00  0.00     0.202 C 
BRANCH   6   7
ATOM      7  C   UNL     1       3.768   1.313   2.002  1.00  0.00     0.261 C 
BRANCH   7   8
ATOM      8  O   UNL     1       2.748   2.029   1.260  1.00  0.00    -0.458 OA
BRANCH   8   9
ATOM      9  C   UNL     1       2.030   1.407   0.283  1.00  0.00     0.359 C 
ATOM     10  O   UNL     1       0.846   1.126   0.363  1.00  0.00    -0.244 OA
BRANCH   9  11
ATOM     11  C   UNL     1       2.697   1.522  -1.064  1.00  0.00     0.183 C 
ATOM     12  N   UNL     1       2.965   2.760  -1.400  1.00  0.00    -0.157 NA
ATOM     13  C   UNL     1       3.154   0.452  -2.064  1.00  0.00     0.093 C 
ATOM     14  N   UNL     1       3.595   2.747  -2.598  1.00  0.00    -0.196 N 
ATOM     15  C   UNL     1       3.850   1.446  -3.076  1.00  0.00     0.282 C 
ATOM     16  C   UNL     1       3.274  -0.901  -2.371  1.00  0.00     0.099 C 
ATOM     17  O   UNL     1       4.475   1.129  -4.075  1.00  0.00    -0.267 OA
BRANCH  14  18
ATOM     18  C   UNL     1       3.737   4.015  -3.258  1.00  0.00     0.069 A 
ATOM     19  C   UNL     1       3.412   5.224  -2.593  1.00  0.00     0.030 A 
ATOM     20  C   UNL     1       4.063   4.106  -4.617  1.00  0.00     0.030 A 
ATOM     21  C   UNL     1       3.309   6.448  -3.280  1.00  0.00     0.021 A 
ATOM     22  C   UNL     1       3.949   5.323  -5.317  1.00  0.00     0.021 A 
ATOM     23  C   UNL     1       3.545   6.481  -4.653  1.00  0.00     0.054 A 
BRANCH  23  24
ATOM     24  S   UNL     1       3.243   7.983  -5.548  1.00  0.00     0.124 S 
ATOM     25  O   UNL     1       1.845   8.323  -5.397  1.00  0.00    -0.237 OA
ATOM     26  O   UNL     1       4.289   8.927  -5.222  1.00  0.00    -0.237 OA
ATOM     27  O   UNL     1       3.460   7.621  -7.107  1.00  0.00    -0.744 OA
ENDBRANCH  23  24
ENDBRANCH  14  18
BRANCH  16  28
ATOM     28  N   UNL     1       3.032  -2.336  -2.105  1.00  0.00    -0.361 N 
ATOM     29  H   UNL     1       2.128  -2.435  -1.728  1.00  0.00     0.166 HD
BRANCH  28  30
ATOM     30  C   UNL     1       3.733  -3.857  -2.212  1.00  0.00     0.038 A 
ATOM     31  C   UNL     1       2.452  -5.151  -2.291  1.00  0.00     0.026 A 
ATOM     32  C   UNL     1       5.431  -4.366  -2.756  1.00  0.00     0.026 A 
ATOM     33  C   UNL     1       2.839  -6.854  -2.842  1.00  0.00     0.002 A 
ATOM     34  C   UNL     1       5.859  -6.111  -3.203  1.00  0.00     0.002 A 
ATOM     35  C   UNL     1       4.551  -7.372  -3.173  1.00  0.00     0.000 A 
ENDBRANCH  28  30
ENDBRANCH  16  28
ENDBRANCH   9  11
ENDBRANCH   8   9
ENDBRANCH   7   8
ENDBRANCH   6   7
ENDBRANCH   5   6
ENDBRANCH   4   5
ENDBRANCH   3   4
ENDBRANCH   2   3
ENDBRANCH   1   2
BRANCH   1  36
ATOM     36  C   UNL     1       5.823  -1.644  -2.049  1.00  0.00     0.188 C 
BRANCH  36  37
ATOM     37  O   UNL     1       5.823  -2.111  -3.484  1.00  0.00    -0.376 OA
BRANCH  37  38
ATOM     38  C   UNL     1       4.894  -2.170  -4.627  1.00  0.00     0.202 C 
BRANCH  38  39
ATOM     39  C   UNL     1       4.036  -3.410  -5.149  1.00  0.00     0.261 C 
BRANCH  39  40
ATOM     40  O   UNL     1       3.304  -4.198  -4.197  1.00  0.00    -0.460 OA
BRANCH  40  41
ATOM     41  C   UNL     1       3.999  -5.404  -3.679  1.00  0.00     0.338 C 
ATOM     42  O   UNL     1       4.271  -5.965  -4.775  1.00  0.00    -0.246 OA
BRANCH  41  43
ATOM     43  C   UNL     1       4.421  -5.890  -1.608  1.00  0.00     0.060 A 
ATOM     44  C   UNL     1       5.763  -5.769  -0.844  1.00  0.00     0.016 A 
ATOM     45  C   UNL     1       3.732  -6.808  -0.629  1.00  0.00     0.016 A 
ATOM     46  C   UNL     1       6.351  -6.575   0.177  1.00  0.00     0.010 A 
ATOM     47  C   UNL     1       4.324  -7.669   0.404  1.00  0.00     0.010 A 
ATOM     48  C   UNL     1       5.674  -7.633   0.729  1.00  0.00    -0.014 A 
BRANCH  48  49
ATOM     49  C   UNL     1       6.414  -8.539   1.666  1.00  0.00     0.031 A 
ATOM     50  C   UNL     1       6.988  -9.870   1.214  1.00  0.00     0.074 A 
ATOM     51  C   UNL     1       6.763  -8.065   2.880  1.00  0.00     0.049 A 
ATOM     52  N   UNL     1       7.734 -10.727   1.874  1.00  0.00    -0.248 NA
ATOM     53  C   UNL     1       6.697 -10.282  -0.166  1.00  0.00     0.031 C 
ATOM     54  C   UNL     1       6.378  -6.748   3.388  1.00  0.00     0.029 A 
ATOM     55  N   UNL     1       7.544  -8.592   3.880  1.00  0.00    -0.354 N 
ATOM     56  C   UNL     1       8.002 -11.780   0.997  1.00  0.00     0.074 A 
ATOM     57  C   UNL     1       7.319 -11.455  -0.241  1.00  0.00     0.031 C 
ATOM     58  C   UNL     1       6.941  -6.560   4.590  1.00  0.00     0.029 A 
ATOM     59  C   UNL     1       7.666  -7.766   4.975  1.00  0.00     0.049 A 
ATOM     60  H   UNL     1       7.974  -9.476   3.820  1.00  0.00     0.167 HD
ATOM     61  C   UNL     1       8.739 -12.907   1.206  1.00  0.00     0.034 A 
ATOM     62  C   UNL     1       8.258  -7.961   6.172  1.00  0.00     0.034 A 
ATOM     63  C   UNL     1       9.403 -13.220   2.458  1.00  0.00     0.049 A 
ATOM     64  C   UNL     1       8.987  -9.257   6.414  1.00  0.00     0.074 A 
ATOM     65  C   UNL     1      10.137 -14.347   2.796  1.00  0.00     0.029 A 
ATOM     66  N   UNL     1       9.414 -12.402   3.584  1.00  0.00    -0.354 N 
ATOM     67  N   UNL     1       9.175 -10.265   5.592  1.00  0.00    -0.248 NA
ATOM     68  C   UNL     1       9.590  -9.438   7.739  1.00  0.00     0.031 C 
ATOM     69  C   UNL     1      10.520 -14.246   4.139  1.00  0.00     0.029 A 
ATOM     70  C   UNL     1      10.108 -13.015   4.620  1.00  0.00     0.049 A 
ATOM     71  H   UNL     1       8.989 -11.516   3.638  1.00  0.00     0.167 HD
ATOM     72  C   UNL     1       9.925 -11.197   6.302  1.00  0.00     0.074 A 
ATOM     73  C   UNL     1      10.195 -10.607   7.598  1.00  0.00     0.031 C 
ATOM     74  C   UNL     1      10.344 -12.433   5.923  1.00  0.00     0.034 A 
BRANCH  61  75
ATOM     75  C   UNL     1       8.818 -13.931   0.086  1.00  0.00     0.023 A 
ATOM     76  C   UNL     1       9.444 -13.654  -1.143  1.00  0.00     0.031 A 
ATOM     77  C   UNL     1       8.266 -15.216   0.257  1.00  0.00     0.131 A 
ATOM     78  C   UNL     1       9.449 -14.621  -2.166  1.00  0.00     0.055 A 
ATOM     79  C   UNL     1       8.340 -16.198  -0.736  1.00  0.00     0.041 A 
ATOM     80  F   UNL     1       7.643 -15.546   1.399  1.00  0.00    -0.206 F 
ATOM     81  C   UNL     1       8.923 -15.898  -1.962  1.00  0.00     0.022 A 
BRANCH  78  82
ATOM     82  S   UNL     1      10.036 -14.144  -3.817  1.00  0.00     0.124 S 
ATOM     83  O   UNL     1       9.152 -13.024  -4.131  1.00  0.00    -0.237 OA
ATOM     84  O   UNL     1      11.433 -13.807  -3.570  1.00  0.00    -0.237 OA
ATOM     85  O   UNL     1       9.817 -15.345  -4.620  1.00  0.00    -0.744 OA
ENDBRANCH  78  82
ENDBRANCH  61  75
BRANCH  62  86
ATOM     86  C   UNL     1       8.111  -6.942   7.256  1.00  0.00     0.023 A 
ATOM     87  C   UNL     1       9.219  -6.321   7.853  1.00  0.00     0.031 A 
ATOM     88  C   UNL     1       6.832  -6.605   7.742  1.00  0.00     0.131 A 
ATOM     89  C   UNL     1       9.029  -5.429   8.922  1.00  0.00     0.055 A 
ATOM     90  C   UNL     1       6.645  -5.665   8.755  1.00  0.00     0.041 A 
ATOM     91  F   UNL     1       5.734  -7.176   7.222  1.00  0.00    -0.206 F 
ATOM     92  C   UNL     1       7.749  -5.080   9.361  1.00  0.00     0.022 A 
BRANCH  89  93
ATOM     93  S   UNL     1      10.484  -4.802   9.807  1.00  0.00     0.124 S 
ATOM     94  O   UNL     1      11.149  -6.039  10.199  1.00  0.00    -0.237 OA
ATOM     95  O   UNL     1      11.147  -4.013   8.775  1.00  0.00    -0.237 OA
ATOM     96  O   UNL     1       9.906  -4.028  10.904  1.00  0.00    -0.744 OA
ENDBRANCH  89  93
ENDBRANCH  62  86
BRANCH  74  97
ATOM     97  C   UNL     1      11.156 -13.208   6.937  1.00  0.00     0.023 A 
ATOM     98  C   UNL     1      10.611 -13.584   8.178  1.00  0.00     0.031 A 
ATOM     99  C   UNL     1      12.509 -13.505   6.697  1.00  0.00     0.131 A 
ATOM    100  C   UNL     1      11.437 -14.137   9.168  1.00  0.00     0.055 A 
ATOM    101  C   UNL     1      13.305 -14.136   7.655  1.00  0.00     0.041 A 
ATOM    102  F   UNL     1      13.088 -13.167   5.534  1.00  0.00    -0.206 F 
ATOM    103  C   UNL     1      12.776 -14.433   8.908  1.00  0.00     0.022 A 
BRANCH 100 104
ATOM    104  S   UNL     1      10.777 -14.303  10.850  1.00  0.00     0.124 S 
ATOM    105  O   UNL     1      10.363 -12.935  11.146  1.00  0.00    -0.237 OA
ATOM    106  O   UNL     1       9.700 -15.270  10.669  1.00  0.00    -0.237 OA
ATOM    107  O   UNL     1      11.922 -14.785  11.621  1.00  0.00    -0.744 OA
ENDBRANCH 100 104
ENDBRANCH  74  97
ENDBRANCH  48  49
ENDBRANCH  41  43
ENDBRANCH  40  41
ENDBRANCH  39  40
ENDBRANCH  38  39
ENDBRANCH  37  38
ENDBRANCH  36  37
ENDBRANCH   1  36
TORSDOF 27
