REMARK SMILES Cc1ccc(C(=O)OCCOCCOCCOCCOC(=O)c2ccc(-c3c4nc(c(-c5cc(S(=O)(=O)[O-])ccc5F)c5ccc([nH]5)c(-c5cc(S(=O)(=O)[O-])ccc5F)c5nc(c(-c6cc(S(=O)(=O)[O-])ccc6F)c6ccc3[nH]6)C=C5)C=C4)cc2)c(NC(=O)CN2C(=O)/C(=C/c3ccccc3C)SC2=S)c1
REMARK SMILES IDX 13 1 12 2 11 3 10 4 9 5 8 6 6 7 7 8 5 9 1 10 2 11 3 12
REMARK SMILES IDX 106 13 4 14 86 15 87 16 88 17 89 19 90 20 91 21 92 22 104 23
REMARK SMILES IDX 93 24 94 25 103 26 105 27 95 28 96 29 97 30 101 31 98 32
REMARK SMILES IDX 100 33 102 34 99 35 14 36 15 37 16 38 17 39 18 40 19 41
REMARK SMILES IDX 20 42 21 43 22 44 23 45 24 46 85 47 25 48 84 49 26 50 27 51
REMARK SMILES IDX 28 52 78 53 29 54 83 55 77 56 79 57 30 58 82 59 76 60 75 61
REMARK SMILES IDX 31 63 63 64 43 65 62 66 44 67 47 68 61 69 80 70 45 71 46 72
REMARK SMILES IDX 60 74 81 75 48 76 32 77 33 78 41 79 34 80 40 81 42 82 39 83
REMARK SMILES IDX 35 84 36 85 37 86 38 87 64 88 65 89 73 90 66 91 72 92 74 93
REMARK SMILES IDX 71 94 67 95 68 96 69 97 70 98 49 99 50 100 58 101 51 102
REMARK SMILES IDX 57 103 59 104 56 105 52 106 53 107 54 108 55 109
REMARK H PARENT 87 18 79 62 47 73
REMARK Flexibility Score: inf
ROOT
ATOM      1  C   UNL     1      -1.014  -2.679  -2.366  1.00  0.00     0.188 C 
ENDROOT
BRANCH   1   2
ATOM      2  C   UNL     1      -1.423  -3.705  -0.829  1.00  0.00     0.188 C 
BRANCH   2   3
ATOM      3  O   UNL     1      -2.653  -3.764   0.432  1.00  0.00    -0.376 OA
BRANCH   3   4
ATOM      4  C   UNL     1      -3.919  -2.577   0.948  1.00  0.00     0.202 C 
BRANCH   4   5
ATOM      5  C   UNL     1      -3.831  -0.754   0.663  1.00  0.00     0.261 C 
BRANCH   5   6
ATOM      6  O   UNL     1      -2.506   0.215  -0.053  1.00  0.00    -0.460 OA
BRANCH   6   7
ATOM      7  C   UNL     1      -1.191   0.012  -0.602  1.00  0.00     0.340 C 
ATOM      8  O   UNL     1      -0.724  -1.080  -0.907  1.00  0.00    -0.246 OA
BRANCH   7   9
ATOM      9  C   UNL     1       0.077   0.686  -0.443  1.00  0.00     0.083 A 
ATOM     10  C   UNL     1       4.082   1.885   0.479  1.00  0.00     0.044 C 
ATOM     11  C   UNL     1       2.686   1.373   0.280  1.00  0.00    -0.049 A 
ATOM     12  C   UNL     1       2.518   0.463  -0.746  1.00  0.00     0.004 A 
ATOM     13  C   UNL     1       1.563   1.688   1.095  1.00  0.00     0.030 A 
ATOM     14  C   UNL     1       1.229   0.220  -1.170  1.00  0.00     0.018 A 
ATOM     15  C   UNL     1       0.304   1.104   0.820  1.00  0.00     0.056 A 
BRANCH  15  16
ATOM     16  N   UNL     1      -0.581   0.645   1.823  1.00  0.00    -0.324 N 
ATOM     17  C   UNL     1      -1.466  -0.463   1.878  1.00  0.00     0.244 C 
ATOM     18  H   UNL     1      -0.585   1.199   2.637  1.00  0.00     0.170 HD
ATOM     19  O   UNL     1      -1.987  -0.548   3.004  1.00  0.00    -0.273 OA
BRANCH  17  20
ATOM     20  C   UNL     1      -1.889  -1.793   0.612  1.00  0.00     0.227 C 
BRANCH  20  21
ATOM     21  N   UNL     1      -3.029  -2.196  -1.003  1.00  0.00    -0.283 N 
ATOM     22  C   UNL     1      -3.370  -1.450  -2.135  1.00  0.00     0.266 C 
ATOM     23  C   UNL     1      -3.900  -3.458  -1.475  1.00  0.00     0.148 C 
ATOM     24  O   UNL     1      -4.147  -0.493  -2.096  1.00  0.00    -0.268 OA
ATOM     25  C   UNL     1      -3.333  -2.224  -3.547  1.00  0.00     0.081 C 
ATOM     26  S   UNL     1      -4.309  -3.540  -3.256  1.00  0.00    -0.054 SA
ATOM     27  S   UNL     1      -4.575  -4.958  -0.897  1.00  0.00    -0.052 S 
ATOM     28  C   UNL     1      -2.602  -2.026  -4.686  1.00  0.00     0.029 C 
BRANCH  28  29
ATOM     29  C   UNL     1      -2.183  -2.679  -5.950  1.00  0.00    -0.021 A 
ATOM     30  C   UNL     1      -1.902  -4.043  -5.910  1.00  0.00     0.008 A 
ATOM     31  C   UNL     1      -1.805  -1.946  -7.127  1.00  0.00    -0.044 A 
ATOM     32  C   UNL     1      -1.457  -4.709  -7.047  1.00  0.00     0.001 A 
ATOM     33  C   UNL     1      -1.488  -2.653  -8.292  1.00  0.00     0.004 A 
ATOM     34  C   UNL     1      -1.671  -0.439  -7.263  1.00  0.00     0.045 C 
ATOM     35  C   UNL     1      -1.323  -4.029  -8.252  1.00  0.00     0.000 A 
ENDBRANCH  28  29
ENDBRANCH  20  21
ENDBRANCH  17  20
ENDBRANCH  15  16
ENDBRANCH   7   9
ENDBRANCH   6   7
ENDBRANCH   5   6
ENDBRANCH   4   5
ENDBRANCH   3   4
ENDBRANCH   2   3
ENDBRANCH   1   2
BRANCH   1  36
ATOM     36  O   UNL     1      -0.971  -1.116  -3.047  1.00  0.00    -0.377 OA
BRANCH  36  37
ATOM     37  C   UNL     1      -1.830   0.263  -3.209  1.00  0.00     0.188 C 
BRANCH  37  38
ATOM     38  C   UNL     1      -3.036   0.858  -4.310  1.00  0.00     0.188 C 
BRANCH  38  39
ATOM     39  O   UNL     1      -4.372   0.314  -4.490  1.00  0.00    -0.376 OA
BRANCH  39  40
ATOM     40  C   UNL     1      -4.737  -0.328  -5.721  1.00  0.00     0.202 C 
BRANCH  40  41
ATOM     41  C   UNL     1      -5.456   0.468  -6.824  1.00  0.00     0.261 C 
BRANCH  41  42
ATOM     42  O   UNL     1      -6.836   0.066  -7.004  1.00  0.00    -0.460 OA
BRANCH  42  43
ATOM     43  C   UNL     1      -7.750   1.008  -6.652  1.00  0.00     0.338 C 
ATOM     44  O   UNL     1      -8.286   1.777  -7.430  1.00  0.00    -0.246 OA
BRANCH  43  45
ATOM     45  C   UNL     1      -8.035   0.927  -5.205  1.00  0.00     0.060 A 
ATOM     46  C   UNL     1      -8.415   2.075  -4.503  1.00  0.00     0.016 A 
ATOM     47  C   UNL     1      -7.746  -0.256  -4.534  1.00  0.00     0.016 A 
ATOM     48  C   UNL     1      -8.364   2.074  -3.108  1.00  0.00     0.010 A 
ATOM     49  C   UNL     1      -7.554  -0.205  -3.173  1.00  0.00     0.010 A 
ATOM     50  C   UNL     1      -7.844   0.959  -2.443  1.00  0.00    -0.014 A 
BRANCH  50  51
ATOM     51  C   UNL     1      -7.305   0.989  -1.070  1.00  0.00     0.031 A 
ATOM     52  C   UNL     1      -7.486  -0.206  -0.150  1.00  0.00     0.074 A 
ATOM     53  C   UNL     1      -6.344   1.923  -0.889  1.00  0.00     0.049 A 
ATOM     54  N   UNL     1      -6.983  -0.377   1.034  1.00  0.00    -0.248 NA
ATOM     55  C   UNL     1      -8.403  -1.303  -0.495  1.00  0.00     0.031 C 
ATOM     56  C   UNL     1      -5.056   1.709  -0.294  1.00  0.00     0.029 A 
ATOM     57  N   UNL     1      -6.224   3.244  -1.306  1.00  0.00    -0.354 N 
ATOM     58  C   UNL     1      -7.328  -1.651   1.501  1.00  0.00     0.074 A 
ATOM     59  C   UNL     1      -8.260  -2.148   0.528  1.00  0.00     0.031 C 
ATOM     60  C   UNL     1      -4.415   2.831   0.008  1.00  0.00     0.029 A 
ATOM     61  C   UNL     1      -5.295   3.855  -0.424  1.00  0.00     0.049 A 
ATOM     62  H   UNL     1      -6.689   3.669  -2.062  1.00  0.00     0.167 HD
ATOM     63  C   UNL     1      -6.731  -2.190   2.615  1.00  0.00     0.034 A 
ATOM     64  C   UNL     1      -5.599   4.923   0.334  1.00  0.00     0.034 A 
ATOM     65  C   UNL     1      -5.995  -1.161   3.374  1.00  0.00     0.049 A 
ATOM     66  C   UNL     1      -5.722   4.565   1.807  1.00  0.00     0.074 A 
ATOM     67  C   UNL     1      -4.743  -1.089   3.960  1.00  0.00     0.029 A 
ATOM     68  N   UNL     1      -6.540   0.122   3.526  1.00  0.00    -0.354 N 
ATOM     69  N   UNL     1      -5.747   3.341   2.303  1.00  0.00    -0.248 NA
ATOM     70  C   UNL     1      -5.769   5.578   2.853  1.00  0.00     0.031 C 
ATOM     71  C   UNL     1      -4.483   0.266   4.297  1.00  0.00     0.029 A 
ATOM     72  C   UNL     1      -5.622   1.005   4.045  1.00  0.00     0.049 A 
ATOM     73  H   UNL     1      -7.466   0.360   3.289  1.00  0.00     0.167 HD
ATOM     74  C   UNL     1      -5.878   3.395   3.678  1.00  0.00     0.074 A 
ATOM     75  C   UNL     1      -5.837   4.822   3.962  1.00  0.00     0.031 C 
ATOM     76  C   UNL     1      -6.018   2.315   4.520  1.00  0.00     0.034 A 
BRANCH  63  77
ATOM     77  C   UNL     1      -6.544  -3.722   2.903  1.00  0.00     0.023 A 
ATOM     78  C   UNL     1      -5.684  -4.137   3.958  1.00  0.00     0.031 A 
ATOM     79  C   UNL     1      -6.957  -4.789   2.071  1.00  0.00     0.131 A 
ATOM     80  C   UNL     1      -5.138  -5.445   4.028  1.00  0.00     0.055 A 
ATOM     81  C   UNL     1      -6.477  -6.110   2.189  1.00  0.00     0.041 A 
ATOM     82  F   UNL     1      -7.816  -4.631   1.062  1.00  0.00    -0.206 F 
ATOM     83  C   UNL     1      -5.529  -6.435   3.140  1.00  0.00     0.022 A 
BRANCH  80  84
ATOM     84  S   UNL     1      -3.838  -5.839   5.242  1.00  0.00     0.124 S 
ATOM     85  O   UNL     1      -2.659  -5.222   4.644  1.00  0.00    -0.237 OA
ATOM     86  O   UNL     1      -4.338  -5.221   6.465  1.00  0.00    -0.237 OA
ATOM     87  O   UNL     1      -3.824  -7.303   5.262  1.00  0.00    -0.744 OA
ENDBRANCH  80  84
ENDBRANCH  63  77
BRANCH  64  88
ATOM     88  C   UNL     1      -6.061   5.999  -0.603  1.00  0.00     0.023 A 
ATOM     89  C   UNL     1      -5.057   6.317  -1.573  1.00  0.00     0.031 A 
ATOM     90  C   UNL     1      -7.394   5.988  -1.043  1.00  0.00     0.131 A 
ATOM     91  C   UNL     1      -5.361   6.244  -2.946  1.00  0.00     0.055 A 
ATOM     92  C   UNL     1      -7.702   6.039  -2.415  1.00  0.00     0.041 A 
ATOM     93  F   UNL     1      -8.385   5.689  -0.189  1.00  0.00    -0.206 F 
ATOM     94  C   UNL     1      -6.682   6.096  -3.372  1.00  0.00     0.022 A 
BRANCH  91  95
ATOM     95  S   UNL     1      -4.001   5.903  -4.133  1.00  0.00     0.124 S 
ATOM     96  O   UNL     1      -3.580   7.247  -4.511  1.00  0.00    -0.237 OA
ATOM     97  O   UNL     1      -3.045   5.139  -3.336  1.00  0.00    -0.237 OA
ATOM     98  O   UNL     1      -4.658   5.128  -5.185  1.00  0.00    -0.744 OA
ENDBRANCH  91  95
ENDBRANCH  64  88
BRANCH  76  99
ATOM     99  C   UNL     1      -6.485   2.362   5.978  1.00  0.00     0.023 A 
ATOM    100  C   UNL     1      -7.152   3.465   6.515  1.00  0.00     0.031 A 
ATOM    101  C   UNL     1      -6.407   1.231   6.845  1.00  0.00     0.131 A 
ATOM    102  C   UNL     1      -7.613   3.465   7.845  1.00  0.00     0.055 A 
ATOM    103  C   UNL     1      -6.924   1.210   8.143  1.00  0.00     0.041 A 
ATOM    104  F   UNL     1      -5.857   0.067   6.479  1.00  0.00    -0.206 F 
ATOM    105  C   UNL     1      -7.521   2.340   8.659  1.00  0.00     0.022 A 
BRANCH 102 106
ATOM    106  S   UNL     1      -8.310   4.999   8.494  1.00  0.00     0.124 S 
ATOM    107  O   UNL     1      -7.151   5.888   8.462  1.00  0.00    -0.237 OA
ATOM    108  O   UNL     1      -9.363   5.298   7.529  1.00  0.00    -0.237 OA
ATOM    109  O   UNL     1      -8.775   4.630   9.829  1.00  0.00    -0.744 OA
ENDBRANCH 102 106
ENDBRANCH  76  99
ENDBRANCH  50  51
ENDBRANCH  43  45
ENDBRANCH  42  43
ENDBRANCH  41  42
ENDBRANCH  40  41
ENDBRANCH  39  40
ENDBRANCH  38  39
ENDBRANCH  37  38
ENDBRANCH  36  37
ENDBRANCH   1  36
TORSDOF 27
