REMARK SMILES CC[N@@H+]1CCO[C@H](C[NH2+][C@@H]2CCC[C@H](C(=O)OCCOCCOCCOCCOC(=O)c3ccc(-c4c5nc(c(-c6cc(S(=O)(=O)[O-])ccc6F)c6ccc([nH]6)c(-c6cc(S(=O)(=O)[O-])ccc6F)c6nc(c(-c7cc(S(=O)(=O)[O-])ccc7F)c7ccc4[nH]7)C=C6)C=C5)cc3)C2)C1
REMARK SMILES IDX 22 1 21 2 20 3 19 4 18 5 17 6 15 7 16 8 14 9 10 10 11 11
REMARK SMILES IDX 95 12 12 13 13 14 9 15 8 18 7 19 3 20 4 21 96 22 5 24 6 25
REMARK SMILES IDX 2 26 1 27 23 28 24 29 25 30 26 31 27 32 28 33 29 34 30 35
REMARK SMILES IDX 31 36 32 37 33 38 94 39 34 40 93 41 35 42 36 43 37 44 87 45
REMARK SMILES IDX 38 46 92 47 86 48 88 49 39 50 91 51 85 52 84 53 40 55 72 56
REMARK SMILES IDX 52 57 71 58 53 59 56 60 70 61 89 62 54 63 55 64 69 66 90 67
REMARK SMILES IDX 57 68 41 69 42 70 50 71 43 72 49 73 51 74 48 75 44 76 45 77
REMARK SMILES IDX 46 78 47 79 73 80 74 81 82 82 75 83 81 84 83 85 80 86 76 87
REMARK SMILES IDX 77 88 78 89 79 90 58 91 59 92 67 93 60 94 66 95 68 96 65 97
REMARK SMILES IDX 61 98 62 99 63 100 64 101
REMARK H PARENT 9 16 9 17 3 23 88 54 56 65
REMARK Flexibility Score: inf
ROOT
ATOM      1  C   UNL     1      -1.292  -3.524  -4.889  1.00  0.00     0.188 C 
ENDROOT
BRANCH   1   2
ATOM      2  C   UNL     1      -0.640  -4.863  -4.520  1.00  0.00     0.188 C 
BRANCH   2   3
ATOM      3  O   UNL     1      -1.264  -5.779  -3.643  1.00  0.00    -0.376 OA
BRANCH   3   4
ATOM      4  C   UNL     1      -1.759  -5.436  -2.359  1.00  0.00     0.202 C 
BRANCH   4   5
ATOM      5  C   UNL     1      -1.170  -4.363  -1.425  1.00  0.00     0.261 C 
BRANCH   5   6
ATOM      6  O   UNL     1      -0.756  -3.123  -2.010  1.00  0.00    -0.463 OA
BRANCH   6   7
ATOM      7  C   UNL     1       0.555  -3.056  -2.314  1.00  0.00     0.309 C 
ATOM      8  O   UNL     1       1.359  -3.961  -2.096  1.00  0.00    -0.252 OA
BRANCH   7   9
ATOM      9  C   UNL     1       1.006  -1.727  -2.912  1.00  0.00     0.105 C 
ATOM     10  C   UNL     1       2.569   0.170  -2.050  1.00  0.00     0.183 C 
ATOM     11  C   UNL     1       1.554   1.195  -2.590  1.00  0.00     0.065 C 
ATOM     12  C   UNL     1       1.950  -1.208  -1.846  1.00  0.00     0.080 C 
ATOM     13  C   UNL     1       0.679   0.626  -3.704  1.00  0.00     0.007 C 
ATOM     14  C   UNL     1      -0.030  -0.651  -3.250  1.00  0.00     0.016 C 
BRANCH  10  15
ATOM     15  N   UNL     1       3.231   0.701  -0.843  1.00  0.00    -0.341 N 
ATOM     16  H   UNL     1       4.139   1.066  -1.129  1.00  0.00     0.346 HD
ATOM     17  H   UNL     1       2.577   1.390  -0.473  1.00  0.00     0.346 HD
BRANCH  15  18
ATOM     18  C   UNL     1       3.463  -0.225   0.273  1.00  0.00     0.299 C 
BRANCH  18  19
ATOM     19  C   UNL     1       3.403   0.342   1.717  1.00  0.00     0.227 C 
ATOM     20  N   UNL     1       1.064  -0.088   2.709  1.00  0.00    -0.331 N 
ATOM     21  C   UNL     1       0.961   1.360   2.867  1.00  0.00     0.291 C 
ATOM     22  C   UNL     1       2.473  -0.491   2.648  1.00  0.00     0.300 C 
ATOM     23  H   UNL     1       0.675  -0.492   3.561  1.00  0.00     0.348 HD
ATOM     24  C   UNL     1       1.801   2.151   1.855  1.00  0.00     0.222 C 
ATOM     25  O   UNL     1       3.176   1.758   1.805  1.00  0.00    -0.361 OA
BRANCH  20  26
ATOM     26  C   UNL     1       0.138  -0.747   1.790  1.00  0.00     0.258 C 
ATOM     27  C   UNL     1      -0.435   0.057   0.629  1.00  0.00     0.071 C 
ENDBRANCH  20  26
ENDBRANCH  18  19
ENDBRANCH  15  18
ENDBRANCH  10  15
ENDBRANCH   7   9
ENDBRANCH   6   7
ENDBRANCH   5   6
ENDBRANCH   4   5
ENDBRANCH   3   4
ENDBRANCH   2   3
ENDBRANCH   1   2
BRANCH   1  28
ATOM     28  O   UNL     1      -2.326  -3.078  -4.040  1.00  0.00    -0.377 OA
BRANCH  28  29
ATOM     29  C   UNL     1      -3.650  -3.547  -4.263  1.00  0.00     0.188 C 
BRANCH  29  30
ATOM     30  C   UNL     1      -3.883  -4.785  -5.150  1.00  0.00     0.188 C 
BRANCH  30  31
ATOM     31  O   UNL     1      -3.083  -4.837  -6.321  1.00  0.00    -0.376 OA
BRANCH  31  32
ATOM     32  C   UNL     1      -3.587  -4.287  -7.529  1.00  0.00     0.202 C 
BRANCH  32  33
ATOM     33  C   UNL     1      -3.974  -2.798  -7.557  1.00  0.00     0.261 C 
BRANCH  33  34
ATOM     34  O   UNL     1      -5.015  -2.382  -6.660  1.00  0.00    -0.460 OA
BRANCH  34  35
ATOM     35  C   UNL     1      -6.192  -3.039  -6.705  1.00  0.00     0.338 C 
ATOM     36  O   UNL     1      -6.510  -3.916  -7.492  1.00  0.00    -0.246 OA
BRANCH  35  37
ATOM     37  C   UNL     1      -6.963  -2.667  -5.502  1.00  0.00     0.060 A 
ATOM     38  C   UNL     1      -7.341  -3.671  -4.601  1.00  0.00     0.016 A 
ATOM     39  C   UNL     1      -7.317  -1.336  -5.267  1.00  0.00     0.016 A 
ATOM     40  C   UNL     1      -8.113  -3.354  -3.484  1.00  0.00     0.010 A 
ATOM     41  C   UNL     1      -8.112  -1.023  -4.162  1.00  0.00     0.010 A 
ATOM     42  C   UNL     1      -8.546  -2.037  -3.287  1.00  0.00    -0.014 A 
BRANCH  42  43
ATOM     43  C   UNL     1      -9.629  -1.763  -2.311  1.00  0.00     0.031 A 
ATOM     44  C   UNL     1     -11.037  -1.652  -2.831  1.00  0.00     0.074 A 
ATOM     45  C   UNL     1      -9.381  -1.656  -0.994  1.00  0.00     0.049 A 
ATOM     46  N   UNL     1     -12.142  -1.365  -2.193  1.00  0.00    -0.248 NA
ATOM     47  C   UNL     1     -11.217  -1.896  -4.271  1.00  0.00     0.031 C 
ATOM     48  C   UNL     1      -8.071  -1.813  -0.366  1.00  0.00     0.029 A 
ATOM     49  N   UNL     1     -10.227  -1.387   0.052  1.00  0.00    -0.354 N 
ATOM     50  C   UNL     1     -13.148  -1.390  -3.154  1.00  0.00     0.074 A 
ATOM     51  C   UNL     1     -12.512  -1.672  -4.423  1.00  0.00     0.031 C 
ATOM     52  C   UNL     1      -8.201  -1.634   0.960  1.00  0.00     0.029 A 
ATOM     53  C   UNL     1      -9.592  -1.303   1.269  1.00  0.00     0.049 A 
ATOM     54  H   UNL     1     -11.198  -1.266  -0.058  1.00  0.00     0.167 HD
ATOM     55  C   UNL     1     -14.482  -1.205  -2.991  1.00  0.00     0.034 A 
ATOM     56  C   UNL     1     -10.075  -0.970   2.483  1.00  0.00     0.034 A 
ATOM     57  C   UNL     1     -15.095  -0.904  -1.721  1.00  0.00     0.049 A 
ATOM     58  C   UNL     1     -11.546  -0.646   2.622  1.00  0.00     0.074 A 
ATOM     59  C   UNL     1     -16.433  -0.692  -1.439  1.00  0.00     0.029 A 
ATOM     60  N   UNL     1     -14.410  -0.756  -0.521  1.00  0.00    -0.354 N 
ATOM     61  N   UNL     1     -12.489  -0.662   1.707  1.00  0.00    -0.248 NA
ATOM     62  C   UNL     1     -12.016  -0.264   3.961  1.00  0.00     0.031 C 
ATOM     63  C   UNL     1     -16.546  -0.333  -0.092  1.00  0.00     0.029 A 
ATOM     64  C   UNL     1     -15.292  -0.417   0.494  1.00  0.00     0.049 A 
ATOM     65  H   UNL     1     -13.439  -0.875  -0.408  1.00  0.00     0.167 HD
ATOM     66  C   UNL     1     -13.669  -0.331   2.371  1.00  0.00     0.074 A 
ATOM     67  C   UNL     1     -13.319  -0.132   3.762  1.00  0.00     0.031 C 
ATOM     68  C   UNL     1     -14.930  -0.211   1.878  1.00  0.00     0.034 A 
BRANCH  55  69
ATOM     69  C   UNL     1     -15.344  -1.264  -4.230  1.00  0.00     0.023 A 
ATOM     70  C   UNL     1     -15.444  -2.431  -5.008  1.00  0.00     0.031 A 
ATOM     71  C   UNL     1     -16.037  -0.122  -4.668  1.00  0.00     0.131 A 
ATOM     72  C   UNL     1     -16.145  -2.405  -6.223  1.00  0.00     0.055 A 
ATOM     73  C   UNL     1     -16.811  -0.130  -5.830  1.00  0.00     0.041 A 
ATOM     74  F   UNL     1     -15.958   1.030  -3.984  1.00  0.00    -0.206 F 
ATOM     75  C   UNL     1     -16.854  -1.271  -6.625  1.00  0.00     0.022 A 
BRANCH  72  76
ATOM     76  S   UNL     1     -15.973  -3.815  -7.351  1.00  0.00     0.124 S 
ATOM     77  O   UNL     1     -14.526  -3.863  -7.544  1.00  0.00    -0.237 OA
ATOM     78  O   UNL     1     -16.552  -4.909  -6.579  1.00  0.00    -0.237 OA
ATOM     79  O   UNL     1     -16.738  -3.408  -8.528  1.00  0.00    -0.744 OA
ENDBRANCH  72  76
ENDBRANCH  55  69
BRANCH  56  80
ATOM     80  C   UNL     1      -9.166  -0.885   3.664  1.00  0.00     0.023 A 
ATOM     81  C   UNL     1      -9.351  -1.714   4.782  1.00  0.00     0.031 A 
ATOM     82  C   UNL     1      -8.135   0.070   3.717  1.00  0.00     0.131 A 
ATOM     83  C   UNL     1      -8.550  -1.542   5.922  1.00  0.00     0.055 A 
ATOM     84  C   UNL     1      -7.302   0.197   4.830  1.00  0.00     0.041 A 
ATOM     85  F   UNL     1      -7.918   0.894   2.680  1.00  0.00    -0.206 F 
ATOM     86  C   UNL     1      -7.516  -0.604   5.947  1.00  0.00     0.022 A 
BRANCH  83  87
ATOM     87  S   UNL     1      -8.942  -2.501   7.411  1.00  0.00     0.124 S 
ATOM     88  O   UNL     1     -10.316  -2.087   7.675  1.00  0.00    -0.237 OA
ATOM     89  O   UNL     1      -8.762  -3.871   6.944  1.00  0.00    -0.237 OA
ATOM     90  O   UNL     1      -7.952  -2.040   8.382  1.00  0.00    -0.744 OA
ENDBRANCH  83  87
ENDBRANCH  56  80
BRANCH  68  91
ATOM     91  C   UNL     1     -16.034   0.097   2.863  1.00  0.00     0.023 A 
ATOM     92  C   UNL     1     -16.089   1.312   3.567  1.00  0.00     0.031 A 
ATOM     93  C   UNL     1     -17.048  -0.849   3.103  1.00  0.00     0.131 A 
ATOM     94  C   UNL     1     -17.098   1.525   4.519  1.00  0.00     0.055 A 
ATOM     95  C   UNL     1     -18.090  -0.603   3.999  1.00  0.00     0.041 A 
ATOM     96  F   UNL     1     -17.047  -2.030   2.465  1.00  0.00    -0.206 F 
ATOM     97  C   UNL     1     -18.111   0.584   4.724  1.00  0.00     0.022 A 
BRANCH  94  98
ATOM     98  S   UNL     1     -17.011   3.003   5.567  1.00  0.00     0.124 S 
ATOM     99  O   UNL     1     -15.702   2.851   6.196  1.00  0.00    -0.237 OA
ATOM    100  O   UNL     1     -17.128   4.083   4.593  1.00  0.00    -0.237 OA
ATOM    101  O   UNL     1     -18.152   2.854   6.468  1.00  0.00    -0.744 OA
ENDBRANCH  94  98
ENDBRANCH  68  91
ENDBRANCH  42  43
ENDBRANCH  35  37
ENDBRANCH  34  35
ENDBRANCH  33  34
ENDBRANCH  32  33
ENDBRANCH  31  32
ENDBRANCH  30  31
ENDBRANCH  29  30
ENDBRANCH  28  29
ENDBRANCH   1  28
TORSDOF 27
