REMARK SMILES CC[NH2+][C@@]1(C(=O)OCCOCCOCCOCCOC(=O)c2ccc(-c3c4nc(c(-c5cc(S(=O)(=O)[O-])ccc5F)c5ccc([nH]5)c(-c5cc(S(=O)(=O)[O-])ccc5F)c5nc(c(-c6cc(S(=O)(=O)[O-])ccc6F)c6ccc3[nH]6)C=C5)C=C4)cc2)CC[C@H](Oc2ccc3c(c2)OCO3)C1
REMARK SMILES IDX 14 1 13 2 12 3 11 4 10 5 9 6 8 7 7 8 5 9 6 10 4 11 85 12
REMARK SMILES IDX 98 13 86 14 87 15 3 16 2 19 1 20 88 21 89 22 90 23 94 24
REMARK SMILES IDX 91 25 93 26 92 27 95 28 97 29 96 30 15 31 16 32 17 33 18 34
REMARK SMILES IDX 19 35 20 36 21 37 22 38 23 39 84 40 24 41 83 42 25 43 26 44
REMARK SMILES IDX 27 45 77 46 28 47 82 48 76 49 78 50 29 51 81 52 75 53 74 54
REMARK SMILES IDX 30 56 62 57 42 58 61 59 43 60 46 61 60 62 79 63 44 64 45 65
REMARK SMILES IDX 59 67 80 68 47 69 31 70 32 71 40 72 33 73 39 74 41 75 38 76
REMARK SMILES IDX 34 77 35 78 36 79 37 80 63 81 64 82 72 83 65 84 71 85 73 86
REMARK SMILES IDX 70 87 66 88 67 89 68 90 69 91 48 92 49 93 57 94 50 95 56 96
REMARK SMILES IDX 58 97 55 98 51 99 52 100 53 101 54 102
REMARK H PARENT 3 17 3 18 78 55 46 66
REMARK Flexibility Score: inf
ROOT
ATOM      1  C   UNL     1      -4.342   3.751   0.810  1.00  0.00     0.188 C 
ENDROOT
BRANCH   1   2
ATOM      2  O   UNL     1      -3.107   3.779   0.110  1.00  0.00    -0.377 OA
BRANCH   2   3
ATOM      3  C   UNL     1      -2.335   2.599   0.029  1.00  0.00     0.188 C 
BRANCH   3   4
ATOM      4  C   UNL     1      -1.876   1.969   1.345  1.00  0.00     0.188 C 
BRANCH   4   5
ATOM      5  O   UNL     1      -2.416   2.616   2.479  1.00  0.00    -0.376 OA
BRANCH   5   6
ATOM      6  C   UNL     1      -1.647   3.646   3.077  1.00  0.00     0.202 C 
BRANCH   6   7
ATOM      7  C   UNL     1      -0.941   4.754   2.260  1.00  0.00     0.261 C 
BRANCH   7   8
ATOM      8  O   UNL     1      -0.468   4.449   0.934  1.00  0.00    -0.459 OA
BRANCH   8   9
ATOM      9  C   UNL     1       0.806   4.042   0.781  1.00  0.00     0.368 C 
ATOM     10  O   UNL     1       1.557   3.800   1.726  1.00  0.00    -0.245 OA
BRANCH   9  11
ATOM     11  C   UNL     1       1.278   3.907  -0.721  1.00  0.00     0.198 C 
ATOM     12  C   UNL     1       2.206   5.123  -0.918  1.00  0.00     0.085 C 
ATOM     13  C   UNL     1       0.366   4.139  -1.949  1.00  0.00     0.126 C 
ATOM     14  C   UNL     1       1.219   6.269  -1.186  1.00  0.00     0.052 C 
ATOM     15  C   UNL     1       0.100   5.651  -2.031  1.00  0.00     0.180 C 
BRANCH  11  16
ATOM     16  N   UNL     1       2.001   2.596  -0.890  1.00  0.00    -0.332 N 
ATOM     17  H   UNL     1       2.201   2.455  -1.880  1.00  0.00     0.347 HD
ATOM     18  H   UNL     1       2.861   2.636  -0.343  1.00  0.00     0.347 HD
BRANCH  16  19
ATOM     19  C   UNL     1       1.200   1.462  -0.399  1.00  0.00     0.257 C 
ATOM     20  C   UNL     1       1.795   0.098  -0.705  1.00  0.00     0.071 C 
ENDBRANCH  16  19
ENDBRANCH  11  16
BRANCH  15  21
ATOM     21  O   UNL     1      -1.204   5.851  -1.500  1.00  0.00    -0.490 OA
BRANCH  21  22
ATOM     22  C   UNL     1      -1.831   7.057  -1.585  1.00  0.00     0.123 A 
ATOM     23  C   UNL     1      -1.262   8.266  -2.013  1.00  0.00     0.050 A 
ATOM     24  C   UNL     1      -3.162   7.029  -1.149  1.00  0.00     0.097 A 
ATOM     25  C   UNL     1      -2.005   9.455  -1.969  1.00  0.00     0.054 A 
ATOM     26  C   UNL     1      -3.875   8.206  -1.137  1.00  0.00     0.169 A 
ATOM     27  C   UNL     1      -3.310   9.390  -1.534  1.00  0.00     0.166 A 
ATOM     28  O   UNL     1      -5.169   8.353  -0.759  1.00  0.00    -0.453 OA
ATOM     29  O   UNL     1      -4.181  10.430  -1.464  1.00  0.00    -0.454 OA
ATOM     30  C   UNL     1      -5.392   9.741  -1.089  1.00  0.00     0.468 C 
ENDBRANCH  21  22
ENDBRANCH  15  21
ENDBRANCH   9  11
ENDBRANCH   8   9
ENDBRANCH   7   8
ENDBRANCH   6   7
ENDBRANCH   5   6
ENDBRANCH   4   5
ENDBRANCH   3   4
ENDBRANCH   2   3
ENDBRANCH   1   2
BRANCH   1  31
ATOM     31  C   UNL     1      -5.007   2.403   1.157  1.00  0.00     0.188 C 
BRANCH  31  32
ATOM     32  O   UNL     1      -4.627   1.315   0.328  1.00  0.00    -0.376 OA
BRANCH  32  33
ATOM     33  C   UNL     1      -5.475   0.980  -0.758  1.00  0.00     0.202 C 
BRANCH  33  34
ATOM     34  C   UNL     1      -5.664   2.024  -1.871  1.00  0.00     0.261 C 
BRANCH  34  35
ATOM     35  O   UNL     1      -6.218   3.291  -1.483  1.00  0.00    -0.460 OA
BRANCH  35  36
ATOM     36  C   UNL     1      -7.412   3.301  -0.853  1.00  0.00     0.338 C 
ATOM     37  O   UNL     1      -8.121   2.337  -0.612  1.00  0.00    -0.246 OA
BRANCH  36  38
ATOM     38  C   UNL     1      -7.627   4.663  -0.319  1.00  0.00     0.060 A 
ATOM     39  C   UNL     1      -7.709   4.854   1.068  1.00  0.00     0.016 A 
ATOM     40  C   UNL     1      -7.713   5.752  -1.185  1.00  0.00     0.016 A 
ATOM     41  C   UNL     1      -7.895   6.135   1.593  1.00  0.00     0.010 A 
ATOM     42  C   UNL     1      -7.935   7.027  -0.658  1.00  0.00     0.010 A 
ATOM     43  C   UNL     1      -8.046   7.226   0.732  1.00  0.00    -0.014 A 
BRANCH  43  44
ATOM     44  C   UNL     1      -8.517   8.535   1.255  1.00  0.00     0.031 A 
ATOM     45  C   UNL     1      -9.958   8.907   1.024  1.00  0.00     0.074 A 
ATOM     46  C   UNL     1      -7.701   9.381   1.913  1.00  0.00     0.049 A 
ATOM     47  N   UNL     1     -10.586  10.020   1.298  1.00  0.00    -0.248 NA
ATOM     48  C   UNL     1     -10.800   7.878   0.395  1.00  0.00     0.031 C 
ATOM     49  C   UNL     1      -6.302   9.123   2.254  1.00  0.00     0.029 A 
ATOM     50  N   UNL     1      -7.925  10.657   2.371  1.00  0.00    -0.354 N 
ATOM     51  C   UNL     1     -11.902   9.817   0.894  1.00  0.00     0.074 A 
ATOM     52  C   UNL     1     -11.959   8.506   0.286  1.00  0.00     0.031 C 
ATOM     53  C   UNL     1      -5.775  10.231   2.806  1.00  0.00     0.029 A 
ATOM     54  C   UNL     1      -6.794  11.278   2.851  1.00  0.00     0.049 A 
ATOM     55  H   UNL     1      -8.811  11.086   2.358  1.00  0.00     0.167 HD
ATOM     56  C   UNL     1     -12.972  10.635   1.044  1.00  0.00     0.034 A 
ATOM     57  C   UNL     1      -6.598  12.552   3.246  1.00  0.00     0.034 A 
ATOM     58  C   UNL     1     -12.899  11.947   1.637  1.00  0.00     0.049 A 
ATOM     59  C   UNL     1      -7.772  13.502   3.275  1.00  0.00     0.074 A 
ATOM     60  C   UNL     1     -13.925  12.846   1.869  1.00  0.00     0.029 A 
ATOM     61  N   UNL     1     -11.731  12.558   2.075  1.00  0.00    -0.354 N 
ATOM     62  N   UNL     1      -9.021  13.286   2.930  1.00  0.00    -0.248 NA
ATOM     63  C   UNL     1      -7.515  14.857   3.780  1.00  0.00     0.031 C 
ATOM     64  C   UNL     1     -13.367  14.029   2.365  1.00  0.00     0.029 A 
ATOM     65  C   UNL     1     -12.005  13.838   2.533  1.00  0.00     0.049 A 
ATOM     66  H   UNL     1     -10.838  12.143   2.063  1.00  0.00     0.167 HD
ATOM     67  C   UNL     1      -9.707  14.462   3.230  1.00  0.00     0.074 A 
ATOM     68  C   UNL     1      -8.733  15.378   3.785  1.00  0.00     0.031 C 
ATOM     69  C   UNL     1     -11.026  14.752   3.075  1.00  0.00     0.034 A 
BRANCH  56  70
ATOM     70  C   UNL     1     -14.300  10.139   0.524  1.00  0.00     0.023 A 
ATOM     71  C   UNL     1     -14.916   8.988   1.049  1.00  0.00     0.031 A 
ATOM     72  C   UNL     1     -14.946  10.806  -0.531  1.00  0.00     0.131 A 
ATOM     73  C   UNL     1     -16.096   8.499   0.471  1.00  0.00     0.055 A 
ATOM     74  C   UNL     1     -16.165  10.363  -1.045  1.00  0.00     0.041 A 
ATOM     75  F   UNL     1     -14.394  11.894  -1.091  1.00  0.00    -0.206 F 
ATOM     76  C   UNL     1     -16.740   9.194  -0.555  1.00  0.00     0.022 A 
BRANCH  73  77
ATOM     77  S   UNL     1     -16.696   6.863   0.976  1.00  0.00     0.124 S 
ATOM     78  O   UNL     1     -15.550   6.016   0.652  1.00  0.00    -0.237 OA
ATOM     79  O   UNL     1     -16.970   7.052   2.396  1.00  0.00    -0.237 OA
ATOM     80  O   UNL     1     -17.873   6.655   0.134  1.00  0.00    -0.744 OA
ENDBRANCH  73  77
ENDBRANCH  56  70
BRANCH  57  81
ATOM     81  C   UNL     1      -5.235  13.028   3.623  1.00  0.00     0.023 A 
ATOM     82  C   UNL     1      -4.948  13.457   4.928  1.00  0.00     0.031 A 
ATOM     83  C   UNL     1      -4.217  13.129   2.658  1.00  0.00     0.131 A 
ATOM     84  C   UNL     1      -3.694  14.015   5.223  1.00  0.00     0.055 A 
ATOM     85  C   UNL     1      -2.953  13.635   2.968  1.00  0.00     0.041 A 
ATOM     86  F   UNL     1      -4.441  12.738   1.393  1.00  0.00    -0.206 F 
ATOM     87  C   UNL     1      -2.690  14.095   4.255  1.00  0.00     0.022 A 
BRANCH  84  88
ATOM     88  S   UNL     1      -3.425  14.721   6.872  1.00  0.00     0.124 S 
ATOM     89  O   UNL     1      -4.481  15.724   6.941  1.00  0.00    -0.237 OA
ATOM     90  O   UNL     1      -3.591  13.554   7.731  1.00  0.00    -0.237 OA
ATOM     91  O   UNL     1      -2.064  15.249   6.799  1.00  0.00    -0.744 OA
ENDBRANCH  84  88
ENDBRANCH  57  81
BRANCH  69  92
ATOM     92  C   UNL     1     -11.499  16.099   3.571  1.00  0.00     0.023 A 
ATOM     93  C   UNL     1     -11.041  17.302   3.006  1.00  0.00     0.031 A 
ATOM     94  C   UNL     1     -12.400  16.180   4.649  1.00  0.00     0.131 A 
ATOM     95  C   UNL     1     -11.424  18.530   3.567  1.00  0.00     0.055 A 
ATOM     96  C   UNL     1     -12.839  17.406   5.153  1.00  0.00     0.041 A 
ATOM     97  F   UNL     1     -12.869  15.067   5.234  1.00  0.00    -0.206 F 
ATOM     98  C   UNL     1     -12.337  18.590   4.623  1.00  0.00     0.022 A 
BRANCH  95  99
ATOM     99  S   UNL     1     -10.613  20.043   2.982  1.00  0.00     0.124 S 
ATOM    100  O   UNL     1      -9.205  19.742   3.223  1.00  0.00    -0.237 OA
ATOM    101  O   UNL     1     -11.023  20.094   1.582  1.00  0.00    -0.237 OA
ATOM    102  O   UNL     1     -11.180  21.087   3.833  1.00  0.00    -0.744 OA
ENDBRANCH  95  99
ENDBRANCH  69  92
ENDBRANCH  43  44
ENDBRANCH  36  38
ENDBRANCH  35  36
ENDBRANCH  34  35
ENDBRANCH  33  34
ENDBRANCH  32  33
ENDBRANCH  31  32
ENDBRANCH   1  31
TORSDOF 27
