REMARK SMILES Cc1ccc(C#N)cc1S(=O)(=O)Nc1cccc(C(=O)OCCOCCOCCOCCOC(=O)c2ccc(-c3c4nc(c(-c5cc(S(=O)(=O)[O-])ccc5F)c5ccc([nH]5)c(-c5cc(S(=O)(=O)[O-])ccc5F)c5nc(c(-c6cc(S(=O)(=O)[O-])ccc6F)c6ccc3[nH]6)C=C5)C=C4)cc2)c1
REMARK SMILES IDX 26 1 25 2 24 3 23 4 22 5 21 6 19 7 20 8 18 9 14 10 15 11
REMARK SMILES IDX 99 12 16 13 17 14 13 15 10 17 11 18 12 19 9 20 1 21 2 22
REMARK SMILES IDX 3 23 4 24 8 25 5 26 6 27 7 28 27 29 28 30 29 31 30 32 31 33
REMARK SMILES IDX 32 34 33 35 34 36 35 37 36 38 37 39 98 40 38 41 97 42 39 43
REMARK SMILES IDX 40 44 41 45 91 46 42 47 96 48 90 49 92 50 43 51 95 52 89 53
REMARK SMILES IDX 88 54 44 56 76 57 56 58 75 59 57 60 60 61 74 62 93 63 58 64
REMARK SMILES IDX 59 65 73 67 94 68 61 69 45 70 46 71 54 72 47 73 53 74 55 75
REMARK SMILES IDX 52 76 48 77 49 78 50 79 51 80 77 81 78 82 86 83 79 84 85 85
REMARK SMILES IDX 87 86 84 87 80 88 81 89 82 90 83 91 62 92 63 93 71 94 64 95
REMARK SMILES IDX 70 96 72 97 69 98 65 99 66 100 67 101 68 102
REMARK H PARENT 13 16 92 55 60 66
REMARK Flexibility Score: inf
ROOT
ATOM      1  C   UNL     1      -1.776  -0.117   3.078  1.00  0.00     0.188 C 
ENDROOT
BRANCH   1   2
ATOM      2  C   UNL     1      -1.173  -0.609   4.407  1.00  0.00     0.188 C 
BRANCH   2   3
ATOM      3  O   UNL     1      -1.849  -0.224   5.578  1.00  0.00    -0.376 OA
BRANCH   3   4
ATOM      4  C   UNL     1      -1.534   0.957   6.286  1.00  0.00     0.202 C 
BRANCH   4   5
ATOM      5  C   UNL     1      -0.891   2.213   5.671  1.00  0.00     0.261 C 
BRANCH   5   6
ATOM      6  O   UNL     1      -0.257   2.090   4.395  1.00  0.00    -0.460 OA
BRANCH   6   7
ATOM      7  C   UNL     1       1.045   1.729   4.411  1.00  0.00     0.338 C 
ATOM      8  O   UNL     1       1.698   1.441   5.401  1.00  0.00    -0.246 OA
BRANCH   7   9
ATOM      9  C   UNL     1       1.546   1.545   3.021  1.00  0.00     0.062 A 
ATOM     10  C   UNL     1       1.411   1.862   0.612  1.00  0.00     0.050 A 
ATOM     11  C   UNL     1       2.520   1.030   0.445  1.00  0.00     0.027 A 
ATOM     12  C   UNL     1       0.971   2.176   1.909  1.00  0.00     0.042 A 
ATOM     13  C   UNL     1       3.080   0.384   1.551  1.00  0.00     0.003 A 
ATOM     14  C   UNL     1       2.571   0.613   2.828  1.00  0.00     0.016 A 
BRANCH  10  15
ATOM     15  N   UNL     1       0.536   2.220  -0.452  1.00  0.00    -0.280 N 
ATOM     16  H   UNL     1      -0.222   2.800  -0.209  1.00  0.00     0.180 HD
BRANCH  15  17
ATOM     17  S   UNL     1       0.630   1.782  -2.053  1.00  0.00     0.262 S 
ATOM     18  O   UNL     1       1.981   2.017  -2.520  1.00  0.00    -0.201 OA
ATOM     19  O   UNL     1      -0.489   2.456  -2.682  1.00  0.00    -0.201 OA
BRANCH  17  20
ATOM     20  C   UNL     1       0.320   0.029  -2.328  1.00  0.00     0.092 A 
ATOM     21  C   UNL     1      -0.066  -0.838   0.085  1.00  0.00     0.046 C 
ATOM     22  C   UNL     1       0.165  -0.995  -1.380  1.00  0.00    -0.030 A 
ATOM     23  C   UNL     1       0.197  -2.337  -1.823  1.00  0.00     0.006 A 
ATOM     24  C   UNL     1       0.243  -2.660  -3.175  1.00  0.00     0.020 A 
ATOM     25  C   UNL     1       0.309  -0.312  -3.702  1.00  0.00     0.042 A 
ATOM     26  C   UNL     1       0.250  -1.644  -4.124  1.00  0.00     0.053 A 
BRANCH  26  27
ATOM     27  C   UNL     1       0.211  -1.979  -5.514  1.00  0.00     0.099 C 
ATOM     28  N   UNL     1       0.173  -2.292  -6.636  1.00  0.00    -0.192 NA
ENDBRANCH  26  27
ENDBRANCH  17  20
ENDBRANCH  15  17
ENDBRANCH  10  15
ENDBRANCH   7   9
ENDBRANCH   6   7
ENDBRANCH   5   6
ENDBRANCH   4   5
ENDBRANCH   3   4
ENDBRANCH   2   3
ENDBRANCH   1   2
BRANCH   1  29
ATOM     29  O   UNL     1      -2.690   0.961   3.037  1.00  0.00    -0.377 OA
BRANCH  29  30
ATOM     30  C   UNL     1      -3.826   0.995   3.892  1.00  0.00     0.188 C 
BRANCH  30  31
ATOM     31  C   UNL     1      -4.425  -0.279   4.532  1.00  0.00     0.188 C 
BRANCH  31  32
ATOM     32  O   UNL     1      -3.824  -1.482   4.105  1.00  0.00    -0.376 OA
BRANCH  32  33
ATOM     33  C   UNL     1      -4.471  -2.312   3.168  1.00  0.00     0.202 C 
BRANCH  33  34
ATOM     34  C   UNL     1      -5.094  -1.746   1.884  1.00  0.00     0.261 C 
BRANCH  34  35
ATOM     35  O   UNL     1      -5.656  -0.433   1.939  1.00  0.00    -0.460 OA
BRANCH  35  36
ATOM     36  C   UNL     1      -6.885  -0.300   2.494  1.00  0.00     0.338 C 
ATOM     37  O   UNL     1      -7.550  -1.178   3.010  1.00  0.00    -0.246 OA
BRANCH  36  38
ATOM     38  C   UNL     1      -7.173   1.153   2.537  1.00  0.00     0.060 A 
ATOM     39  C   UNL     1      -7.196   1.889   1.352  1.00  0.00     0.016 A 
ATOM     40  C   UNL     1      -7.340   1.794   3.773  1.00  0.00     0.016 A 
ATOM     41  C   UNL     1      -7.403   3.269   1.404  1.00  0.00     0.010 A 
ATOM     42  C   UNL     1      -7.537   3.179   3.822  1.00  0.00     0.010 A 
ATOM     43  C   UNL     1      -7.593   3.924   2.636  1.00  0.00    -0.014 A 
BRANCH  43  44
ATOM     44  C   UNL     1      -8.047   5.339   2.646  1.00  0.00     0.031 A 
ATOM     45  C   UNL     1      -7.154   6.474   3.046  1.00  0.00     0.074 A 
ATOM     46  C   UNL     1      -9.319   5.583   2.275  1.00  0.00     0.049 A 
ATOM     47  N   UNL     1      -7.399   7.759   2.999  1.00  0.00    -0.248 NA
ATOM     48  C   UNL     1      -5.826   6.134   3.575  1.00  0.00     0.031 C 
ATOM     49  C   UNL     1     -10.286   4.546   1.913  1.00  0.00     0.029 A 
ATOM     50  N   UNL     1     -10.015   6.756   2.126  1.00  0.00    -0.354 N 
ATOM     51  C   UNL     1      -6.254   8.388   3.473  1.00  0.00     0.074 A 
ATOM     52  C   UNL     1      -5.332   7.336   3.851  1.00  0.00     0.031 C 
ATOM     53  C   UNL     1     -11.433   5.128   1.542  1.00  0.00     0.029 A 
ATOM     54  C   UNL     1     -11.307   6.576   1.688  1.00  0.00     0.049 A 
ATOM     55  H   UNL     1      -9.628   7.641   2.315  1.00  0.00     0.167 HD
ATOM     56  C   UNL     1      -6.000   9.717   3.561  1.00  0.00     0.034 A 
ATOM     57  C   UNL     1     -12.285   7.468   1.428  1.00  0.00     0.034 A 
ATOM     58  C   UNL     1      -6.944  10.745   3.183  1.00  0.00     0.049 A 
ATOM     59  C   UNL     1     -11.983   8.937   1.552  1.00  0.00     0.074 A 
ATOM     60  C   UNL     1      -6.752  12.116   3.179  1.00  0.00     0.029 A 
ATOM     61  N   UNL     1      -8.248  10.530   2.756  1.00  0.00    -0.354 N 
ATOM     62  N   UNL     1     -10.854   9.518   1.885  1.00  0.00    -0.248 NA
ATOM     63  C   UNL     1     -13.072   9.875   1.250  1.00  0.00     0.031 C 
ATOM     64  C   UNL     1      -7.960  12.729   2.850  1.00  0.00     0.029 A 
ATOM     65  C   UNL     1      -8.882  11.744   2.535  1.00  0.00     0.049 A 
ATOM     66  H   UNL     1      -8.662   9.645   2.630  1.00  0.00     0.167 HD
ATOM     67  C   UNL     1     -11.089  10.888   1.805  1.00  0.00     0.074 A 
ATOM     68  C   UNL     1     -12.459  11.047   1.365  1.00  0.00     0.031 C 
ATOM     69  C   UNL     1     -10.244  11.913   2.078  1.00  0.00     0.034 A 
BRANCH  56  70
ATOM     70  C   UNL     1      -4.648  10.178   4.060  1.00  0.00     0.023 A 
ATOM     71  C   UNL     1      -4.563  11.023   5.186  1.00  0.00     0.031 A 
ATOM     72  C   UNL     1      -3.474   9.942   3.323  1.00  0.00     0.131 A 
ATOM     73  C   UNL     1      -3.348  11.642   5.506  1.00  0.00     0.055 A 
ATOM     74  C   UNL     1      -2.253  10.518   3.680  1.00  0.00     0.041 A 
ATOM     75  F   UNL     1      -3.498   9.155   2.235  1.00  0.00    -0.206 F 
ATOM     76  C   UNL     1      -2.191  11.386   4.765  1.00  0.00     0.022 A 
BRANCH  73  77
ATOM     77  S   UNL     1      -3.244  12.878   6.830  1.00  0.00     0.124 S 
ATOM     78  O   UNL     1      -2.245  12.283   7.716  1.00  0.00    -0.237 OA
ATOM     79  O   UNL     1      -2.804  14.066   6.104  1.00  0.00    -0.237 OA
ATOM     80  O   UNL     1      -4.598  12.931   7.369  1.00  0.00    -0.744 OA
ENDBRANCH  73  77
ENDBRANCH  56  70
BRANCH  57  81
ATOM     81  C   UNL     1     -13.613   6.965   0.967  1.00  0.00     0.023 A 
ATOM     82  C   UNL     1     -14.364   6.091   1.774  1.00  0.00     0.031 A 
ATOM     83  C   UNL     1     -14.086   7.242  -0.325  1.00  0.00     0.131 A 
ATOM     84  C   UNL     1     -15.497   5.457   1.249  1.00  0.00     0.055 A 
ATOM     85  C   UNL     1     -15.266   6.676  -0.814  1.00  0.00     0.041 A 
ATOM     86  F   UNL     1     -13.397   8.057  -1.139  1.00  0.00    -0.206 F 
ATOM     87  C   UNL     1     -15.966   5.761  -0.032  1.00  0.00     0.022 A 
BRANCH  84  88
ATOM     88  S   UNL     1     -16.302   4.106   2.153  1.00  0.00     0.124 S 
ATOM     89  O   UNL     1     -17.669   4.600   2.285  1.00  0.00    -0.237 OA
ATOM     90  O   UNL     1     -16.121   2.986   1.232  1.00  0.00    -0.237 OA
ATOM     91  O   UNL     1     -15.540   4.018   3.393  1.00  0.00    -0.744 OA
ENDBRANCH  84  88
ENDBRANCH  57  81
BRANCH  69  92
ATOM     92  C   UNL     1     -10.736  13.335   1.908  1.00  0.00     0.023 A 
ATOM     93  C   UNL     1     -10.065  14.207   1.028  1.00  0.00     0.031 A 
ATOM     94  C   UNL     1     -11.742  13.873   2.730  1.00  0.00     0.131 A 
ATOM     95  C   UNL     1     -10.362  15.576   1.036  1.00  0.00     0.055 A 
ATOM     96  C   UNL     1     -12.081  15.227   2.686  1.00  0.00     0.041 A 
ATOM     97  F   UNL     1     -12.405  13.091   3.598  1.00  0.00    -0.206 F 
ATOM     98  C   UNL     1     -11.376  16.088   1.851  1.00  0.00     0.022 A 
BRANCH  95  99
ATOM     99  S   UNL     1      -9.367  16.756   0.081  1.00  0.00     0.124 S 
ATOM    100  O   UNL     1     -10.373  17.371  -0.782  1.00  0.00    -0.237 OA
ATOM    101  O   UNL     1      -8.831  17.621   1.128  1.00  0.00    -0.237 OA
ATOM    102  O   UNL     1      -8.389  15.918  -0.605  1.00  0.00    -0.744 OA
ENDBRANCH  95  99
ENDBRANCH  69  92
ENDBRANCH  43  44
ENDBRANCH  36  38
ENDBRANCH  35  36
ENDBRANCH  34  35
ENDBRANCH  33  34
ENDBRANCH  32  33
ENDBRANCH  31  32
ENDBRANCH  30  31
ENDBRANCH  29  30
ENDBRANCH   1  29
TORSDOF 27
