REMARK SMILES CCCC[C@H](C(=O)OCCOCCOCCOCCOC(=O)c1ccc(-c2c3nc(c(-c4cc(S(=O)(=O)[O-])ccc4F)c4ccc([nH]4)c(-c4cc(S(=O)(=O)[O-])ccc4F)c4nc(c(-c5cc(S(=O)(=O)[O-])ccc5F)c5ccc2[nH]5)C=C4)C=C3)cc1)N1C(=O)/C(=C/c2ccc(C)cc2)SC1=S
REMARK SMILES IDX 14 1 13 2 12 3 11 4 10 5 9 6 8 7 6 8 7 9 5 10 4 11 3 12 2 13
REMARK SMILES IDX 1 14 86 15 87 16 99 17 88 18 89 19 98 20 100 21 90 22 91 23
REMARK SMILES IDX 92 24 97 25 93 26 96 27 94 28 95 29 15 30 16 31 17 32 18 33
REMARK SMILES IDX 19 34 20 35 21 36 22 37 23 38 24 39 85 40 25 41 84 42 26 43
REMARK SMILES IDX 27 44 28 45 78 46 29 47 83 48 77 49 79 50 30 51 82 52 76 53
REMARK SMILES IDX 75 54 31 56 63 57 43 58 62 59 44 60 47 61 61 62 80 63 45 64
REMARK SMILES IDX 46 65 60 67 81 68 48 69 32 70 33 71 41 72 34 73 40 74 42 75
REMARK SMILES IDX 39 76 35 77 36 78 37 79 38 80 64 81 65 82 73 83 66 84 72 85
REMARK SMILES IDX 74 86 71 87 67 88 68 89 69 90 70 91 49 92 50 93 58 94 51 95
REMARK SMILES IDX 57 96 59 97 56 98 52 99 53 100 54 101 55 102
REMARK H PARENT 79 55 47 66
REMARK Flexibility Score: inf
ROOT
ATOM      1  O   UNL     1       1.194   1.282   4.198  1.00  0.00    -0.377 OA
ENDROOT
BRANCH   1   2
ATOM      2  C   UNL     1       1.478   0.280   5.169  1.00  0.00     0.188 C 
BRANCH   2   3
ATOM      3  C   UNL     1       1.932  -1.076   4.626  1.00  0.00     0.188 C 
BRANCH   3   4
ATOM      4  O   UNL     1       3.186  -1.136   3.962  1.00  0.00    -0.376 OA
BRANCH   4   5
ATOM      5  C   UNL     1       3.343  -0.441   2.728  1.00  0.00     0.202 C 
BRANCH   5   6
ATOM      6  C   UNL     1       2.262  -0.601   1.647  1.00  0.00     0.261 C 
BRANCH   6   7
ATOM      7  O   UNL     1       0.941  -0.206   2.083  1.00  0.00    -0.462 OA
BRANCH   7   8
ATOM      8  C   UNL     1      -0.037  -1.118   1.874  1.00  0.00     0.329 C 
ATOM      9  O   UNL     1       0.145  -2.163   1.249  1.00  0.00    -0.250 OA
BRANCH   8  10
ATOM     10  C   UNL     1      -1.432  -0.768   2.461  1.00  0.00     0.202 C 
BRANCH  10  11
ATOM     11  C   UNL     1      -1.972  -2.088   3.087  1.00  0.00     0.038 C 
BRANCH  11  12
ATOM     12  C   UNL     1      -3.493  -2.163   3.249  1.00  0.00     0.002 C 
BRANCH  12  13
ATOM     13  C   UNL     1      -4.280  -1.938   1.957  1.00  0.00    -0.003 C 
ATOM     14  C   UNL     1      -3.856  -2.859   0.821  1.00  0.00     0.004 C 
ENDBRANCH  12  13
ENDBRANCH  11  12
ENDBRANCH  10  11
BRANCH  10  15
ATOM     15  N   UNL     1      -1.673   0.465   3.280  1.00  0.00    -0.278 N 
ATOM     16  C   UNL     1      -1.933   0.428   4.644  1.00  0.00     0.266 C 
ATOM     17  C   UNL     1      -1.750   1.730   2.718  1.00  0.00     0.149 C 
ATOM     18  O   UNL     1      -1.857  -0.541   5.389  1.00  0.00    -0.268 OA
ATOM     19  C   UNL     1      -2.379   1.760   5.161  1.00  0.00     0.081 C 
ATOM     20  S   UNL     1      -2.193   2.933   3.935  1.00  0.00    -0.054 SA
ATOM     21  S   UNL     1      -1.544   2.168   1.120  1.00  0.00    -0.052 S 
ATOM     22  C   UNL     1      -2.835   1.902   6.419  1.00  0.00     0.029 C 
BRANCH  22  23
ATOM     23  C   UNL     1      -3.270   3.104   7.162  1.00  0.00    -0.024 A 
ATOM     24  C   UNL     1      -2.922   3.199   8.519  1.00  0.00     0.008 A 
ATOM     25  C   UNL     1      -4.060   4.121   6.617  1.00  0.00     0.008 A 
ATOM     26  C   UNL     1      -3.285   4.311   9.287  1.00  0.00     0.004 A 
ATOM     27  C   UNL     1      -4.421   5.241   7.384  1.00  0.00     0.004 A 
ATOM     28  C   UNL     1      -4.018   5.356   8.719  1.00  0.00    -0.051 A 
ATOM     29  C   UNL     1      -4.353   6.571   9.535  1.00  0.00     0.044 C 
ENDBRANCH  22  23
ENDBRANCH  10  15
ENDBRANCH   8  10
ENDBRANCH   7   8
ENDBRANCH   6   7
ENDBRANCH   5   6
ENDBRANCH   4   5
ENDBRANCH   3   4
ENDBRANCH   2   3
ENDBRANCH   1   2
BRANCH   1  30
ATOM     30  C   UNL     1       2.095   2.385   4.048  1.00  0.00     0.188 C 
BRANCH  30  31
ATOM     31  C   UNL     1       3.135   2.597   5.154  1.00  0.00     0.188 C 
BRANCH  31  32
ATOM     32  O   UNL     1       2.656   2.835   6.483  1.00  0.00    -0.376 OA
BRANCH  32  33
ATOM     33  C   UNL     1       1.323   3.303   6.658  1.00  0.00     0.202 C 
BRANCH  33  34
ATOM     34  C   UNL     1       1.124   4.813   6.533  1.00  0.00     0.261 C 
BRANCH  34  35
ATOM     35  O   UNL     1       1.534   5.328   5.261  1.00  0.00    -0.460 OA
BRANCH  35  36
ATOM     36  C   UNL     1       2.808   5.797   5.218  1.00  0.00     0.338 C 
ATOM     37  O   UNL     1       3.613   5.834   6.126  1.00  0.00    -0.246 OA
BRANCH  36  38
ATOM     38  C   UNL     1       3.132   6.128   3.817  1.00  0.00     0.060 A 
ATOM     39  C   UNL     1       4.288   5.583   3.243  1.00  0.00     0.016 A 
ATOM     40  C   UNL     1       2.320   7.003   3.095  1.00  0.00     0.016 A 
ATOM     41  C   UNL     1       4.639   5.915   1.937  1.00  0.00     0.010 A 
ATOM     42  C   UNL     1       2.688   7.358   1.799  1.00  0.00     0.010 A 
ATOM     43  C   UNL     1       3.856   6.830   1.224  1.00  0.00    -0.014 A 
BRANCH  43  44
ATOM     44  C   UNL     1       4.327   7.366  -0.070  1.00  0.00     0.031 A 
ATOM     45  C   UNL     1       5.005   8.703  -0.085  1.00  0.00     0.074 A 
ATOM     46  C   UNL     1       4.123   6.681  -1.207  1.00  0.00     0.049 A 
ATOM     47  N   UNL     1       5.359   9.444  -1.101  1.00  0.00    -0.248 NA
ATOM     48  C   UNL     1       5.314   9.286   1.230  1.00  0.00     0.031 C 
ATOM     49  C   UNL     1       3.537   5.344  -1.292  1.00  0.00     0.029 A 
ATOM     50  N   UNL     1       4.370   7.027  -2.510  1.00  0.00    -0.354 N 
ATOM     51  C   UNL     1       5.926  10.588  -0.551  1.00  0.00     0.074 A 
ATOM     52  C   UNL     1       5.833  10.454   0.888  1.00  0.00     0.031 C 
ATOM     53  C   UNL     1       3.450   4.991  -2.585  1.00  0.00     0.029 A 
ATOM     54  C   UNL     1       3.919   6.098  -3.417  1.00  0.00     0.049 A 
ATOM     55  H   UNL     1       4.825   7.860  -2.770  1.00  0.00     0.167 HD
ATOM     56  C   UNL     1       6.474  11.647  -1.194  1.00  0.00     0.034 A 
ATOM     57  C   UNL     1       3.851   6.162  -4.761  1.00  0.00     0.034 A 
ATOM     58  C   UNL     1       6.525  11.763  -2.631  1.00  0.00     0.049 A 
ATOM     59  C   UNL     1       4.333   7.414  -5.454  1.00  0.00     0.074 A 
ATOM     60  C   UNL     1       7.061  12.782  -3.396  1.00  0.00     0.029 A 
ATOM     61  N   UNL     1       5.996  10.835  -3.520  1.00  0.00    -0.354 N 
ATOM     62  N   UNL     1       4.872   8.493  -4.933  1.00  0.00    -0.248 NA
ATOM     63  C   UNL     1       4.189   7.460  -6.915  1.00  0.00     0.031 C 
ATOM     64  C   UNL     1       6.779  12.514  -4.740  1.00  0.00     0.029 A 
ATOM     65  C   UNL     1       6.146  11.283  -4.823  1.00  0.00     0.049 A 
ATOM     66  H   UNL     1       5.576   9.982  -3.262  1.00  0.00     0.167 HD
ATOM     67  C   UNL     1       5.153   9.335  -6.006  1.00  0.00     0.074 A 
ATOM     68  C   UNL     1       4.737   8.633  -7.203  1.00  0.00     0.031 C 
ATOM     69  C   UNL     1       5.707  10.575  -6.004  1.00  0.00     0.034 A 
BRANCH  56  70
ATOM     70  C   UNL     1       6.995  12.779  -0.342  1.00  0.00     0.023 A 
ATOM     71  C   UNL     1       8.042  12.591   0.577  1.00  0.00     0.031 A 
ATOM     72  C   UNL     1       6.401  14.052  -0.409  1.00  0.00     0.131 A 
ATOM     73  C   UNL     1       8.402  13.628   1.451  1.00  0.00     0.055 A 
ATOM     74  C   UNL     1       6.827  15.107   0.400  1.00  0.00     0.041 A 
ATOM     75  F   UNL     1       5.379  14.287  -1.246  1.00  0.00    -0.206 F 
ATOM     76  C   UNL     1       7.820  14.893   1.351  1.00  0.00     0.022 A 
BRANCH  73  77
ATOM     77  S   UNL     1       9.511  13.245   2.834  1.00  0.00     0.124 S 
ATOM     78  O   UNL     1       8.789  12.163   3.501  1.00  0.00    -0.237 OA
ATOM     79  O   UNL     1      10.744  12.865   2.153  1.00  0.00    -0.237 OA
ATOM     80  O   UNL     1       9.571  14.498   3.583  1.00  0.00    -0.744 OA
ENDBRANCH  73  77
ENDBRANCH  56  70
BRANCH  57  81
ATOM     81  C   UNL     1       3.260   5.037  -5.539  1.00  0.00     0.023 A 
ATOM     82  C   UNL     1       4.034   4.319  -6.463  1.00  0.00     0.031 A 
ATOM     83  C   UNL     1       1.905   4.686  -5.400  1.00  0.00     0.131 A 
ATOM     84  C   UNL     1       3.440   3.312  -7.239  1.00  0.00     0.055 A 
ATOM     85  C   UNL     1       1.333   3.644  -6.132  1.00  0.00     0.041 A 
ATOM     86  F   UNL     1       1.117   5.346  -4.536  1.00  0.00    -0.206 F 
ATOM     87  C   UNL     1       2.100   2.957  -7.067  1.00  0.00     0.022 A 
BRANCH  84  88
ATOM     88  S   UNL     1       4.430   2.526  -8.538  1.00  0.00     0.124 S 
ATOM     89  O   UNL     1       4.784   3.669  -9.372  1.00  0.00    -0.237 OA
ATOM     90  O   UNL     1       5.518   1.929  -7.771  1.00  0.00    -0.237 OA
ATOM     91  O   UNL     1       3.502   1.574  -9.144  1.00  0.00    -0.744 OA
ENDBRANCH  84  88
ENDBRANCH  57  81
BRANCH  69  92
ATOM     92  C   UNL     1       5.919  11.239  -7.343  1.00  0.00     0.023 A 
ATOM     93  C   UNL     1       4.839  11.657  -8.139  1.00  0.00     0.031 A 
ATOM     94  C   UNL     1       7.222  11.479  -7.816  1.00  0.00     0.131 A 
ATOM     95  C   UNL     1       5.080  12.258  -9.384  1.00  0.00     0.055 A 
ATOM     96  C   UNL     1       7.456  12.134  -9.026  1.00  0.00     0.041 A 
ATOM     97  F   UNL     1       8.291  11.097  -7.099  1.00  0.00    -0.206 F 
ATOM     98  C   UNL     1       6.381  12.519  -9.822  1.00  0.00     0.022 A 
BRANCH  95  99
ATOM     99  S   UNL     1       3.668  12.630 -10.459  1.00  0.00     0.124 S 
ATOM    100  O   UNL     1       3.094  11.306 -10.674  1.00  0.00    -0.237 OA
ATOM    101  O   UNL     1       2.879  13.542  -9.638  1.00  0.00    -0.237 OA
ATOM    102  O   UNL     1       4.286  13.236 -11.638  1.00  0.00    -0.744 OA
ENDBRANCH  95  99
ENDBRANCH  69  92
ENDBRANCH  43  44
ENDBRANCH  36  38
ENDBRANCH  35  36
ENDBRANCH  34  35
ENDBRANCH  33  34
ENDBRANCH  32  33
ENDBRANCH  31  32
ENDBRANCH  30  31
ENDBRANCH   1  30
TORSDOF 28
