REMARK SMILES O=C(COc1cc(-c2ccccc2)nc(Nc2ccccc2Br)n1)OCCOCCOCCOCCOC(=O)c1ccc(-c2c3nc(c(-c4cc(S(=O)(=O)[O-])ccc4F)c4ccc([nH]4)c(-c4cc(S(=O)(=O)[O-])ccc4F)c4nc(c(-c5cc(S(=O)(=O)[O-])ccc5F)c5ccc2[nH]5)C=C4)C=C3)cc1
REMARK SMILES IDX 30 1 29 2 28 3 27 4 26 5 25 6 2 7 1 8 3 9 4 10 5 11 6 12
REMARK SMILES IDX 24 13 7 14 15 15 14 16 8 17 9 18 13 19 10 20 12 21 11 22
REMARK SMILES IDX 16 23 17 25 18 26 22 27 19 28 21 29 23 30 20 31 31 32 32 33
REMARK SMILES IDX 33 34 34 35 35 36 36 37 37 38 38 39 39 40 40 41 41 42 102 43
REMARK SMILES IDX 42 44 101 45 43 46 44 47 45 48 95 49 46 50 100 51 94 52
REMARK SMILES IDX 96 53 47 54 99 55 93 56 92 57 48 59 80 60 60 61 79 62 61 63
REMARK SMILES IDX 64 64 78 65 97 66 62 67 63 68 77 70 98 71 65 72 49 73 50 74
REMARK SMILES IDX 58 75 51 76 57 77 59 78 56 79 52 80 53 81 54 82 55 83 81 84
REMARK SMILES IDX 82 85 90 86 83 87 89 88 91 89 88 90 84 91 85 92 86 93 87 94
REMARK SMILES IDX 66 95 67 96 75 97 68 98 74 99 76 100 73 101 69 102 70 103
REMARK SMILES IDX 71 104 72 105
REMARK H PARENT 16 24 96 58 64 69
REMARK Flexibility Score: inf
ROOT
ATOM      1  C   UNL     1       2.207  -2.190  -1.267  1.00  0.00     0.188 C 
ENDROOT
BRANCH   1   2
ATOM      2  C   UNL     1       2.820  -0.906  -1.846  1.00  0.00     0.188 C 
BRANCH   2   3
ATOM      3  O   UNL     1       4.168  -0.574  -1.566  1.00  0.00    -0.376 OA
BRANCH   3   4
ATOM      4  C   UNL     1       4.755  -0.211  -0.336  1.00  0.00     0.202 C 
BRANCH   4   5
ATOM      5  C   UNL     1       4.035  -0.339   1.003  1.00  0.00     0.261 C 
BRANCH   5   6
ATOM      6  O   UNL     1       2.607  -0.173   1.012  1.00  0.00    -0.461 OA
BRANCH   6   7
ATOM      7  C   UNL     1       1.902   0.837   0.456  1.00  0.00     0.344 C 
ATOM      8  O   UNL     1       0.675   0.776   0.425  1.00  0.00    -0.248 OA
BRANCH   7   9
ATOM      9  C   UNL     1       2.655   2.018  -0.140  1.00  0.00     0.353 C 
BRANCH   9  10
ATOM     10  O   UNL     1       3.808   2.397   0.593  1.00  0.00    -0.466 OA
BRANCH  10  11
ATOM     11  C   UNL     1       3.438   3.206   1.617  1.00  0.00     0.219 A 
ATOM     12  C   UNL     1       2.659   2.761   2.638  1.00  0.00     0.097 A 
ATOM     13  N   UNL     1       3.814   4.458   1.465  1.00  0.00    -0.177 NA
ATOM     14  C   UNL     1       2.125   3.731   3.448  1.00  0.00     0.080 A 
ATOM     15  C   UNL     1       3.344   5.347   2.339  1.00  0.00     0.231 A 
ATOM     16  N   UNL     1       2.471   5.038   3.323  1.00  0.00    -0.212 NA
BRANCH  14  17
ATOM     17  C   UNL     1       1.033   3.319   4.353  1.00  0.00     0.000 A 
ATOM     18  C   UNL     1      -0.199   3.989   4.362  1.00  0.00     0.010 A 
ATOM     19  C   UNL     1       1.121   2.106   5.075  1.00  0.00     0.010 A 
ATOM     20  C   UNL     1      -1.302   3.454   5.041  1.00  0.00     0.001 A 
ATOM     21  C   UNL     1       0.020   1.567   5.742  1.00  0.00     0.001 A 
ATOM     22  C   UNL     1      -1.194   2.241   5.722  1.00  0.00     0.000 A 
ENDBRANCH  14  17
BRANCH  15  23
ATOM     23  N   UNL     1       3.849   6.646   2.216  1.00  0.00    -0.323 N 
ATOM     24  H   UNL     1       3.516   7.335   2.834  1.00  0.00     0.170 HD
BRANCH  23  25
ATOM     25  C   UNL     1       4.813   7.021   1.251  1.00  0.00     0.055 A 
ATOM     26  C   UNL     1       6.132   7.261   1.673  1.00  0.00     0.027 A 
ATOM     27  C   UNL     1       4.571   6.974  -0.141  1.00  0.00     0.041 A 
ATOM     28  C   UNL     1       7.167   7.453   0.747  1.00  0.00     0.002 A 
ATOM     29  C   UNL     1       5.607   7.167  -1.065  1.00  0.00     0.018 A 
ATOM     30  Br  UNL     1       2.827   6.701  -0.861  1.00  0.00    -0.049 Br
ATOM     31  C   UNL     1       6.905   7.405  -0.620  1.00  0.00     0.001 A 
ENDBRANCH  23  25
ENDBRANCH  15  23
ENDBRANCH  10  11
ENDBRANCH   9  10
ENDBRANCH   7   9
ENDBRANCH   6   7
ENDBRANCH   5   6
ENDBRANCH   4   5
ENDBRANCH   3   4
ENDBRANCH   2   3
ENDBRANCH   1   2
BRANCH   1  32
ATOM     32  O   UNL     1       2.890  -3.420  -1.457  1.00  0.00    -0.377 OA
BRANCH  32  33
ATOM     33  C   UNL     1       4.274  -3.417  -1.147  1.00  0.00     0.188 C 
BRANCH  33  34
ATOM     34  C   UNL     1       5.163  -3.133  -2.372  1.00  0.00     0.188 C 
BRANCH  34  35
ATOM     35  O   UNL     1       4.515  -2.468  -3.437  1.00  0.00    -0.376 OA
BRANCH  35  36
ATOM     36  C   UNL     1       3.733  -3.162  -4.393  1.00  0.00     0.202 C 
BRANCH  36  37
ATOM     37  C   UNL     1       3.010  -4.509  -4.184  1.00  0.00     0.261 C 
BRANCH  37  38
ATOM     38  O   UNL     1       3.495  -5.411  -3.192  1.00  0.00    -0.460 OA
BRANCH  38  39
ATOM     39  C   UNL     1       4.634  -6.070  -3.468  1.00  0.00     0.338 C 
ATOM     40  O   UNL     1       5.285  -6.000  -4.500  1.00  0.00    -0.246 OA
BRANCH  39  41
ATOM     41  C   UNL     1       5.095  -6.692  -2.208  1.00  0.00     0.060 A 
ATOM     42  C   UNL     1       6.383  -6.381  -1.756  1.00  0.00     0.016 A 
ATOM     43  C   UNL     1       4.262  -7.528  -1.455  1.00  0.00     0.016 A 
ATOM     44  C   UNL     1       6.862  -6.939  -0.578  1.00  0.00     0.010 A 
ATOM     45  C   UNL     1       4.759  -8.122  -0.290  1.00  0.00     0.010 A 
ATOM     46  C   UNL     1       6.076  -7.860   0.125  1.00  0.00    -0.014 A 
BRANCH  46  47
ATOM     47  C   UNL     1       6.754  -8.713   1.128  1.00  0.00     0.031 A 
ATOM     48  C   UNL     1       7.260 -10.057   0.677  1.00  0.00     0.074 A 
ATOM     49  C   UNL     1       7.026  -8.252   2.361  1.00  0.00     0.049 A 
ATOM     50  N   UNL     1       7.943 -10.953   1.338  1.00  0.00    -0.248 NA
ATOM     51  C   UNL     1       6.959 -10.434  -0.715  1.00  0.00     0.031 C 
ATOM     52  C   UNL     1       6.634  -6.942   2.877  1.00  0.00     0.029 A 
ATOM     53  N   UNL     1       7.712  -8.832   3.397  1.00  0.00    -0.354 N 
ATOM     54  C   UNL     1       8.168 -11.992   0.440  1.00  0.00     0.074 A 
ATOM     55  C   UNL     1       7.501 -11.638  -0.793  1.00  0.00     0.031 C 
ATOM     56  C   UNL     1       7.084  -6.819   4.138  1.00  0.00     0.029 A 
ATOM     57  C   UNL     1       7.766  -8.052   4.528  1.00  0.00     0.049 A 
ATOM     58  H   UNL     1       8.126  -9.723   3.337  1.00  0.00     0.167 HD
ATOM     59  C   UNL     1       8.883 -13.127   0.623  1.00  0.00     0.034 A 
ATOM     60  C   UNL     1       8.290  -8.317   5.742  1.00  0.00     0.034 A 
ATOM     61  C   UNL     1       9.521 -13.474   1.869  1.00  0.00     0.049 A 
ATOM     62  C   UNL     1       8.996  -9.637   5.952  1.00  0.00     0.074 A 
ATOM     63  C   UNL     1      10.249 -14.608   2.179  1.00  0.00     0.029 A 
ATOM     64  N   UNL     1       9.499 -12.691   3.017  1.00  0.00    -0.354 N 
ATOM     65  N   UNL     1       9.200 -10.614   5.096  1.00  0.00    -0.248 NA
ATOM     66  C   UNL     1       9.559  -9.879   7.285  1.00  0.00     0.031 C 
ATOM     67  C   UNL     1      10.601 -14.547   3.531  1.00  0.00     0.029 A 
ATOM     68  C   UNL     1      10.175 -13.332   4.044  1.00  0.00     0.049 A 
ATOM     69  H   UNL     1       9.067 -11.809   3.090  1.00  0.00     0.167 HD
ATOM     70  C   UNL     1       9.938 -11.575   5.786  1.00  0.00     0.074 A 
ATOM     71  C   UNL     1      10.172 -11.039   7.111  1.00  0.00     0.031 C 
ATOM     72  C   UNL     1      10.380 -12.791   5.368  1.00  0.00     0.034 A 
BRANCH  59  73
ATOM     73  C   UNL     1       8.965 -14.090  -0.537  1.00  0.00     0.023 A 
ATOM     74  C   UNL     1       9.596 -13.742  -1.745  1.00  0.00     0.031 A 
ATOM     75  C   UNL     1       8.381 -15.365  -0.444  1.00  0.00     0.131 A 
ATOM     76  C   UNL     1       9.575 -14.633  -2.828  1.00  0.00     0.055 A 
ATOM     77  C   UNL     1       8.435 -16.279  -1.498  1.00  0.00     0.041 A 
ATOM     78  F   UNL     1       7.737 -15.743   0.672  1.00  0.00    -0.206 F 
ATOM     79  C   UNL     1       9.024 -15.910  -2.704  1.00  0.00     0.022 A 
BRANCH  76  80
ATOM     80  S   UNL     1      10.158 -14.050  -4.444  1.00  0.00     0.124 S 
ATOM     81  O   UNL     1       9.265 -12.921  -4.690  1.00  0.00    -0.237 OA
ATOM     82  O   UNL     1      11.552 -13.716  -4.176  1.00  0.00    -0.237 OA
ATOM     83  O   UNL     1       9.950 -15.202  -5.320  1.00  0.00    -0.744 OA
ENDBRANCH  76  80
ENDBRANCH  59  73
BRANCH  60  84
ATOM     84  C   UNL     1       8.126  -7.351   6.868  1.00  0.00     0.023 A 
ATOM     85  C   UNL     1       9.232  -6.787   7.524  1.00  0.00     0.031 A 
ATOM     86  C   UNL     1       6.844  -7.039   7.359  1.00  0.00     0.131 A 
ATOM     87  C   UNL     1       9.039  -5.991   8.665  1.00  0.00     0.055 A 
ATOM     88  C   UNL     1       6.654  -6.194   8.453  1.00  0.00     0.041 A 
ATOM     89  F   UNL     1       5.749  -7.554   6.776  1.00  0.00    -0.206 F 
ATOM     90  C   UNL     1       7.757  -5.679   9.124  1.00  0.00     0.022 A 
BRANCH  87  91
ATOM     91  S   UNL     1      10.492  -5.463   9.614  1.00  0.00     0.124 S 
ATOM     92  O   UNL     1      11.127  -6.739   9.920  1.00  0.00    -0.237 OA
ATOM     93  O   UNL     1      11.187  -4.614   8.651  1.00  0.00    -0.237 OA
ATOM     94  O   UNL     1       9.914  -4.760  10.757  1.00  0.00    -0.744 OA
ENDBRANCH  87  91
ENDBRANCH  60  84
BRANCH  72  95
ATOM     95  C   UNL     1      11.191 -13.599   6.357  1.00  0.00     0.023 A 
ATOM     96  C   UNL     1      10.642 -14.040   7.574  1.00  0.00     0.031 A 
ATOM     97  C   UNL     1      12.543 -13.890   6.101  1.00  0.00     0.131 A 
ATOM     98  C   UNL     1      11.461 -14.660   8.527  1.00  0.00     0.055 A 
ATOM     99  C   UNL     1      13.332 -14.586   7.019  1.00  0.00     0.041 A 
ATOM    100  F   UNL     1      13.125 -13.495   4.958  1.00  0.00    -0.206 F 
ATOM    101  C   UNL     1      12.798 -14.955   8.250  1.00  0.00     0.022 A 
BRANCH  98 102
ATOM    102  S   UNL     1      10.796 -14.936  10.192  1.00  0.00     0.124 S 
ATOM    103  O   UNL     1      10.375 -13.592  10.574  1.00  0.00    -0.237 OA
ATOM    104  O   UNL     1       9.723 -15.893   9.944  1.00  0.00    -0.237 OA
ATOM    105  O   UNL     1      11.939 -15.463  10.935  1.00  0.00    -0.744 OA
ENDBRANCH  98 102
ENDBRANCH  72  95
ENDBRANCH  46  47
ENDBRANCH  39  41
ENDBRANCH  38  39
ENDBRANCH  37  38
ENDBRANCH  36  37
ENDBRANCH  35  36
ENDBRANCH  34  35
ENDBRANCH  33  34
ENDBRANCH  32  33
ENDBRANCH   1  32
TORSDOF 28
