REMARK SMILES Cc1cc(C(=O)N2CCC[C@@H]2C)sc1/C=C/C(=O)OCCOCCOCCOCCOC(=O)c1ccc(-c2c3nc(c(-c4cc(S(=O)(=O)[O-])ccc4F)c4ccc([nH]4)c(-c4cc(S(=O)(=O)[O-])ccc4F)c4nc(c(-c5cc(S(=O)(=O)[O-])ccc5F)c5ccc2[nH]5)C=C4)C=C3)cc1
REMARK SMILES IDX 25 1 24 2 23 3 22 4 21 5 20 6 19 7 17 8 18 9 16 10 15 11
REMARK SMILES IDX 14 12 1 13 2 14 3 15 4 16 13 17 5 18 6 19 7 20 8 21 11 22
REMARK SMILES IDX 9 23 10 24 12 25 26 26 27 27 28 28 29 29 30 30 31 31 32 32
REMARK SMILES IDX 33 33 34 34 35 35 96 36 36 37 95 38 37 39 38 40 39 41 89 42
REMARK SMILES IDX 40 43 94 44 88 45 90 46 41 47 93 48 87 49 86 50 42 52 74 53
REMARK SMILES IDX 54 54 73 55 55 56 58 57 72 58 91 59 56 60 57 61 71 63 92 64
REMARK SMILES IDX 59 65 43 66 44 67 52 68 45 69 51 70 53 71 50 72 46 73 47 74
REMARK SMILES IDX 48 75 49 76 75 77 76 78 84 79 77 80 83 81 85 82 82 83 78 84
REMARK SMILES IDX 79 85 80 86 81 87 60 88 61 89 69 90 62 91 68 92 70 93 67 94
REMARK SMILES IDX 63 95 64 96 65 97 66 98
REMARK H PARENT 90 51 58 62
REMARK Flexibility Score: inf
ROOT
ATOM      1  O   UNL     1       1.094  -5.338   1.979  1.00  0.00    -0.377 OA
ENDROOT
BRANCH   1   2
ATOM      2  C   UNL     1      -0.268  -4.951   1.942  1.00  0.00     0.188 C 
BRANCH   2   3
ATOM      3  C   UNL     1      -1.183  -5.868   1.111  1.00  0.00     0.188 C 
BRANCH   3   4
ATOM      4  O   UNL     1      -0.650  -7.164   0.909  1.00  0.00    -0.376 OA
BRANCH   4   5
ATOM      5  C   UNL     1       0.047  -7.483  -0.282  1.00  0.00     0.202 C 
BRANCH   5   6
ATOM      6  C   UNL     1       1.069  -6.539  -0.941  1.00  0.00     0.261 C 
BRANCH   6   7
ATOM      7  O   UNL     1       0.817  -5.135  -0.852  1.00  0.00    -0.460 OA
BRANCH   7   8
ATOM      8  C   UNL     1      -0.099  -4.606  -1.685  1.00  0.00     0.330 C 
ATOM      9  O   UNL     1      -0.757  -5.210  -2.517  1.00  0.00    -0.247 OA
BRANCH   8  10
ATOM     10  C   UNL     1      -0.334  -3.179  -1.363  1.00  0.00     0.095 C 
ATOM     11  C   UNL     1       0.508  -2.419  -0.639  1.00  0.00     0.027 C 
BRANCH  11  12
ATOM     12  C   UNL     1       0.256  -1.044  -0.318  1.00  0.00     0.031 A 
ATOM     13  C   UNL     1       2.666  -0.203   0.079  1.00  0.00     0.046 C 
ATOM     14  C   UNL     1       1.176  -0.049   0.011  1.00  0.00    -0.032 A 
ATOM     15  C   UNL     1       0.535   1.226   0.191  1.00  0.00     0.029 A 
ATOM     16  C   UNL     1      -0.831   1.194  -0.004  1.00  0.00     0.093 A 
ATOM     17  S   UNL     1      -1.347  -0.404  -0.282  1.00  0.00    -0.130 S 
BRANCH  16  18
ATOM     18  C   UNL     1      -1.703   2.352  -0.182  1.00  0.00     0.264 C 
ATOM     19  O   UNL     1      -1.244   3.443  -0.532  1.00  0.00    -0.268 OA
BRANCH  18  20
ATOM     20  N   UNL     1      -3.078   2.206  -0.083  1.00  0.00    -0.335 N 
ATOM     21  C   UNL     1      -3.947   2.940  -0.971  1.00  0.00     0.120 C 
ATOM     22  C   UNL     1      -3.845   1.569   0.986  1.00  0.00     0.082 C 
ATOM     23  C   UNL     1      -5.213   2.106  -0.959  1.00  0.00     0.024 C 
ATOM     24  C   UNL     1      -5.303   1.612   0.484  1.00  0.00     0.026 C 
ATOM     25  C   UNL     1      -3.712   2.350   2.295  1.00  0.00     0.031 C 
ENDBRANCH  18  20
ENDBRANCH  16  18
ENDBRANCH  11  12
ENDBRANCH   8  10
ENDBRANCH   7   8
ENDBRANCH   6   7
ENDBRANCH   5   6
ENDBRANCH   4   5
ENDBRANCH   3   4
ENDBRANCH   2   3
ENDBRANCH   1   2
BRANCH   1  26
ATOM     26  C   UNL     1       1.477  -6.481   2.747  1.00  0.00     0.188 C 
BRANCH  26  27
ATOM     27  C   UNL     1       0.456  -7.418   3.441  1.00  0.00     0.188 C 
BRANCH  27  28
ATOM     28  O   UNL     1      -0.758  -6.794   3.835  1.00  0.00    -0.376 OA
BRANCH  28  29
ATOM     29  C   UNL     1      -0.967  -6.582   5.220  1.00  0.00     0.202 C 
BRANCH  29  30
ATOM     30  C   UNL     1      -0.075  -5.515   5.868  1.00  0.00     0.261 C 
BRANCH  30  31
ATOM     31  O   UNL     1       1.338  -5.735   5.758  1.00  0.00    -0.460 OA
BRANCH  31  32
ATOM     32  C   UNL     1       1.837  -6.832   6.371  1.00  0.00     0.338 C 
ATOM     33  O   UNL     1       1.211  -7.653   7.022  1.00  0.00    -0.246 OA
BRANCH  32  34
ATOM     34  C   UNL     1       3.249  -6.972   5.962  1.00  0.00     0.060 A 
ATOM     35  C   UNL     1       3.655  -8.134   5.294  1.00  0.00     0.016 A 
ATOM     36  C   UNL     1       4.163  -5.950   6.228  1.00  0.00     0.016 A 
ATOM     37  C   UNL     1       4.992  -8.291   4.920  1.00  0.00     0.010 A 
ATOM     38  C   UNL     1       5.503  -6.117   5.868  1.00  0.00     0.010 A 
ATOM     39  C   UNL     1       5.931  -7.301   5.242  1.00  0.00    -0.014 A 
BRANCH  39  40
ATOM     40  C   UNL     1       7.382  -7.582   5.106  1.00  0.00     0.031 A 
ATOM     41  C   UNL     1       8.144  -7.996   6.337  1.00  0.00     0.074 A 
ATOM     42  C   UNL     1       8.011  -7.486   3.921  1.00  0.00     0.049 A 
ATOM     43  N   UNL     1       9.422  -8.223   6.490  1.00  0.00    -0.248 NA
ATOM     44  C   UNL     1       7.348  -8.169   7.563  1.00  0.00     0.031 C 
ATOM     45  C   UNL     1       7.373  -7.143   2.651  1.00  0.00     0.029 A 
ATOM     46  N   UNL     1       9.334  -7.660   3.596  1.00  0.00    -0.354 N 
ATOM     47  C   UNL     1       9.587  -8.562   7.829  1.00  0.00     0.074 A 
ATOM     48  C   UNL     1       8.283  -8.467   8.451  1.00  0.00     0.031 C 
ATOM     49  C   UNL     1       8.309  -7.123   1.686  1.00  0.00     0.029 A 
ATOM     50  C   UNL     1       9.618  -7.405   2.275  1.00  0.00     0.049 A 
ATOM     51  H   UNL     1      10.016  -7.942   4.249  1.00  0.00     0.167 HD
ATOM     52  C   UNL     1      10.720  -8.928   8.478  1.00  0.00     0.034 A 
ATOM     53  C   UNL     1      10.801  -7.373   1.625  1.00  0.00     0.034 A 
ATOM     54  C   UNL     1      12.015  -9.000   7.847  1.00  0.00     0.049 A 
ATOM     55  C   UNL     1      12.068  -7.683   2.392  1.00  0.00     0.074 A 
ATOM     56  C   UNL     1      13.226  -9.364   8.408  1.00  0.00     0.029 A 
ATOM     57  N   UNL     1      12.272  -8.686   6.518  1.00  0.00    -0.354 N 
ATOM     58  N   UNL     1      12.212  -8.007   3.657  1.00  0.00    -0.248 NA
ATOM     59  C   UNL     1      13.329  -7.630   1.640  1.00  0.00     0.031 C 
ATOM     60  C   UNL     1      14.225  -9.191   7.444  1.00  0.00     0.029 A 
ATOM     61  C   UNL     1      13.627  -8.811   6.253  1.00  0.00     0.049 A 
ATOM     62  H   UNL     1      11.591  -8.414   5.861  1.00  0.00     0.167 HD
ATOM     63  C   UNL     1      13.576  -8.231   3.840  1.00  0.00     0.074 A 
ATOM     64  C   UNL     1      14.206  -8.017   2.554  1.00  0.00     0.031 C 
ATOM     65  C   UNL     1      14.247  -8.588   4.966  1.00  0.00     0.034 A 
BRANCH  52  66
ATOM     66  C   UNL     1      10.609  -9.219   9.956  1.00  0.00     0.023 A 
ATOM     67  C   UNL     1       9.823 -10.276  10.447  1.00  0.00     0.031 A 
ATOM     68  C   UNL     1      11.273  -8.404  10.890  1.00  0.00     0.131 A 
ATOM     69  C   UNL     1       9.662 -10.444  11.831  1.00  0.00     0.055 A 
ATOM     70  C   UNL     1      11.178  -8.631  12.264  1.00  0.00     0.041 A 
ATOM     71  F   UNL     1      12.015  -7.362  10.484  1.00  0.00    -0.206 F 
ATOM     72  C   UNL     1      10.356  -9.647  12.743  1.00  0.00     0.022 A 
BRANCH  69  73
ATOM     73  S   UNL     1       8.411 -11.619  12.420  1.00  0.00     0.124 S 
ATOM     74  O   UNL     1       7.199 -11.100  11.791  1.00  0.00    -0.237 OA
ATOM     75  O   UNL     1       8.905 -12.890  11.904  1.00  0.00    -0.237 OA
ATOM     76  O   UNL     1       8.461 -11.472  13.873  1.00  0.00    -0.744 OA
ENDBRANCH  69  73
ENDBRANCH  52  66
BRANCH  53  77
ATOM     77  C   UNL     1      10.865  -6.991   0.183  1.00  0.00     0.023 A 
ATOM     78  C   UNL     1      11.353  -7.882  -0.787  1.00  0.00     0.031 A 
ATOM     79  C   UNL     1      10.500  -5.699  -0.237  1.00  0.00     0.131 A 
ATOM     80  C   UNL     1      11.510  -7.454  -2.115  1.00  0.00     0.055 A 
ATOM     81  C   UNL     1      10.600  -5.298  -1.571  1.00  0.00     0.041 A 
ATOM     82  F   UNL     1      10.035  -4.803   0.648  1.00  0.00    -0.206 F 
ATOM     83  C   UNL     1      11.121  -6.174  -2.517  1.00  0.00     0.022 A 
BRANCH  80  84
ATOM     84  S   UNL     1      12.323  -8.566  -3.296  1.00  0.00     0.124 S 
ATOM     85  O   UNL     1      13.616  -8.781  -2.657  1.00  0.00    -0.237 OA
ATOM     86  O   UNL     1      11.415  -9.708  -3.311  1.00  0.00    -0.237 OA
ATOM     87  O   UNL     1      12.359  -7.784  -4.530  1.00  0.00    -0.744 OA
ENDBRANCH  80  84
ENDBRANCH  53  77
BRANCH  65  88
ATOM     88  C   UNL     1      15.735  -8.827   4.843  1.00  0.00     0.023 A 
ATOM     89  C   UNL     1      16.633  -7.793   4.528  1.00  0.00     0.031 A 
ATOM     90  C   UNL     1      16.260 -10.117   5.046  1.00  0.00     0.131 A 
ATOM     91  C   UNL     1      17.999  -8.077   4.367  1.00  0.00     0.055 A 
ATOM     92  C   UNL     1      17.627 -10.379   4.954  1.00  0.00     0.041 A 
ATOM     93  F   UNL     1      15.451 -11.145   5.346  1.00  0.00    -0.206 F 
ATOM     94  C   UNL     1      18.504  -9.359   4.598  1.00  0.00     0.022 A 
BRANCH  91  95
ATOM     95  S   UNL     1      19.095  -6.769   3.751  1.00  0.00     0.124 S 
ATOM     96  O   UNL     1      18.469  -6.423   2.480  1.00  0.00    -0.237 OA
ATOM     97  O   UNL     1      19.002  -5.762   4.803  1.00  0.00    -0.237 OA
ATOM     98  O   UNL     1      20.393  -7.433   3.643  1.00  0.00    -0.744 OA
ENDBRANCH  91  95
ENDBRANCH  65  88
ENDBRANCH  39  40
ENDBRANCH  32  34
ENDBRANCH  31  32
ENDBRANCH  30  31
ENDBRANCH  29  30
ENDBRANCH  28  29
ENDBRANCH  27  28
ENDBRANCH  26  27
ENDBRANCH   1  26
TORSDOF 26
