REMARK SMILES CC1(C)C(Nc2cc(C(=O)OCCOCCOCCOCCOC(=O)c3ccc(-c4c5nc(c(-c6cc(S(=O)(=O)[O-])ccc6F)c6ccc([nH]6)c(-c6cc(S(=O)(=O)[O-])ccc6F)c6nc(c(-c7cc(S(=O)(=O)[O-])ccc7F)c7ccc4[nH]7)C=C6)C=C5)cc3)cc(Cl)n2)C1(C)C
REMARK SMILES IDX 18 1 17 2 16 3 15 4 14 5 13 6 12 7 11 8 9 9 10 10 8 11 6 12
REMARK SMILES IDX 7 13 92 14 90 15 89 16 91 17 5 18 4 20 1 21 2 22 3 23 93 24
REMARK SMILES IDX 94 25 95 26 19 27 20 28 21 29 22 30 23 31 24 32 25 33 26 34
REMARK SMILES IDX 27 35 88 36 28 37 87 38 29 39 30 40 31 41 81 42 32 43 86 44
REMARK SMILES IDX 80 45 82 46 33 47 85 48 79 49 78 50 34 52 66 53 46 54 65 55
REMARK SMILES IDX 47 56 50 57 64 58 83 59 48 60 49 61 63 63 84 64 51 65 35 66
REMARK SMILES IDX 36 67 44 68 37 69 43 70 45 71 42 72 38 73 39 74 40 75 41 76
REMARK SMILES IDX 67 77 68 78 76 79 69 80 75 81 77 82 74 83 70 84 71 85 72 86
REMARK SMILES IDX 73 87 52 88 53 89 61 90 54 91 60 92 62 93 59 94 55 95 56 96
REMARK SMILES IDX 57 97 58 98
REMARK H PARENT 5 19 82 51 50 62
REMARK Flexibility Score: inf
ROOT
ATOM      1  C   UNL     1      -2.171  -0.725  -8.104  1.00  0.00     0.188 C 
ENDROOT
BRANCH   1   2
ATOM      2  O   UNL     1      -2.728  -0.948  -6.806  1.00  0.00    -0.377 OA
BRANCH   2   3
ATOM      3  C   UNL     1      -1.858  -1.263  -5.732  1.00  0.00     0.188 C 
BRANCH   3   4
ATOM      4  C   UNL     1      -1.333  -2.711  -5.749  1.00  0.00     0.188 C 
BRANCH   4   5
ATOM      5  O   UNL     1      -1.483  -3.361  -6.997  1.00  0.00    -0.376 OA
BRANCH   5   6
ATOM      6  C   UNL     1      -2.654  -4.096  -7.308  1.00  0.00     0.202 C 
BRANCH   6   7
ATOM      7  C   UNL     1      -4.072  -3.721  -6.834  1.00  0.00     0.261 C 
BRANCH   7   8
ATOM      8  O   UNL     1      -4.205  -3.046  -5.580  1.00  0.00    -0.460 OA
BRANCH   8   9
ATOM      9  C   UNL     1      -4.068  -3.762  -4.446  1.00  0.00     0.338 C 
ATOM     10  O   UNL     1      -3.840  -4.952  -4.351  1.00  0.00    -0.246 OA
BRANCH   9  11
ATOM     11  C   UNL     1      -4.039  -2.802  -3.316  1.00  0.00     0.066 A 
ATOM     12  C   UNL     1      -3.028  -2.044  -1.281  1.00  0.00     0.128 A 
ATOM     13  C   UNL     1      -3.073  -2.965  -2.317  1.00  0.00     0.062 A 
ATOM     14  N   UNL     1      -3.894  -1.018  -1.198  1.00  0.00    -0.219 NA
ATOM     15  C   UNL     1      -4.778  -0.861  -2.206  1.00  0.00     0.132 A 
ATOM     16  C   UNL     1      -4.896  -1.706  -3.285  1.00  0.00     0.057 A 
ATOM     17  Cl  UNL     1      -5.765   0.535  -2.064  1.00  0.00    -0.062 Cl
BRANCH  12  18
ATOM     18  N   UNL     1      -2.037  -2.085  -0.288  1.00  0.00    -0.366 N 
ATOM     19  H   UNL     1      -2.286  -2.202   0.657  1.00  0.00     0.162 HD
BRANCH  18  20
ATOM     20  C   UNL     1      -0.621  -1.951  -0.669  1.00  0.00     0.093 C 
ATOM     21  C   UNL     1       1.226  -0.215  -0.259  1.00  0.00     0.014 C 
ATOM     22  C   UNL     1       0.359  -1.317   0.319  1.00  0.00    -0.008 C 
ATOM     23  C   UNL     1      -0.001  -1.039   1.762  1.00  0.00     0.014 C 
ATOM     24  C   UNL     1       0.518  -2.782  -0.123  1.00  0.00    -0.008 C 
ATOM     25  C   UNL     1       1.679  -3.118  -1.034  1.00  0.00     0.014 C 
ATOM     26  C   UNL     1       0.166  -3.939   0.786  1.00  0.00     0.014 C 
ENDBRANCH  18  20
ENDBRANCH  12  18
ENDBRANCH   9  11
ENDBRANCH   8   9
ENDBRANCH   7   8
ENDBRANCH   6   7
ENDBRANCH   5   6
ENDBRANCH   4   5
ENDBRANCH   3   4
ENDBRANCH   2   3
ENDBRANCH   1   2
BRANCH   1  27
ATOM     27  C   UNL     1      -0.712  -1.101  -8.463  1.00  0.00     0.188 C 
BRANCH  27  28
ATOM     28  O   UNL     1       0.215  -0.977  -7.392  1.00  0.00    -0.376 OA
BRANCH  28  29
ATOM     29  C   UNL     1       1.125   0.107  -7.413  1.00  0.00     0.202 C 
BRANCH  29  30
ATOM     30  C   UNL     1       0.519   1.505  -7.231  1.00  0.00     0.261 C 
BRANCH  30  31
ATOM     31  O   UNL     1      -0.503   1.872  -8.168  1.00  0.00    -0.460 OA
BRANCH  31  32
ATOM     32  C   UNL     1      -0.138   1.974  -9.469  1.00  0.00     0.338 C 
ATOM     33  O   UNL     1       0.968   1.798  -9.931  1.00  0.00    -0.246 OA
BRANCH  32  34
ATOM     34  C   UNL     1      -1.378   2.153 -10.258  1.00  0.00     0.060 A 
ATOM     35  C   UNL     1      -1.724   1.192 -11.216  1.00  0.00     0.016 A 
ATOM     36  C   UNL     1      -2.204   3.255 -10.029  1.00  0.00     0.016 A 
ATOM     37  C   UNL     1      -2.891   1.346 -11.968  1.00  0.00     0.010 A 
ATOM     38  C   UNL     1      -3.361   3.417 -10.796  1.00  0.00     0.010 A 
ATOM     39  C   UNL     1      -3.698   2.477 -11.787  1.00  0.00    -0.014 A 
BRANCH  39  40
ATOM     40  C   UNL     1      -4.794   2.776 -12.744  1.00  0.00     0.031 A 
ATOM     41  C   UNL     1      -4.531   3.775 -13.838  1.00  0.00     0.074 A 
ATOM     42  C   UNL     1      -5.996   2.179 -12.643  1.00  0.00     0.049 A 
ATOM     43  N   UNL     1      -5.351   4.269 -14.727  1.00  0.00    -0.248 NA
ATOM     44  C   UNL     1      -3.155   4.290 -13.933  1.00  0.00     0.031 C 
ATOM     45  C   UNL     1      -6.353   1.162 -11.656  1.00  0.00     0.029 A 
ATOM     46  N   UNL     1      -7.146   2.357 -13.373  1.00  0.00    -0.354 N 
ATOM     47  C   UNL     1      -4.598   5.165 -15.479  1.00  0.00     0.074 A 
ATOM     48  C   UNL     1      -3.261   5.163 -14.924  1.00  0.00     0.031 C 
ATOM     49  C   UNL     1      -7.643   0.821 -11.829  1.00  0.00     0.029 A 
ATOM     50  C   UNL     1      -8.216   1.629 -12.905  1.00  0.00     0.049 A 
ATOM     51  H   UNL     1      -7.200   2.949 -14.157  1.00  0.00     0.167 HD
ATOM     52  C   UNL     1      -4.988   5.920 -16.534  1.00  0.00     0.034 A 
ATOM     53  C   UNL     1      -9.515   1.645 -13.274  1.00  0.00     0.034 A 
ATOM     54  C   UNL     1      -6.326   5.914 -17.070  1.00  0.00     0.049 A 
ATOM     55  C   UNL     1      -9.945   2.561 -14.399  1.00  0.00     0.074 A 
ATOM     56  C   UNL     1      -6.818   6.613 -18.159  1.00  0.00     0.029 A 
ATOM     57  N   UNL     1      -7.392   5.192 -16.548  1.00  0.00    -0.354 N 
ATOM     58  N   UNL     1      -9.218   3.386 -15.119  1.00  0.00    -0.248 NA
ATOM     59  C   UNL     1     -11.369   2.547 -14.764  1.00  0.00     0.031 C 
ATOM     60  C   UNL     1      -8.195   6.386 -18.239  1.00  0.00     0.029 A 
ATOM     61  C   UNL     1      -8.547   5.467 -17.263  1.00  0.00     0.049 A 
ATOM     62  H   UNL     1      -7.335   4.575 -15.783  1.00  0.00     0.167 HD
ATOM     63  C   UNL     1     -10.092   3.960 -16.041  1.00  0.00     0.074 A 
ATOM     64  C   UNL     1     -11.394   3.376 -15.797  1.00  0.00     0.031 C 
ATOM     65  C   UNL     1      -9.842   4.883 -17.006  1.00  0.00     0.034 A 
BRANCH  52  66
ATOM     66  C   UNL     1      -3.975   6.862 -17.137  1.00  0.00     0.023 A 
ATOM     67  C   UNL     1      -2.814   6.401 -17.780  1.00  0.00     0.031 A 
ATOM     68  C   UNL     1      -4.181   8.252 -17.065  1.00  0.00     0.131 A 
ATOM     69  C   UNL     1      -1.879   7.321 -18.279  1.00  0.00     0.055 A 
ATOM     70  C   UNL     1      -3.286   9.160 -17.631  1.00  0.00     0.041 A 
ATOM     71  F   UNL     1      -5.257   8.752 -16.437  1.00  0.00    -0.206 F 
ATOM     72  C   UNL     1      -2.120   8.697 -18.234  1.00  0.00     0.022 A 
BRANCH  69  73
ATOM     73  S   UNL     1      -0.282   6.702 -18.875  1.00  0.00     0.124 S 
ATOM     74  O   UNL     1       0.232   6.020 -17.689  1.00  0.00    -0.237 OA
ATOM     75  O   UNL     1      -0.672   5.842 -19.987  1.00  0.00    -0.237 OA
ATOM     76  O   UNL     1       0.440   7.916 -19.248  1.00  0.00    -0.744 OA
ENDBRANCH  69  73
ENDBRANCH  52  66
BRANCH  53  77
ATOM     77  C   UNL     1     -10.527   0.825 -12.541  1.00  0.00     0.023 A 
ATOM     78  C   UNL     1     -11.290  -0.154 -13.197  1.00  0.00     0.031 A 
ATOM     79  C   UNL     1     -10.805   1.070 -11.183  1.00  0.00     0.131 A 
ATOM     80  C   UNL     1     -12.329  -0.808 -12.514  1.00  0.00     0.055 A 
ATOM     81  C   UNL     1     -11.794   0.369 -10.491  1.00  0.00     0.041 A 
ATOM     82  F   UNL     1     -10.115   2.001 -10.505  1.00  0.00    -0.206 F 
ATOM     83  C   UNL     1     -12.575  -0.565 -11.162  1.00  0.00     0.022 A 
BRANCH  80  84
ATOM     84  S   UNL     1     -13.436  -1.897 -13.454  1.00  0.00     0.124 S 
ATOM     85  O   UNL     1     -13.933  -0.995 -14.486  1.00  0.00    -0.237 OA
ATOM     86  O   UNL     1     -12.523  -2.944 -13.900  1.00  0.00    -0.237 OA
ATOM     87  O   UNL     1     -14.424  -2.316 -12.461  1.00  0.00    -0.744 OA
ENDBRANCH  80  84
ENDBRANCH  53  77
BRANCH  65  88
ATOM     88  C   UNL     1     -10.990   5.279 -17.905  1.00  0.00     0.023 A 
ATOM     89  C   UNL     1     -12.114   5.969 -17.419  1.00  0.00     0.031 A 
ATOM     90  C   UNL     1     -10.952   4.966 -19.277  1.00  0.00     0.131 A 
ATOM     91  C   UNL     1     -13.175   6.277 -18.285  1.00  0.00     0.055 A 
ATOM     92  C   UNL     1     -11.978   5.335 -20.147  1.00  0.00     0.041 A 
ATOM     93  F   UNL     1      -9.906   4.304 -19.798  1.00  0.00    -0.206 F 
ATOM     94  C   UNL     1     -13.104   5.984 -19.650  1.00  0.00     0.022 A 
BRANCH  91  95
ATOM     95  S   UNL     1     -14.694   6.983 -17.589  1.00  0.00     0.124 S 
ATOM     96  O   UNL     1     -15.089   5.960 -16.626  1.00  0.00    -0.237 OA
ATOM     97  O   UNL     1     -14.223   8.243 -17.023  1.00  0.00    -0.237 OA
ATOM     98  O   UNL     1     -15.574   7.115 -18.749  1.00  0.00    -0.744 OA
ENDBRANCH  91  95
ENDBRANCH  65  88
ENDBRANCH  39  40
ENDBRANCH  32  34
ENDBRANCH  31  32
ENDBRANCH  30  31
ENDBRANCH  29  30
ENDBRANCH  28  29
ENDBRANCH  27  28
ENDBRANCH   1  27
TORSDOF 25
