REMARK SMILES O=C(OCCOCCOCCOCCOC(=O)c1cccnc1C[N@@H+]1CCC[C@H]1c1ccccn1)c1ccc(-c2c3nc(c(-c4cc(S(=O)(=O)[O-])ccc4F)c4ccc([nH]4)c(-c4cc(S(=O)(=O)[O-])ccc4F)c4nc(c(-c5cc(S(=O)(=O)[O-])ccc5F)c5ccc2[nH]5)C=C4)C=C3)cc1
REMARK SMILES IDX 9 1 8 2 7 3 6 4 5 5 4 6 3 7 2 8 1 9 36 10 37 11 98 12 38 13
REMARK SMILES IDX 97 14 39 15 40 16 41 17 91 18 42 19 96 20 90 21 92 22 43 23
REMARK SMILES IDX 95 24 89 25 88 26 44 28 76 29 56 30 75 31 57 32 60 33 74 34
REMARK SMILES IDX 93 35 58 36 59 37 73 39 94 40 61 41 45 42 46 43 54 44 47 45
REMARK SMILES IDX 53 46 55 47 52 48 48 49 49 50 50 51 51 52 77 53 78 54 86 55
REMARK SMILES IDX 79 56 85 57 87 58 84 59 80 60 81 61 82 62 83 63 62 64 63 65
REMARK SMILES IDX 71 66 64 67 70 68 72 69 69 70 65 71 66 72 67 73 68 74 10 75
REMARK SMILES IDX 11 76 12 77 13 78 14 79 15 80 16 81 17 82 18 83 19 84 23 85
REMARK SMILES IDX 20 86 22 87 21 88 24 89 25 90 26 91 29 92 27 94 28 95 30 96
REMARK SMILES IDX 31 97 35 98 32 99 34 100 33 101
REMARK H PARENT 92 27 60 38 25 93
REMARK Flexibility Score: inf
ROOT
ATOM      1  O   UNL     1       3.002   1.338  -3.644  1.00  0.00    -0.377 OA
ENDROOT
BRANCH   1   2
ATOM      2  C   UNL     1       2.557   1.125  -2.344  1.00  0.00     0.188 C 
BRANCH   2   3
ATOM      3  C   UNL     1       3.501   1.775  -1.303  1.00  0.00     0.188 C 
BRANCH   3   4
ATOM      4  O   UNL     1       4.928   1.524  -0.951  1.00  0.00    -0.376 OA
BRANCH   4   5
ATOM      5  C   UNL     1       5.716   0.286  -0.541  1.00  0.00     0.202 C 
BRANCH   5   6
ATOM      6  C   UNL     1       5.189  -1.342   0.258  1.00  0.00     0.261 C 
BRANCH   6   7
ATOM      7  O   UNL     1       3.254  -1.529   0.887  1.00  0.00    -0.460 OA
BRANCH   7   8
ATOM      8  C   UNL     1       2.009  -0.612   1.420  1.00  0.00     0.338 C 
ATOM      9  O   UNL     1       0.894  -1.141   1.445  1.00  0.00    -0.246 OA
BRANCH   8  10
ATOM     10  C   UNL     1       2.124   0.978   2.064  1.00  0.00     0.060 A 
ATOM     11  C   UNL     1       2.550   2.082   1.345  1.00  0.00     0.016 A 
ATOM     12  C   UNL     1       2.045   1.359   3.396  1.00  0.00     0.016 A 
ATOM     13  C   UNL     1       3.588   2.937   1.754  1.00  0.00     0.010 A 
ATOM     14  C   UNL     1       2.748   2.551   3.874  1.00  0.00     0.010 A 
ATOM     15  C   UNL     1       3.699   3.247   3.076  1.00  0.00    -0.014 A 
BRANCH  15  16
ATOM     16  C   UNL     1       4.831   4.154   3.547  1.00  0.00     0.031 A 
ATOM     17  C   UNL     1       5.616   3.721   4.768  1.00  0.00     0.074 A 
ATOM     18  C   UNL     1       5.315   5.241   2.874  1.00  0.00     0.049 A 
ATOM     19  N   UNL     1       6.445   4.390   5.527  1.00  0.00    -0.248 NA
ATOM     20  C   UNL     1       5.435   2.321   5.179  1.00  0.00     0.031 C 
ATOM     21  C   UNL     1       4.892   5.710   1.548  1.00  0.00     0.029 A 
ATOM     22  N   UNL     1       6.309   6.155   3.204  1.00  0.00    -0.354 N 
ATOM     23  C   UNL     1       6.797   3.524   6.560  1.00  0.00     0.074 A 
ATOM     24  C   UNL     1       6.101   2.280   6.319  1.00  0.00     0.031 C 
ATOM     25  C   UNL     1       5.631   6.766   1.171  1.00  0.00     0.029 A 
ATOM     26  C   UNL     1       6.486   7.168   2.275  1.00  0.00     0.049 A 
ATOM     27  H   UNL     1       6.842   6.088   4.029  1.00  0.00     0.167 HD
ATOM     28  C   UNL     1       7.608   3.754   7.622  1.00  0.00     0.034 A 
ATOM     29  C   UNL     1       7.187   8.327   2.318  1.00  0.00     0.034 A 
ATOM     30  C   UNL     1       8.333   4.984   7.817  1.00  0.00     0.049 A 
ATOM     31  C   UNL     1       7.947   8.648   3.584  1.00  0.00     0.074 A 
ATOM     32  C   UNL     1       9.129   5.358   8.885  1.00  0.00     0.029 A 
ATOM     33  N   UNL     1       8.359   6.041   6.915  1.00  0.00    -0.354 N 
ATOM     34  N   UNL     1       8.121   7.903   4.652  1.00  0.00    -0.248 NA
ATOM     35  C   UNL     1       8.588   9.968   3.663  1.00  0.00     0.031 C 
ATOM     36  C   UNL     1       9.551   6.674   8.676  1.00  0.00     0.029 A 
ATOM     37  C   UNL     1       9.122   7.080   7.422  1.00  0.00     0.049 A 
ATOM     38  H   UNL     1       7.901   6.050   6.043  1.00  0.00     0.167 HD
ATOM     39  C   UNL     1       8.932   8.647   5.506  1.00  0.00     0.074 A 
ATOM     40  C   UNL     1       9.215   9.894   4.827  1.00  0.00     0.031 C 
ATOM     41  C   UNL     1       9.406   8.319   6.735  1.00  0.00     0.034 A 
BRANCH  28  42
ATOM     42  C   UNL     1       7.622   2.706   8.713  1.00  0.00     0.023 A 
ATOM     43  C   UNL     1       8.073   1.392   8.502  1.00  0.00     0.031 A 
ATOM     44  C   UNL     1       7.067   3.015   9.969  1.00  0.00     0.131 A 
ATOM     45  C   UNL     1       7.860   0.416   9.489  1.00  0.00     0.055 A 
ATOM     46  C   UNL     1       6.958   2.065  10.985  1.00  0.00     0.041 A 
ATOM     47  F   UNL     1       6.586   4.243  10.220  1.00  0.00    -0.206 F 
ATOM     48  C   UNL     1       7.335   0.750  10.740  1.00  0.00     0.022 A 
BRANCH  45  49
ATOM     49  S   UNL     1       8.080  -1.329   9.039  1.00  0.00     0.124 S 
ATOM     50  O   UNL     1       7.149  -1.463   7.920  1.00  0.00    -0.237 OA
ATOM     51  O   UNL     1       9.497  -1.393   8.699  1.00  0.00    -0.237 OA
ATOM     52  O   UNL     1       7.694  -2.048  10.251  1.00  0.00    -0.744 OA
ENDBRANCH  45  49
ENDBRANCH  28  42
BRANCH  29  53
ATOM     53  C   UNL     1       7.127   9.339   1.203  1.00  0.00     0.023 A 
ATOM     54  C   UNL     1       8.292   9.815   0.569  1.00  0.00     0.031 A 
ATOM     55  C   UNL     1       5.906   9.932   0.826  1.00  0.00     0.131 A 
ATOM     56  C   UNL     1       8.214  10.869  -0.362  1.00  0.00     0.055 A 
ATOM     57  C   UNL     1       5.826  10.929  -0.151  1.00  0.00     0.041 A 
ATOM     58  F   UNL     1       4.758   9.557   1.413  1.00  0.00    -0.206 F 
ATOM     59  C   UNL     1       6.987  11.414  -0.742  1.00  0.00     0.022 A 
BRANCH  56  60
ATOM     60  S   UNL     1       9.753  11.610  -0.986  1.00  0.00     0.124 S 
ATOM     61  O   UNL     1      10.389  12.052   0.249  1.00  0.00    -0.237 OA
ATOM     62  O   UNL     1      10.381  10.482  -1.665  1.00  0.00    -0.237 OA
ATOM     63  O   UNL     1       9.285  12.681  -1.865  1.00  0.00    -0.744 OA
ENDBRANCH  56  60
ENDBRANCH  29  53
BRANCH  41  64
ATOM     64  C   UNL     1      10.362   9.288   7.388  1.00  0.00     0.023 A 
ATOM     65  C   UNL     1       9.980  10.588   7.760  1.00  0.00     0.031 A 
ATOM     66  C   UNL     1      11.693   8.897   7.629  1.00  0.00     0.131 A 
ATOM     67  C   UNL     1      10.936  11.472   8.284  1.00  0.00     0.055 A 
ATOM     68  C   UNL     1      12.616   9.752   8.228  1.00  0.00     0.041 A 
ATOM     69  F   UNL     1      12.117   7.670   7.286  1.00  0.00    -0.206 F 
ATOM     70  C   UNL     1      12.244  11.054   8.544  1.00  0.00     0.022 A 
BRANCH  67  71
ATOM     71  S   UNL     1      10.483  13.215   8.496  1.00  0.00     0.124 S 
ATOM     72  O   UNL     1      10.045  13.579   7.153  1.00  0.00    -0.237 OA
ATOM     73  O   UNL     1       9.436  13.145   9.511  1.00  0.00    -0.237 OA
ATOM     74  O   UNL     1      11.729  13.841   8.934  1.00  0.00    -0.744 OA
ENDBRANCH  67  71
ENDBRANCH  41  64
ENDBRANCH  15  16
ENDBRANCH   8  10
ENDBRANCH   7   8
ENDBRANCH   6   7
ENDBRANCH   5   6
ENDBRANCH   4   5
ENDBRANCH   3   4
ENDBRANCH   2   3
ENDBRANCH   1   2
BRANCH   1  75
ATOM     75  C   UNL     1       4.401   1.365  -3.598  1.00  0.00     0.188 C 
BRANCH  75  76
ATOM     76  C   UNL     1       5.159   2.692  -3.594  1.00  0.00     0.188 C 
BRANCH  76  77
ATOM     77  O   UNL     1       4.419   3.888  -3.720  1.00  0.00    -0.376 OA
BRANCH  77  78
ATOM     78  C   UNL     1       3.228   3.853  -4.487  1.00  0.00     0.202 C 
BRANCH  78  79
ATOM     79  C   UNL     1       3.313   3.302  -5.935  1.00  0.00     0.261 C 
BRANCH  79  80
ATOM     80  O   UNL     1       3.622   1.884  -6.148  1.00  0.00    -0.460 OA
BRANCH  80  81
ATOM     81  C   UNL     1       4.901   1.481  -6.430  1.00  0.00     0.340 C 
ATOM     82  O   UNL     1       5.851   2.214  -6.642  1.00  0.00    -0.246 OA
BRANCH  81  83
ATOM     83  C   UNL     1       5.014  -0.031  -6.500  1.00  0.00     0.087 A 
ATOM     84  C   UNL     1       4.475  -0.497  -7.705  1.00  0.00     0.019 A 
ATOM     85  C   UNL     1       5.728  -0.962  -5.666  1.00  0.00     0.109 A 
ATOM     86  C   UNL     1       4.775  -1.772  -8.153  1.00  0.00     0.021 A 
ATOM     87  N   UNL     1       6.073  -2.180  -6.175  1.00  0.00    -0.254 NA
ATOM     88  C   UNL     1       5.628  -2.540  -7.393  1.00  0.00     0.111 A 
BRANCH  85  89
ATOM     89  C   UNL     1       6.248  -0.817  -4.213  1.00  0.00     0.321 C 
BRANCH  89  90
ATOM     90  N   UNL     1       5.698  -1.629  -3.007  1.00  0.00    -0.322 N 
ATOM     91  C   UNL     1       6.340  -2.950  -2.979  1.00  0.00     0.263 C 
ATOM     92  C   UNL     1       4.202  -1.860  -2.721  1.00  0.00     0.234 C 
ATOM     93  H   UNL     1       5.928  -0.957  -2.276  1.00  0.00     0.349 HD
ATOM     94  C   UNL     1       5.343  -3.885  -3.608  1.00  0.00     0.068 C 
ATOM     95  C   UNL     1       3.974  -3.269  -3.323  1.00  0.00     0.078 C 
BRANCH  92  96
ATOM     96  C   UNL     1       3.606  -1.739  -1.070  1.00  0.00     0.098 A 
ATOM     97  C   UNL     1       3.830  -3.200  -0.158  1.00  0.00     0.030 A 
ATOM     98  N   UNL     1       3.736  -0.208  -0.164  1.00  0.00    -0.255 NA
ATOM     99  C   UNL     1       4.284  -3.157   1.526  1.00  0.00     0.004 A 
ATOM    100  C   UNL     1       4.320  -0.178   1.582  1.00  0.00     0.111 A 
ATOM    101  C   UNL     1       4.522  -1.686   2.428  1.00  0.00     0.020 A 
ENDBRANCH  92  96
ENDBRANCH  89  90
ENDBRANCH  85  89
ENDBRANCH  81  83
ENDBRANCH  80  81
ENDBRANCH  79  80
ENDBRANCH  78  79
ENDBRANCH  77  78
ENDBRANCH  76  77
ENDBRANCH  75  76
ENDBRANCH   1  75
TORSDOF 26
