REMARK SMILES CC[C@@H](C)[C@H](NC(=O)NCc1ccc(C)cc1)C(=O)OCCOCCOCCOCCOC(=O)c1ccc(-c2c3nc(c(-c4cc(S(=O)(=O)[O-])ccc4F)c4ccc([nH]4)c(-c4cc(S(=O)(=O)[O-])ccc4F)c4nc(c(-c5cc(S(=O)(=O)[O-])ccc5F)c5ccc2[nH]5)C=C4)C=C3)cc1
REMARK SMILES IDX 26 1 25 2 24 3 23 4 22 5 21 6 20 7 18 8 19 9 5 10 3 11 4 12
REMARK SMILES IDX 2 13 1 14 6 15 7 16 8 18 9 19 10 21 11 22 12 23 17 24 13 25
REMARK SMILES IDX 16 26 14 27 15 28 27 29 28 30 29 31 30 32 31 33 32 34 33 35
REMARK SMILES IDX 34 36 35 37 36 38 97 39 37 40 96 41 38 42 39 43 40 44 90 45
REMARK SMILES IDX 41 46 95 47 89 48 91 49 42 50 94 51 88 52 87 53 43 55 75 56
REMARK SMILES IDX 55 57 74 58 56 59 59 60 73 61 92 62 57 63 58 64 72 66 93 67
REMARK SMILES IDX 60 68 44 69 45 70 53 71 46 72 52 73 54 74 51 75 47 76 48 77
REMARK SMILES IDX 49 78 50 79 76 80 77 81 85 82 78 83 84 84 86 85 83 86 79 87
REMARK SMILES IDX 80 88 81 89 82 90 61 91 62 92 70 93 63 94 69 95 71 96 68 97
REMARK SMILES IDX 64 98 65 99 66 100 67 101
REMARK H PARENT 6 17 9 20 91 54 59 65
REMARK Flexibility Score: inf
ROOT
ATOM      1  O   UNL     1       0.748   2.663  -2.423  1.00  0.00    -0.377 OA
ENDROOT
BRANCH   1   2
ATOM      2  C   UNL     1      -0.556   2.282  -2.815  1.00  0.00     0.188 C 
BRANCH   2   3
ATOM      3  C   UNL     1      -1.651   3.336  -2.638  1.00  0.00     0.188 C 
BRANCH   3   4
ATOM      4  O   UNL     1      -1.573   4.519  -3.419  1.00  0.00    -0.376 OA
BRANCH   4   5
ATOM      5  C   UNL     1      -0.662   5.490  -2.915  1.00  0.00     0.202 C 
BRANCH   5   6
ATOM      6  C   UNL     1      -0.933   6.017  -1.511  1.00  0.00     0.261 C 
BRANCH   6   7
ATOM      7  O   UNL     1      -0.339   5.133  -0.543  1.00  0.00    -0.462 OA
BRANCH   7   8
ATOM      8  C   UNL     1      -1.110   4.733   0.480  1.00  0.00     0.329 C 
ATOM      9  O   UNL     1      -2.239   5.144   0.729  1.00  0.00    -0.250 OA
BRANCH   8  10
ATOM     10  C   UNL     1      -0.446   3.624   1.298  1.00  0.00     0.196 C 
BRANCH  10  11
ATOM     11  C   UNL     1       0.166   4.120   2.629  1.00  0.00     0.019 C 
ATOM     12  C   UNL     1       1.692   4.042   2.711  1.00  0.00     0.010 C 
BRANCH  11  13
ATOM     13  C   UNL     1      -0.533   3.304   3.741  1.00  0.00     0.002 C 
ATOM     14  C   UNL     1      -0.132   3.658   5.154  1.00  0.00     0.004 C 
ENDBRANCH  11  13
ENDBRANCH  10  11
BRANCH  10  15
ATOM     15  N   UNL     1       0.373   2.641   0.579  1.00  0.00    -0.324 N 
ATOM     16  C   UNL     1       0.202   1.311   0.408  1.00  0.00     0.315 C 
ATOM     17  H   UNL     1       1.179   3.011   0.152  1.00  0.00     0.166 HD
ATOM     18  O   UNL     1       1.171   0.571   0.261  1.00  0.00    -0.249 OA
ATOM     19  N   UNL     1      -1.031   0.752   0.377  1.00  0.00    -0.334 N 
ATOM     20  H   UNL     1      -1.058  -0.232   0.348  1.00  0.00     0.165 HD
BRANCH  19  21
ATOM     21  C   UNL     1      -2.300   1.415   0.381  1.00  0.00     0.153 C 
BRANCH  21  22
ATOM     22  C   UNL     1      -3.430   0.913  -0.460  1.00  0.00    -0.029 A 
ATOM     23  C   UNL     1      -4.604   1.687  -0.377  1.00  0.00     0.006 A 
ATOM     24  C   UNL     1      -3.383  -0.155  -1.351  1.00  0.00     0.006 A 
ATOM     25  C   UNL     1      -5.725   1.375  -1.128  1.00  0.00     0.004 A 
ATOM     26  C   UNL     1      -4.519  -0.475  -2.105  1.00  0.00     0.004 A 
ATOM     27  C   UNL     1      -5.698   0.276  -1.984  1.00  0.00    -0.051 A 
ATOM     28  C   UNL     1      -6.938  -0.063  -2.751  1.00  0.00     0.044 C 
ENDBRANCH  21  22
ENDBRANCH  19  21
ENDBRANCH  10  15
ENDBRANCH   8  10
ENDBRANCH   7   8
ENDBRANCH   6   7
ENDBRANCH   5   6
ENDBRANCH   4   5
ENDBRANCH   3   4
ENDBRANCH   2   3
ENDBRANCH   1   2
BRANCH   1  29
ATOM     29  C   UNL     1       1.741   2.838  -3.433  1.00  0.00     0.188 C 
BRANCH  29  30
ATOM     30  C   UNL     1       1.611   2.085  -4.745  1.00  0.00     0.188 C 
BRANCH  30  31
ATOM     31  O   UNL     1       0.545   2.694  -5.490  1.00  0.00    -0.376 OA
BRANCH  31  32
ATOM     32  C   UNL     1      -0.078   1.847  -6.444  1.00  0.00     0.202 C 
BRANCH  32  33
ATOM     33  C   UNL     1       0.881   1.409  -7.551  1.00  0.00     0.261 C 
BRANCH  33  34
ATOM     34  O   UNL     1       1.282   2.566  -8.316  1.00  0.00    -0.460 OA
BRANCH  34  35
ATOM     35  C   UNL     1       2.591   2.927  -8.163  1.00  0.00     0.338 C 
ATOM     36  O   UNL     1       3.536   2.248  -8.483  1.00  0.00    -0.246 OA
BRANCH  35  37
ATOM     37  C   UNL     1       2.684   4.237  -7.445  1.00  0.00     0.060 A 
ATOM     38  C   UNL     1       3.917   4.674  -6.929  1.00  0.00     0.016 A 
ATOM     39  C   UNL     1       1.514   4.878  -7.058  1.00  0.00     0.016 A 
ATOM     40  C   UNL     1       3.955   5.635  -5.905  1.00  0.00     0.010 A 
ATOM     41  C   UNL     1       1.551   5.723  -5.969  1.00  0.00     0.010 A 
ATOM     42  C   UNL     1       2.759   6.091  -5.353  1.00  0.00    -0.014 A 
BRANCH  42  43
ATOM     43  C   UNL     1       2.602   6.744  -4.032  1.00  0.00     0.031 A 
ATOM     44  C   UNL     1       1.626   7.876  -3.894  1.00  0.00     0.074 A 
ATOM     45  C   UNL     1       2.989   6.011  -2.960  1.00  0.00     0.049 A 
ATOM     46  N   UNL     1       1.154   8.364  -2.799  1.00  0.00    -0.248 NA
ATOM     47  C   UNL     1       1.069   8.553  -5.063  1.00  0.00     0.031 C 
ATOM     48  C   UNL     1       2.337   5.940  -1.656  1.00  0.00     0.029 A 
ATOM     49  N   UNL     1       3.974   5.050  -2.844  1.00  0.00    -0.354 N 
ATOM     50  C   UNL     1       0.082   9.203  -3.087  1.00  0.00     0.074 A 
ATOM     51  C   UNL     1       0.113   9.314  -4.522  1.00  0.00     0.031 C 
ATOM     52  C   UNL     1       2.918   5.013  -0.883  1.00  0.00     0.029 A 
ATOM     53  C   UNL     1       4.170   4.708  -1.500  1.00  0.00     0.049 A 
ATOM     54  H   UNL     1       4.470   4.660  -3.600  1.00  0.00     0.167 HD
ATOM     55  C   UNL     1      -0.750   9.619  -2.074  1.00  0.00     0.034 A 
ATOM     56  C   UNL     1       5.342   5.054  -0.892  1.00  0.00     0.034 A 
ATOM     57  C   UNL     1      -0.161   9.291  -0.751  1.00  0.00     0.049 A 
ATOM     58  C   UNL     1       5.144   6.362  -0.063  1.00  0.00     0.074 A 
ATOM     59  C   UNL     1      -0.601   8.662   0.404  1.00  0.00     0.029 A 
ATOM     60  N   UNL     1       1.215   9.480  -0.558  1.00  0.00    -0.354 N 
ATOM     61  N   UNL     1       4.146   7.218  -0.238  1.00  0.00    -0.248 NA
ATOM     62  C   UNL     1       5.882   6.683   1.160  1.00  0.00     0.031 C 
ATOM     63  C   UNL     1       0.551   8.303   1.175  1.00  0.00     0.029 A 
ATOM     64  C   UNL     1       1.686   8.803   0.547  1.00  0.00     0.049 A 
ATOM     65  H   UNL     1       1.780  10.033  -1.145  1.00  0.00     0.167 HD
ATOM     66  C   UNL     1       4.042   8.093   0.817  1.00  0.00     0.074 A 
ATOM     67  C   UNL     1       5.173   7.717   1.656  1.00  0.00     0.031 C 
ATOM     68  C   UNL     1       3.051   9.033   1.016  1.00  0.00     0.034 A 
BRANCH  55  69
ATOM     69  C   UNL     1      -2.188  10.181  -2.230  1.00  0.00     0.023 A 
ATOM     70  C   UNL     1      -2.974  10.441  -1.075  1.00  0.00     0.031 A 
ATOM     71  C   UNL     1      -2.887  10.398  -3.441  1.00  0.00     0.131 A 
ATOM     72  C   UNL     1      -4.336  10.831  -1.148  1.00  0.00     0.055 A 
ATOM     73  C   UNL     1      -4.225  10.833  -3.515  1.00  0.00     0.041 A 
ATOM     74  F   UNL     1      -2.342  10.183  -4.640  1.00  0.00    -0.206 F 
ATOM     75  C   UNL     1      -4.964  11.042  -2.368  1.00  0.00     0.022 A 
BRANCH  72  76
ATOM     76  S   UNL     1      -5.305  11.041   0.379  1.00  0.00     0.124 S 
ATOM     77  O   UNL     1      -5.398   9.671   0.873  1.00  0.00    -0.237 OA
ATOM     78  O   UNL     1      -4.475  11.955   1.155  1.00  0.00    -0.237 OA
ATOM     79  O   UNL     1      -6.568  11.611  -0.093  1.00  0.00    -0.744 OA
ENDBRANCH  72  76
ENDBRANCH  55  69
BRANCH  56  80
ATOM     80  C   UNL     1       6.445   4.391  -1.700  1.00  0.00     0.023 A 
ATOM     81  C   UNL     1       6.285   2.965  -1.767  1.00  0.00     0.031 A 
ATOM     82  C   UNL     1       6.923   5.015  -2.867  1.00  0.00     0.131 A 
ATOM     83  C   UNL     1       6.234   2.308  -3.017  1.00  0.00     0.055 A 
ATOM     84  C   UNL     1       6.950   4.329  -4.101  1.00  0.00     0.041 A 
ATOM     85  F   UNL     1       7.136   6.339  -2.892  1.00  0.00    -0.206 F 
ATOM     86  C   UNL     1       6.527   3.000  -4.191  1.00  0.00     0.022 A 
BRANCH  83  87
ATOM     87  S   UNL     1       5.427   0.664  -3.136  1.00  0.00     0.124 S 
ATOM     88  O   UNL     1       6.491  -0.232  -2.701  1.00  0.00    -0.237 OA
ATOM     89  O   UNL     1       4.295   0.802  -2.231  1.00  0.00    -0.237 OA
ATOM     90  O   UNL     1       5.057   0.569  -4.548  1.00  0.00    -0.744 OA
ENDBRANCH  83  87
ENDBRANCH  56  80
BRANCH  68  91
ATOM     91  C   UNL     1       3.277  10.354   1.745  1.00  0.00     0.023 A 
ATOM     92  C   UNL     1       4.547  10.750   2.161  1.00  0.00     0.031 A 
ATOM     93  C   UNL     1       2.259  11.339   1.896  1.00  0.00     0.131 A 
ATOM     94  C   UNL     1       4.764  11.994   2.769  1.00  0.00     0.055 A 
ATOM     95  C   UNL     1       2.498  12.618   2.409  1.00  0.00     0.041 A 
ATOM     96  F   UNL     1       0.988  11.132   1.525  1.00  0.00    -0.206 F 
ATOM     97  C   UNL     1       3.759  12.949   2.867  1.00  0.00     0.022 A 
BRANCH  94  98
ATOM     98  S   UNL     1       6.391  12.270   3.493  1.00  0.00     0.124 S 
ATOM     99  O   UNL     1       6.431  11.234   4.523  1.00  0.00    -0.237 OA
ATOM    100  O   UNL     1       7.280  12.062   2.355  1.00  0.00    -0.237 OA
ATOM    101  O   UNL     1       6.319  13.641   3.989  1.00  0.00    -0.744 OA
ENDBRANCH  94  98
ENDBRANCH  68  91
ENDBRANCH  42  43
ENDBRANCH  35  37
ENDBRANCH  34  35
ENDBRANCH  33  34
ENDBRANCH  32  33
ENDBRANCH  31  32
ENDBRANCH  30  31
ENDBRANCH  29  30
ENDBRANCH   1  29
TORSDOF 28
