REMARK SMILES Cn1cc(S(=O)(=O)NC[C@H]2CC[C@@H](C(=O)OCCOCCOCCOCCOC(=O)c3ccc(-c4c5nc(c(-c6cc(S(=O)(=O)[O-])ccc6F)c6ccc([nH]6)c(-c6cc(S(=O)(=O)[O-])ccc6F)c6nc(c(-c7cc(S(=O)(=O)[O-])ccc7F)c7ccc4[nH]7)C=C6)C=C5)cc3)CC2)cn1
REMARK SMILES IDX 21 1 20 2 19 3 18 4 17 5 16 6 14 7 15 8 13 9 10 10 11 11
REMARK SMILES IDX 95 12 12 13 94 14 9 15 8 16 5 18 6 19 7 20 4 21 1 22 2 23
REMARK SMILES IDX 3 24 97 25 96 26 22 27 23 28 24 29 25 30 26 31 27 32 28 33
REMARK SMILES IDX 29 34 30 35 31 36 32 37 93 38 33 39 92 40 34 41 35 42 36 43
REMARK SMILES IDX 86 44 37 45 91 46 85 47 87 48 38 49 90 50 84 51 83 52 39 54
REMARK SMILES IDX 71 55 51 56 70 57 52 58 55 59 69 60 88 61 53 62 54 63 68 65
REMARK SMILES IDX 89 66 56 67 40 68 41 69 49 70 42 71 48 72 50 73 47 74 43 75
REMARK SMILES IDX 44 76 45 77 46 78 72 79 73 80 81 81 74 82 80 83 82 84 79 85
REMARK SMILES IDX 75 86 76 87 77 88 78 89 57 90 58 91 66 92 59 93 65 94 67 95
REMARK SMILES IDX 64 96 60 97 61 98 62 99 63 100
REMARK H PARENT 8 17 87 53 55 64
REMARK Flexibility Score: inf
ROOT
ATOM      1  C   UNL     1       7.567  -4.001  -3.078  1.00  0.00     0.188 C 
ENDROOT
BRANCH   1   2
ATOM      2  C   UNL     1       8.321  -2.717  -2.713  1.00  0.00     0.188 C 
BRANCH   2   3
ATOM      3  O   UNL     1       8.360  -2.458  -1.319  1.00  0.00    -0.376 OA
BRANCH   3   4
ATOM      4  C   UNL     1       7.638  -1.308  -0.908  1.00  0.00     0.202 C 
BRANCH   4   5
ATOM      5  C   UNL     1       6.110  -1.391  -0.986  1.00  0.00     0.261 C 
BRANCH   5   6
ATOM      6  O   UNL     1       5.542  -2.010  -2.155  1.00  0.00    -0.463 OA
BRANCH   6   7
ATOM      7  C   UNL     1       5.237  -1.234  -3.216  1.00  0.00     0.309 C 
ATOM      8  O   UNL     1       5.648  -0.090  -3.372  1.00  0.00    -0.252 OA
BRANCH   7   9
ATOM      9  C   UNL     1       4.256  -1.906  -4.190  1.00  0.00     0.099 C 
ATOM     10  C   UNL     1       2.036  -3.032  -2.528  1.00  0.00     0.004 C 
ATOM     11  C   UNL     1       2.183  -1.527  -2.796  1.00  0.00     0.006 C 
ATOM     12  C   UNL     1       3.307  -3.845  -2.799  1.00  0.00     0.006 C 
ATOM     13  C   UNL     1       2.899  -1.202  -4.105  1.00  0.00     0.015 C 
ATOM     14  C   UNL     1       4.016  -3.418  -4.080  1.00  0.00     0.015 C 
BRANCH  10  15
ATOM     15  C   UNL     1       1.451  -3.337  -1.140  1.00  0.00     0.102 C 
BRANCH  15  16
ATOM     16  N   UNL     1       2.336  -3.057  -0.005  1.00  0.00    -0.211 NA
ATOM     17  H   UNL     1       2.115  -3.766   0.694  1.00  0.00     0.141 HD
BRANCH  16  18
ATOM     18  S   UNL     1       2.389  -1.605   0.829  1.00  0.00     0.243 S 
ATOM     19  O   UNL     1       3.465  -0.822   0.268  1.00  0.00    -0.207 OA
ATOM     20  O   UNL     1       2.354  -1.918   2.238  1.00  0.00    -0.207 OA
BRANCH  18  21
ATOM     21  C   UNL     1       0.995  -0.666   0.550  1.00  0.00     0.120 A 
ATOM     22  C   UNL     1      -2.475   0.118   0.113  1.00  0.00     0.173 C 
ATOM     23  N   UNL     1      -1.042   0.041   0.255  1.00  0.00    -0.274 N 
ATOM     24  C   UNL     1      -0.324  -1.034   0.685  1.00  0.00     0.130 A 
ATOM     25  N   UNL     1      -0.280   1.089  -0.119  1.00  0.00    -0.180 NA
ATOM     26  C   UNL     1       0.970   0.660   0.095  1.00  0.00     0.156 A 
ENDBRANCH  18  21
ENDBRANCH  16  18
ENDBRANCH  15  16
ENDBRANCH  10  15
ENDBRANCH   7   9
ENDBRANCH   6   7
ENDBRANCH   5   6
ENDBRANCH   4   5
ENDBRANCH   3   4
ENDBRANCH   2   3
ENDBRANCH   1   2
BRANCH   1  27
ATOM     27  O   UNL     1       6.761  -4.630  -2.091  1.00  0.00    -0.377 OA
BRANCH  27  28
ATOM     28  C   UNL     1       7.348  -4.983  -0.837  1.00  0.00     0.188 C 
BRANCH  28  29
ATOM     29  C   UNL     1       8.855  -5.303  -0.749  1.00  0.00     0.188 C 
BRANCH  29  30
ATOM     30  O   UNL     1       9.466  -5.665  -1.981  1.00  0.00    -0.376 OA
BRANCH  30  31
ATOM     31  C   UNL     1       9.614  -7.057  -2.231  1.00  0.00     0.202 C 
BRANCH  31  32
ATOM     32  C   UNL     1       8.302  -7.824  -2.444  1.00  0.00     0.261 C 
BRANCH  32  33
ATOM     33  O   UNL     1       7.494  -7.979  -1.266  1.00  0.00    -0.460 OA
BRANCH  33  34
ATOM     34  C   UNL     1       8.066  -8.608  -0.216  1.00  0.00     0.338 C 
ATOM     35  O   UNL     1       9.170  -9.118  -0.175  1.00  0.00    -0.246 OA
BRANCH  34  36
ATOM     36  C   UNL     1       7.180  -8.444   0.948  1.00  0.00     0.060 A 
ATOM     37  C   UNL     1       7.667  -7.775   2.077  1.00  0.00     0.016 A 
ATOM     38  C   UNL     1       5.898  -8.998   0.937  1.00  0.00     0.016 A 
ATOM     39  C   UNL     1       6.885  -7.709   3.228  1.00  0.00     0.010 A 
ATOM     40  C   UNL     1       5.123  -8.945   2.096  1.00  0.00     0.010 A 
ATOM     41  C   UNL     1       5.633  -8.339   3.258  1.00  0.00    -0.014 A 
BRANCH  41  42
ATOM     42  C   UNL     1       4.966  -8.569   4.562  1.00  0.00     0.031 A 
ATOM     43  C   UNL     1       5.221  -9.876   5.264  1.00  0.00     0.074 A 
ATOM     44  C   UNL     1       4.174  -7.636   5.117  1.00  0.00     0.049 A 
ATOM     45  N   UNL     1       4.749 -10.319   6.399  1.00  0.00    -0.248 NA
ATOM     46  C   UNL     1       6.132 -10.812   4.583  1.00  0.00     0.031 C 
ATOM     47  C   UNL     1       3.883  -6.324   4.542  1.00  0.00     0.029 A 
ATOM     48  N   UNL     1       3.466  -7.656   6.291  1.00  0.00    -0.354 N 
ATOM     49  C   UNL     1       5.309 -11.580   6.574  1.00  0.00     0.074 A 
ATOM     50  C   UNL     1       6.120 -11.848   5.406  1.00  0.00     0.031 C 
ATOM     51  C   UNL     1       3.045  -5.666   5.364  1.00  0.00     0.029 A 
ATOM     52  C   UNL     1       2.722  -6.520   6.506  1.00  0.00     0.049 A 
ATOM     53  H   UNL     1       3.489  -8.412   6.921  1.00  0.00     0.167 HD
ATOM     54  C   UNL     1       5.170 -12.432   7.619  1.00  0.00     0.034 A 
ATOM     55  C   UNL     1       1.866  -6.218   7.504  1.00  0.00     0.034 A 
ATOM     56  C   UNL     1       4.337 -12.162   8.764  1.00  0.00     0.049 A 
ATOM     57  C   UNL     1       1.665  -7.216   8.622  1.00  0.00     0.074 A 
ATOM     58  C   UNL     1       4.118 -12.951   9.879  1.00  0.00     0.029 A 
ATOM     59  N   UNL     1       3.572 -11.014   8.933  1.00  0.00    -0.354 N 
ATOM     60  N   UNL     1       2.214  -8.399   8.786  1.00  0.00    -0.248 NA
ATOM     61  C   UNL     1       0.740  -6.830   9.695  1.00  0.00     0.031 C 
ATOM     62  C   UNL     1       3.172 -12.312  10.689  1.00  0.00     0.029 A 
ATOM     63  C   UNL     1       2.857 -11.088  10.119  1.00  0.00     0.049 A 
ATOM     64  H   UNL     1       3.541 -10.258   8.303  1.00  0.00     0.167 HD
ATOM     65  C   UNL     1       1.723  -8.881   9.998  1.00  0.00     0.074 A 
ATOM     66  C   UNL     1       0.845  -7.857  10.525  1.00  0.00     0.031 C 
ATOM     67  C   UNL     1       1.978 -10.060  10.623  1.00  0.00     0.034 A 
BRANCH  54  68
ATOM     68  C   UNL     1       5.893 -13.753   7.528  1.00  0.00     0.023 A 
ATOM     69  C   UNL     1       7.298 -13.826   7.504  1.00  0.00     0.031 A 
ATOM     70  C   UNL     1       5.169 -14.952   7.412  1.00  0.00     0.131 A 
ATOM     71  C   UNL     1       7.931 -15.061   7.293  1.00  0.00     0.055 A 
ATOM     72  C   UNL     1       5.806 -16.187   7.280  1.00  0.00     0.041 A 
ATOM     73  F   UNL     1       3.827 -14.941   7.402  1.00  0.00    -0.206 F 
ATOM     74  C   UNL     1       7.195 -16.245   7.205  1.00  0.00     0.022 A 
BRANCH  71  75
ATOM     75  S   UNL     1       9.719 -15.080   6.990  1.00  0.00     0.124 S 
ATOM     76  O   UNL     1       9.827 -14.232   5.806  1.00  0.00    -0.237 OA
ATOM     77  O   UNL     1      10.255 -14.523   8.226  1.00  0.00    -0.237 OA
ATOM     78  O   UNL     1      10.014 -16.493   6.763  1.00  0.00    -0.744 OA
ENDBRANCH  71  75
ENDBRANCH  54  68
BRANCH  55  79
ATOM     79  C   UNL     1       1.105  -4.937   7.486  1.00  0.00     0.023 A 
ATOM     80  C   UNL     1       1.288  -3.965   8.482  1.00  0.00     0.031 A 
ATOM     81  C   UNL     1       0.131  -4.695   6.500  1.00  0.00     0.131 A 
ATOM     82  C   UNL     1       0.476  -2.819   8.499  1.00  0.00     0.055 A 
ATOM     83  C   UNL     1      -0.636  -3.529   6.491  1.00  0.00     0.041 A 
ATOM     84  F   UNL     1      -0.090  -5.595   5.528  1.00  0.00    -0.206 F 
ATOM     85  C   UNL     1      -0.475  -2.589   7.503  1.00  0.00     0.022 A 
BRANCH  82  86
ATOM     86  S   UNL     1       0.616  -1.674   9.900  1.00  0.00     0.124 S 
ATOM     87  O   UNL     1       0.316  -2.548  11.029  1.00  0.00    -0.237 OA
ATOM     88  O   UNL     1       1.998  -1.222   9.789  1.00  0.00    -0.237 OA
ATOM     89  O   UNL     1      -0.395  -0.658   9.612  1.00  0.00    -0.744 OA
ENDBRANCH  82  86
ENDBRANCH  55  79
BRANCH  67  90
ATOM     90  C   UNL     1       1.332 -10.275  11.971  1.00  0.00     0.023 A 
ATOM     91  C   UNL     1      -0.059 -10.423  12.113  1.00  0.00     0.031 A 
ATOM     92  C   UNL     1       2.124 -10.323  13.132  1.00  0.00     0.131 A 
ATOM     93  C   UNL     1      -0.621 -10.554  13.392  1.00  0.00     0.055 A 
ATOM     94  C   UNL     1       1.565 -10.512  14.396  1.00  0.00     0.041 A 
ATOM     95  F   UNL     1       3.458 -10.189  13.055  1.00  0.00    -0.206 F 
ATOM     96  C   UNL     1       0.184 -10.615  14.533  1.00  0.00     0.022 A 
BRANCH  93  97
ATOM     97  S   UNL     1      -2.428 -10.552  13.555  1.00  0.00     0.124 S 
ATOM     98  O   UNL     1      -2.789  -9.283  12.931  1.00  0.00    -0.237 OA
ATOM     99  O   UNL     1      -2.808 -11.755  12.821  1.00  0.00    -0.237 OA
ATOM    100  O   UNL     1      -2.642 -10.616  15.000  1.00  0.00    -0.744 OA
ENDBRANCH  93  97
ENDBRANCH  67  90
ENDBRANCH  41  42
ENDBRANCH  34  36
ENDBRANCH  33  34
ENDBRANCH  32  33
ENDBRANCH  31  32
ENDBRANCH  30  31
ENDBRANCH  29  30
ENDBRANCH  28  29
ENDBRANCH  27  28
ENDBRANCH   1  27
TORSDOF 27
