REMARK SMILES O=C(CC(=O)c1ccccc1)Nc1cccc(C(=O)OCCOCCOCCOCCOC(=O)c2ccc(-c3c4nc(c(-c5cc(S(=O)(=O)[O-])ccc5F)c5ccc([nH]5)c(-c5cc(S(=O)(=O)[O-])ccc5F)c5nc(c(-c6cc(S(=O)(=O)[O-])ccc6F)c6ccc3[nH]6)C=C5)C=C4)cc2)c1
REMARK SMILES IDX 25 1 24 2 23 3 22 4 21 5 20 6 18 7 19 8 17 9 13 10 14 11
REMARK SMILES IDX 98 12 15 13 16 14 12 15 1 16 2 17 3 19 4 20 5 21 6 22 7 23
REMARK SMILES IDX 11 24 8 25 10 26 9 27 26 28 27 29 28 30 29 31 30 32 31 33
REMARK SMILES IDX 32 34 33 35 34 36 35 37 36 38 97 39 37 40 96 41 38 42 39 43
REMARK SMILES IDX 40 44 90 45 41 46 95 47 89 48 91 49 42 50 94 51 88 52 87 53
REMARK SMILES IDX 43 55 75 56 55 57 74 58 56 59 59 60 73 61 92 62 57 63 58 64
REMARK SMILES IDX 72 66 93 67 60 68 44 69 45 70 53 71 46 72 52 73 54 74 51 75
REMARK SMILES IDX 47 76 48 77 49 78 50 79 76 80 77 81 85 82 78 83 84 84 86 85
REMARK SMILES IDX 83 86 79 87 80 88 81 89 82 90 61 91 62 92 70 93 63 94 69 95
REMARK SMILES IDX 71 96 68 97 64 98 65 99 66 100 67 101
REMARK H PARENT 12 18 91 54 59 65
REMARK Flexibility Score: inf
ROOT
ATOM      1  C   UNL     1       0.887  -5.669   0.409  1.00  0.00     0.188 C 
ENDROOT
BRANCH   1   2
ATOM      2  C   UNL     1      -0.392  -6.198   1.092  1.00  0.00     0.188 C 
BRANCH   2   3
ATOM      3  O   UNL     1      -1.485  -6.405   0.212  1.00  0.00    -0.376 OA
BRANCH   3   4
ATOM      4  C   UNL     1      -2.647  -5.616   0.404  1.00  0.00     0.202 C 
BRANCH   4   5
ATOM      5  C   UNL     1      -2.524  -4.133   0.039  1.00  0.00     0.261 C 
BRANCH   5   6
ATOM      6  O   UNL     1      -1.395  -3.465   0.611  1.00  0.00    -0.460 OA
BRANCH   6   7
ATOM      7  C   UNL     1      -1.396  -3.203   1.936  1.00  0.00     0.338 C 
ATOM      8  O   UNL     1      -2.266  -3.478   2.742  1.00  0.00    -0.246 OA
BRANCH   7   9
ATOM      9  C   UNL     1      -0.031  -2.729   2.275  1.00  0.00     0.062 A 
ATOM     10  C   UNL     1       2.001  -1.579   1.609  1.00  0.00     0.042 A 
ATOM     11  C   UNL     1       2.653  -2.129   2.719  1.00  0.00     0.026 A 
ATOM     12  C   UNL     1       0.662  -1.897   1.387  1.00  0.00     0.041 A 
ATOM     13  C   UNL     1       1.957  -2.940   3.624  1.00  0.00     0.003 A 
ATOM     14  C   UNL     1       0.609  -3.232   3.411  1.00  0.00     0.016 A 
BRANCH  10  15
ATOM     15  N   UNL     1       2.730  -0.711   0.768  1.00  0.00    -0.326 N 
ATOM     16  O   UNL     1       0.980   0.294  -0.403  1.00  0.00    -0.274 OA
ATOM     17  C   UNL     1       2.174   0.176  -0.145  1.00  0.00     0.232 C 
ATOM     18  H   UNL     1       3.712  -0.736   0.834  1.00  0.00     0.169 HD
BRANCH  17  19
ATOM     19  C   UNL     1       3.167   1.111  -0.766  1.00  0.00     0.181 C 
BRANCH  19  20
ATOM     20  C   UNL     1       4.001   1.918   0.195  1.00  0.00     0.172 C 
ATOM     21  O   UNL     1       5.232   1.893   0.125  1.00  0.00    -0.294 OA
BRANCH  20  22
ATOM     22  C   UNL     1       3.380   2.807   1.221  1.00  0.00     0.018 A 
ATOM     23  C   UNL     1       4.009   4.035   1.467  1.00  0.00     0.012 A 
ATOM     24  C   UNL     1       2.285   2.437   2.010  1.00  0.00     0.012 A 
ATOM     25  C   UNL     1       3.553   4.875   2.486  1.00  0.00     0.001 A 
ATOM     26  C   UNL     1       1.841   3.272   3.039  1.00  0.00     0.001 A 
ATOM     27  C   UNL     1       2.475   4.488   3.279  1.00  0.00     0.000 A 
ENDBRANCH  20  22
ENDBRANCH  19  20
ENDBRANCH  17  19
ENDBRANCH  10  15
ENDBRANCH   7   9
ENDBRANCH   6   7
ENDBRANCH   5   6
ENDBRANCH   4   5
ENDBRANCH   3   4
ENDBRANCH   2   3
ENDBRANCH   1   2
BRANCH   1  28
ATOM     28  O   UNL     1       0.870  -5.324  -0.967  1.00  0.00    -0.377 OA
BRANCH  28  29
ATOM     29  C   UNL     1       0.183  -6.154  -1.897  1.00  0.00     0.188 C 
BRANCH  29  30
ATOM     30  C   UNL     1       0.112  -7.683  -1.682  1.00  0.00     0.188 C 
BRANCH  30  31
ATOM     31  O   UNL     1       0.920  -8.172  -0.620  1.00  0.00    -0.376 OA
BRANCH  31  32
ATOM     32  C   UNL     1       2.070  -8.913  -0.997  1.00  0.00     0.202 C 
BRANCH  32  33
ATOM     33  C   UNL     1       3.178  -8.103  -1.682  1.00  0.00     0.261 C 
BRANCH  33  34
ATOM     34  O   UNL     1       2.810  -7.456  -2.910  1.00  0.00    -0.460 OA
BRANCH  34  35
ATOM     35  C   UNL     1       2.421  -8.238  -3.943  1.00  0.00     0.338 C 
ATOM     36  O   UNL     1       2.355  -9.454  -3.961  1.00  0.00    -0.246 OA
BRANCH  35  37
ATOM     37  C   UNL     1       1.915  -7.336  -4.998  1.00  0.00     0.060 A 
ATOM     38  C   UNL     1       0.569  -7.402  -5.383  1.00  0.00     0.016 A 
ATOM     39  C   UNL     1       2.770  -6.391  -5.566  1.00  0.00     0.016 A 
ATOM     40  C   UNL     1       0.075  -6.513  -6.342  1.00  0.00     0.010 A 
ATOM     41  C   UNL     1       2.281  -5.522  -6.542  1.00  0.00     0.010 A 
ATOM     42  C   UNL     1       0.935  -5.585  -6.945  1.00  0.00    -0.014 A 
BRANCH  42  43
ATOM     43  C   UNL     1       0.498  -4.783  -8.115  1.00  0.00     0.031 A 
ATOM     44  C   UNL     1       0.846  -5.287  -9.488  1.00  0.00     0.074 A 
ATOM     45  C   UNL     1      -0.165  -3.622  -7.964  1.00  0.00     0.049 A 
ATOM     46  N   UNL     1       0.729  -4.694 -10.646  1.00  0.00    -0.248 NA
ATOM     47  C   UNL     1       1.408  -6.645  -9.557  1.00  0.00     0.031 C 
ATOM     48  C   UNL     1      -0.619  -3.064  -6.691  1.00  0.00     0.029 A 
ATOM     49  N   UNL     1      -0.553  -2.690  -8.896  1.00  0.00    -0.354 N 
ATOM     50  C   UNL     1       1.195  -5.607 -11.585  1.00  0.00     0.074 A 
ATOM     51  C   UNL     1       1.633  -6.778 -10.855  1.00  0.00     0.031 C 
ATOM     52  C   UNL     1      -1.205  -1.875  -6.921  1.00  0.00     0.029 A 
ATOM     53  C   UNL     1      -1.119  -1.561  -8.347  1.00  0.00     0.049 A 
ATOM     54  H   UNL     1      -0.438  -2.817  -9.865  1.00  0.00     0.167 HD
ATOM     55  C   UNL     1       1.245  -5.483 -12.933  1.00  0.00     0.034 A 
ATOM     56  C   UNL     1      -1.480  -0.396  -8.926  1.00  0.00     0.034 A 
ATOM     57  C   UNL     1       0.834  -4.300 -13.645  1.00  0.00     0.049 A 
ATOM     58  C   UNL     1      -1.268  -0.224 -10.417  1.00  0.00     0.074 A 
ATOM     59  C   UNL     1       0.867  -4.058 -15.007  1.00  0.00     0.029 A 
ATOM     60  N   UNL     1       0.321  -3.155 -13.050  1.00  0.00    -0.354 N 
ATOM     61  N   UNL     1      -0.811  -1.087 -11.296  1.00  0.00    -0.248 NA
ATOM     62  C   UNL     1      -1.617   1.084 -10.993  1.00  0.00     0.031 C 
ATOM     63  C   UNL     1       0.439  -2.746 -15.229  1.00  0.00     0.029 A 
ATOM     64  C   UNL     1       0.065  -2.194 -14.015  1.00  0.00     0.049 A 
ATOM     65  H   UNL     1       0.163  -3.042 -12.085  1.00  0.00     0.167 HD
ATOM     66  C   UNL     1      -0.856  -0.437 -12.528  1.00  0.00     0.074 A 
ATOM     67  C   UNL     1      -1.399   0.881 -12.284  1.00  0.00     0.031 C 
ATOM     68  C   UNL     1      -0.483  -0.885 -13.754  1.00  0.00     0.034 A 
BRANCH  55  69
ATOM     69  C   UNL     1       1.801  -6.644 -13.715  1.00  0.00     0.023 A 
ATOM     70  C   UNL     1       1.135  -7.881 -13.763  1.00  0.00     0.031 A 
ATOM     71  C   UNL     1       3.012  -6.517 -14.418  1.00  0.00     0.131 A 
ATOM     72  C   UNL     1       1.710  -8.957 -14.454  1.00  0.00     0.055 A 
ATOM     73  C   UNL     1       3.542  -7.570 -15.164  1.00  0.00     0.041 A 
ATOM     74  F   UNL     1       3.703  -5.366 -14.386  1.00  0.00    -0.206 F 
ATOM     75  C   UNL     1       2.895  -8.803 -15.177  1.00  0.00     0.022 A 
BRANCH  72  76
ATOM     76  S   UNL     1       0.944 -10.593 -14.300  1.00  0.00     0.124 S 
ATOM     77  O   UNL     1       1.039 -10.830 -12.862  1.00  0.00    -0.237 OA
ATOM     78  O   UNL     1      -0.398 -10.365 -14.823  1.00  0.00    -0.237 OA
ATOM     79  O   UNL     1       1.796 -11.449 -15.123  1.00  0.00    -0.744 OA
ENDBRANCH  72  76
ENDBRANCH  55  69
BRANCH  56  80
ATOM     80  C   UNL     1      -2.011   0.742  -8.115  1.00  0.00     0.023 A 
ATOM     81  C   UNL     1      -3.271   1.299  -8.393  1.00  0.00     0.031 A 
ATOM     82  C   UNL     1      -1.221   1.369  -7.134  1.00  0.00     0.131 A 
ATOM     83  C   UNL     1      -3.670   2.485  -7.757  1.00  0.00     0.055 A 
ATOM     84  C   UNL     1      -1.655   2.507  -6.451  1.00  0.00     0.041 A 
ATOM     85  F   UNL     1      -0.001   0.893  -6.836  1.00  0.00    -0.206 F 
ATOM     86  C   UNL     1      -2.877   3.085  -6.777  1.00  0.00     0.022 A 
BRANCH  83  87
ATOM     87  S   UNL     1      -5.173   3.317  -8.342  1.00  0.00     0.124 S 
ATOM     88  O   UNL     1      -4.883   3.485  -9.762  1.00  0.00    -0.237 OA
ATOM     89  O   UNL     1      -6.207   2.343  -8.009  1.00  0.00    -0.237 OA
ATOM     90  O   UNL     1      -5.205   4.552  -7.561  1.00  0.00    -0.744 OA
ENDBRANCH  83  87
ENDBRANCH  56  80
BRANCH  68  91
ATOM     91  C   UNL     1      -0.704   0.038 -14.928  1.00  0.00     0.023 A 
ATOM     92  C   UNL     1       0.026   1.230 -15.080  1.00  0.00     0.031 A 
ATOM     93  C   UNL     1      -1.652  -0.288 -15.914  1.00  0.00     0.131 A 
ATOM     94  C   UNL     1      -0.237   2.076 -16.169  1.00  0.00     0.055 A 
ATOM     95  C   UNL     1      -1.868   0.528 -17.025  1.00  0.00     0.041 A 
ATOM     96  F   UNL     1      -2.378  -1.414 -15.819  1.00  0.00    -0.206 F 
ATOM     97  C   UNL     1      -1.166   1.723 -17.151  1.00  0.00     0.022 A 
BRANCH  94  98
ATOM     98  S   UNL     1       0.602   3.682 -16.248  1.00  0.00     0.124 S 
ATOM     99  O   UNL     1       0.145   4.324 -15.021  1.00  0.00    -0.237 OA
ATOM    100  O   UNL     1       2.010   3.299 -16.281  1.00  0.00    -0.237 OA
ATOM    101  O   UNL     1       0.094   4.274 -17.485  1.00  0.00    -0.744 OA
ENDBRANCH  94  98
ENDBRANCH  68  91
ENDBRANCH  42  43
ENDBRANCH  35  37
ENDBRANCH  34  35
ENDBRANCH  33  34
ENDBRANCH  32  33
ENDBRANCH  31  32
ENDBRANCH  30  31
ENDBRANCH  29  30
ENDBRANCH  28  29
ENDBRANCH   1  28
TORSDOF 27
