REMARK SMILES Cn1nc(C(=O)N2C[C@@H](O)C[C@H]2C(=O)OCCOCCOCCOCCOC(=O)c2ccc(-c3c4nc(c(-c5cc(S(=O)(=O)[O-])ccc5F)c5ccc([nH]5)c(-c5cc(S(=O)(=O)[O-])ccc5F)c5nc(c(-c6cc(S(=O)(=O)[O-])ccc6F)c6ccc3[nH]6)C=C5)C=C4)cc2)ccc1=O
REMARK SMILES IDX 22 1 21 2 20 3 19 4 18 5 17 6 16 7 15 8 13 9 14 10 12 11
REMARK SMILES IDX 7 12 8 13 9 14 11 15 5 16 6 17 4 18 1 19 2 20 3 21 95 22
REMARK SMILES IDX 94 23 96 24 93 25 10 26 23 28 24 29 25 30 26 31 27 32 28 33
REMARK SMILES IDX 29 34 30 35 31 36 92 37 32 38 91 39 33 40 34 41 35 42 85 43
REMARK SMILES IDX 36 44 90 45 84 46 86 47 37 48 89 49 83 50 82 51 38 53 70 54
REMARK SMILES IDX 50 55 69 56 51 57 54 58 68 59 87 60 52 61 53 62 67 64 88 65
REMARK SMILES IDX 55 66 39 67 40 68 48 69 41 70 47 71 49 72 46 73 42 74 43 75
REMARK SMILES IDX 44 76 45 77 71 78 72 79 80 80 73 81 79 82 81 83 78 84 74 85
REMARK SMILES IDX 75 86 76 87 77 88 56 89 57 90 65 91 58 92 64 93 66 94 63 95
REMARK SMILES IDX 59 96 60 97 61 98 62 99
REMARK H PARENT 10 27 86 52 54 63
REMARK Flexibility Score: inf
ROOT
ATOM      1  C   UNL     1      -1.740  -3.688  -7.507  1.00  0.00     0.188 C 
ENDROOT
BRANCH   1   2
ATOM      2  O   UNL     1      -1.010  -4.547  -6.658  1.00  0.00    -0.377 OA
BRANCH   2   3
ATOM      3  C   UNL     1       0.350  -4.261  -6.451  1.00  0.00     0.188 C 
BRANCH   3   4
ATOM      4  C   UNL     1       1.286  -5.342  -6.973  1.00  0.00     0.188 C 
BRANCH   4   5
ATOM      5  O   UNL     1       0.776  -6.503  -7.610  1.00  0.00    -0.376 OA
BRANCH   5   6
ATOM      6  C   UNL     1      -0.486  -7.052  -7.238  1.00  0.00     0.202 C 
BRANCH   6   7
ATOM      7  C   UNL     1      -0.739  -7.449  -5.768  1.00  0.00     0.261 C 
BRANCH   7   8
ATOM      8  O   UNL     1      -0.843  -6.370  -4.801  1.00  0.00    -0.462 OA
BRANCH   8   9
ATOM      9  C   UNL     1       0.203  -6.208  -3.958  1.00  0.00     0.329 C 
ATOM     10  O   UNL     1       1.201  -6.930  -3.964  1.00  0.00    -0.250 OA
BRANCH   9  11
ATOM     11  C   UNL     1       0.046  -5.102  -2.877  1.00  0.00     0.198 C 
ATOM     12  N   UNL     1      -0.946  -4.001  -2.810  1.00  0.00    -0.321 N 
ATOM     13  C   UNL     1      -1.744  -4.079  -1.606  1.00  0.00     0.152 C 
ATOM     14  C   UNL     1      -0.936  -4.950  -0.658  1.00  0.00     0.136 C 
ATOM     15  C   UNL     1      -0.215  -5.907  -1.591  1.00  0.00     0.071 C 
BRANCH  12  16
ATOM     16  C   UNL     1      -0.819  -2.799  -3.491  1.00  0.00     0.275 C 
ATOM     17  O   UNL     1      -1.111  -2.667  -4.672  1.00  0.00    -0.267 OA
BRANCH  16  18
ATOM     18  C   UNL     1      -0.312  -1.527  -2.787  1.00  0.00     0.149 A 
ATOM     19  C   UNL     1       0.950  -0.324   0.365  1.00  0.00     0.178 C 
ATOM     20  N   UNL     1       0.502  -0.319  -1.012  1.00  0.00    -0.232 N 
ATOM     21  N   UNL     1       0.097  -1.540  -1.553  1.00  0.00    -0.165 NA
ATOM     22  C   UNL     1       0.517   0.892  -1.700  1.00  0.00     0.266 A 
ATOM     23  C   UNL     1       0.104   0.838  -3.111  1.00  0.00     0.076 A 
ATOM     24  O   UNL     1       0.864   1.972  -1.227  1.00  0.00    -0.268 OA
ATOM     25  C   UNL     1      -0.291  -0.313  -3.650  1.00  0.00     0.042 A 
ENDBRANCH  16  18
ENDBRANCH  12  16
BRANCH  14  26
ATOM     26  O   UNL     1      -1.741  -5.665   0.263  1.00  0.00    -0.391 OA
ATOM     27  H   UNL     1      -2.366  -6.227  -0.222  1.00  0.00     0.211 HD
ENDBRANCH  14  26
ENDBRANCH   9  11
ENDBRANCH   8   9
ENDBRANCH   7   8
ENDBRANCH   6   7
ENDBRANCH   5   6
ENDBRANCH   4   5
ENDBRANCH   3   4
ENDBRANCH   2   3
ENDBRANCH   1   2
BRANCH   1  28
ATOM     28  C   UNL     1      -1.101  -3.433  -8.873  1.00  0.00     0.188 C 
BRANCH  28  29
ATOM     29  O   UNL     1      -0.012  -2.525  -8.980  1.00  0.00    -0.376 OA
BRANCH  29  30
ATOM     30  C   UNL     1       0.020  -1.280  -8.303  1.00  0.00     0.202 C 
BRANCH  30  31
ATOM     31  C   UNL     1      -1.170  -0.316  -8.166  1.00  0.00     0.261 C 
BRANCH  31  32
ATOM     32  O   UNL     1      -2.462  -0.885  -7.986  1.00  0.00    -0.460 OA
BRANCH  32  33
ATOM     33  C   UNL     1      -3.194  -1.011  -9.118  1.00  0.00     0.338 C 
ATOM     34  O   UNL     1      -2.858  -0.715 -10.247  1.00  0.00    -0.246 OA
BRANCH  33  35
ATOM     35  C   UNL     1      -4.441  -1.720  -8.783  1.00  0.00     0.060 A 
ATOM     36  C   UNL     1      -4.687  -2.966  -9.373  1.00  0.00     0.016 A 
ATOM     37  C   UNL     1      -5.388  -1.122  -7.950  1.00  0.00     0.016 A 
ATOM     38  C   UNL     1      -5.902  -3.608  -9.159  1.00  0.00     0.010 A 
ATOM     39  C   UNL     1      -6.622  -1.747  -7.769  1.00  0.00     0.010 A 
ATOM     40  C   UNL     1      -6.894  -2.969  -8.408  1.00  0.00    -0.014 A 
BRANCH  40  41
ATOM     41  C   UNL     1      -8.289  -3.449  -8.506  1.00  0.00     0.031 A 
ATOM     42  C   UNL     1      -9.156  -2.861  -9.584  1.00  0.00     0.074 A 
ATOM     43  C   UNL     1      -8.766  -4.385  -7.670  1.00  0.00     0.049 A 
ATOM     44  N   UNL     1     -10.412  -3.096  -9.850  1.00  0.00    -0.248 NA
ATOM     45  C   UNL     1      -8.523  -1.880 -10.484  1.00  0.00     0.031 C 
ATOM     46  C   UNL     1      -7.994  -5.055  -6.626  1.00  0.00     0.029 A 
ATOM     47  N   UNL     1     -10.021  -4.927  -7.567  1.00  0.00    -0.354 N 
ATOM     48  C   UNL     1     -10.722  -2.287 -10.935  1.00  0.00     0.074 A 
ATOM     49  C   UNL     1      -9.533  -1.542 -11.272  1.00  0.00     0.031 C 
ATOM     50  C   UNL     1      -8.800  -5.913  -5.977  1.00  0.00     0.029 A 
ATOM     51  C   UNL     1     -10.149  -5.828  -6.537  1.00  0.00     0.049 A 
ATOM     52  H   UNL     1     -10.761  -4.693  -8.173  1.00  0.00     0.167 HD
ATOM     53  C   UNL     1     -11.898  -2.182 -11.591  1.00  0.00     0.034 A 
ATOM     54  C   UNL     1     -11.236  -6.493  -6.092  1.00  0.00     0.034 A 
ATOM     55  C   UNL     1     -13.073  -2.934 -11.250  1.00  0.00     0.049 A 
ATOM     56  C   UNL     1     -12.555  -6.306  -6.805  1.00  0.00     0.074 A 
ATOM     57  C   UNL     1     -14.303  -2.923 -11.883  1.00  0.00     0.029 A 
ATOM     58  N   UNL     1     -13.173  -3.819 -10.188  1.00  0.00    -0.354 N 
ATOM     59  N   UNL     1     -12.822  -5.588  -7.870  1.00  0.00    -0.248 NA
ATOM     60  C   UNL     1     -13.719  -7.021  -6.262  1.00  0.00     0.031 C 
ATOM     61  C   UNL     1     -15.166  -3.747 -11.163  1.00  0.00     0.029 A 
ATOM     62  C   UNL     1     -14.456  -4.332 -10.127  1.00  0.00     0.049 A 
ATOM     63  H   UNL     1     -12.441  -4.047  -9.570  1.00  0.00     0.167 HD
ATOM     64  C   UNL     1     -14.171  -5.796  -8.147  1.00  0.00     0.074 A 
ATOM     65  C   UNL     1     -14.664  -6.714  -7.142  1.00  0.00     0.031 C 
ATOM     66  C   UNL     1     -14.929  -5.275  -9.143  1.00  0.00     0.034 A 
BRANCH  53  67
ATOM     67  C   UNL     1     -12.004  -1.222 -12.743  1.00  0.00     0.023 A 
ATOM     68  C   UNL     1     -12.866  -0.115 -12.642  1.00  0.00     0.031 A 
ATOM     69  C   UNL     1     -11.391  -1.487 -13.979  1.00  0.00     0.131 A 
ATOM     70  C   UNL     1     -13.137   0.656 -13.777  1.00  0.00     0.055 A 
ATOM     71  C   UNL     1     -11.635  -0.690 -15.098  1.00  0.00     0.041 A 
ATOM     72  F   UNL     1     -10.554  -2.528 -14.115  1.00  0.00    -0.206 F 
ATOM     73  C   UNL     1     -12.524   0.377 -15.003  1.00  0.00     0.022 A 
BRANCH  70  74
ATOM     74  S   UNL     1     -14.341   2.010 -13.713  1.00  0.00     0.124 S 
ATOM     75  O   UNL     1     -13.577   3.121 -14.276  1.00  0.00    -0.237 OA
ATOM     76  O   UNL     1     -15.416   1.499 -14.556  1.00  0.00    -0.237 OA
ATOM     77  O   UNL     1     -14.652   2.134 -12.292  1.00  0.00    -0.744 OA
ENDBRANCH  70  74
ENDBRANCH  53  67
BRANCH  54  78
ATOM     78  C   UNL     1     -11.104  -7.425  -4.937  1.00  0.00     0.023 A 
ATOM     79  C   UNL     1     -10.737  -6.956  -3.662  1.00  0.00     0.031 A 
ATOM     80  C   UNL     1     -11.278  -8.808  -5.110  1.00  0.00     0.131 A 
ATOM     81  C   UNL     1     -10.506  -7.870  -2.625  1.00  0.00     0.055 A 
ATOM     82  C   UNL     1     -11.107  -9.709  -4.058  1.00  0.00     0.041 A 
ATOM     83  F   UNL     1     -11.621  -9.300  -6.310  1.00  0.00    -0.206 F 
ATOM     84  C   UNL     1     -10.707  -9.241  -2.810  1.00  0.00     0.022 A 
BRANCH  81  85
ATOM     85  S   UNL     1      -9.854  -7.315  -1.026  1.00  0.00     0.124 S 
ATOM     86  O   UNL     1     -10.826  -7.868  -0.088  1.00  0.00    -0.237 OA
ATOM     87  O   UNL     1      -8.535  -7.942  -1.011  1.00  0.00    -0.237 OA
ATOM     88  O   UNL     1      -9.848  -5.860  -1.141  1.00  0.00    -0.744 OA
ENDBRANCH  81  85
ENDBRANCH  54  78
BRANCH  66  89
ATOM     89  C   UNL     1     -16.377  -5.684  -9.255  1.00  0.00     0.023 A 
ATOM     90  C   UNL     1     -16.818  -6.370 -10.404  1.00  0.00     0.031 A 
ATOM     91  C   UNL     1     -17.338  -5.240  -8.333  1.00  0.00     0.131 A 
ATOM     92  C   UNL     1     -18.189  -6.544 -10.628  1.00  0.00     0.055 A 
ATOM     93  C   UNL     1     -18.701  -5.459  -8.537  1.00  0.00     0.041 A 
ATOM     94  F   UNL     1     -16.966  -4.572  -7.229  1.00  0.00    -0.206 F 
ATOM     95  C   UNL     1     -19.132  -6.099  -9.697  1.00  0.00     0.022 A 
BRANCH  92  96
ATOM     96  S   UNL     1     -18.797  -7.277 -12.171  1.00  0.00     0.124 S 
ATOM     97  O   UNL     1     -19.618  -8.382 -11.680  1.00  0.00    -0.237 OA
ATOM     98  O   UNL     1     -19.537  -6.168 -12.767  1.00  0.00    -0.237 OA
ATOM     99  O   UNL     1     -17.583  -7.675 -12.876  1.00  0.00    -0.744 OA
ENDBRANCH  92  96
ENDBRANCH  66  89
ENDBRANCH  40  41
ENDBRANCH  33  35
ENDBRANCH  32  33
ENDBRANCH  31  32
ENDBRANCH  30  31
ENDBRANCH  29  30
ENDBRANCH  28  29
ENDBRANCH   1  28
TORSDOF 26
