REMARK SMILES Cc1c(Br)c(C)c2c(c1Br)O[C@H](C(F)(F)F)C(C(=O)OCCOCCOCCOCCOC(=O)c1ccc(-c3c4nc(c(-c5cc(S(=O)(=O)[O-])ccc5F)c5ccc([nH]5)c(-c5cc(S(=O)(=O)[O-])ccc5F)c5nc(c(-c6cc(S(=O)(=O)[O-])ccc6F)c6ccc3[nH]6)C=C5)C=C4)cc1)=C2
REMARK SMILES IDX 27 1 26 2 25 3 24 4 23 5 22 6 21 7 20 8 18 9 19 10 17 11
REMARK SMILES IDX 1 12 2 13 3 14 9 15 4 16 5 17 8 18 10 19 6 20 7 21 11 22
REMARK SMILES IDX 98 23 12 24 13 25 14 26 15 27 16 28 28 29 29 30 30 31 31 32
REMARK SMILES IDX 32 33 33 34 34 35 35 36 36 37 97 38 37 39 96 40 38 41 39 42
REMARK SMILES IDX 40 43 90 44 41 45 95 46 89 47 91 48 42 49 94 50 88 51 87 52
REMARK SMILES IDX 43 54 75 55 55 56 74 57 56 58 59 59 73 60 92 61 57 62 58 63
REMARK SMILES IDX 72 65 93 66 60 67 44 68 45 69 53 70 46 71 52 72 54 73 51 74
REMARK SMILES IDX 47 75 48 76 49 77 50 78 76 79 77 80 85 81 78 82 84 83 86 84
REMARK SMILES IDX 83 85 79 86 80 87 81 88 82 89 61 90 62 91 70 92 63 93 69 94
REMARK SMILES IDX 71 95 68 96 64 97 65 98 66 99 67 100
REMARK H PARENT 91 53 59 64
REMARK Flexibility Score: inf
ROOT
ATOM      1  C   UNL     1      -2.851   8.189   5.175  1.00  0.00     0.188 C 
ENDROOT
BRANCH   1   2
ATOM      2  O   UNL     1      -2.788   7.344   4.026  1.00  0.00    -0.377 OA
BRANCH   2   3
ATOM      3  C   UNL     1      -1.505   7.072   3.490  1.00  0.00     0.188 C 
BRANCH   3   4
ATOM      4  C   UNL     1      -1.054   8.126   2.462  1.00  0.00     0.188 C 
BRANCH   4   5
ATOM      5  O   UNL     1      -1.744   9.358   2.518  1.00  0.00    -0.376 OA
BRANCH   5   6
ATOM      6  C   UNL     1      -3.026   9.549   1.937  1.00  0.00     0.202 C 
BRANCH   6   7
ATOM      7  C   UNL     1      -4.040   8.453   1.550  1.00  0.00     0.261 C 
BRANCH   7   8
ATOM      8  O   UNL     1      -3.572   7.110   1.448  1.00  0.00    -0.460 OA
BRANCH   8   9
ATOM      9  C   UNL     1      -2.989   6.740   0.297  1.00  0.00     0.338 C 
ATOM     10  O   UNL     1      -2.822   7.420  -0.699  1.00  0.00    -0.246 OA
BRANCH   9  11
ATOM     11  C   UNL     1      -2.401   5.400   0.515  1.00  0.00     0.087 C 
ATOM     12  C   UNL     1       0.960  -0.155   0.116  1.00  0.00     0.047 C 
ATOM     13  C   UNL     1       0.505   1.277   0.276  1.00  0.00    -0.019 A 
ATOM     14  C   UNL     1       1.301   2.358  -0.179  1.00  0.00     0.025 A 
ATOM     15  C   UNL     1      -0.776   1.567   0.793  1.00  0.00     0.064 A 
ATOM     16  Br  UNL     1       3.016   1.992  -0.964  1.00  0.00    -0.050 Br
ATOM     17  C   UNL     1       0.834   3.694  -0.126  1.00  0.00    -0.026 A 
ATOM     18  C   UNL     1      -1.273   2.882   0.806  1.00  0.00     0.142 A 
ATOM     19  Br  UNL     1      -1.928   0.168   1.423  1.00  0.00    -0.046 Br
ATOM     20  C   UNL     1       1.701   4.876  -0.505  1.00  0.00     0.046 C 
ATOM     21  C   UNL     1      -0.497   3.931   0.297  1.00  0.00     0.022 A 
ATOM     22  O   UNL     1      -2.526   3.066   1.326  1.00  0.00    -0.474 OA
ATOM     23  C   UNL     1      -1.130   5.237   0.130  1.00  0.00     0.027 C 
ATOM     24  C   UNL     1      -3.202   4.342   1.213  1.00  0.00     0.316 C 
BRANCH  24  25
ATOM     25  C   UNL     1      -4.563   4.102   0.545  1.00  0.00     0.430 C 
ATOM     26  F   UNL     1      -5.237   3.095   1.147  1.00  0.00    -0.167 F 
ATOM     27  F   UNL     1      -5.356   5.195   0.599  1.00  0.00    -0.167 F 
ATOM     28  F   UNL     1      -4.419   3.771  -0.760  1.00  0.00    -0.167 F 
ENDBRANCH  24  25
ENDBRANCH   9  11
ENDBRANCH   8   9
ENDBRANCH   7   8
ENDBRANCH   6   7
ENDBRANCH   5   6
ENDBRANCH   4   5
ENDBRANCH   3   4
ENDBRANCH   2   3
ENDBRANCH   1   2
BRANCH   1  29
ATOM     29  C   UNL     1      -1.783   9.283   5.410  1.00  0.00     0.188 C 
BRANCH  29  30
ATOM     30  O   UNL     1      -0.442   8.834   5.231  1.00  0.00    -0.376 OA
BRANCH  30  31
ATOM     31  C   UNL     1       0.345   8.632   6.395  1.00  0.00     0.202 C 
BRANCH  31  32
ATOM     32  C   UNL     1      -0.019   7.397   7.230  1.00  0.00     0.261 C 
BRANCH  32  33
ATOM     33  O   UNL     1      -1.357   7.370   7.749  1.00  0.00    -0.460 OA
BRANCH  33  34
ATOM     34  C   UNL     1      -1.716   8.369   8.587  1.00  0.00     0.338 C 
ATOM     35  O   UNL     1      -1.006   9.272   8.993  1.00  0.00    -0.246 OA
BRANCH  34  36
ATOM     36  C   UNL     1      -3.180   8.290   8.768  1.00  0.00     0.060 A 
ATOM     37  C   UNL     1      -3.972   9.383   8.394  1.00  0.00     0.016 A 
ATOM     38  C   UNL     1      -3.766   7.134   9.288  1.00  0.00     0.016 A 
ATOM     39  C   UNL     1      -5.355   9.332   8.568  1.00  0.00     0.010 A 
ATOM     40  C   UNL     1      -5.148   7.094   9.486  1.00  0.00     0.010 A 
ATOM     41  C   UNL     1      -5.945   8.204   9.156  1.00  0.00    -0.014 A 
BRANCH  41  42
ATOM     42  C   UNL     1      -7.348   8.274   9.632  1.00  0.00     0.031 A 
ATOM     43  C   UNL     1      -7.584   8.655  11.070  1.00  0.00     0.074 A 
ATOM     44  C   UNL     1      -8.388   8.050   8.808  1.00  0.00     0.049 A 
ATOM     45  N   UNL     1      -8.706   8.733  11.733  1.00  0.00    -0.248 NA
ATOM     46  C   UNL     1      -6.390   8.997  11.862  1.00  0.00     0.031 C 
ATOM     47  C   UNL     1      -8.288   7.747   7.382  1.00  0.00     0.029 A 
ATOM     48  N   UNL     1      -9.738   8.053   9.057  1.00  0.00    -0.354 N 
ATOM     49  C   UNL     1      -8.357   9.145  13.014  1.00  0.00     0.074 A 
ATOM     50  C   UNL     1      -6.916   9.261  13.048  1.00  0.00     0.031 C 
ATOM     51  C   UNL     1      -9.528   7.596   6.881  1.00  0.00     0.029 A 
ATOM     52  C   UNL     1     -10.507   7.753   7.957  1.00  0.00     0.049 A 
ATOM     53  H   UNL     1     -10.121   8.251   9.943  1.00  0.00     0.167 HD
ATOM     54  C   UNL     1      -9.166   9.416  14.064  1.00  0.00     0.034 A 
ATOM     55  C   UNL     1     -11.843   7.604   7.839  1.00  0.00     0.034 A 
ATOM     56  C   UNL     1     -10.599   9.290  14.028  1.00  0.00     0.049 A 
ATOM     57  C   UNL     1     -12.714   7.788   9.060  1.00  0.00     0.074 A 
ATOM     58  C   UNL     1     -11.506   9.523  15.046  1.00  0.00     0.029 A 
ATOM     59  N   UNL     1     -11.332   8.898  12.918  1.00  0.00    -0.354 N 
ATOM     60  N   UNL     1     -12.367   8.137  10.278  1.00  0.00    -0.248 NA
ATOM     61  C   UNL     1     -14.156   7.553   8.894  1.00  0.00     0.031 C 
ATOM     62  C   UNL     1     -12.783   9.212  14.571  1.00  0.00     0.029 A 
ATOM     63  C   UNL     1     -12.679   8.855  13.236  1.00  0.00     0.049 A 
ATOM     64  H   UNL     1     -10.952   8.682  12.036  1.00  0.00     0.167 HD
ATOM     65  C   UNL     1     -13.550   8.190  11.011  1.00  0.00     0.074 A 
ATOM     66  C   UNL     1     -14.621   7.843  10.102  1.00  0.00     0.031 C 
ATOM     67  C   UNL     1     -13.735   8.502  12.319  1.00  0.00     0.034 A 
BRANCH  54  68
ATOM     68  C   UNL     1      -8.521   9.850  15.351  1.00  0.00     0.023 A 
ATOM     69  C   UNL     1      -7.918  11.113  15.476  1.00  0.00     0.031 A 
ATOM     70  C   UNL     1      -8.544   9.008  16.476  1.00  0.00     0.131 A 
ATOM     71  C   UNL     1      -7.338  11.489  16.695  1.00  0.00     0.055 A 
ATOM     72  C   UNL     1      -8.017   9.411  17.703  1.00  0.00     0.041 A 
ATOM     73  F   UNL     1      -9.089   7.784  16.401  1.00  0.00    -0.206 F 
ATOM     74  C   UNL     1      -7.406  10.657  17.817  1.00  0.00     0.022 A 
BRANCH  71  75
ATOM     75  S   UNL     1      -6.439  13.061  16.783  1.00  0.00     0.124 S 
ATOM     76  O   UNL     1      -5.322  12.812  15.876  1.00  0.00    -0.237 OA
ATOM     77  O   UNL     1      -7.434  14.022  16.322  1.00  0.00    -0.237 OA
ATOM     78  O   UNL     1      -6.077  13.169  18.195  1.00  0.00    -0.744 OA
ENDBRANCH  71  75
ENDBRANCH  54  68
BRANCH  55  79
ATOM     79  C   UNL     1     -12.452   7.229   6.531  1.00  0.00     0.023 A 
ATOM     80  C   UNL     1     -13.322   8.104   5.861  1.00  0.00     0.031 A 
ATOM     81  C   UNL     1     -12.211   5.970   5.954  1.00  0.00     0.131 A 
ATOM     82  C   UNL     1     -13.945   7.697   4.670  1.00  0.00     0.055 A 
ATOM     83  C   UNL     1     -12.797   5.587   4.746  1.00  0.00     0.041 A 
ATOM     84  F   UNL     1     -11.392   5.093   6.556  1.00  0.00    -0.206 F 
ATOM     85  C   UNL     1     -13.678   6.450   4.101  1.00  0.00     0.022 A 
BRANCH  82  86
ATOM     86  S   UNL     1     -15.158   8.804   3.899  1.00  0.00     0.124 S 
ATOM     87  O   UNL     1     -16.187   8.880   4.930  1.00  0.00    -0.237 OA
ATOM     88  O   UNL     1     -14.372  10.015   3.685  1.00  0.00    -0.237 OA
ATOM     89  O   UNL     1     -15.543   8.092   2.682  1.00  0.00    -0.744 OA
ENDBRANCH  82  86
ENDBRANCH  55  79
BRANCH  67  90
ATOM     90  C   UNL     1     -15.146   8.517  12.846  1.00  0.00     0.023 A 
ATOM     91  C   UNL     1     -15.872   7.330  13.032  1.00  0.00     0.031 A 
ATOM     92  C   UNL     1     -15.745   9.731  13.227  1.00  0.00     0.131 A 
ATOM     93  C   UNL     1     -17.169   7.383  13.563  1.00  0.00     0.055 A 
ATOM     94  C   UNL     1     -17.016   9.774  13.800  1.00  0.00     0.041 A 
ATOM     95  F   UNL     1     -15.089  10.893  13.075  1.00  0.00    -0.206 F 
ATOM     96  C   UNL     1     -17.738   8.595  13.966  1.00  0.00     0.022 A 
BRANCH  93  97
ATOM     97  S   UNL     1     -18.121   5.846  13.693  1.00  0.00     0.124 S 
ATOM     98  O   UNL     1     -18.259   5.456  12.294  1.00  0.00    -0.237 OA
ATOM     99  O   UNL     1     -17.251   5.003  14.507  1.00  0.00    -0.237 OA
ATOM    100  O   UNL     1     -19.361   6.264  14.345  1.00  0.00    -0.744 OA
ENDBRANCH  93  97
ENDBRANCH  67  90
ENDBRANCH  41  42
ENDBRANCH  34  36
ENDBRANCH  33  34
ENDBRANCH  32  33
ENDBRANCH  31  32
ENDBRANCH  30  31
ENDBRANCH  29  30
ENDBRANCH   1  29
TORSDOF 24
