REMARK SMILES Cc1n[nH]c(C(=O)N[C@@H](CC(C)C)C(=O)OCCOCCOCCOCCOC(=O)c2ccc(-c3c4nc(c(-c5cc(S(=O)(=O)[O-])ccc5F)c5ccc([nH]5)c(-c5cc(S(=O)(=O)[O-])ccc5F)c5nc(c(-c6cc(S(=O)(=O)[O-])ccc6F)c6ccc3[nH]6)C=C5)C=C4)cc2)n1
REMARK SMILES IDX 23 1 22 2 21 3 20 4 19 5 18 6 17 7 16 8 14 9 15 10 9 11 8 12
REMARK SMILES IDX 6 13 7 14 5 16 1 17 2 18 3 19 94 20 4 21 10 23 11 24 12 25
REMARK SMILES IDX 13 26 24 27 25 28 26 29 27 30 28 31 29 32 30 33 31 34 32 35
REMARK SMILES IDX 93 36 33 37 92 38 34 39 35 40 36 41 86 42 37 43 91 44 85 45
REMARK SMILES IDX 87 46 38 47 90 48 84 49 83 50 39 52 71 53 51 54 70 55 52 56
REMARK SMILES IDX 55 57 69 58 88 59 53 60 54 61 68 63 89 64 56 65 40 66 41 67
REMARK SMILES IDX 49 68 42 69 48 70 50 71 47 72 43 73 44 74 45 75 46 76 72 77
REMARK SMILES IDX 73 78 81 79 74 80 80 81 82 82 79 83 75 84 76 85 77 86 78 87
REMARK SMILES IDX 57 88 58 89 66 90 59 91 65 92 67 93 64 94 60 95 61 96 62 97
REMARK SMILES IDX 63 98
REMARK H PARENT 8 15 4 22 87 51 55 62
REMARK Flexibility Score: inf
ROOT
ATOM      1  C   UNL     1      -0.471   8.103  -3.988  1.00  0.00     0.188 C 
ENDROOT
BRANCH   1   2
ATOM      2  O   UNL     1      -1.007   7.623  -2.758  1.00  0.00    -0.377 OA
BRANCH   2   3
ATOM      3  C   UNL     1      -0.805   6.237  -2.550  1.00  0.00     0.188 C 
BRANCH   3   4
ATOM      4  C   UNL     1      -2.056   5.339  -2.699  1.00  0.00     0.188 C 
BRANCH   4   5
ATOM      5  O   UNL     1      -3.280   5.829  -3.242  1.00  0.00    -0.376 OA
BRANCH   5   6
ATOM      6  C   UNL     1      -3.669   7.173  -3.004  1.00  0.00     0.202 C 
BRANCH   6   7
ATOM      7  C   UNL     1      -3.792   7.632  -1.550  1.00  0.00     0.261 C 
BRANCH   7   8
ATOM      8  O   UNL     1      -2.737   7.159  -0.691  1.00  0.00    -0.462 OA
BRANCH   8   9
ATOM      9  C   UNL     1      -3.078   6.301   0.294  1.00  0.00     0.328 C 
ATOM     10  O   UNL     1      -4.215   5.889   0.501  1.00  0.00    -0.250 OA
BRANCH   9  11
ATOM     11  C   UNL     1      -1.909   5.978   1.250  1.00  0.00     0.192 C 
BRANCH  11  12
ATOM     12  N   UNL     1      -0.525   6.045   0.785  1.00  0.00    -0.336 N 
ATOM     13  C   UNL     1       0.455   5.093   0.574  1.00  0.00     0.289 C 
ATOM     14  O   UNL     1       1.585   5.558   0.403  1.00  0.00    -0.266 OA
ATOM     15  H   UNL     1      -0.228   6.961   0.580  1.00  0.00     0.164 HD
BRANCH  13  16
ATOM     16  C   UNL     1       0.183   3.666   0.495  1.00  0.00     0.214 A 
ATOM     17  C   UNL     1       1.173   0.272   0.100  1.00  0.00     0.092 C 
ATOM     18  C   UNL     1       0.478   1.567   0.257  1.00  0.00     0.148 A 
ATOM     19  N   UNL     1      -0.850   1.691   0.173  1.00  0.00    -0.159 NA
ATOM     20  N   UNL     1       1.138   2.746   0.474  1.00  0.00    -0.207 NA
ATOM     21  N   UNL     1      -1.003   3.021   0.293  1.00  0.00    -0.255 N 
ATOM     22  H   UNL     1      -1.873   3.478   0.243  1.00  0.00     0.192 HD
ENDBRANCH  13  16
ENDBRANCH  11  12
BRANCH  11  23
ATOM     23  C   UNL     1      -2.081   6.831   2.517  1.00  0.00     0.040 C 
BRANCH  23  24
ATOM     24  C   UNL     1      -1.623   8.311   2.494  1.00  0.00    -0.015 C 
ATOM     25  C   UNL     1      -2.212   9.180   1.382  1.00  0.00     0.007 C 
ATOM     26  C   UNL     1      -1.986   8.930   3.847  1.00  0.00     0.007 C 
ENDBRANCH  23  24
ENDBRANCH  11  23
ENDBRANCH   9  11
ENDBRANCH   8   9
ENDBRANCH   7   8
ENDBRANCH   6   7
ENDBRANCH   5   6
ENDBRANCH   4   5
ENDBRANCH   3   4
ENDBRANCH   2   3
ENDBRANCH   1   2
BRANCH   1  27
ATOM     27  C   UNL     1      -0.922   7.352  -5.267  1.00  0.00     0.188 C 
BRANCH  27  28
ATOM     28  O   UNL     1      -0.927   5.928  -5.147  1.00  0.00    -0.376 OA
BRANCH  28  29
ATOM     29  C   UNL     1       0.065   5.134  -5.789  1.00  0.00     0.202 C 
BRANCH  29  30
ATOM     30  C   UNL     1       1.469   5.144  -5.172  1.00  0.00     0.261 C 
BRANCH  30  31
ATOM     31  O   UNL     1       1.944   6.448  -4.899  1.00  0.00    -0.460 OA
BRANCH  31  32
ATOM     32  C   UNL     1       2.032   7.239  -5.990  1.00  0.00     0.338 C 
ATOM     33  O   UNL     1       1.716   6.963  -7.125  1.00  0.00    -0.246 OA
BRANCH  32  34
ATOM     34  C   UNL     1       2.594   8.526  -5.578  1.00  0.00     0.060 A 
ATOM     35  C   UNL     1       2.723   9.455  -6.605  1.00  0.00     0.016 A 
ATOM     36  C   UNL     1       3.318   8.593  -4.377  1.00  0.00     0.016 A 
ATOM     37  C   UNL     1       3.866  10.202  -6.606  1.00  0.00     0.010 A 
ATOM     38  C   UNL     1       4.457   9.343  -4.378  1.00  0.00     0.010 A 
ATOM     39  C   UNL     1       4.770  10.005  -5.557  1.00  0.00    -0.014 A 
BRANCH  39  40
ATOM     40  C   UNL     1       6.110  10.483  -5.757  1.00  0.00     0.031 A 
ATOM     41  C   UNL     1       6.194  11.937  -5.581  1.00  0.00     0.074 A 
ATOM     42  C   UNL     1       7.122   9.640  -6.029  1.00  0.00     0.049 A 
ATOM     43  N   UNL     1       6.299  12.838  -6.496  1.00  0.00    -0.248 NA
ATOM     44  C   UNL     1       5.854  12.460  -4.247  1.00  0.00     0.031 C 
ATOM     45  C   UNL     1       7.146   8.176  -5.948  1.00  0.00     0.029 A 
ATOM     46  N   UNL     1       8.401   9.945  -6.350  1.00  0.00    -0.354 N 
ATOM     47  C   UNL     1       6.316  14.039  -5.805  1.00  0.00     0.074 A 
ATOM     48  C   UNL     1       5.769  13.763  -4.506  1.00  0.00     0.031 C 
ATOM     49  C   UNL     1       8.432   7.752  -5.971  1.00  0.00     0.029 A 
ATOM     50  C   UNL     1       9.298   8.895  -6.212  1.00  0.00     0.049 A 
ATOM     51  H   UNL     1       8.673  10.840  -6.656  1.00  0.00     0.167 HD
ATOM     52  C   UNL     1       7.083  15.072  -6.240  1.00  0.00     0.034 A 
ATOM     53  C   UNL     1      10.653   9.006  -6.197  1.00  0.00     0.034 A 
ATOM     54  C   UNL     1       7.408  14.920  -7.642  1.00  0.00     0.049 A 
ATOM     55  C   UNL     1      10.975  10.306  -6.849  1.00  0.00     0.074 A 
ATOM     56  C   UNL     1       6.659  14.816  -8.799  1.00  0.00     0.029 A 
ATOM     57  N   UNL     1       8.658  14.441  -7.969  1.00  0.00    -0.354 N 
ATOM     58  N   UNL     1      10.712  10.566  -8.103  1.00  0.00    -0.248 NA
ATOM     59  C   UNL     1      11.117  11.480  -5.998  1.00  0.00     0.031 C 
ATOM     60  C   UNL     1       7.339  13.851  -9.600  1.00  0.00     0.029 A 
ATOM     61  C   UNL     1       8.503  13.468  -8.929  1.00  0.00     0.049 A 
ATOM     62  H   UNL     1       9.512  14.743  -7.584  1.00  0.00     0.167 HD
ATOM     63  C   UNL     1      10.247  11.874  -8.118  1.00  0.00     0.074 A 
ATOM     64  C   UNL     1      10.604  12.413  -6.807  1.00  0.00     0.031 C 
ATOM     65  C   UNL     1       9.369  12.307  -9.073  1.00  0.00     0.034 A 
BRANCH  52  66
ATOM     66  C   UNL     1       7.855  15.972  -5.302  1.00  0.00     0.023 A 
ATOM     67  C   UNL     1       8.595  17.011  -5.887  1.00  0.00     0.031 A 
ATOM     68  C   UNL     1       8.129  15.717  -3.934  1.00  0.00     0.131 A 
ATOM     69  C   UNL     1       9.602  17.671  -5.163  1.00  0.00     0.055 A 
ATOM     70  C   UNL     1       9.084  16.422  -3.201  1.00  0.00     0.041 A 
ATOM     71  F   UNL     1       7.568  14.719  -3.243  1.00  0.00    -0.206 F 
ATOM     72  C   UNL     1       9.851  17.385  -3.824  1.00  0.00     0.022 A 
BRANCH  69  73
ATOM     73  S   UNL     1      10.702  18.791  -6.060  1.00  0.00     0.124 S 
ATOM     74  O   UNL     1      11.138  17.950  -7.170  1.00  0.00    -0.237 OA
ATOM     75  O   UNL     1       9.799  19.886  -6.396  1.00  0.00    -0.237 OA
ATOM     76  O   UNL     1      11.733  19.109  -5.075  1.00  0.00    -0.744 OA
ENDBRANCH  69  73
ENDBRANCH  52  66
BRANCH  53  77
ATOM     77  C   UNL     1      11.564   8.318  -5.235  1.00  0.00     0.023 A 
ATOM     78  C   UNL     1      12.947   8.163  -5.467  1.00  0.00     0.031 A 
ATOM     79  C   UNL     1      11.102   8.005  -3.934  1.00  0.00     0.131 A 
ATOM     80  C   UNL     1      13.797   7.710  -4.429  1.00  0.00     0.055 A 
ATOM     81  C   UNL     1      11.945   7.556  -2.916  1.00  0.00     0.041 A 
ATOM     82  F   UNL     1       9.823   8.206  -3.583  1.00  0.00    -0.206 F 
ATOM     83  C   UNL     1      13.300   7.414  -3.157  1.00  0.00     0.022 A 
BRANCH  80  84
ATOM     84  S   UNL     1      15.594   7.568  -4.700  1.00  0.00     0.124 S 
ATOM     85  O   UNL     1      15.675   6.502  -5.691  1.00  0.00    -0.237 OA
ATOM     86  O   UNL     1      15.947   8.907  -5.157  1.00  0.00    -0.237 OA
ATOM     87  O   UNL     1      16.114   7.216  -3.378  1.00  0.00    -0.744 OA
ENDBRANCH  80  84
ENDBRANCH  53  77
BRANCH  65  88
ATOM     88  C   UNL     1       9.138  11.427 -10.289  1.00  0.00     0.023 A 
ATOM     89  C   UNL     1       8.601  10.117 -10.263  1.00  0.00     0.031 A 
ATOM     90  C   UNL     1       9.364  12.011 -11.548  1.00  0.00     0.131 A 
ATOM     91  C   UNL     1       8.319   9.447 -11.474  1.00  0.00     0.055 A 
ATOM     92  C   UNL     1       9.066  11.353 -12.740  1.00  0.00     0.041 A 
ATOM     93  F   UNL     1       9.848  13.261 -11.639  1.00  0.00    -0.206 F 
ATOM     94  C   UNL     1       8.545  10.066 -12.708  1.00  0.00     0.022 A 
BRANCH  91  95
ATOM     95  S   UNL     1       7.655   7.747 -11.475  1.00  0.00     0.124 S 
ATOM     96  O   UNL     1       8.538   7.036 -10.559  1.00  0.00    -0.237 OA
ATOM     97  O   UNL     1       6.282   7.945 -11.019  1.00  0.00    -0.237 OA
ATOM     98  O   UNL     1       7.773   7.335 -12.876  1.00  0.00    -0.744 OA
ENDBRANCH  91  95
ENDBRANCH  65  88
ENDBRANCH  39  40
ENDBRANCH  32  34
ENDBRANCH  31  32
ENDBRANCH  30  31
ENDBRANCH  29  30
ENDBRANCH  28  29
ENDBRANCH  27  28
ENDBRANCH   1  27
TORSDOF 27
