REMARK SMILES Cc1ccccc1[C@@H]1[NH2+][C@H](C(=O)OCCOCCOCCOCCOC(=O)c2ccc(-c3c4nc(c(-c5cc(S(=O)(=O)[O-])ccc5F)c5ccc([nH]5)c(-c5cc(S(=O)(=O)[O-])ccc5F)c5nc(c(-c6cc(S(=O)(=O)[O-])ccc6F)c6ccc3[nH]6)C=C5)C=C4)cc2)CC2=c3ccccc3=N[C@@H]21
REMARK SMILES IDX 20 1 19 2 18 3 17 4 16 5 15 6 14 7 13 8 11 9 12 10 10 11
REMARK SMILES IDX 8 12 9 13 100 14 92 17 99 18 91 19 93 20 98 21 94 22 97 23
REMARK SMILES IDX 95 24 96 25 7 26 1 27 2 28 3 29 4 30 6 31 5 32 21 33 22 34
REMARK SMILES IDX 23 35 24 36 25 37 26 38 27 39 28 40 29 41 90 42 30 43 89 44
REMARK SMILES IDX 31 45 32 46 33 47 83 48 34 49 88 50 82 51 84 52 35 53 87 54
REMARK SMILES IDX 81 55 80 56 36 58 68 59 48 60 67 61 49 62 52 63 66 64 85 65
REMARK SMILES IDX 50 66 51 67 65 69 86 70 53 71 37 72 38 73 46 74 39 75 45 76
REMARK SMILES IDX 47 77 44 78 40 79 41 80 42 81 43 82 69 83 70 84 78 85 71 86
REMARK SMILES IDX 77 87 79 88 76 89 72 90 73 91 74 92 75 93 54 94 55 95 63 96
REMARK SMILES IDX 56 97 62 98 64 99 61 100 57 101 58 102 59 103 60 104
REMARK H PARENT 9 15 9 16 84 57 52 68
REMARK Flexibility Score: inf
ROOT
ATOM      1  C   UNL     1       0.065   0.342   2.038  1.00  0.00     0.188 C 
ENDROOT
BRANCH   1   2
ATOM      2  O   UNL     1      -0.724   1.326   2.739  1.00  0.00    -0.377 OA
BRANCH   2   3
ATOM      3  C   UNL     1      -0.904   2.736   2.204  1.00  0.00     0.188 C 
BRANCH   3   4
ATOM      4  C   UNL     1      -0.926   3.573   0.489  1.00  0.00     0.188 C 
BRANCH   4   5
ATOM      5  O   UNL     1       0.294   3.561  -0.978  1.00  0.00    -0.376 OA
BRANCH   5   6
ATOM      6  C   UNL     1       0.587   4.724  -2.522  1.00  0.00     0.202 C 
BRANCH   6   7
ATOM      7  C   UNL     1       0.277   6.558  -2.168  1.00  0.00     0.261 C 
BRANCH   7   8
ATOM      8  O   UNL     1      -0.209   7.046  -0.422  1.00  0.00    -0.459 OA
BRANCH   8   9
ATOM      9  C   UNL     1      -0.236   6.636   1.097  1.00  0.00     0.365 C 
ATOM     10  O   UNL     1      -1.008   7.279   1.828  1.00  0.00    -0.245 OA
BRANCH   9  11
ATOM     11  C   UNL     1       0.746   5.278   1.967  1.00  0.00     0.298 C 
ATOM     12  C   UNL     1       1.434   2.576   0.771  1.00  0.00     0.243 C 
ATOM     13  N   UNL     1       0.905   3.864   1.391  1.00  0.00    -0.326 N 
ATOM     14  C   UNL     1       2.852   2.913   1.906  1.00  0.00     0.196 C 
ATOM     15  H   UNL     1       0.535   3.401   2.222  1.00  0.00     0.347 HD
ATOM     16  H   UNL     1       1.042   4.302   0.480  1.00  0.00     0.347 HD
ATOM     17  C   UNL     1       3.049   4.400   2.585  1.00  0.00    -0.024 C 
ATOM     18  N   UNL     1       4.206   2.731   1.388  1.00  0.00    -0.270 NA
ATOM     19  C   UNL     1       1.884   5.302   2.995  1.00  0.00     0.111 C 
ATOM     20  C   UNL     1       4.309   4.825   2.475  1.00  0.00     0.002 A 
ATOM     21  C   UNL     1       4.918   3.767   1.680  1.00  0.00     0.066 A 
ATOM     22  C   UNL     1       4.944   6.098   2.648  1.00  0.00     0.010 A 
ATOM     23  C   UNL     1       6.258   4.062   1.105  1.00  0.00     0.028 A 
ATOM     24  C   UNL     1       6.085   6.345   1.979  1.00  0.00     0.001 A 
ATOM     25  C   UNL     1       6.737   5.314   1.192  1.00  0.00     0.002 A 
BRANCH  12  26
ATOM     26  C   UNL     1       0.346   1.689  -0.666  1.00  0.00     0.015 A 
ATOM     27  C   UNL     1      -2.453   1.541   0.485  1.00  0.00     0.045 C 
ATOM     28  C   UNL     1      -1.562   1.479  -0.838  1.00  0.00    -0.042 A 
ATOM     29  C   UNL     1      -2.437   1.627  -2.696  1.00  0.00     0.004 A 
ATOM     30  C   UNL     1      -1.473   2.228  -4.090  1.00  0.00     0.000 A 
ATOM     31  C   UNL     1       1.096   2.170  -2.291  1.00  0.00     0.010 A 
ATOM     32  C   UNL     1       0.235   2.487  -3.863  1.00  0.00     0.001 A 
ENDBRANCH  12  26
ENDBRANCH   9  11
ENDBRANCH   8   9
ENDBRANCH   7   8
ENDBRANCH   6   7
ENDBRANCH   5   6
ENDBRANCH   4   5
ENDBRANCH   3   4
ENDBRANCH   2   3
ENDBRANCH   1   2
BRANCH   1  33
ATOM     33  C   UNL     1      -0.474  -0.878   1.306  1.00  0.00     0.188 C 
BRANCH  33  34
ATOM     34  O   UNL     1      -1.832  -0.711   1.062  1.00  0.00    -0.376 OA
BRANCH  34  35
ATOM     35  C   UNL     1      -2.703  -0.915   2.144  1.00  0.00     0.202 C 
BRANCH  35  36
ATOM     36  C   UNL     1      -3.151  -2.251   1.680  1.00  0.00     0.261 C 
BRANCH  36  37
ATOM     37  O   UNL     1      -3.914  -1.986   0.370  1.00  0.00    -0.460 OA
BRANCH  37  38
ATOM     38  C   UNL     1      -3.394  -1.683  -0.888  1.00  0.00     0.338 C 
ATOM     39  O   UNL     1      -3.194  -2.603  -1.689  1.00  0.00    -0.246 OA
BRANCH  38  40
ATOM     40  C   UNL     1      -3.135  -0.236  -1.471  1.00  0.00     0.060 A 
ATOM     41  C   UNL     1      -1.600  -0.274  -2.175  1.00  0.00     0.016 A 
ATOM     42  C   UNL     1      -3.979   1.307  -1.198  1.00  0.00     0.016 A 
ATOM     43  C   UNL     1      -0.694   1.246  -2.434  1.00  0.00     0.010 A 
ATOM     44  C   UNL     1      -3.187   2.942  -1.371  1.00  0.00     0.010 A 
ATOM     45  C   UNL     1      -1.425   3.097  -1.941  1.00  0.00    -0.014 A 
BRANCH  45  46
ATOM     46  C   UNL     1      -0.904   4.896  -1.236  1.00  0.00     0.031 A 
ATOM     47  C   UNL     1      -2.130   5.825  -1.660  1.00  0.00     0.074 A 
ATOM     48  C   UNL     1       0.754   5.313  -0.587  1.00  0.00     0.049 A 
ATOM     49  N   UNL     1      -2.025   7.084  -1.510  1.00  0.00    -0.248 NA
ATOM     50  C   UNL     1      -3.361   5.594  -2.424  1.00  0.00     0.031 C 
ATOM     51  C   UNL     1       1.884   6.509  -0.042  1.00  0.00     0.029 A 
ATOM     52  N   UNL     1       2.088   4.443  -0.685  1.00  0.00    -0.354 N 
ATOM     53  C   UNL     1      -3.090   7.793  -1.818  1.00  0.00     0.074 A 
ATOM     54  C   UNL     1      -3.948   6.809  -2.415  1.00  0.00     0.031 C 
ATOM     55  C   UNL     1       3.190   6.170  -0.073  1.00  0.00     0.029 A 
ATOM     56  C   UNL     1       3.361   4.908  -0.726  1.00  0.00     0.049 A 
ATOM     57  H   UNL     1       1.975   3.466  -0.719  1.00  0.00     0.167 HD
ATOM     58  C   UNL     1      -2.998   9.029  -1.282  1.00  0.00     0.034 A 
ATOM     59  C   UNL     1       4.230   4.558  -1.724  1.00  0.00     0.034 A 
ATOM     60  C   UNL     1      -1.543   9.460  -0.968  1.00  0.00     0.049 A 
ATOM     61  C   UNL     1       4.025   6.011  -2.537  1.00  0.00     0.074 A 
ATOM     62  C   UNL     1      -0.850   9.820   0.182  1.00  0.00     0.029 A 
ATOM     63  N   UNL     1      -0.498   9.279  -1.923  1.00  0.00    -0.354 N 
ATOM     64  N   UNL     1       2.891   6.726  -2.516  1.00  0.00    -0.248 NA
ATOM     65  C   UNL     1       5.114   6.928  -2.872  1.00  0.00     0.031 C 
ATOM     66  C   UNL     1       0.588   9.749  -0.076  1.00  0.00     0.029 A 
ATOM     67  C   UNL     1       0.837   9.306  -1.391  1.00  0.00     0.049 A 
ATOM     68  H   UNL     1      -0.679   9.145  -2.882  1.00  0.00     0.167 HD
ATOM     69  C   UNL     1       3.068   8.141  -2.517  1.00  0.00     0.074 A 
ATOM     70  C   UNL     1       4.522   8.152  -2.832  1.00  0.00     0.031 C 
ATOM     71  C   UNL     1       2.111   9.219  -2.299  1.00  0.00     0.034 A 
BRANCH  58  72
ATOM     72  C   UNL     1      -4.257   9.669  -0.776  1.00  0.00     0.023 A 
ATOM     73  C   UNL     1      -4.115  10.908  -0.159  1.00  0.00     0.031 A 
ATOM     74  C   UNL     1      -5.571   9.125  -0.766  1.00  0.00     0.131 A 
ATOM     75  C   UNL     1      -5.218  11.587   0.370  1.00  0.00     0.055 A 
ATOM     76  C   UNL     1      -6.683   9.824  -0.281  1.00  0.00     0.041 A 
ATOM     77  F   UNL     1      -5.853   7.883  -1.181  1.00  0.00    -0.206 F 
ATOM     78  C   UNL     1      -6.511  11.076   0.283  1.00  0.00     0.022 A 
BRANCH  75  79
ATOM     79  S   UNL     1      -4.892  13.169   1.165  1.00  0.00     0.124 S 
ATOM     80  O   UNL     1      -4.114  12.767   2.332  1.00  0.00    -0.237 OA
ATOM     81  O   UNL     1      -4.167  13.888   0.121  1.00  0.00    -0.237 OA
ATOM     82  O   UNL     1      -6.229  13.682   1.454  1.00  0.00    -0.744 OA
ENDBRANCH  75  79
ENDBRANCH  58  72
BRANCH  59  83
ATOM     83  C   UNL     1       4.305   2.903  -2.089  1.00  0.00     0.023 A 
ATOM     84  C   UNL     1       4.414   1.857  -1.055  1.00  0.00     0.031 A 
ATOM     85  C   UNL     1       3.999   2.276  -3.308  1.00  0.00     0.131 A 
ATOM     86  C   UNL     1       3.847   0.521  -1.077  1.00  0.00     0.055 A 
ATOM     87  C   UNL     1       3.516   0.896  -3.389  1.00  0.00     0.041 A 
ATOM     88  F   UNL     1       3.936   2.992  -4.436  1.00  0.00    -0.206 F 
ATOM     89  C   UNL     1       3.324   0.072  -2.265  1.00  0.00     0.022 A 
BRANCH  86  90
ATOM     90  S   UNL     1       3.700  -0.675   0.388  1.00  0.00     0.124 S 
ATOM     91  O   UNL     1       4.966  -1.398   0.324  1.00  0.00    -0.237 OA
ATOM     92  O   UNL     1       3.500   0.127   1.582  1.00  0.00    -0.237 OA
ATOM     93  O   UNL     1       2.522  -1.480   0.054  1.00  0.00    -0.744 OA
ENDBRANCH  86  90
ENDBRANCH  59  83
BRANCH  71  94
ATOM     94  C   UNL     1       2.162  10.454  -3.198  1.00  0.00     0.023 A 
ATOM     95  C   UNL     1       3.129  10.546  -4.174  1.00  0.00     0.031 A 
ATOM     96  C   UNL     1       1.178  11.488  -3.241  1.00  0.00     0.131 A 
ATOM     97  C   UNL     1       3.228  11.650  -5.012  1.00  0.00     0.055 A 
ATOM     98  C   UNL     1       1.175  12.506  -4.195  1.00  0.00     0.041 A 
ATOM     99  F   UNL     1       0.145  11.569  -2.393  1.00  0.00    -0.206 F 
ATOM    100  C   UNL     1       2.240  12.622  -5.066  1.00  0.00     0.022 A 
BRANCH  97 101
ATOM    101  S   UNL     1       4.780  11.762  -5.901  1.00  0.00     0.124 S 
ATOM    102  O   UNL     1       5.742  11.783  -4.800  1.00  0.00    -0.237 OA
ATOM    103  O   UNL     1       4.765  10.534  -6.691  1.00  0.00    -0.237 OA
ATOM    104  O   UNL     1       4.653  13.004  -6.652  1.00  0.00    -0.744 OA
ENDBRANCH  97 101
ENDBRANCH  71  94
ENDBRANCH  45  46
ENDBRANCH  38  40
ENDBRANCH  37  38
ENDBRANCH  36  37
ENDBRANCH  35  36
ENDBRANCH  34  35
ENDBRANCH  33  34
ENDBRANCH   1  33
TORSDOF 24
