REMARK SMILES COc1cccc([C@@H]2[NH2+][C@@](C)(C(=O)OCCOCCOCCOCCOC(=O)c3ccc(-c4c5nc(c(-c6cc(S(=O)(=O)[O-])ccc6F)c6ccc([nH]6)c(-c6cc(S(=O)(=O)[O-])ccc6F)c6nc(c(-c7cc(S(=O)(=O)[O-])ccc7F)c7ccc4[nH]7)C=C6)C=C5)cc3)[C@@H]3C(=O)N(C)C(=O)[C@@H]32)c1O
REMARK SMILES IDX 21 1 20 2 19 3 18 4 17 5 16 6 15 7 14 8 12 9 13 10 10 11
REMARK SMILES IDX 8 12 9 13 99 14 92 17 97 18 11 19 93 20 95 21 98 22 94 23
REMARK SMILES IDX 96 24 7 25 3 26 4 27 100 28 5 29 6 30 2 31 1 32 101 33 22 35
REMARK SMILES IDX 23 36 24 37 25 38 26 39 27 40 28 41 29 42 30 43 91 44 31 45
REMARK SMILES IDX 90 46 32 47 33 48 34 49 84 50 35 51 89 52 83 53 85 54 36 55
REMARK SMILES IDX 88 56 82 57 81 58 37 60 69 61 49 62 68 63 50 64 53 65 67 66
REMARK SMILES IDX 86 67 51 68 52 69 66 71 87 72 54 73 38 74 39 75 47 76 40 77
REMARK SMILES IDX 46 78 48 79 45 80 41 81 42 82 43 83 44 84 70 85 71 86 79 87
REMARK SMILES IDX 72 88 78 89 80 90 77 91 73 92 74 93 75 94 76 95 55 96 56 97
REMARK SMILES IDX 64 98 57 99 63 100 65 101 62 102 58 103 59 104 60 105 61 106
REMARK H PARENT 9 15 9 16 101 34 85 59 53 70
REMARK Flexibility Score: inf
ROOT
ATOM      1  C   UNL     1      -5.137  -4.245   7.245  1.00  0.00     0.188 C 
ENDROOT
BRANCH   1   2
ATOM      2  O   UNL     1      -4.057  -4.416   6.349  1.00  0.00    -0.377 OA
BRANCH   2   3
ATOM      3  C   UNL     1      -4.049  -3.568   5.223  1.00  0.00     0.188 C 
BRANCH   3   4
ATOM      4  C   UNL     1      -4.620  -4.217   3.945  1.00  0.00     0.188 C 
BRANCH   4   5
ATOM      5  O   UNL     1      -4.852  -5.615   3.856  1.00  0.00    -0.376 OA
BRANCH   5   6
ATOM      6  C   UNL     1      -4.114  -6.504   4.678  1.00  0.00     0.202 C 
BRANCH   6   7
ATOM      7  C   UNL     1      -2.569  -6.465   4.680  1.00  0.00     0.261 C 
BRANCH   7   8
ATOM      8  O   UNL     1      -1.924  -5.189   4.480  1.00  0.00    -0.459 OA
BRANCH   8   9
ATOM      9  C   UNL     1      -1.599  -4.890   3.202  1.00  0.00     0.368 C 
ATOM     10  O   UNL     1      -1.788  -5.670   2.266  1.00  0.00    -0.245 OA
BRANCH   9  11
ATOM     11  C   UNL     1      -0.922  -3.500   2.959  1.00  0.00     0.204 C 
ATOM     12  C   UNL     1      -1.839  -1.295   3.564  1.00  0.00     0.232 C 
ATOM     13  N   UNL     1      -1.049  -2.465   4.040  1.00  0.00    -0.325 N 
ATOM     14  C   UNL     1      -2.560  -1.787   2.314  1.00  0.00     0.161 C 
ATOM     15  H   UNL     1      -1.518  -2.879   4.846  1.00  0.00     0.347 HD
ATOM     16  H   UNL     1      -0.115  -2.145   4.296  1.00  0.00     0.347 HD
ATOM     17  C   UNL     1      -1.679  -2.909   1.770  1.00  0.00     0.170 C 
ATOM     18  C   UNL     1      -2.671  -0.857   1.138  1.00  0.00     0.239 C 
ATOM     19  C   UNL     1       0.546  -3.923   2.808  1.00  0.00     0.093 C 
ATOM     20  C   UNL     1      -0.911  -2.221   0.682  1.00  0.00     0.240 C 
ATOM     21  N   UNL     1      -1.674  -1.169   0.255  1.00  0.00    -0.285 N 
ATOM     22  O   UNL     1      -3.497   0.035   1.022  1.00  0.00    -0.274 OA
ATOM     23  O   UNL     1       0.185  -2.537   0.248  1.00  0.00    -0.274 OA
ATOM     24  C   UNL     1      -1.401  -0.386  -0.921  1.00  0.00     0.156 C 
BRANCH  12  25
ATOM     25  C   UNL     1      -1.132   0.046   3.361  1.00  0.00     0.056 A 
ATOM     26  C   UNL     1       0.526   1.417   2.194  1.00  0.00     0.161 A 
ATOM     27  C   UNL     1      -0.235   2.561   2.435  1.00  0.00     0.050 A 
ATOM     28  C   UNL     1       0.106   0.189   2.724  1.00  0.00     0.166 A 
ATOM     29  C   UNL     1      -1.413   2.470   3.176  1.00  0.00     0.005 A 
ATOM     30  C   UNL     1      -1.863   1.223   3.620  1.00  0.00     0.014 A 
BRANCH  26  31
ATOM     31  O   UNL     1       1.730   1.587   1.564  1.00  0.00    -0.493 OA
ATOM     32  C   UNL     1       1.810   0.981   0.276  1.00  0.00     0.278 C 
ENDBRANCH  26  31
BRANCH  28  33
ATOM     33  O   UNL     1       0.914  -0.903   2.693  1.00  0.00    -0.504 OA
ATOM     34  H   UNL     1       1.752  -0.854   2.276  1.00  0.00     0.293 HD
ENDBRANCH  28  33
ENDBRANCH  12  25
ENDBRANCH   9  11
ENDBRANCH   8   9
ENDBRANCH   7   8
ENDBRANCH   6   7
ENDBRANCH   5   6
ENDBRANCH   4   5
ENDBRANCH   3   4
ENDBRANCH   2   3
ENDBRANCH   1   2
BRANCH   1  35
ATOM     35  C   UNL     1      -6.532  -4.066   6.624  1.00  0.00     0.188 C 
BRANCH  35  36
ATOM     36  O   UNL     1      -6.608  -3.008   5.669  1.00  0.00    -0.376 OA
BRANCH  36  37
ATOM     37  C   UNL     1      -7.131  -1.753   6.077  1.00  0.00     0.202 C 
BRANCH  37  38
ATOM     38  C   UNL     1      -6.229  -0.870   6.958  1.00  0.00     0.261 C 
BRANCH  38  39
ATOM     39  O   UNL     1      -5.798  -1.434   8.203  1.00  0.00    -0.460 OA
BRANCH  39  40
ATOM     40  C   UNL     1      -6.758  -1.840   9.063  1.00  0.00     0.338 C 
ATOM     41  O   UNL     1      -7.962  -1.709   8.917  1.00  0.00    -0.246 OA
BRANCH  40  42
ATOM     42  C   UNL     1      -6.122  -2.680  10.101  1.00  0.00     0.060 A 
ATOM     43  C   UNL     1      -6.598  -3.984  10.282  1.00  0.00     0.016 A 
ATOM     44  C   UNL     1      -5.050  -2.206  10.865  1.00  0.00     0.016 A 
ATOM     45  C   UNL     1      -6.037  -4.803  11.259  1.00  0.00     0.010 A 
ATOM     46  C   UNL     1      -4.507  -3.019  11.866  1.00  0.00     0.010 A 
ATOM     47  C   UNL     1      -5.029  -4.305  12.094  1.00  0.00    -0.014 A 
BRANCH  47  48
ATOM     48  C   UNL     1      -4.724  -5.041  13.346  1.00  0.00     0.031 A 
ATOM     49  C   UNL     1      -5.439  -4.615  14.601  1.00  0.00     0.074 A 
ATOM     50  C   UNL     1      -3.916  -6.115  13.355  1.00  0.00     0.049 A 
ATOM     51  N   UNL     1      -5.398  -5.130  15.802  1.00  0.00    -0.248 NA
ATOM     52  C   UNL     1      -6.324  -3.447  14.476  1.00  0.00     0.031 C 
ATOM     53  C   UNL     1      -3.219  -6.656  12.190  1.00  0.00     0.029 A 
ATOM     54  N   UNL     1      -3.561  -6.954  14.381  1.00  0.00    -0.354 N 
ATOM     55  C   UNL     1      -6.262  -4.357  16.573  1.00  0.00     0.074 A 
ATOM     56  C   UNL     1      -6.760  -3.304  15.716  1.00  0.00     0.031 C 
ATOM     57  C   UNL     1      -2.528  -7.747  12.566  1.00  0.00     0.029 A 
ATOM     58  C   UNL     1      -2.708  -7.963  14.001  1.00  0.00     0.049 A 
ATOM     59  H   UNL     1      -3.887  -6.844  15.303  1.00  0.00     0.167 HD
ATOM     60  C   UNL     1      -6.622  -4.522  17.869  1.00  0.00     0.034 A 
ATOM     61  C   UNL     1      -2.135  -8.941  14.733  1.00  0.00     0.034 A 
ATOM     62  C   UNL     1      -6.090  -5.559  18.718  1.00  0.00     0.049 A 
ATOM     63  C   UNL     1      -2.457  -9.034  16.207  1.00  0.00     0.074 A 
ATOM     64  C   UNL     1      -6.362  -5.809  20.052  1.00  0.00     0.029 A 
ATOM     65  N   UNL     1      -5.160  -6.513  18.320  1.00  0.00    -0.354 N 
ATOM     66  N   UNL     1      -3.272  -8.296  16.928  1.00  0.00    -0.248 NA
ATOM     67  C   UNL     1      -1.792 -10.104  16.961  1.00  0.00     0.031 C 
ATOM     68  C   UNL     1      -5.540  -6.857  20.479  1.00  0.00     0.029 A 
ATOM     69  C   UNL     1      -4.825  -7.330  19.390  1.00  0.00     0.049 A 
ATOM     70  H   UNL     1      -4.792  -6.596  17.410  1.00  0.00     0.167 HD
ATOM     71  C   UNL     1      -3.248  -8.844  18.210  1.00  0.00     0.074 A 
ATOM     72  C   UNL     1      -2.348  -9.978  18.156  1.00  0.00     0.031 C 
ATOM     73  C   UNL     1      -3.917  -8.453  19.327  1.00  0.00     0.034 A 
BRANCH  60  74
ATOM     74  C   UNL     1      -7.591  -3.515  18.445  1.00  0.00     0.023 A 
ATOM     75  C   UNL     1      -8.890  -3.358  17.926  1.00  0.00     0.031 A 
ATOM     76  C   UNL     1      -7.192  -2.653  19.481  1.00  0.00     0.131 A 
ATOM     77  C   UNL     1      -9.703  -2.307  18.377  1.00  0.00     0.055 A 
ATOM     78  C   UNL     1      -8.043  -1.671  19.993  1.00  0.00     0.041 A 
ATOM     79  F   UNL     1      -5.956  -2.733  19.999  1.00  0.00    -0.206 F 
ATOM     80  C   UNL     1      -9.300  -1.480  19.427  1.00  0.00     0.022 A 
BRANCH  77  81
ATOM     81  S   UNL     1     -11.215  -1.923  17.449  1.00  0.00     0.124 S 
ATOM     82  O   UNL     1     -10.685  -1.684  16.109  1.00  0.00    -0.237 OA
ATOM     83  O   UNL     1     -12.006  -3.136  17.617  1.00  0.00    -0.237 OA
ATOM     84  O   UNL     1     -11.738  -0.736  18.123  1.00  0.00    -0.744 OA
ENDBRANCH  77  81
ENDBRANCH  60  74
BRANCH  61  85
ATOM     85  C   UNL     1      -1.188  -9.906  14.102  1.00  0.00     0.023 A 
ATOM     86  C   UNL     1      -1.468 -11.282  14.066  1.00  0.00     0.031 A 
ATOM     87  C   UNL     1       0.042  -9.471  13.576  1.00  0.00     0.131 A 
ATOM     88  C   UNL     1      -0.512 -12.178  13.560  1.00  0.00     0.055 A 
ATOM     89  C   UNL     1       0.965 -10.360  13.022  1.00  0.00     0.041 A 
ATOM     90  F   UNL     1       0.364  -8.168  13.591  1.00  0.00    -0.206 F 
ATOM     91  C   UNL     1       0.695 -11.725  13.024  1.00  0.00     0.022 A 
BRANCH  88  92
ATOM     92  S   UNL     1      -0.832 -13.959  13.695  1.00  0.00     0.124 S 
ATOM     93  O   UNL     1      -0.977 -14.126  15.137  1.00  0.00    -0.237 OA
ATOM     94  O   UNL     1      -2.050 -14.108  12.906  1.00  0.00    -0.237 OA
ATOM     95  O   UNL     1       0.363 -14.564  13.112  1.00  0.00    -0.744 OA
ENDBRANCH  88  92
ENDBRANCH  61  85
BRANCH  73  96
ATOM     96  C   UNL     1      -3.744  -9.302  20.567  1.00  0.00     0.023 A 
ATOM     97  C   UNL     1      -2.502  -9.443  21.211  1.00  0.00     0.031 A 
ATOM     98  C   UNL     1      -4.842 -10.005  21.098  1.00  0.00     0.131 A 
ATOM     99  C   UNL     1      -2.372 -10.322  22.297  1.00  0.00     0.055 A 
ATOM    100  C   UNL     1      -4.723 -10.818  22.226  1.00  0.00     0.041 A 
ATOM    101  F   UNL     1      -6.054  -9.914  20.527  1.00  0.00    -0.206 F 
ATOM    102  C   UNL     1      -3.478 -10.995  22.821  1.00  0.00     0.022 A 
BRANCH  99 103
ATOM    103  S   UNL     1      -0.711 -10.677  22.935  1.00  0.00     0.124 S 
ATOM    104  O   UNL     1      -0.019 -11.141  21.737  1.00  0.00    -0.237 OA
ATOM    105  O   UNL     1      -0.291  -9.378  23.451  1.00  0.00    -0.237 OA
ATOM    106  O   UNL     1      -0.945 -11.701  23.951  1.00  0.00    -0.744 OA
ENDBRANCH  99 103
ENDBRANCH  73  96
ENDBRANCH  47  48
ENDBRANCH  40  42
ENDBRANCH  39  40
ENDBRANCH  38  39
ENDBRANCH  37  38
ENDBRANCH  36  37
ENDBRANCH  35  36
ENDBRANCH   1  35
TORSDOF 26
