REMARK SMILES CC1(C)O[C@@H]2CC3[C@H]4CCC5=CC(=O)C=C[C@@]5(C)[C@]4(F)[C@H](O)C[C@]3(C)[C@]2(C(=O)OCCOCCOCCOCCOC(=O)c2ccc(-c3c4nc(c(-c5cc(S(=O)(=O)[O-])ccc5F)c5ccc([nH]5)c(-c5cc(S(=O)(=O)[O-])ccc5F)c5nc(c(-c6cc(S(=O)(=O)[O-])ccc6F)c6ccc3[nH]6)C=C5)C=C4)cc2)O1
REMARK SMILES IDX 36 1 35 2 34 3 33 4 32 5 31 6 30 7 29 8 27 9 28 10 26 11
REMARK SMILES IDX 1 12 2 13 4 14 107 15 3 16 5 17 6 18 24 19 7 20 23 21 25 22
REMARK SMILES IDX 8 23 21 24 9 25 19 26 10 27 17 28 20 29 11 30 16 31 18 32
REMARK SMILES IDX 12 33 15 34 13 35 14 36 22 37 37 39 38 40 39 41 40 42 41 43
REMARK SMILES IDX 42 44 43 45 44 46 45 47 106 48 46 49 105 50 47 51 48 52
REMARK SMILES IDX 49 53 99 54 50 55 104 56 98 57 100 58 51 59 103 60 97 61
REMARK SMILES IDX 96 62 52 64 84 65 64 66 83 67 65 68 68 69 82 70 101 71 66 72
REMARK SMILES IDX 67 73 81 75 102 76 69 77 53 78 54 79 62 80 55 81 61 82 63 83
REMARK SMILES IDX 60 84 56 85 57 86 58 87 59 88 85 89 86 90 94 91 87 92 93 93
REMARK SMILES IDX 95 94 92 95 88 96 89 97 90 98 91 99 70 100 71 101 79 102
REMARK SMILES IDX 72 103 78 104 80 105 77 106 73 107 74 108 75 109 76 110
REMARK H PARENT 22 38 100 63 68 74
REMARK Flexibility Score: inf
ROOT
ATOM      1  C   UNL     1       1.449  -1.725   4.855  1.00  0.00     0.188 C 
ENDROOT
BRANCH   1   2
ATOM      2  O   UNL     1       1.206  -2.171   3.531  1.00  0.00    -0.377 OA
BRANCH   2   3
ATOM      3  C   UNL     1      -0.113  -2.071   3.049  1.00  0.00     0.188 C 
BRANCH   3   4
ATOM      4  C   UNL     1      -0.948  -3.315   3.318  1.00  0.00     0.188 C 
BRANCH   4   5
ATOM      5  O   UNL     1      -0.558  -4.047   4.460  1.00  0.00    -0.376 OA
BRANCH   5   6
ATOM      6  C   UNL     1       0.512  -4.984   4.394  1.00  0.00     0.202 C 
BRANCH   6   7
ATOM      7  C   UNL     1       1.645  -5.027   3.335  1.00  0.00     0.261 C 
BRANCH   7   8
ATOM      8  O   UNL     1       1.410  -4.409   2.062  1.00  0.00    -0.461 OA
BRANCH   8   9
ATOM      9  C   UNL     1       0.816  -5.163   1.108  1.00  0.00     0.341 C 
ATOM     10  O   UNL     1       0.554  -6.348   1.272  1.00  0.00    -0.249 OA
BRANCH   9  11
ATOM     11  C   UNL     1       0.371  -4.309  -0.111  1.00  0.00     0.200 C 
ATOM     12  C   UNL     1       2.176  -1.434   0.509  1.00  0.00     0.075 C 
ATOM     13  C   UNL     1       1.163  -2.086  -0.431  1.00  0.00     0.165 C 
ATOM     14  O   UNL     1       1.890  -2.888  -1.360  1.00  0.00    -0.344 OA
ATOM     15  O   UNL     1       0.198  -2.913   0.249  1.00  0.00    -0.329 OA
ATOM     16  C   UNL     1       0.465  -0.888  -1.126  1.00  0.00     0.075 C 
ATOM     17  C   UNL     1       1.318  -4.210  -1.347  1.00  0.00     0.166 C 
ATOM     18  C   UNL     1       0.396  -4.292  -2.636  1.00  0.00     0.040 C 
ATOM     19  C   UNL     1      -0.969  -4.932  -0.762  1.00  0.00     0.016 C 
ATOM     20  C   UNL     1      -0.984  -4.033  -2.011  1.00  0.00     0.008 C 
ATOM     21  C   UNL     1      -2.308  -4.953   0.008  1.00  0.00     0.046 C 
ATOM     22  C   UNL     1      -0.716  -6.434  -1.146  1.00  0.00     0.015 C 
ATOM     23  C   UNL     1      -2.190  -3.174  -2.413  1.00  0.00     0.035 C 
ATOM     24  C   UNL     1      -3.268  -3.789  -0.201  1.00  0.00     0.154 C 
ATOM     25  C   UNL     1      -2.301  -2.841  -3.890  1.00  0.00     0.012 C 
ATOM     26  C   UNL     1      -3.517  -3.473  -1.711  1.00  0.00     0.152 C 
ATOM     27  C   UNL     1      -3.092  -1.538  -4.009  1.00  0.00     0.032 C 
ATOM     28  C   UNL     1      -4.544  -2.266  -1.952  1.00  0.00     0.044 C 
ATOM     29  F   UNL     1      -4.018  -4.607  -2.299  1.00  0.00    -0.239 F 
ATOM     30  C   UNL     1      -4.447  -1.639  -3.358  1.00  0.00    -0.053 C 
ATOM     31  C   UNL     1      -5.986  -2.728  -1.718  1.00  0.00    -0.009 C 
ATOM     32  C   UNL     1      -4.338  -1.092  -0.942  1.00  0.00     0.024 C 
ATOM     33  C   UNL     1      -5.515  -1.073  -3.950  1.00  0.00     0.052 C 
ATOM     34  C   UNL     1      -7.026  -1.987  -2.145  1.00  0.00     0.048 C 
ATOM     35  C   UNL     1      -6.823  -1.031  -3.259  1.00  0.00     0.178 C 
ATOM     36  O   UNL     1      -7.715  -0.275  -3.622  1.00  0.00    -0.290 OA
BRANCH  24  37
ATOM     37  O   UNL     1      -2.740  -2.694   0.537  1.00  0.00    -0.390 OA
ATOM     38  H   UNL     1      -1.854  -2.478   0.206  1.00  0.00     0.211 HD
ENDBRANCH  24  37
ENDBRANCH   9  11
ENDBRANCH   8   9
ENDBRANCH   7   8
ENDBRANCH   6   7
ENDBRANCH   5   6
ENDBRANCH   4   5
ENDBRANCH   3   4
ENDBRANCH   2   3
ENDBRANCH   1   2
BRANCH   1  39
ATOM     39  C   UNL     1       0.288  -1.522   5.857  1.00  0.00     0.188 C 
BRANCH  39  40
ATOM     40  O   UNL     1      -0.922  -0.990   5.333  1.00  0.00    -0.376 OA
BRANCH  40  41
ATOM     41  C   UNL     1      -1.130   0.417   5.336  1.00  0.00     0.202 C 
BRANCH  41  42
ATOM     42  C   UNL     1      -0.191   1.321   4.511  1.00  0.00     0.261 C 
BRANCH  42  43
ATOM     43  O   UNL     1       1.208   1.255   4.819  1.00  0.00    -0.460 OA
BRANCH  43  44
ATOM     44  C   UNL     1       1.580   1.503   6.094  1.00  0.00     0.338 C 
ATOM     45  O   UNL     1       0.851   1.862   7.006  1.00  0.00    -0.246 OA
BRANCH  44  46
ATOM     46  C   UNL     1       2.975   1.037   6.261  1.00  0.00     0.060 A 
ATOM     47  C   UNL     1       3.239   0.056   7.226  1.00  0.00     0.016 A 
ATOM     48  C   UNL     1       4.003   1.517   5.445  1.00  0.00     0.016 A 
ATOM     49  C   UNL     1       4.536  -0.424   7.403  1.00  0.00     0.010 A 
ATOM     50  C   UNL     1       5.311   1.062   5.649  1.00  0.00     0.010 A 
ATOM     51  C   UNL     1       5.588   0.116   6.652  1.00  0.00    -0.014 A 
BRANCH  51  52
ATOM     52  C   UNL     1       6.984  -0.131   7.093  1.00  0.00     0.031 A 
ATOM     53  C   UNL     1       7.627   0.897   7.985  1.00  0.00     0.074 A 
ATOM     54  C   UNL     1       7.643  -1.259   6.771  1.00  0.00     0.049 A 
ATOM     55  N   UNL     1       8.838   0.934   8.477  1.00  0.00    -0.248 NA
ATOM     56  C   UNL     1       6.783   2.039   8.374  1.00  0.00     0.031 C 
ATOM     57  C   UNL     1       7.103  -2.354   5.968  1.00  0.00     0.029 A 
ATOM     58  N   UNL     1       8.917  -1.666   7.082  1.00  0.00    -0.354 N 
ATOM     59  C   UNL     1       8.899   2.096   9.239  1.00  0.00     0.074 A 
ATOM     60  C   UNL     1       7.620   2.759   9.104  1.00  0.00     0.031 C 
ATOM     61  C   UNL     1       8.048  -3.302   5.834  1.00  0.00     0.029 A 
ATOM     62  C   UNL     1       9.271  -2.865   6.508  1.00  0.00     0.049 A 
ATOM     63  H   UNL     1       9.521  -1.148   7.662  1.00  0.00     0.167 HD
ATOM     64  C   UNL     1       9.922   2.561   9.995  1.00  0.00     0.034 A 
ATOM     65  C   UNL     1      10.454  -3.514   6.500  1.00  0.00     0.034 A 
ATOM     66  C   UNL     1      11.200   1.903  10.103  1.00  0.00     0.049 A 
ATOM     67  C   UNL     1      11.621  -2.918   7.259  1.00  0.00     0.074 A 
ATOM     68  C   UNL     1      12.314   2.297  10.823  1.00  0.00     0.029 A 
ATOM     69  N   UNL     1      11.540   0.718   9.464  1.00  0.00    -0.354 N 
ATOM     70  N   UNL     1      11.670  -1.813   7.970  1.00  0.00    -0.248 NA
ATOM     71  C   UNL     1      12.887  -3.662   7.224  1.00  0.00     0.031 C 
ATOM     72  C   UNL     1      13.347   1.393  10.561  1.00  0.00     0.029 A 
ATOM     73  C   UNL     1      12.854   0.383   9.750  1.00  0.00     0.049 A 
ATOM     74  H   UNL     1      10.935   0.192   8.892  1.00  0.00     0.167 HD
ATOM     75  C   UNL     1      12.962  -1.752   8.491  1.00  0.00     0.074 A 
ATOM     76  C   UNL     1      13.650  -2.939   8.030  1.00  0.00     0.031 C 
ATOM     77  C   UNL     1      13.530  -0.803   9.280  1.00  0.00     0.034 A 
BRANCH  64  78
ATOM     78  C   UNL     1       9.709   3.866  10.722  1.00  0.00     0.023 A 
ATOM     79  C   UNL     1       8.745   3.996  11.737  1.00  0.00     0.031 A 
ATOM     80  C   UNL     1      10.464   5.002  10.381  1.00  0.00     0.131 A 
ATOM     81  C   UNL     1       8.519   5.247  12.332  1.00  0.00     0.055 A 
ATOM     82  C   UNL     1      10.290   6.224  11.033  1.00  0.00     0.041 A 
ATOM     83  F   UNL     1      11.378   4.946   9.399  1.00  0.00    -0.206 F 
ATOM     84  C   UNL     1       9.304   6.355  12.006  1.00  0.00     0.022 A 
BRANCH  81  85
ATOM     85  S   UNL     1       7.094   5.436  13.437  1.00  0.00     0.124 S 
ATOM     86  O   UNL     1       5.986   5.079  12.554  1.00  0.00    -0.237 OA
ATOM     87  O   UNL     1       7.392   4.487  14.503  1.00  0.00    -0.237 OA
ATOM     88  O   UNL     1       7.144   6.845  13.823  1.00  0.00    -0.744 OA
ENDBRANCH  81  85
ENDBRANCH  64  78
BRANCH  65  89
ATOM     89  C   UNL     1      10.633  -4.766   5.705  1.00  0.00     0.023 A 
ATOM     90  C   UNL     1      11.008  -5.976   6.311  1.00  0.00     0.031 A 
ATOM     91  C   UNL     1      10.516  -4.746   4.302  1.00  0.00     0.131 A 
ATOM     92  C   UNL     1      11.312  -7.094   5.517  1.00  0.00     0.055 A 
ATOM     93  C   UNL     1      10.754  -5.879   3.522  1.00  0.00     0.041 A 
ATOM     94  F   UNL     1      10.170  -3.616   3.665  1.00  0.00    -0.206 F 
ATOM     95  C   UNL     1      11.172  -7.058   4.128  1.00  0.00     0.022 A 
BRANCH  92  96
ATOM     96  S   UNL     1      12.010  -8.566   6.317  1.00  0.00     0.124 S 
ATOM     97  O   UNL     1      13.188  -8.013   6.976  1.00  0.00    -0.237 OA
ATOM     98  O   UNL     1      10.919  -8.980   7.193  1.00  0.00    -0.237 OA
ATOM     99  O   UNL     1      12.284  -9.464   5.197  1.00  0.00    -0.744 OA
ENDBRANCH  92  96
ENDBRANCH  65  89
BRANCH  77 100
ATOM    100  C   UNL     1      14.950  -1.042   9.738  1.00  0.00     0.023 A 
ATOM    101  C   UNL     1      16.027  -1.079   8.834  1.00  0.00     0.031 A 
ATOM    102  C   UNL     1      15.229  -1.243  11.102  1.00  0.00     0.131 A 
ATOM    103  C   UNL     1      17.318  -1.376   9.296  1.00  0.00     0.055 A 
ATOM    104  C   UNL     1      16.526  -1.467  11.565  1.00  0.00     0.041 A 
ATOM    105  F   UNL     1      14.241  -1.220  12.012  1.00  0.00    -0.206 F 
ATOM    106  C   UNL     1      17.578  -1.550  10.658  1.00  0.00     0.022 A 
BRANCH 103 107
ATOM    107  S   UNL     1      18.638  -1.641   8.081  1.00  0.00     0.124 S 
ATOM    108  O   UNL     1      18.091  -2.723   7.270  1.00  0.00    -0.237 OA
ATOM    109  O   UNL     1      18.728  -0.338   7.429  1.00  0.00    -0.237 OA
ATOM    110  O   UNL     1      19.793  -2.003   8.901  1.00  0.00    -0.744 OA
ENDBRANCH 103 107
ENDBRANCH  77 100
ENDBRANCH  51  52
ENDBRANCH  44  46
ENDBRANCH  43  44
ENDBRANCH  42  43
ENDBRANCH  41  42
ENDBRANCH  40  41
ENDBRANCH  39  40
ENDBRANCH   1  39
TORSDOF 24
