REMARK SMILES C[C@H](CNC(=O)N1C[C@H]2CCCC[N@@H+]2C[C@@H]1C)C(=O)OCCOCCOCCOCCOC(=O)c1ccc(-c2c3nc(c(-c4cc(S(=O)(=O)[O-])ccc4F)c4ccc([nH]4)c(-c4cc(S(=O)(=O)[O-])ccc4F)c4nc(c(-c5cc(S(=O)(=O)[O-])ccc5F)c5ccc2[nH]5)C=C4)C=C3)cc1
REMARK SMILES IDX 26 1 25 2 24 3 23 4 22 5 21 6 20 7 18 8 19 9 2 10 1 11 3 12
REMARK SMILES IDX 4 13 5 14 6 16 7 17 8 18 16 19 9 20 15 21 17 22 10 23 14 24
REMARK SMILES IDX 11 25 13 26 12 28 27 29 28 30 29 31 30 32 31 33 32 34 33 35
REMARK SMILES IDX 34 36 35 37 36 38 97 39 37 40 96 41 38 42 39 43 40 44 90 45
REMARK SMILES IDX 41 46 95 47 89 48 91 49 42 50 94 51 88 52 87 53 43 55 75 56
REMARK SMILES IDX 55 57 74 58 56 59 59 60 73 61 92 62 57 63 58 64 72 66 93 67
REMARK SMILES IDX 60 68 44 69 45 70 53 71 46 72 52 73 54 74 51 75 47 76 48 77
REMARK SMILES IDX 49 78 50 79 76 80 77 81 85 82 78 83 84 84 86 85 83 86 79 87
REMARK SMILES IDX 80 88 81 89 82 90 61 91 62 92 70 93 63 94 69 95 71 96 68 97
REMARK SMILES IDX 64 98 65 99 66 100 67 101
REMARK H PARENT 4 15 14 27 91 54 59 65
REMARK Flexibility Score: inf
ROOT
ATOM      1  O   UNL     1      -2.050   0.346   0.697  1.00  0.00    -0.377 OA
ENDROOT
BRANCH   1   2
ATOM      2  C   UNL     1      -1.514   1.515   0.119  1.00  0.00     0.188 C 
BRANCH   2   3
ATOM      3  C   UNL     1      -2.149   1.957  -1.203  1.00  0.00     0.188 C 
BRANCH   3   4
ATOM      4  O   UNL     1      -3.445   1.529  -1.580  1.00  0.00    -0.376 OA
BRANCH   4   5
ATOM      5  C   UNL     1      -3.846   0.171  -1.472  1.00  0.00     0.202 C 
BRANCH   5   6
ATOM      6  C   UNL     1      -2.953  -1.013  -1.882  1.00  0.00     0.261 C 
BRANCH   6   7
ATOM      7  O   UNL     1      -1.565  -0.943  -1.520  1.00  0.00    -0.463 OA
BRANCH   7   8
ATOM      8  C   UNL     1      -0.716  -0.635  -2.520  1.00  0.00     0.310 C 
ATOM      9  O   UNL     1      -1.066  -0.399  -3.675  1.00  0.00    -0.252 OA
BRANCH   8  10
ATOM     10  C   UNL     1       0.748  -0.619  -2.136  1.00  0.00     0.115 C 
ATOM     11  C   UNL     1       1.428  -1.815  -2.796  1.00  0.00     0.022 C 
BRANCH  10  12
ATOM     12  C   UNL     1       1.224  -0.438  -0.693  1.00  0.00     0.132 C 
BRANCH  12  13
ATOM     13  N   UNL     1       0.599  -1.189   0.374  1.00  0.00    -0.337 N 
ATOM     14  C   UNL     1       1.157  -2.098   1.229  1.00  0.00     0.318 C 
ATOM     15  H   UNL     1      -0.362  -1.021   0.502  1.00  0.00     0.165 HD
ATOM     16  O   UNL     1       0.450  -2.700   2.031  1.00  0.00    -0.249 OA
BRANCH  14  17
ATOM     17  N   UNL     1       2.491  -2.363   1.048  1.00  0.00    -0.311 N 
ATOM     18  C   UNL     1       3.495  -1.348   1.356  1.00  0.00     0.186 C 
ATOM     19  C   UNL     1       3.008  -3.736   1.060  1.00  0.00     0.139 C 
ATOM     20  C   UNL     1       4.589  -1.399   0.280  1.00  0.00     0.203 C 
ATOM     21  C   UNL     1       4.334  -3.833   0.226  1.00  0.00     0.287 C 
ATOM     22  C   UNL     1       2.013  -4.741   0.457  1.00  0.00     0.037 C 
ATOM     23  C   UNL     1       5.578  -0.238   0.418  1.00  0.00     0.067 C 
ATOM     24  N   UNL     1       5.298  -2.698   0.278  1.00  0.00    -0.329 N 
ATOM     25  C   UNL     1       6.541  -0.246  -0.766  1.00  0.00     0.012 C 
ATOM     26  C   UNL     1       6.185  -2.759  -0.901  1.00  0.00     0.262 C 
ATOM     27  H   UNL     1       5.840  -2.776   1.138  1.00  0.00     0.348 HD
ATOM     28  C   UNL     1       7.202  -1.614  -0.917  1.00  0.00     0.062 C 
ENDBRANCH  14  17
ENDBRANCH  12  13
ENDBRANCH  10  12
ENDBRANCH   8  10
ENDBRANCH   7   8
ENDBRANCH   6   7
ENDBRANCH   5   6
ENDBRANCH   4   5
ENDBRANCH   3   4
ENDBRANCH   2   3
ENDBRANCH   1   2
BRANCH   1  29
ATOM     29  C   UNL     1      -3.019   0.515   1.728  1.00  0.00     0.188 C 
BRANCH  29  30
ATOM     30  C   UNL     1      -3.897   1.786   1.724  1.00  0.00     0.188 C 
BRANCH  30  31
ATOM     31  O   UNL     1      -3.187   3.004   1.526  1.00  0.00    -0.376 OA
BRANCH  31  32
ATOM     32  C   UNL     1      -2.783   3.749   2.668  1.00  0.00     0.202 C 
BRANCH  32  33
ATOM     33  C   UNL     1      -1.743   3.114   3.611  1.00  0.00     0.261 C 
BRANCH  33  34
ATOM     34  O   UNL     1      -2.119   1.881   4.241  1.00  0.00    -0.460 OA
BRANCH  34  35
ATOM     35  C   UNL     1      -3.261   1.880   4.959  1.00  0.00     0.338 C 
ATOM     36  O   UNL     1      -3.970   2.846   5.195  1.00  0.00    -0.246 OA
BRANCH  35  37
ATOM     37  C   UNL     1      -3.641   0.482   5.244  1.00  0.00     0.060 A 
ATOM     38  C   UNL     1      -4.904   0.040   4.831  1.00  0.00     0.016 A 
ATOM     39  C   UNL     1      -2.788  -0.368   5.952  1.00  0.00     0.016 A 
ATOM     40  C   UNL     1      -5.355  -1.224   5.200  1.00  0.00     0.010 A 
ATOM     41  C   UNL     1      -3.249  -1.631   6.340  1.00  0.00     0.010 A 
ATOM     42  C   UNL     1      -4.559  -2.035   6.019  1.00  0.00    -0.014 A 
BRANCH  42  43
ATOM     43  C   UNL     1      -5.213  -3.142   6.761  1.00  0.00     0.031 A 
ATOM     44  C   UNL     1      -5.658  -2.870   8.176  1.00  0.00     0.074 A 
ATOM     45  C   UNL     1      -5.489  -4.321   6.176  1.00  0.00     0.049 A 
ATOM     46  N   UNL     1      -6.278  -3.651   9.023  1.00  0.00    -0.248 NA
ATOM     47  C   UNL     1      -5.360  -1.529   8.705  1.00  0.00     0.031 C 
ATOM     48  C   UNL     1      -5.164  -4.676   4.796  1.00  0.00     0.029 A 
ATOM     49  N   UNL     1      -6.119  -5.435   6.673  1.00  0.00    -0.354 N 
ATOM     50  C   UNL     1      -6.432  -2.901  10.185  1.00  0.00     0.074 A 
ATOM     51  C   UNL     1      -5.804  -1.621   9.948  1.00  0.00     0.031 C 
ATOM     52  C   UNL     1      -5.607  -5.922   4.553  1.00  0.00     0.029 A 
ATOM     53  C   UNL     1      -6.211  -6.467   5.769  1.00  0.00     0.049 A 
ATOM     54  H   UNL     1      -6.471  -5.490   7.590  1.00  0.00     0.167 HD
ATOM     55  C   UNL     1      -7.051  -3.244  11.342  1.00  0.00     0.034 A 
ATOM     56  C   UNL     1      -6.713  -7.710   5.915  1.00  0.00     0.034 A 
ATOM     57  C   UNL     1      -7.665  -4.530  11.565  1.00  0.00     0.049 A 
ATOM     58  C   UNL     1      -7.319  -8.102   7.244  1.00  0.00     0.074 A 
ATOM     59  C   UNL     1      -8.327  -4.985  12.692  1.00  0.00     0.029 A 
ATOM     60  N   UNL     1      -7.681  -5.574  10.648  1.00  0.00    -0.354 N 
ATOM     61  N   UNL     1      -7.463  -7.385   8.336  1.00  0.00    -0.248 NA
ATOM     62  C   UNL     1      -7.843  -9.470   7.352  1.00  0.00     0.031 C 
ATOM     63  C   UNL     1      -8.662  -6.327  12.490  1.00  0.00     0.029 A 
ATOM     64  C   UNL     1      -8.308  -6.681  11.197  1.00  0.00     0.049 A 
ATOM     65  H   UNL     1      -7.303  -5.533   9.740  1.00  0.00     0.167 HD
ATOM     66  C   UNL     1      -8.142  -8.201   9.241  1.00  0.00     0.074 A 
ATOM     67  C   UNL     1      -8.381  -9.458   8.562  1.00  0.00     0.031 C 
ATOM     68  C   UNL     1      -8.542  -7.932  10.512  1.00  0.00     0.034 A 
BRANCH  55  69
ATOM     69  C   UNL     1      -7.022  -2.237  12.470  1.00  0.00     0.023 A 
ATOM     70  C   UNL     1      -7.621  -0.969  12.358  1.00  0.00     0.031 A 
ATOM     71  C   UNL     1      -6.339  -2.536  13.662  1.00  0.00     0.131 A 
ATOM     72  C   UNL     1      -7.455  -0.023  13.382  1.00  0.00     0.055 A 
ATOM     73  C   UNL     1      -6.257  -1.623  14.715  1.00  0.00     0.041 A 
ATOM     74  F   UNL     1      -5.721  -3.718  13.819  1.00  0.00    -0.206 F 
ATOM     75  C   UNL     1      -6.802  -0.351  14.572  1.00  0.00     0.022 A 
BRANCH  72  76
ATOM     76  S   UNL     1      -7.956   1.693  13.069  1.00  0.00     0.124 S 
ATOM     77  O   UNL     1      -7.167   2.019  11.883  1.00  0.00    -0.237 OA
ATOM     78  O   UNL     1      -9.394   1.570  12.867  1.00  0.00    -0.237 OA
ATOM     79  O   UNL     1      -7.554   2.395  14.287  1.00  0.00    -0.744 OA
ENDBRANCH  72  76
ENDBRANCH  55  69
BRANCH  56  80
ATOM     80  C   UNL     1      -6.655  -8.692   4.792  1.00  0.00     0.023 A 
ATOM     81  C   UNL     1      -7.826  -9.230   4.233  1.00  0.00     0.031 A 
ATOM     82  C   UNL     1      -5.420  -9.162   4.307  1.00  0.00     0.131 A 
ATOM     83  C   UNL     1      -7.739 -10.242   3.263  1.00  0.00     0.055 A 
ATOM     84  C   UNL     1      -5.340 -10.123   3.298  1.00  0.00     0.041 A 
ATOM     85  F   UNL     1      -4.269  -8.689   4.810  1.00  0.00    -0.206 F 
ATOM     86  C   UNL     1      -6.505 -10.680   2.781  1.00  0.00     0.022 A 
BRANCH  83  87
ATOM     87  S   UNL     1      -9.267 -11.051   2.711  1.00  0.00     0.124 S 
ATOM     88  O   UNL     1      -9.794 -11.576   3.965  1.00  0.00    -0.237 OA
ATOM     89  O   UNL     1     -10.003  -9.938   2.121  1.00  0.00    -0.237 OA
ATOM     90  O   UNL     1      -8.795 -12.056   1.761  1.00  0.00    -0.744 OA
ENDBRANCH  83  87
ENDBRANCH  56  80
BRANCH  68  91
ATOM     91  C   UNL     1      -9.354  -8.994  11.222  1.00  0.00     0.023 A 
ATOM     92  C   UNL     1      -8.832 -10.264  11.523  1.00  0.00     0.031 A 
ATOM     93  C   UNL     1     -10.690  -8.731  11.581  1.00  0.00     0.131 A 
ATOM     94  C   UNL     1      -9.661 -11.245  12.088  1.00  0.00     0.055 A 
ATOM     95  C   UNL     1     -11.485  -9.685  12.216  1.00  0.00     0.041 A 
ATOM     96  F   UNL     1     -11.247  -7.538  11.317  1.00  0.00    -0.206 F 
ATOM     97  C   UNL     1     -10.978 -10.957  12.456  1.00  0.00     0.022 A 
BRANCH  94  98
ATOM     98  S   UNL     1      -9.040 -12.945  12.212  1.00  0.00     0.124 S 
ATOM     99  O   UNL     1      -8.653 -13.228  10.834  1.00  0.00    -0.237 OA
ATOM    100  O   UNL     1      -7.944 -12.808  13.166  1.00  0.00    -0.237 OA
ATOM    101  O   UNL     1     -10.194 -13.698  12.699  1.00  0.00    -0.744 OA
ENDBRANCH  94  98
ENDBRANCH  68  91
ENDBRANCH  42  43
ENDBRANCH  35  37
ENDBRANCH  34  35
ENDBRANCH  33  34
ENDBRANCH  32  33
ENDBRANCH  31  32
ENDBRANCH  30  31
ENDBRANCH  29  30
ENDBRANCH   1  29
TORSDOF 26
