REMARK SMILES COc1ccccc1[C@@H]1CN(C(=O)c2cc(C(C)C)nc(N)n2)C[C@H]1C(=O)OCCOCCOCCOCCOC(=O)c1ccc(-c2c3nc(c(-c4cc(S(=O)(=O)[O-])ccc4F)c4ccc([nH]4)c(-c4cc(S(=O)(=O)[O-])ccc4F)c4nc(c(-c5cc(S(=O)(=O)[O-])ccc5F)c5ccc2[nH]5)C=C4)C=C3)cc1
REMARK SMILES IDX 34 1 33 2 32 3 31 4 30 5 29 6 28 7 26 8 27 9 25 10 9 11
REMARK SMILES IDX 10 12 11 13 24 14 8 15 3 16 4 17 5 18 7 19 6 20 2 21 1 22
REMARK SMILES IDX 12 23 13 24 14 25 15 26 23 27 16 28 21 29 20 30 17 31 18 32
REMARK SMILES IDX 19 33 22 34 35 37 36 38 37 39 38 40 39 41 40 42 41 43 42 44
REMARK SMILES IDX 43 45 44 46 105 47 45 48 104 49 46 50 47 51 48 52 98 53
REMARK SMILES IDX 49 54 103 55 97 56 99 57 50 58 102 59 96 60 95 61 51 63
REMARK SMILES IDX 83 64 63 65 82 66 64 67 67 68 81 69 100 70 65 71 66 72 80 74
REMARK SMILES IDX 101 75 68 76 52 77 53 78 61 79 54 80 60 81 62 82 59 83 55 84
REMARK SMILES IDX 56 85 57 86 58 87 84 88 85 89 93 90 86 91 92 92 94 93 91 94
REMARK SMILES IDX 87 95 88 96 89 97 90 98 69 99 70 100 78 101 71 102 77 103
REMARK SMILES IDX 79 104 76 105 72 106 73 107 74 108 75 109
REMARK H PARENT 22 35 22 36 99 62 67 73
REMARK Flexibility Score: inf
ROOT
ATOM      1  O   UNL     1       3.795  -1.210  -4.197  1.00  0.00    -0.377 OA
ENDROOT
BRANCH   1   2
ATOM      2  C   UNL     1       2.434  -1.085  -3.845  1.00  0.00     0.188 C 
BRANCH   2   3
ATOM      3  C   UNL     1       1.718   0.201  -4.269  1.00  0.00     0.188 C 
BRANCH   3   4
ATOM      4  O   UNL     1       2.316   1.100  -5.183  1.00  0.00    -0.376 OA
BRANCH   4   5
ATOM      5  C   UNL     1       3.700   1.407  -5.109  1.00  0.00     0.202 C 
BRANCH   5   6
ATOM      6  C   UNL     1       4.416   1.719  -3.776  1.00  0.00     0.261 C 
BRANCH   6   7
ATOM      7  O   UNL     1       4.209   0.813  -2.666  1.00  0.00    -0.463 OA
BRANCH   7   8
ATOM      8  C   UNL     1       3.361   1.249  -1.714  1.00  0.00     0.311 C 
ATOM      9  O   UNL     1       2.816   2.352  -1.746  1.00  0.00    -0.252 OA
BRANCH   8  10
ATOM     10  C   UNL     1       3.134   0.341  -0.519  1.00  0.00     0.128 C 
ATOM     11  C   UNL     1       3.308  -1.206  -0.418  1.00  0.00     0.058 C 
ATOM     12  C   UNL     1       3.741  -1.396   1.039  1.00  0.00     0.129 C 
ATOM     13  N   UNL     1       4.527  -0.216   1.319  1.00  0.00    -0.336 N 
ATOM     14  C   UNL     1       4.038   0.913   0.567  1.00  0.00     0.136 C 
BRANCH  11  15
ATOM     15  C   UNL     1       2.129  -2.154  -0.672  1.00  0.00    -0.000 A 
ATOM     16  C   UNL     1       0.815  -1.939  -0.217  1.00  0.00     0.122 A 
ATOM     17  C   UNL     1      -0.233  -2.787  -0.602  1.00  0.00     0.047 A 
ATOM     18  C   UNL     1       0.029  -3.926  -1.363  1.00  0.00     0.004 A 
ATOM     19  C   UNL     1       2.378  -3.357  -1.367  1.00  0.00     0.008 A 
ATOM     20  C   UNL     1       1.343  -4.240  -1.692  1.00  0.00     0.001 A 
BRANCH  16  21
ATOM     21  O   UNL     1       0.608  -1.085   0.835  1.00  0.00    -0.496 OA
ATOM     22  C   UNL     1      -0.088   0.113   0.515  1.00  0.00     0.278 C 
ENDBRANCH  16  21
ENDBRANCH  11  15
BRANCH  13  23
ATOM     23  C   UNL     1       5.503  -0.028   2.279  1.00  0.00     0.272 C 
ATOM     24  O   UNL     1       5.983   1.077   2.521  1.00  0.00    -0.267 OA
BRANCH  23  25
ATOM     25  C   UNL     1       5.986  -1.211   3.030  1.00  0.00     0.134 A 
ATOM     26  C   UNL     1       6.513  -2.287   2.353  1.00  0.00     0.058 A 
ATOM     27  N   UNL     1       5.886  -1.123   4.369  1.00  0.00    -0.208 NA
ATOM     28  C   UNL     1       6.902  -3.346   3.138  1.00  0.00     0.049 A 
ATOM     29  C   UNL     1       6.330  -2.174   5.041  1.00  0.00     0.220 A 
ATOM     30  N   UNL     1       6.815  -3.292   4.486  1.00  0.00    -0.218 NA
BRANCH  28  31
ATOM     31  C   UNL     1       7.422  -4.636   2.535  1.00  0.00     0.032 C 
ATOM     32  C   UNL     1       6.301  -5.407   1.832  1.00  0.00     0.014 C 
ATOM     33  C   UNL     1       8.598  -4.399   1.586  1.00  0.00     0.014 C 
ENDBRANCH  28  31
BRANCH  29  34
ATOM     34  N   UNL     1       6.322  -2.081   6.404  1.00  0.00    -0.368 N 
ATOM     35  H   UNL     1       6.642  -2.834   6.951  1.00  0.00     0.159 HD
ATOM     36  H   UNL     1       5.997  -1.260   6.839  1.00  0.00     0.159 HD
ENDBRANCH  29  34
ENDBRANCH  23  25
ENDBRANCH  13  23
ENDBRANCH   8  10
ENDBRANCH   7   8
ENDBRANCH   6   7
ENDBRANCH   5   6
ENDBRANCH   4   5
ENDBRANCH   3   4
ENDBRANCH   2   3
ENDBRANCH   1   2
BRANCH   1  37
ATOM     37  C   UNL     1       4.122  -1.883  -5.401  1.00  0.00     0.188 C 
BRANCH  37  38
ATOM     38  C   UNL     1       3.085  -1.895  -6.535  1.00  0.00     0.188 C 
BRANCH  38  39
ATOM     39  O   UNL     1       1.779  -2.276  -6.121  1.00  0.00    -0.376 OA
BRANCH  39  40
ATOM     40  C   UNL     1       1.396  -3.638  -6.249  1.00  0.00     0.202 C 
BRANCH  40  41
ATOM     41  C   UNL     1       2.144  -4.679  -5.402  1.00  0.00     0.261 C 
BRANCH  41  42
ATOM     42  O   UNL     1       3.555  -4.822  -5.617  1.00  0.00    -0.460 OA
BRANCH  42  43
ATOM     43  C   UNL     1       3.984  -5.058  -6.878  1.00  0.00     0.338 C 
ATOM     44  O   UNL     1       3.300  -5.247  -7.856  1.00  0.00    -0.246 OA
BRANCH  43  45
ATOM     45  C   UNL     1       5.447  -4.826  -6.886  1.00  0.00     0.060 A 
ATOM     46  C   UNL     1       5.968  -3.852  -7.747  1.00  0.00     0.016 A 
ATOM     47  C   UNL     1       6.292  -5.550  -6.040  1.00  0.00     0.016 A 
ATOM     48  C   UNL     1       7.343  -3.630  -7.797  1.00  0.00     0.010 A 
ATOM     49  C   UNL     1       7.672  -5.342  -6.107  1.00  0.00     0.010 A 
ATOM     50  C   UNL     1       8.205  -4.409  -7.015  1.00  0.00    -0.014 A 
BRANCH  50  51
ATOM     51  C   UNL     1       9.658  -4.409  -7.315  1.00  0.00     0.031 A 
ATOM     52  C   UNL     1      10.193  -5.510  -8.194  1.00  0.00     0.074 A 
ATOM     53  C   UNL     1      10.472  -3.442  -6.854  1.00  0.00     0.049 A 
ATOM     54  N   UNL     1      11.420  -5.750  -8.572  1.00  0.00    -0.248 NA
ATOM     55  C   UNL     1       9.205  -6.472  -8.712  1.00  0.00     0.031 C 
ATOM     56  C   UNL     1      10.052  -2.297  -6.046  1.00  0.00     0.029 A 
ATOM     57  N   UNL     1      11.826  -3.269  -7.000  1.00  0.00    -0.354 N 
ATOM     58  C   UNL     1      11.355  -6.897  -9.357  1.00  0.00     0.074 A 
ATOM     59  C   UNL     1       9.973  -7.318  -9.382  1.00  0.00     0.031 C 
ATOM     60  C   UNL     1      11.130  -1.544  -5.763  1.00  0.00     0.029 A 
ATOM     61  C   UNL     1      12.322  -2.174  -6.329  1.00  0.00     0.049 A 
ATOM     62  H   UNL     1      12.390  -3.873  -7.534  1.00  0.00     0.167 HD
ATOM     63  C   UNL     1      12.361  -7.538  -9.998  1.00  0.00     0.034 A 
ATOM     64  C   UNL     1      13.594  -1.751  -6.172  1.00  0.00     0.034 A 
ATOM     65  C   UNL     1      13.733  -7.100  -9.965  1.00  0.00     0.049 A 
ATOM     66  C   UNL     1      14.708  -2.539  -6.830  1.00  0.00     0.074 A 
ATOM     67  C   UNL     1      14.826  -7.652 -10.609  1.00  0.00     0.029 A 
ATOM     68  N   UNL     1      14.205  -6.017  -9.235  1.00  0.00    -0.354 N 
ATOM     69  N   UNL     1      14.629  -3.605  -7.596  1.00  0.00    -0.248 NA
ATOM     70  C   UNL     1      16.080  -2.063  -6.610  1.00  0.00     0.031 C 
ATOM     71  C   UNL     1      15.969  -6.963 -10.195  1.00  0.00     0.029 A 
ATOM     72  C   UNL     1      15.580  -5.916  -9.374  1.00  0.00     0.049 A 
ATOM     73  H   UNL     1      13.646  -5.411  -8.698  1.00  0.00     0.167 HD
ATOM     74  C   UNL     1      15.937  -3.893  -7.982  1.00  0.00     0.074 A 
ATOM     75  C   UNL     1      16.779  -2.883  -7.380  1.00  0.00     0.031 C 
ATOM     76  C   UNL     1      16.404  -4.898  -8.768  1.00  0.00     0.034 A 
BRANCH  63  77
ATOM     77  C   UNL     1      12.032  -8.814 -10.732  1.00  0.00     0.023 A 
ATOM     78  C   UNL     1      11.202  -8.837 -11.865  1.00  0.00     0.031 A 
ATOM     79  C   UNL     1      12.575 -10.033 -10.287  1.00  0.00     0.131 A 
ATOM     80  C   UNL     1      10.905 -10.060 -12.488  1.00  0.00     0.055 A 
ATOM     81  C   UNL     1      12.338 -11.234 -10.955  1.00  0.00     0.041 A 
ATOM     82  F   UNL     1      13.349 -10.075  -9.190  1.00  0.00    -0.206 F 
ATOM     83  C   UNL     1      11.491 -11.254 -12.058  1.00  0.00     0.022 A 
BRANCH  80  84
ATOM     84  S   UNL     1       9.652 -10.089 -13.798  1.00  0.00     0.124 S 
ATOM     85  O   UNL     1       8.477  -9.580 -13.094  1.00  0.00    -0.237 OA
ATOM     86  O   UNL     1      10.226  -9.204 -14.805  1.00  0.00    -0.237 OA
ATOM     87  O   UNL     1       9.581 -11.500 -14.174  1.00  0.00    -0.744 OA
ENDBRANCH  80  84
ENDBRANCH  63  77
BRANCH  64  88
ATOM     88  C   UNL     1      13.915  -0.560  -5.328  1.00  0.00     0.023 A 
ATOM     89  C   UNL     1      14.605   0.541  -5.861  1.00  0.00     0.031 A 
ATOM     90  C   UNL     1      13.638  -0.551  -3.948  1.00  0.00     0.131 A 
ATOM     91  C   UNL     1      15.062   1.562  -5.013  1.00  0.00     0.055 A 
ATOM     92  C   UNL     1      14.029   0.504  -3.121  1.00  0.00     0.041 A 
ATOM     93  F   UNL     1      12.990  -1.579  -3.378  1.00  0.00    -0.206 F 
ATOM     94  C   UNL     1      14.765   1.559  -3.649  1.00  0.00     0.022 A 
BRANCH  91  95
ATOM     95  S   UNL     1      16.181   2.817  -5.696  1.00  0.00     0.124 S 
ATOM     96  O   UNL     1      17.249   1.991  -6.246  1.00  0.00    -0.237 OA
ATOM     97  O   UNL     1      15.323   3.489  -6.666  1.00  0.00    -0.237 OA
ATOM     98  O   UNL     1      16.547   3.617  -4.529  1.00  0.00    -0.744 OA
ENDBRANCH  91  95
ENDBRANCH  64  88
BRANCH  76  99
ATOM     99  C   UNL     1      17.883  -4.911  -9.073  1.00  0.00     0.023 A 
ATOM    100  C   UNL     1      18.849  -5.116  -8.072  1.00  0.00     0.031 A 
ATOM    101  C   UNL     1      18.332  -4.715 -10.392  1.00  0.00     0.131 A 
ATOM    102  C   UNL     1      20.213  -5.057  -8.395  1.00  0.00     0.055 A 
ATOM    103  C   UNL     1      19.688  -4.731 -10.719  1.00  0.00     0.041 A 
ATOM    104  F   UNL     1      17.456  -4.512 -11.389  1.00  0.00    -0.206 F 
ATOM    105  C   UNL     1      20.638  -4.887  -9.715  1.00  0.00     0.022 A 
BRANCH 102 106
ATOM    106  S   UNL     1      21.428  -5.099  -7.049  1.00  0.00     0.124 S 
ATOM    107  O   UNL     1      21.021  -3.957  -6.238  1.00  0.00    -0.237 OA
ATOM    108  O   UNL     1      21.195  -6.414  -6.460  1.00  0.00    -0.237 OA
ATOM    109  O   UNL     1      22.708  -4.947  -7.738  1.00  0.00    -0.744 OA
ENDBRANCH 102 106
ENDBRANCH  76  99
ENDBRANCH  50  51
ENDBRANCH  43  45
ENDBRANCH  42  43
ENDBRANCH  41  42
ENDBRANCH  40  41
ENDBRANCH  39  40
ENDBRANCH  38  39
ENDBRANCH  37  38
ENDBRANCH   1  37
TORSDOF 29
