REMARK SMILES COc1cccc(N2/C(=[NH+]/C(=O)CCC(=O)OCCOCCOCCOCCOC(=O)c3ccc(-c4c5nc(c(-c6cc(S(=O)(=O)[O-])ccc6F)c6ccc([nH]6)c(-c6cc(S(=O)(=O)[O-])ccc6F)c6nc(c(-c7cc(S(=O)(=O)[O-])ccc7F)c7ccc4[nH]7)C=C6)C=C5)cc3)S[C@@H]3CS(=O)(=O)C[C@H]32)c1
REMARK SMILES IDX 22 1 21 2 20 3 19 4 18 5 17 6 15 7 16 8 14 9 13 10 11 11
REMARK SMILES IDX 8 12 9 13 102 14 10 15 95 16 96 17 101 18 97 20 98 21 12 22
REMARK SMILES IDX 99 23 100 24 7 25 3 26 4 27 103 28 5 29 6 30 2 31 1 32 23 33
REMARK SMILES IDX 24 34 25 35 26 36 27 37 28 38 29 39 30 40 31 41 32 42 33 43
REMARK SMILES IDX 94 44 34 45 93 46 35 47 36 48 37 49 87 50 38 51 92 52 86 53
REMARK SMILES IDX 88 54 39 55 91 56 85 57 84 58 40 60 72 61 52 62 71 63 53 64
REMARK SMILES IDX 56 65 70 66 89 67 54 68 55 69 69 71 90 72 57 73 41 74 42 75
REMARK SMILES IDX 50 76 43 77 49 78 51 79 48 80 44 81 45 82 46 83 47 84 73 85
REMARK SMILES IDX 74 86 82 87 75 88 81 89 83 90 80 91 76 92 77 93 78 94 79 95
REMARK SMILES IDX 58 96 59 97 67 98 60 99 66 100 68 101 65 102 61 103 62 104
REMARK SMILES IDX 63 105 64 106
REMARK H PARENT 10 19 88 59 56 70
REMARK Flexibility Score: inf
ROOT
ATOM      1  C   UNL     1       3.795   2.998   3.323  1.00  0.00     0.188 C 
ENDROOT
BRANCH   1   2
ATOM      2  C   UNL     1       3.021   3.503   2.102  1.00  0.00     0.188 C 
BRANCH   2   3
ATOM      3  O   UNL     1       2.380   2.632   1.174  1.00  0.00    -0.376 OA
BRANCH   3   4
ATOM      4  C   UNL     1       2.741   1.266   1.113  1.00  0.00     0.202 C 
BRANCH   4   5
ATOM      5  C   UNL     1       3.552   0.826  -0.101  1.00  0.00     0.261 C 
BRANCH   5   6
ATOM      6  O   UNL     1       4.949   0.954   0.171  1.00  0.00    -0.463 OA
BRANCH   6   7
ATOM      7  C   UNL     1       5.491   2.155  -0.082  1.00  0.00     0.306 C 
ATOM      8  O   UNL     1       4.982   3.036  -0.758  1.00  0.00    -0.252 OA
BRANCH   7   9
ATOM      9  C   UNL     1       6.863   2.237   0.514  1.00  0.00     0.135 C 
BRANCH   9  10
ATOM     10  C   UNL     1       6.997   2.154   2.023  1.00  0.00     0.139 C 
BRANCH  10  11
ATOM     11  C   UNL     1       6.567   0.991   2.920  1.00  0.00     0.308 C 
ATOM     12  N   UNL     1       4.478  -1.999   3.077  1.00  0.00    -0.216 N 
ATOM     13  C   UNL     1       5.479  -1.022   2.871  1.00  0.00     0.319 C 
ATOM     14  C   UNL     1       5.066  -3.282   3.514  1.00  0.00     0.212 C 
ATOM     15  N   UNL     1       5.431   0.247   2.647  1.00  0.00    -0.204 N 
ATOM     16  S   UNL     1       7.098  -1.834   3.046  1.00  0.00    -0.029 SA
ATOM     17  C   UNL     1       6.344  -2.888   4.268  1.00  0.00     0.120 C 
ATOM     18  C   UNL     1       4.379  -4.157   4.515  1.00  0.00     0.188 C 
ATOM     19  H   UNL     1       4.615   0.673   2.295  1.00  0.00     0.316 HD
ATOM     20  C   UNL     1       7.061  -4.130   4.698  1.00  0.00     0.156 C 
ATOM     21  S   UNL     1       5.711  -5.228   5.039  1.00  0.00     0.155 S 
ATOM     22  O   UNL     1       7.132   0.924   4.018  1.00  0.00    -0.247 OA
ATOM     23  O   UNL     1       5.646  -5.405   6.465  1.00  0.00    -0.229 OA
ATOM     24  O   UNL     1       5.804  -6.293   4.059  1.00  0.00    -0.229 OA
BRANCH  12  25
ATOM     25  C   UNL     1       3.069  -1.905   3.000  1.00  0.00     0.132 A 
ATOM     26  C   UNL     1       0.949  -1.913   1.735  1.00  0.00     0.123 A 
ATOM     27  C   UNL     1       0.214  -1.886   2.914  1.00  0.00     0.047 A 
ATOM     28  C   UNL     1       2.362  -1.963   1.780  1.00  0.00     0.098 A 
ATOM     29  C   UNL     1       0.879  -1.903   4.127  1.00  0.00     0.008 A 
ATOM     30  C   UNL     1       2.283  -1.898   4.168  1.00  0.00     0.052 A 
BRANCH  26  31
ATOM     31  O   UNL     1       0.184  -2.043   0.607  1.00  0.00    -0.497 OA
ATOM     32  C   UNL     1       0.483  -1.194  -0.489  1.00  0.00     0.278 C 
ENDBRANCH  26  31
ENDBRANCH  12  25
ENDBRANCH  10  11
ENDBRANCH   9  10
ENDBRANCH   7   9
ENDBRANCH   6   7
ENDBRANCH   5   6
ENDBRANCH   4   5
ENDBRANCH   3   4
ENDBRANCH   2   3
ENDBRANCH   1   2
BRANCH   1  33
ATOM     33  O   UNL     1       3.209   2.401   4.453  1.00  0.00    -0.377 OA
BRANCH  33  34
ATOM     34  C   UNL     1       2.206   1.419   4.360  1.00  0.00     0.188 C 
BRANCH  34  35
ATOM     35  C   UNL     1       0.808   1.940   4.671  1.00  0.00     0.188 C 
BRANCH  35  36
ATOM     36  O   UNL     1       0.643   3.337   4.778  1.00  0.00    -0.376 OA
BRANCH  36  37
ATOM     37  C   UNL     1       1.494   4.094   5.627  1.00  0.00     0.202 C 
BRANCH  37  38
ATOM     38  C   UNL     1       2.266   3.566   6.870  1.00  0.00     0.261 C 
BRANCH  38  39
ATOM     39  O   UNL     1       2.448   2.154   7.077  1.00  0.00    -0.460 OA
BRANCH  39  40
ATOM     40  C   UNL     1       1.549   1.542   7.880  1.00  0.00     0.338 C 
ATOM     41  O   UNL     1       0.581   2.071   8.399  1.00  0.00    -0.246 OA
BRANCH  40  42
ATOM     42  C   UNL     1       1.797   0.073   7.919  1.00  0.00     0.060 A 
ATOM     43  C   UNL     1       0.740  -0.773   7.563  1.00  0.00     0.016 A 
ATOM     44  C   UNL     1       2.992  -0.488   8.378  1.00  0.00     0.016 A 
ATOM     45  C   UNL     1       0.852  -2.167   7.694  1.00  0.00     0.010 A 
ATOM     46  C   UNL     1       3.099  -1.890   8.519  1.00  0.00     0.010 A 
ATOM     47  C   UNL     1       2.020  -2.747   8.198  1.00  0.00    -0.014 A 
BRANCH  47  48
ATOM     48  C   UNL     1       2.020  -4.180   8.639  1.00  0.00     0.031 A 
ATOM     49  C   UNL     1       1.736  -4.459  10.093  1.00  0.00     0.074 A 
ATOM     50  C   UNL     1       2.149  -5.245   7.817  1.00  0.00     0.049 A 
ATOM     51  N   UNL     1       1.720  -5.603  10.725  1.00  0.00    -0.248 NA
ATOM     52  C   UNL     1       1.335  -3.307  10.917  1.00  0.00     0.031 C 
ATOM     53  C   UNL     1       2.119  -5.217   6.361  1.00  0.00     0.029 A 
ATOM     54  N   UNL     1       2.369  -6.579   8.097  1.00  0.00    -0.354 N 
ATOM     55  C   UNL     1       1.221  -5.325  11.990  1.00  0.00     0.074 A 
ATOM     56  C   UNL     1       1.042  -3.891  12.069  1.00  0.00     0.031 C 
ATOM     57  C   UNL     1       2.493  -6.421   5.881  1.00  0.00     0.029 A 
ATOM     58  C   UNL     1       2.765  -7.315   6.995  1.00  0.00     0.049 A 
ATOM     59  H   UNL     1       2.256  -6.969   8.994  1.00  0.00     0.167 HD
ATOM     60  C   UNL     1       0.887  -6.195  12.973  1.00  0.00     0.034 A 
ATOM     61  C   UNL     1       3.311  -8.547   6.902  1.00  0.00     0.034 A 
ATOM     62  C   UNL     1       1.112  -7.617  12.904  1.00  0.00     0.049 A 
ATOM     63  C   UNL     1       3.289  -9.424   8.118  1.00  0.00     0.074 A 
ATOM     64  C   UNL     1       0.831  -8.579  13.859  1.00  0.00     0.029 A 
ATOM     65  N   UNL     1       1.698  -8.283  11.835  1.00  0.00    -0.354 N 
ATOM     66  N   UNL     1       2.844  -9.149   9.318  1.00  0.00    -0.248 NA
ATOM     67  C   UNL     1       3.737 -10.809   7.931  1.00  0.00     0.031 C 
ATOM     68  C   UNL     1       1.328  -9.806  13.409  1.00  0.00     0.029 A 
ATOM     69  C   UNL     1       1.834  -9.632  12.132  1.00  0.00     0.049 A 
ATOM     70  H   UNL     1       1.976  -7.860  10.991  1.00  0.00     0.167 HD
ATOM     71  C   UNL     1       2.856 -10.358  10.000  1.00  0.00     0.074 A 
ATOM     72  C   UNL     1       3.399 -11.348   9.092  1.00  0.00     0.031 C 
ATOM     73  C   UNL     1       2.393 -10.624  11.245  1.00  0.00     0.034 A 
BRANCH  60  74
ATOM     74  C   UNL     1       0.277  -5.613  14.220  1.00  0.00     0.023 A 
ATOM     75  C   UNL     1      -0.984  -4.990  14.199  1.00  0.00     0.031 A 
ATOM     76  C   UNL     1       0.972  -5.664  15.438  1.00  0.00     0.131 A 
ATOM     77  C   UNL     1      -1.485  -4.393  15.365  1.00  0.00     0.055 A 
ATOM     78  C   UNL     1       0.434  -5.135  16.611  1.00  0.00     0.041 A 
ATOM     79  F   UNL     1       2.191  -6.221  15.506  1.00  0.00    -0.206 F 
ATOM     80  C   UNL     1      -0.796  -4.484  16.577  1.00  0.00     0.022 A 
BRANCH  77  81
ATOM     81  S   UNL     1      -2.986  -3.380  15.248  1.00  0.00     0.124 S 
ATOM     82  O   UNL     1      -2.578  -2.357  14.288  1.00  0.00    -0.237 OA
ATOM     83  O   UNL     1      -3.979  -4.338  14.778  1.00  0.00    -0.237 OA
ATOM     84  O   UNL     1      -3.180  -2.899  16.614  1.00  0.00    -0.744 OA
ENDBRANCH  77  81
ENDBRANCH  60  74
BRANCH  61  85
ATOM     85  C   UNL     1       3.962  -9.069   5.664  1.00  0.00     0.023 A 
ATOM     86  C   UNL     1       3.343  -9.995   4.812  1.00  0.00     0.031 A 
ATOM     87  C   UNL     1       5.325  -8.800   5.448  1.00  0.00     0.131 A 
ATOM     88  C   UNL     1       4.089 -10.600   3.779  1.00  0.00     0.055 A 
ATOM     89  C   UNL     1       6.032  -9.329   4.364  1.00  0.00     0.041 A 
ATOM     90  F   UNL     1       6.014  -8.059   6.329  1.00  0.00    -0.206 F 
ATOM     91  C   UNL     1       5.411 -10.234   3.517  1.00  0.00     0.022 A 
BRANCH  88  92
ATOM     92  S   UNL     1       3.369 -12.006   2.885  1.00  0.00     0.124 S 
ATOM     93  O   UNL     1       3.200 -12.978   3.958  1.00  0.00    -0.237 OA
ATOM     94  O   UNL     1       2.145 -11.430   2.340  1.00  0.00    -0.237 OA
ATOM     95  O   UNL     1       4.390 -12.342   1.894  1.00  0.00    -0.744 OA
ENDBRANCH  88  92
ENDBRANCH  61  85
BRANCH  73  96
ATOM     96  C   UNL     1       2.374 -12.069  11.665  1.00  0.00     0.023 A 
ATOM     97  C   UNL     1       3.553 -12.819  11.807  1.00  0.00     0.031 A 
ATOM     98  C   UNL     1       1.144 -12.721  11.871  1.00  0.00     0.131 A 
ATOM     99  C   UNL     1       3.475 -14.194  12.069  1.00  0.00     0.055 A 
ATOM    100  C   UNL     1       1.077 -14.071  12.214  1.00  0.00     0.041 A 
ATOM    101  F   UNL     1      -0.015 -12.057  11.733  1.00  0.00    -0.206 F 
ATOM    102  C   UNL     1       2.247 -14.820  12.297  1.00  0.00     0.022 A 
BRANCH  99 103
ATOM    103  S   UNL     1       4.995 -15.177  11.982  1.00  0.00     0.124 S 
ATOM    104  O   UNL     1       5.422 -14.949  10.604  1.00  0.00    -0.237 OA
ATOM    105  O   UNL     1       5.825 -14.563  13.014  1.00  0.00    -0.237 OA
ATOM    106  O   UNL     1       4.543 -16.535  12.276  1.00  0.00    -0.744 OA
ENDBRANCH  99 103
ENDBRANCH  73  96
ENDBRANCH  47  48
ENDBRANCH  40  42
ENDBRANCH  39  40
ENDBRANCH  38  39
ENDBRANCH  37  38
ENDBRANCH  36  37
ENDBRANCH  35  36
ENDBRANCH  34  35
ENDBRANCH  33  34
ENDBRANCH   1  33
TORSDOF 27
