REMARK SMILES CC1(C)Cc2c(c(N3CCOCC3)nc3sc(C(=O)OCCOCCOCCOCCOC(=O)c4ccc(-c5c6nc(c(-c7cc(S(=O)(=O)[O-])ccc7F)c7ccc([nH]7)c(-c7cc(S(=O)(=O)[O-])ccc7F)c7nc(c(-c8cc(S(=O)(=O)[O-])ccc8F)c8ccc5[nH]8)C=C7)C=C6)cc4)c(N)c23)CS1
REMARK SMILES IDX 27 1 26 2 25 3 24 4 23 5 22 6 21 7 20 8 18 9 19 10 17 11
REMARK SMILES IDX 1 12 2 13 3 14 4 15 102 16 5 17 101 18 6 19 100 20 7 21
REMARK SMILES IDX 15 22 98 23 14 24 16 25 8 26 9 27 13 28 10 29 12 30 11 31
REMARK SMILES IDX 99 32 28 35 29 36 30 37 31 38 32 39 33 40 34 41 35 42 36 43
REMARK SMILES IDX 97 44 37 45 96 46 38 47 39 48 40 49 90 50 41 51 95 52 89 53
REMARK SMILES IDX 91 54 42 55 94 56 88 57 87 58 43 60 75 61 55 62 74 63 56 64
REMARK SMILES IDX 59 65 73 66 92 67 57 68 58 69 72 71 93 72 60 73 44 74 45 75
REMARK SMILES IDX 53 76 46 77 52 78 54 79 51 80 47 81 48 82 49 83 50 84 76 85
REMARK SMILES IDX 77 86 85 87 78 88 84 89 86 90 83 91 79 92 80 93 81 94 82 95
REMARK SMILES IDX 61 96 62 97 70 98 63 99 69 100 71 101 68 102 64 103 65 104
REMARK SMILES IDX 66 105 67 106
REMARK H PARENT 99 33 99 34 91 59 59 70
REMARK Flexibility Score: inf
ROOT
ATOM      1  C   UNL     1      -1.165  -9.943  -3.637  1.00  0.00     0.188 C 
ENDROOT
BRANCH   1   2
ATOM      2  O   UNL     1      -0.213  -9.309  -2.784  1.00  0.00    -0.377 OA
BRANCH   2   3
ATOM      3  C   UNL     1      -0.345  -7.904  -2.670  1.00  0.00     0.188 C 
BRANCH   3   4
ATOM      4  C   UNL     1       0.595  -7.114  -3.606  1.00  0.00     0.188 C 
BRANCH   4   5
ATOM      5  O   UNL     1       1.419  -7.737  -4.583  1.00  0.00    -0.376 OA
BRANCH   5   6
ATOM      6  C   UNL     1       2.029  -8.998  -4.367  1.00  0.00     0.202 C 
BRANCH   6   7
ATOM      7  C   UNL     1       2.802  -9.337  -3.080  1.00  0.00     0.261 C 
BRANCH   7   8
ATOM      8  O   UNL     1       2.440  -8.625  -1.898  1.00  0.00    -0.459 OA
BRANCH   8   9
ATOM      9  C   UNL     1       3.083  -7.447  -1.695  1.00  0.00     0.350 C 
ATOM     10  O   UNL     1       3.982  -7.012  -2.420  1.00  0.00    -0.245 OA
BRANCH   9  11
ATOM     11  C   UNL     1       2.436  -6.697  -0.642  1.00  0.00     0.138 A 
ATOM     12  C   UNL     1       0.890   0.057  -0.200  1.00  0.00     0.023 C 
ATOM     13  C   UNL     1       0.453  -1.103   0.708  1.00  0.00     0.015 C 
ATOM     14  C   UNL     1      -1.082  -1.129   0.771  1.00  0.00     0.023 C 
ATOM     15  C   UNL     1       1.033  -2.426   0.175  1.00  0.00     0.054 C 
ATOM     16  S   UNL     1       1.174  -0.783   2.348  1.00  0.00    -0.150 SA
ATOM     17  C   UNL     1       1.030  -3.652   1.068  1.00  0.00    -0.027 A 
ATOM     18  C   UNL     1       0.563  -2.260   3.176  1.00  0.00     0.109 C 
ATOM     19  C   UNL     1       0.724  -3.576   2.451  1.00  0.00     0.009 A 
ATOM     20  C   UNL     1       1.473  -4.921   0.582  1.00  0.00     0.039 A 
ATOM     21  C   UNL     1       0.657  -4.758   3.220  1.00  0.00     0.134 A 
ATOM     22  C   UNL     1       1.413  -5.990   1.468  1.00  0.00     0.128 A 
ATOM     23  C   UNL     1       2.059  -5.365  -0.662  1.00  0.00     0.067 A 
ATOM     24  N   UNL     1       0.984  -5.962   2.738  1.00  0.00    -0.220 NA
ATOM     25  S   UNL     1       1.995  -7.451   0.821  1.00  0.00    -0.106 S 
BRANCH  21  26
ATOM     26  N   UNL     1       0.380  -4.702   4.563  1.00  0.00    -0.352 N 
ATOM     27  C   UNL     1      -0.902  -4.287   5.126  1.00  0.00     0.146 C 
ATOM     28  C   UNL     1       1.251  -5.402   5.500  1.00  0.00     0.146 C 
ATOM     29  C   UNL     1      -0.613  -3.389   6.346  1.00  0.00     0.181 C 
ATOM     30  C   UNL     1       1.502  -4.437   6.671  1.00  0.00     0.181 C 
ATOM     31  O   UNL     1       0.266  -4.027   7.294  1.00  0.00    -0.378 OA
ENDBRANCH  21  26
BRANCH  23  32
ATOM     32  N   UNL     1       2.243  -4.584  -1.754  1.00  0.00    -0.397 N 
ATOM     33  H   UNL     1       2.651  -4.963  -2.566  1.00  0.00     0.156 HD
ATOM     34  H   UNL     1       1.970  -3.639  -1.735  1.00  0.00     0.156 HD
ENDBRANCH  23  32
ENDBRANCH   9  11
ENDBRANCH   8   9
ENDBRANCH   7   8
ENDBRANCH   6   7
ENDBRANCH   5   6
ENDBRANCH   4   5
ENDBRANCH   3   4
ENDBRANCH   2   3
ENDBRANCH   1   2
BRANCH   1  35
ATOM     35  C   UNL     1      -1.413  -9.323  -5.037  1.00  0.00     0.188 C 
BRANCH  35  36
ATOM     36  O   UNL     1      -1.512  -7.902  -5.041  1.00  0.00    -0.376 OA
BRANCH  36  37
ATOM     37  C   UNL     1      -2.740  -7.250  -5.316  1.00  0.00     0.202 C 
BRANCH  37  38
ATOM     38  C   UNL     1      -3.773  -7.273  -4.195  1.00  0.00     0.261 C 
BRANCH  38  39
ATOM     39  O   UNL     1      -3.917  -8.543  -3.592  1.00  0.00    -0.460 OA
BRANCH  39  40
ATOM     40  C   UNL     1      -4.433  -9.489  -4.391  1.00  0.00     0.338 C 
ATOM     41  O   UNL     1      -4.603  -9.418  -5.608  1.00  0.00    -0.246 OA
BRANCH  40  42
ATOM     42  C   UNL     1      -4.851 -10.608  -3.560  1.00  0.00     0.060 A 
ATOM     43  C   UNL     1      -5.323 -11.736  -4.227  1.00  0.00     0.016 A 
ATOM     44  C   UNL     1      -5.085 -10.375  -2.194  1.00  0.00     0.016 A 
ATOM     45  C   UNL     1      -6.276 -12.488  -3.591  1.00  0.00     0.010 A 
ATOM     46  C   UNL     1      -6.050 -11.114  -1.570  1.00  0.00     0.010 A 
ATOM     47  C   UNL     1      -6.701 -12.085  -2.320  1.00  0.00    -0.014 A 
BRANCH  47  48
ATOM     48  C   UNL     1      -7.840 -12.758  -1.751  1.00  0.00     0.031 A 
ATOM     49  C   UNL     1      -7.480 -14.086  -1.243  1.00  0.00     0.074 A 
ATOM     50  C   UNL     1      -9.051 -12.179  -1.662  1.00  0.00     0.049 A 
ATOM     51  N   UNL     1      -7.708 -15.217  -1.816  1.00  0.00    -0.248 NA
ATOM     52  C   UNL     1      -6.565 -14.162  -0.092  1.00  0.00     0.031 C 
ATOM     53  C   UNL     1      -9.389 -10.773  -1.908  1.00  0.00     0.029 A 
ATOM     54  N   UNL     1     -10.230 -12.711  -1.240  1.00  0.00    -0.354 N 
ATOM     55  C   UNL     1      -7.233 -16.161  -0.921  1.00  0.00     0.074 A 
ATOM     56  C   UNL     1      -6.324 -15.473  -0.042  1.00  0.00     0.031 C 
ATOM     57  C   UNL     1     -10.623 -10.519  -1.413  1.00  0.00     0.029 A 
ATOM     58  C   UNL     1     -11.213 -11.768  -0.961  1.00  0.00     0.049 A 
ATOM     59  H   UNL     1     -10.374 -13.680  -1.141  1.00  0.00     0.167 HD
ATOM     60  C   UNL     1      -7.909 -17.325  -0.743  1.00  0.00     0.034 A 
ATOM     61  C   UNL     1     -12.409 -12.009  -0.365  1.00  0.00     0.034 A 
ATOM     62  C   UNL     1      -8.879 -17.538  -1.788  1.00  0.00     0.049 A 
ATOM     63  C   UNL     1     -12.742 -13.427  -0.647  1.00  0.00     0.074 A 
ATOM     64  C   UNL     1      -8.865 -17.990  -3.089  1.00  0.00     0.029 A 
ATOM     65  N   UNL     1     -10.053 -16.850  -1.610  1.00  0.00    -0.354 N 
ATOM     66  N   UNL     1     -12.932 -13.886  -1.855  1.00  0.00    -0.248 NA
ATOM     67  C   UNL     1     -12.498 -14.443   0.374  1.00  0.00     0.031 C 
ATOM     68  C   UNL     1     -10.019 -17.438  -3.723  1.00  0.00     0.029 A 
ATOM     69  C   UNL     1     -10.734 -16.692  -2.791  1.00  0.00     0.049 A 
ATOM     70  H   UNL     1     -10.369 -16.512  -0.741  1.00  0.00     0.167 HD
ATOM     71  C   UNL     1     -12.419 -15.167  -1.820  1.00  0.00     0.074 A 
ATOM     72  C   UNL     1     -12.328 -15.513  -0.408  1.00  0.00     0.031 C 
ATOM     73  C   UNL     1     -11.800 -15.713  -2.904  1.00  0.00     0.034 A 
BRANCH  60  74
ATOM     74  C   UNL     1      -8.021 -18.013   0.590  1.00  0.00     0.023 A 
ATOM     75  C   UNL     1      -8.470 -19.342   0.624  1.00  0.00     0.031 A 
ATOM     76  C   UNL     1      -7.953 -17.343   1.836  1.00  0.00     0.131 A 
ATOM     77  C   UNL     1      -8.818 -19.945   1.846  1.00  0.00     0.055 A 
ATOM     78  C   UNL     1      -8.236 -17.965   3.051  1.00  0.00     0.041 A 
ATOM     79  F   UNL     1      -7.708 -16.029   1.931  1.00  0.00    -0.206 F 
ATOM     80  C   UNL     1      -8.684 -19.272   3.061  1.00  0.00     0.022 A 
BRANCH  77  81
ATOM     81  S   UNL     1      -9.546 -21.603   1.825  1.00  0.00     0.124 S 
ATOM     82  O   UNL     1     -10.763 -21.391   1.049  1.00  0.00    -0.237 OA
ATOM     83  O   UNL     1      -8.498 -22.386   1.178  1.00  0.00    -0.237 OA
ATOM     84  O   UNL     1      -9.754 -21.899   3.241  1.00  0.00    -0.744 OA
ENDBRANCH  77  81
ENDBRANCH  60  74
BRANCH  61  85
ATOM     85  C   UNL     1     -13.079 -11.213   0.699  1.00  0.00     0.023 A 
ATOM     86  C   UNL     1     -14.391 -11.518   1.121  1.00  0.00     0.031 A 
ATOM     87  C   UNL     1     -12.341 -10.330   1.518  1.00  0.00     0.131 A 
ATOM     88  C   UNL     1     -14.897 -10.988   2.328  1.00  0.00     0.055 A 
ATOM     89  C   UNL     1     -12.848  -9.806   2.710  1.00  0.00     0.041 A 
ATOM     90  F   UNL     1     -11.066 -10.019   1.240  1.00  0.00    -0.206 F 
ATOM     91  C   UNL     1     -14.123 -10.149   3.131  1.00  0.00     0.022 A 
BRANCH  88  92
ATOM     92  S   UNL     1     -16.530 -11.505   2.946  1.00  0.00     0.124 S 
ATOM     93  O   UNL     1     -17.428 -10.655   2.173  1.00  0.00    -0.237 OA
ATOM     94  O   UNL     1     -16.554 -12.929   2.631  1.00  0.00    -0.237 OA
ATOM     95  O   UNL     1     -16.462 -11.196   4.374  1.00  0.00    -0.744 OA
ENDBRANCH  88  92
ENDBRANCH  61  85
BRANCH  73  96
ATOM     96  C   UNL     1     -12.190 -15.213  -4.269  1.00  0.00     0.023 A 
ATOM     97  C   UNL     1     -11.901 -13.936  -4.795  1.00  0.00     0.031 A 
ATOM     98  C   UNL     1     -12.852 -16.134  -5.101  1.00  0.00     0.131 A 
ATOM     99  C   UNL     1     -12.271 -13.629  -6.123  1.00  0.00     0.055 A 
ATOM    100  C   UNL     1     -13.201 -15.832  -6.414  1.00  0.00     0.041 A 
ATOM    101  F   UNL     1     -13.147 -17.365  -4.650  1.00  0.00    -0.206 F 
ATOM    102  C   UNL     1     -12.911 -14.576  -6.931  1.00  0.00     0.022 A 
BRANCH  99 103
ATOM    103  S   UNL     1     -11.909 -11.989  -6.833  1.00  0.00     0.124 S 
ATOM    104  O   UNL     1     -12.591 -11.074  -5.924  1.00  0.00    -0.237 OA
ATOM    105  O   UNL     1     -10.450 -11.946  -6.812  1.00  0.00    -0.237 OA
ATOM    106  O   UNL     1     -12.493 -12.060  -8.175  1.00  0.00    -0.744 OA
ENDBRANCH  99 103
ENDBRANCH  73  96
ENDBRANCH  47  48
ENDBRANCH  40  42
ENDBRANCH  39  40
ENDBRANCH  38  39
ENDBRANCH  37  38
ENDBRANCH  36  37
ENDBRANCH  35  36
ENDBRANCH   1  35
TORSDOF 25
