REMARK SMILES Cc1ccc(CN(CC(=O)OCCOCCOCCOCCOC(=O)c2ccc(-c3c4nc(c(-c5cc(S(=O)(=O)[O-])ccc5F)c5ccc([nH]5)c(-c5cc(S(=O)(=O)[O-])ccc5F)c5nc(c(-c6cc(S(=O)(=O)[O-])ccc6F)c6ccc3[nH]6)C=C5)C=C4)cc2)C(=O)c2cc3c(s2)CCOC3)cc1
REMARK SMILES IDX 17 1 16 2 15 3 14 4 13 5 12 6 11 7 9 8 10 9 8 10 7 11 6 12
REMARK SMILES IDX 5 13 1 14 2 15 3 16 101 17 4 18 100 19 89 20 90 21 91 22
REMARK SMILES IDX 92 23 95 24 93 25 94 26 99 27 96 28 98 29 97 30 18 31 19 32
REMARK SMILES IDX 20 33 21 34 22 35 23 36 24 37 25 38 26 39 27 40 88 41 28 42
REMARK SMILES IDX 87 43 29 44 30 45 31 46 81 47 32 48 86 49 80 50 82 51 33 52
REMARK SMILES IDX 85 53 79 54 78 55 34 57 66 58 46 59 65 60 47 61 50 62 64 63
REMARK SMILES IDX 83 64 48 65 49 66 63 68 84 69 51 70 35 71 36 72 44 73 37 74
REMARK SMILES IDX 43 75 45 76 42 77 38 78 39 79 40 80 41 81 67 82 68 83 76 84
REMARK SMILES IDX 69 85 75 86 77 87 74 88 70 89 71 90 72 91 73 92 52 93 53 94
REMARK SMILES IDX 61 95 54 96 60 97 62 98 59 99 55 100 56 101 57 102 58 103
REMARK H PARENT 82 56 50 67
REMARK Flexibility Score: inf
ROOT
ATOM      1  O   UNL     1      -5.311   1.547  -2.656  1.00  0.00    -0.377 OA
ENDROOT
BRANCH   1   2
ATOM      2  C   UNL     1      -4.386   0.486  -2.688  1.00  0.00     0.188 C 
BRANCH   2   3
ATOM      3  C   UNL     1      -4.994  -0.879  -2.370  1.00  0.00     0.188 C 
BRANCH   3   4
ATOM      4  O   UNL     1      -5.997  -1.363  -3.258  1.00  0.00    -0.376 OA
BRANCH   4   5
ATOM      5  C   UNL     1      -6.277  -2.771  -3.181  1.00  0.00     0.202 C 
BRANCH   5   6
ATOM      6  C   UNL     1      -6.188  -3.533  -1.854  1.00  0.00     0.261 C 
BRANCH   6   7
ATOM      7  O   UNL     1      -4.974  -3.356  -1.133  1.00  0.00    -0.462 OA
BRANCH   7   8
ATOM      8  C   UNL     1      -3.892  -3.946  -1.685  1.00  0.00     0.325 C 
ATOM      9  O   UNL     1      -3.901  -4.750  -2.609  1.00  0.00    -0.250 OA
BRANCH   8  10
ATOM     10  C   UNL     1      -2.650  -3.367  -1.052  1.00  0.00     0.242 C 
BRANCH  10  11
ATOM     11  N   UNL     1      -2.313  -1.983  -1.416  1.00  0.00    -0.323 N 
BRANCH  11  12
ATOM     12  C   UNL     1      -2.389  -0.999  -0.293  1.00  0.00     0.156 C 
BRANCH  12  13
ATOM     13  C   UNL     1      -1.032  -0.596   0.189  1.00  0.00    -0.029 A 
ATOM     14  C   UNL     1       3.129   0.227   0.114  1.00  0.00     0.044 C 
ATOM     15  C   UNL     1       1.668  -0.005   0.328  1.00  0.00    -0.051 A 
ATOM     16  C   UNL     1       1.223  -1.312   0.555  1.00  0.00     0.004 A 
ATOM     17  C   UNL     1       0.742   1.032   0.168  1.00  0.00     0.004 A 
ATOM     18  C   UNL     1      -0.128  -1.601   0.523  1.00  0.00     0.006 A 
ATOM     19  C   UNL     1      -0.615   0.740   0.104  1.00  0.00     0.006 A 
ENDBRANCH  12  13
ENDBRANCH  11  12
BRANCH  11  20
ATOM     20  C   UNL     1      -1.773  -1.607  -2.693  1.00  0.00     0.264 C 
ATOM     21  O   UNL     1      -1.063  -0.606  -2.791  1.00  0.00    -0.268 OA
BRANCH  20  22
ATOM     22  C   UNL     1      -2.207  -2.306  -3.929  1.00  0.00     0.093 A 
ATOM     23  C   UNL     1      -3.359  -2.089  -4.680  1.00  0.00     0.032 A 
ATOM     24  S   UNL     1      -1.127  -3.200  -4.950  1.00  0.00    -0.135 S 
ATOM     25  C   UNL     1      -3.584  -3.053  -5.676  1.00  0.00    -0.008 A 
ATOM     26  C   UNL     1      -2.357  -3.480  -6.104  1.00  0.00     0.013 A 
ATOM     27  C   UNL     1      -4.870  -3.428  -6.354  1.00  0.00     0.196 C 
ATOM     28  C   UNL     1      -2.245  -4.078  -7.464  1.00  0.00     0.075 C 
ATOM     29  O   UNL     1      -4.674  -3.962  -7.679  1.00  0.00    -0.376 OA
ATOM     30  C   UNL     1      -3.547  -4.862  -7.723  1.00  0.00     0.166 C 
ENDBRANCH  20  22
ENDBRANCH  11  20
ENDBRANCH  10  11
ENDBRANCH   8  10
ENDBRANCH   7   8
ENDBRANCH   6   7
ENDBRANCH   5   6
ENDBRANCH   4   5
ENDBRANCH   3   4
ENDBRANCH   2   3
ENDBRANCH   1   2
BRANCH   1  31
ATOM     31  C   UNL     1      -5.735   1.865  -3.958  1.00  0.00     0.188 C 
BRANCH  31  32
ATOM     32  C   UNL     1      -4.629   2.351  -4.861  1.00  0.00     0.188 C 
BRANCH  32  33
ATOM     33  O   UNL     1      -4.399   1.306  -5.817  1.00  0.00    -0.376 OA
BRANCH  33  34
ATOM     34  C   UNL     1      -3.546   1.702  -6.878  1.00  0.00     0.202 C 
BRANCH  34  35
ATOM     35  C   UNL     1      -4.158   2.849  -7.697  1.00  0.00     0.261 C 
BRANCH  35  36
ATOM     36  O   UNL     1      -5.505   2.467  -8.077  1.00  0.00    -0.460 OA
BRANCH  36  37
ATOM     37  C   UNL     1      -6.518   3.208  -7.554  1.00  0.00     0.338 C 
ATOM     38  O   UNL     1      -6.553   4.440  -7.542  1.00  0.00    -0.246 OA
BRANCH  37  39
ATOM     39  C   UNL     1      -7.509   2.339  -6.840  1.00  0.00     0.060 A 
ATOM     40  C   UNL     1      -8.437   2.904  -5.941  1.00  0.00     0.016 A 
ATOM     41  C   UNL     1      -7.346   0.956  -6.854  1.00  0.00     0.016 A 
ATOM     42  C   UNL     1      -9.091   2.106  -4.974  1.00  0.00     0.010 A 
ATOM     43  C   UNL     1      -7.958   0.182  -5.870  1.00  0.00     0.010 A 
ATOM     44  C   UNL     1      -8.808   0.738  -4.889  1.00  0.00    -0.014 A 
BRANCH  44  45
ATOM     45  C   UNL     1      -9.105  -0.140  -3.719  1.00  0.00     0.031 A 
ATOM     46  C   UNL     1      -9.578  -1.569  -3.932  1.00  0.00     0.074 A 
ATOM     47  C   UNL     1      -8.544   0.185  -2.526  1.00  0.00     0.049 A 
ATOM     48  N   UNL     1      -9.735  -2.490  -3.029  1.00  0.00    -0.248 NA
ATOM     49  C   UNL     1      -9.922  -2.081  -5.259  1.00  0.00     0.031 C 
ATOM     50  C   UNL     1      -8.057  -0.793  -1.573  1.00  0.00     0.029 A 
ATOM     51  N   UNL     1      -8.099   1.372  -1.967  1.00  0.00    -0.354 N 
ATOM     52  C   UNL     1      -9.787  -3.728  -3.658  1.00  0.00     0.074 A 
ATOM     53  C   UNL     1     -10.054  -3.394  -5.034  1.00  0.00     0.031 C 
ATOM     54  C   UNL     1      -7.290  -0.228  -0.632  1.00  0.00     0.029 A 
ATOM     55  C   UNL     1      -7.590   1.161  -0.673  1.00  0.00     0.049 A 
ATOM     56  H   UNL     1      -8.135   2.247  -2.417  1.00  0.00     0.167 HD
ATOM     57  C   UNL     1      -9.446  -4.884  -2.993  1.00  0.00     0.034 A 
ATOM     58  C   UNL     1      -8.130   1.782   0.410  1.00  0.00     0.034 A 
ATOM     59  C   UNL     1      -9.243  -4.684  -1.528  1.00  0.00     0.049 A 
ATOM     60  C   UNL     1      -9.006   0.745   1.191  1.00  0.00     0.074 A 
ATOM     61  C   UNL     1      -8.410  -5.236  -0.564  1.00  0.00     0.029 A 
ATOM     62  N   UNL     1      -9.956  -3.689  -0.838  1.00  0.00    -0.354 N 
ATOM     63  N   UNL     1      -9.181  -0.499   0.772  1.00  0.00    -0.248 NA
ATOM     64  C   UNL     1      -9.643   0.896   2.493  1.00  0.00     0.031 C 
ATOM     65  C   UNL     1      -8.454  -4.400   0.600  1.00  0.00     0.029 A 
ATOM     66  C   UNL     1      -9.440  -3.435   0.422  1.00  0.00     0.049 A 
ATOM     67  H   UNL     1     -10.739  -3.222  -1.210  1.00  0.00     0.167 HD
ATOM     68  C   UNL     1      -9.866  -1.288   1.632  1.00  0.00     0.074 A 
ATOM     69  C   UNL     1     -10.138  -0.346   2.716  1.00  0.00     0.031 C 
ATOM     70  C   UNL     1     -10.186  -2.608   1.382  1.00  0.00     0.034 A 
BRANCH  57  71
ATOM     71  C   UNL     1      -9.098  -6.236  -3.690  1.00  0.00     0.023 A 
ATOM     72  C   UNL     1      -8.948  -7.420  -2.921  1.00  0.00     0.031 A 
ATOM     73  C   UNL     1      -8.778  -6.410  -5.061  1.00  0.00     0.131 A 
ATOM     74  C   UNL     1      -8.480  -8.639  -3.481  1.00  0.00     0.055 A 
ATOM     75  C   UNL     1      -8.412  -7.646  -5.635  1.00  0.00     0.041 A 
ATOM     76  F   UNL     1      -8.727  -5.386  -5.920  1.00  0.00    -0.206 F 
ATOM     77  C   UNL     1      -8.245  -8.767  -4.843  1.00  0.00     0.022 A 
BRANCH  74  78
ATOM     78  S   UNL     1      -8.103 -10.053  -2.396  1.00  0.00     0.124 S 
ATOM     79  O   UNL     1      -6.890  -9.601  -1.723  1.00  0.00    -0.237 OA
ATOM     80  O   UNL     1      -9.302 -10.150  -1.571  1.00  0.00    -0.237 OA
ATOM     81  O   UNL     1      -7.911 -11.162  -3.332  1.00  0.00    -0.744 OA
ENDBRANCH  74  78
ENDBRANCH  57  71
BRANCH  58  82
ATOM     82  C   UNL     1      -8.073   3.271   0.110  1.00  0.00     0.023 A 
ATOM     83  C   UNL     1      -6.733   3.778  -0.036  1.00  0.00     0.031 A 
ATOM     84  C   UNL     1      -9.035   3.829  -0.756  1.00  0.00     0.131 A 
ATOM     85  C   UNL     1      -6.358   4.546  -1.165  1.00  0.00     0.055 A 
ATOM     86  C   UNL     1      -8.657   4.615  -1.868  1.00  0.00     0.041 A 
ATOM     87  F   UNL     1     -10.313   3.426  -0.693  1.00  0.00    -0.206 F 
ATOM     88  C   UNL     1      -7.315   4.923  -2.109  1.00  0.00     0.022 A 
BRANCH  85  89
ATOM     89  S   UNL     1      -4.583   4.803  -1.578  1.00  0.00     0.124 S 
ATOM     90  O   UNL     1      -4.310   6.091  -0.947  1.00  0.00    -0.237 OA
ATOM     91  O   UNL     1      -3.908   3.660  -0.971  1.00  0.00    -0.237 OA
ATOM     92  O   UNL     1      -4.578   4.825  -3.042  1.00  0.00    -0.744 OA
ENDBRANCH  85  89
ENDBRANCH  58  82
BRANCH  70  93
ATOM     93  C   UNL     1     -11.343  -3.313   2.051  1.00  0.00     0.023 A 
ATOM     94  C   UNL     1     -12.351  -2.578   2.663  1.00  0.00     0.031 A 
ATOM     95  C   UNL     1     -11.576  -4.712   1.947  1.00  0.00     0.131 A 
ATOM     96  C   UNL     1     -13.447  -3.210   3.254  1.00  0.00     0.055 A 
ATOM     97  C   UNL     1     -12.732  -5.327   2.429  1.00  0.00     0.041 A 
ATOM     98  F   UNL     1     -10.715  -5.550   1.356  1.00  0.00    -0.206 F 
ATOM     99  C   UNL     1     -13.669  -4.575   3.115  1.00  0.00     0.022 A 
BRANCH  96 100
ATOM    100  S   UNL     1     -14.485  -2.185   4.307  1.00  0.00     0.124 S 
ATOM    101  O   UNL     1     -13.524  -1.737   5.313  1.00  0.00    -0.237 OA
ATOM    102  O   UNL     1     -14.955  -1.159   3.382  1.00  0.00    -0.237 OA
ATOM    103  O   UNL     1     -15.504  -3.114   4.788  1.00  0.00    -0.744 OA
ENDBRANCH  96 100
ENDBRANCH  70  93
ENDBRANCH  44  45
ENDBRANCH  37  39
ENDBRANCH  36  37
ENDBRANCH  35  36
ENDBRANCH  34  35
ENDBRANCH  33  34
ENDBRANCH  32  33
ENDBRANCH  31  32
ENDBRANCH   1  31
TORSDOF 28
