REMARK SMILES CC(C)Cc1cc2c(cc1Cl)C=C(C(=O)OCCOCCOCCOCCOC(=O)c1ccc(-c3c4nc(c(-c5cc(S(=O)(=O)[O-])ccc5F)c5ccc([nH]5)c(-c5cc(S(=O)(=O)[O-])ccc5F)c5nc(c(-c6cc(S(=O)(=O)[O-])ccc6F)c6ccc3[nH]6)C=C5)C=C4)cc1)[C@H](C(F)(F)F)O2
REMARK SMILES IDX 23 1 22 2 21 3 20 4 19 5 18 6 17 7 16 8 14 9 15 10 13 11
REMARK SMILES IDX 5 12 6 13 10 14 7 15 9 16 11 17 8 18 99 19 12 20 94 21 4 22
REMARK SMILES IDX 2 23 1 24 3 25 95 26 96 27 97 28 98 29 24 30 25 31 26 32
REMARK SMILES IDX 27 33 28 34 29 35 30 36 31 37 32 38 93 39 33 40 92 41 34 42
REMARK SMILES IDX 35 43 36 44 86 45 37 46 91 47 85 48 87 49 38 50 90 51 84 52
REMARK SMILES IDX 83 53 39 55 71 56 51 57 70 58 52 59 55 60 69 61 88 62 53 63
REMARK SMILES IDX 54 64 68 66 89 67 56 68 40 69 41 70 49 71 42 72 48 73 50 74
REMARK SMILES IDX 47 75 43 76 44 77 45 78 46 79 72 80 73 81 81 82 74 83 80 84
REMARK SMILES IDX 82 85 79 86 75 87 76 88 77 89 78 90 57 91 58 92 66 93 59 94
REMARK SMILES IDX 65 95 67 96 64 97 60 98 61 99 62 100 63 101
REMARK H PARENT 87 54 55 65
REMARK Flexibility Score: inf
ROOT
ATOM      1  C   UNL     1      -7.197  -2.172  -7.857  1.00  0.00     0.188 C 
ENDROOT
BRANCH   1   2
ATOM      2  O   UNL     1      -6.740  -1.837  -6.557  1.00  0.00    -0.377 OA
BRANCH   2   3
ATOM      3  C   UNL     1      -5.601  -0.997  -6.447  1.00  0.00     0.188 C 
BRANCH   3   4
ATOM      4  C   UNL     1      -5.124  -0.069  -7.583  1.00  0.00     0.188 C 
BRANCH   4   5
ATOM      5  O   UNL     1      -5.186  -0.627  -8.892  1.00  0.00    -0.376 OA
BRANCH   5   6
ATOM      6  C   UNL     1      -3.958  -0.957  -9.524  1.00  0.00     0.202 C 
BRANCH   6   7
ATOM      7  C   UNL     1      -3.469  -2.373  -9.198  1.00  0.00     0.261 C 
BRANCH   7   8
ATOM      8  O   UNL     1      -3.255  -2.600  -7.796  1.00  0.00    -0.460 OA
BRANCH   8   9
ATOM      9  C   UNL     1      -2.211  -1.959  -7.242  1.00  0.00     0.338 C 
ATOM     10  O   UNL     1      -1.401  -1.256  -7.824  1.00  0.00    -0.246 OA
BRANCH   9  11
ATOM     11  C   UNL     1      -2.284  -2.086  -5.777  1.00  0.00     0.087 C 
ATOM     12  C   UNL     1      -1.584  -1.201  -0.891  1.00  0.00    -0.025 A 
ATOM     13  C   UNL     1      -1.607  -2.360  -1.692  1.00  0.00     0.052 A 
ATOM     14  C   UNL     1      -1.920   0.030  -1.480  1.00  0.00     0.045 A 
ATOM     15  C   UNL     1      -1.877  -2.277  -3.057  1.00  0.00     0.128 A 
ATOM     16  C   UNL     1      -2.181   0.112  -2.849  1.00  0.00     0.032 A 
ATOM     17  Cl  UNL     1      -1.959   1.506  -0.580  1.00  0.00    -0.084 Cl
ATOM     18  C   UNL     1      -2.122  -1.035  -3.643  1.00  0.00     0.019 A 
ATOM     19  O   UNL     1      -1.779  -3.437  -3.782  1.00  0.00    -0.475 OA
ATOM     20  C   UNL     1      -2.179  -0.940  -5.091  1.00  0.00     0.027 C 
ATOM     21  C   UNL     1      -2.397  -3.433  -5.108  1.00  0.00     0.316 C 
BRANCH  12  22
ATOM     22  C   UNL     1      -1.079  -1.325   0.530  1.00  0.00     0.040 C 
BRANCH  22  23
ATOM     23  C   UNL     1       0.462  -1.442   0.597  1.00  0.00    -0.013 C 
ATOM     24  C   UNL     1       1.179  -0.191   0.079  1.00  0.00     0.008 C 
ATOM     25  C   UNL     1       0.906  -1.725   2.033  1.00  0.00     0.008 C 
ENDBRANCH  22  23
ENDBRANCH  12  22
BRANCH  21  26
ATOM     26  C   UNL     1      -3.824  -4.013  -4.996  1.00  0.00     0.430 C 
ATOM     27  F   UNL     1      -4.645  -3.204  -4.287  1.00  0.00    -0.167 F 
ATOM     28  F   UNL     1      -4.393  -4.229  -6.201  1.00  0.00    -0.167 F 
ATOM     29  F   UNL     1      -3.803  -5.212  -4.361  1.00  0.00    -0.167 F 
ENDBRANCH  21  26
ENDBRANCH   9  11
ENDBRANCH   8   9
ENDBRANCH   7   8
ENDBRANCH   6   7
ENDBRANCH   5   6
ENDBRANCH   4   5
ENDBRANCH   3   4
ENDBRANCH   2   3
ENDBRANCH   1   2
BRANCH   1  30
ATOM     30  C   UNL     1      -8.029  -1.040  -8.483  1.00  0.00     0.188 C 
BRANCH  30  31
ATOM     31  O   UNL     1      -8.133   0.095  -7.622  1.00  0.00    -0.376 OA
BRANCH  31  32
ATOM     32  C   UNL     1      -9.316   0.180  -6.834  1.00  0.00     0.202 C 
BRANCH  32  33
ATOM     33  C   UNL     1      -9.603  -0.939  -5.818  1.00  0.00     0.261 C 
BRANCH  33  34
ATOM     34  O   UNL     1      -9.755  -2.270  -6.338  1.00  0.00    -0.460 OA
BRANCH  34  35
ATOM     35  C   UNL     1     -10.700  -2.513  -7.273  1.00  0.00     0.338 C 
ATOM     36  O   UNL     1     -11.503  -1.720  -7.729  1.00  0.00    -0.246 OA
BRANCH  35  37
ATOM     37  C   UNL     1     -10.436  -3.876  -7.792  1.00  0.00     0.060 A 
ATOM     38  C   UNL     1     -10.324  -4.953  -6.909  1.00  0.00     0.016 A 
ATOM     39  C   UNL     1     -10.217  -4.062  -9.163  1.00  0.00     0.016 A 
ATOM     40  C   UNL     1     -10.006  -6.222  -7.399  1.00  0.00     0.010 A 
ATOM     41  C   UNL     1      -9.885  -5.331  -9.650  1.00  0.00     0.010 A 
ATOM     42  C   UNL     1      -9.794  -6.423  -8.774  1.00  0.00    -0.014 A 
BRANCH  42  43
ATOM     43  C   UNL     1      -9.687  -7.806  -9.303  1.00  0.00     0.031 A 
ATOM     44  C   UNL     1      -8.373  -8.444  -9.636  1.00  0.00     0.074 A 
ATOM     45  C   UNL     1     -10.835  -8.487  -9.485  1.00  0.00     0.049 A 
ATOM     46  N   UNL     1      -8.137  -9.673 -10.020  1.00  0.00    -0.248 NA
ATOM     47  C   UNL     1      -7.172  -7.604  -9.532  1.00  0.00     0.031 C 
ATOM     48  C   UNL     1     -12.167  -7.945  -9.218  1.00  0.00     0.029 A 
ATOM     49  N   UNL     1     -11.073  -9.762  -9.929  1.00  0.00    -0.354 N 
ATOM     50  C   UNL     1      -6.761  -9.768 -10.183  1.00  0.00     0.074 A 
ATOM     51  C   UNL     1      -6.219  -8.454  -9.901  1.00  0.00     0.031 C 
ATOM     52  C   UNL     1     -13.083  -8.884  -9.490  1.00  0.00     0.029 A 
ATOM     53  C   UNL     1     -12.408 -10.086  -9.976  1.00  0.00     0.049 A 
ATOM     54  H   UNL     1     -10.357 -10.386 -10.190  1.00  0.00     0.167 HD
ATOM     55  C   UNL     1      -6.027 -10.859 -10.518  1.00  0.00     0.034 A 
ATOM     56  C   UNL     1     -13.027 -11.221 -10.359  1.00  0.00     0.034 A 
ATOM     57  C   UNL     1      -6.596 -12.155 -10.809  1.00  0.00     0.049 A 
ATOM     58  C   UNL     1     -12.191 -12.409 -10.753  1.00  0.00     0.074 A 
ATOM     59  C   UNL     1      -5.929 -13.333 -11.102  1.00  0.00     0.029 A 
ATOM     60  N   UNL     1      -7.952 -12.448 -10.858  1.00  0.00    -0.354 N 
ATOM     61  N   UNL     1     -10.884 -12.518 -10.788  1.00  0.00    -0.248 NA
ATOM     62  C   UNL     1     -12.904 -13.634 -11.138  1.00  0.00     0.031 C 
ATOM     63  C   UNL     1      -6.876 -14.313 -11.401  1.00  0.00     0.029 A 
ATOM     64  C   UNL     1      -8.140 -13.775 -11.214  1.00  0.00     0.049 A 
ATOM     65  H   UNL     1      -8.675 -11.807 -10.668  1.00  0.00     0.167 HD
ATOM     66  C   UNL     1     -10.618 -13.829 -11.170  1.00  0.00     0.074 A 
ATOM     67  C   UNL     1     -11.901 -14.481 -11.334  1.00  0.00     0.031 C 
ATOM     68  C   UNL     1      -9.418 -14.432 -11.366  1.00  0.00     0.034 A 
BRANCH  55  69
ATOM     69  C   UNL     1      -4.521 -10.744 -10.564  1.00  0.00     0.023 A 
ATOM     70  C   UNL     1      -3.825 -10.996 -11.763  1.00  0.00     0.031 A 
ATOM     71  C   UNL     1      -3.772 -10.562  -9.388  1.00  0.00     0.131 A 
ATOM     72  C   UNL     1      -2.428 -11.098 -11.750  1.00  0.00     0.055 A 
ATOM     73  C   UNL     1      -2.377 -10.628  -9.388  1.00  0.00     0.041 A 
ATOM     74  F   UNL     1      -4.386 -10.329  -8.217  1.00  0.00    -0.206 F 
ATOM     75  C   UNL     1      -1.700 -10.912 -10.570  1.00  0.00     0.022 A 
BRANCH  72  76
ATOM     76  S   UNL     1      -1.502 -11.554 -13.243  1.00  0.00     0.124 S 
ATOM     77  O   UNL     1      -0.628 -10.395 -13.416  1.00  0.00    -0.237 OA
ATOM     78  O   UNL     1      -0.832 -12.782 -12.825  1.00  0.00    -0.237 OA
ATOM     79  O   UNL     1      -2.534 -11.712 -14.261  1.00  0.00    -0.744 OA
ENDBRANCH  72  76
ENDBRANCH  55  69
BRANCH  56  80
ATOM     80  C   UNL     1     -14.516 -11.279 -10.298  1.00  0.00     0.023 A 
ATOM     81  C   UNL     1     -15.304 -10.410 -11.076  1.00  0.00     0.031 A 
ATOM     82  C   UNL     1     -15.165 -12.104  -9.364  1.00  0.00     0.131 A 
ATOM     83  C   UNL     1     -16.684 -10.334 -10.853  1.00  0.00     0.055 A 
ATOM     84  C   UNL     1     -16.550 -12.077  -9.197  1.00  0.00     0.041 A 
ATOM     85  F   UNL     1     -14.453 -12.935  -8.587  1.00  0.00    -0.206 F 
ATOM     86  C   UNL     1     -17.315 -11.174  -9.930  1.00  0.00     0.022 A 
BRANCH  83  87
ATOM     87  S   UNL     1     -17.683  -9.043 -11.645  1.00  0.00     0.124 S 
ATOM     88  O   UNL     1     -18.649  -9.829 -12.405  1.00  0.00    -0.237 OA
ATOM     89  O   UNL     1     -18.221  -8.331 -10.488  1.00  0.00    -0.237 OA
ATOM     90  O   UNL     1     -16.714  -8.294 -12.437  1.00  0.00    -0.744 OA
ENDBRANCH  83  87
ENDBRANCH  56  80
BRANCH  68  91
ATOM     91  C   UNL     1      -9.395 -15.886 -11.782  1.00  0.00     0.023 A 
ATOM     92  C   UNL     1      -8.777 -16.845 -10.956  1.00  0.00     0.031 A 
ATOM     93  C   UNL     1      -9.835 -16.292 -13.054  1.00  0.00     0.131 A 
ATOM     94  C   UNL     1      -8.573 -18.147 -11.428  1.00  0.00     0.055 A 
ATOM     95  C   UNL     1      -9.676 -17.605 -13.500  1.00  0.00     0.041 A 
ATOM     96  F   UNL     1     -10.422 -15.415 -13.884  1.00  0.00    -0.206 F 
ATOM     97  C   UNL     1      -9.027 -18.535 -12.693  1.00  0.00     0.022 A 
BRANCH  94  98
ATOM     98  S   UNL     1      -7.628 -19.359 -10.463  1.00  0.00     0.124 S 
ATOM     99  O   UNL     1      -8.607 -20.429 -10.280  1.00  0.00    -0.237 OA
ATOM    100  O   UNL     1      -6.521 -19.673 -11.362  1.00  0.00    -0.237 OA
ATOM    101  O   UNL     1      -7.265 -18.637  -9.248  1.00  0.00    -0.744 OA
ENDBRANCH  94  98
ENDBRANCH  68  91
ENDBRANCH  42  43
ENDBRANCH  35  37
ENDBRANCH  34  35
ENDBRANCH  33  34
ENDBRANCH  32  33
ENDBRANCH  31  32
ENDBRANCH  30  31
ENDBRANCH   1  30
TORSDOF 26
