REMARK SMILES C[NH+]1CCC2(CC1)OC[C@@H](C(=O)OCCOCCOCCOCCOC(=O)c1ccc(-c3c4nc(c(-c5cc(S(=O)(=O)[O-])ccc5F)c5ccc([nH]5)c(-c5cc(S(=O)(=O)[O-])ccc5F)c5nc(c(-c6cc(S(=O)(=O)[O-])ccc6F)c6ccc3[nH]6)C=C5)C=C4)cc1)N2C(=O)c1ccc2ccccc2c1
REMARK SMILES IDX 20 1 19 2 18 3 17 4 16 5 15 6 14 7 13 8 11 9 12 10 10 11
REMARK SMILES IDX 1 12 2 13 3 14 7 15 4 17 6 18 5 19 8 20 91 21 9 22 92 23
REMARK SMILES IDX 93 24 94 25 95 26 103 27 96 28 102 29 97 30 101 31 98 32
REMARK SMILES IDX 100 33 99 34 21 35 22 36 23 37 24 38 25 39 26 40 27 41 28 42
REMARK SMILES IDX 29 43 90 44 30 45 89 46 31 47 32 48 33 49 83 50 34 51 88 52
REMARK SMILES IDX 82 53 84 54 35 55 87 56 81 57 80 58 36 60 68 61 48 62 67 63
REMARK SMILES IDX 49 64 52 65 66 66 85 67 50 68 51 69 65 71 86 72 53 73 37 74
REMARK SMILES IDX 38 75 46 76 39 77 45 78 47 79 44 80 40 81 41 82 42 83 43 84
REMARK SMILES IDX 69 85 70 86 78 87 71 88 77 89 79 90 76 91 72 92 73 93 74 94
REMARK SMILES IDX 75 95 54 96 55 97 63 98 56 99 62 100 64 101 61 102 57 103
REMARK SMILES IDX 58 104 59 105 60 106
REMARK H PARENT 2 16 84 59 52 70
REMARK Flexibility Score: inf
ROOT
ATOM      1  C   UNL     1      -1.099   3.594  -7.047  1.00  0.00     0.188 C 
ENDROOT
BRANCH   1   2
ATOM      2  O   UNL     1      -1.692   4.095  -5.852  1.00  0.00    -0.377 OA
BRANCH   2   3
ATOM      3  C   UNL     1      -3.099   4.213  -5.738  1.00  0.00     0.188 C 
BRANCH   3   4
ATOM      4  C   UNL     1      -3.557   5.651  -5.488  1.00  0.00     0.188 C 
BRANCH   4   5
ATOM      5  O   UNL     1      -3.135   6.657  -6.398  1.00  0.00    -0.376 OA
BRANCH   5   6
ATOM      6  C   UNL     1      -1.742   6.874  -6.616  1.00  0.00     0.202 C 
BRANCH   6   7
ATOM      7  C   UNL     1      -0.794   7.104  -5.418  1.00  0.00     0.261 C 
BRANCH   7   8
ATOM      8  O   UNL     1      -0.448   5.919  -4.646  1.00  0.00    -0.462 OA
BRANCH   8   9
ATOM      9  C   UNL     1      -1.056   5.826  -3.444  1.00  0.00     0.331 C 
ATOM     10  O   UNL     1      -1.776   6.725  -2.995  1.00  0.00    -0.250 OA
BRANCH   9  11
ATOM     11  C   UNL     1      -0.812   4.572  -2.577  1.00  0.00     0.224 C 
ATOM     12  C   UNL     1       1.150  -0.316   0.894  1.00  0.00     0.332 C 
ATOM     13  N   UNL     1       0.892   0.134  -0.462  1.00  0.00    -0.337 N 
ATOM     14  C   UNL     1      -0.473   0.600  -0.669  1.00  0.00     0.267 C 
ATOM     15  C   UNL     1       1.957   0.976  -0.999  1.00  0.00     0.267 C 
ATOM     16  H   UNL     1       0.934  -0.692  -1.059  1.00  0.00     0.347 HD
ATOM     17  C   UNL     1      -0.688   2.091  -0.509  1.00  0.00     0.120 C 
ATOM     18  C   UNL     1       1.759   2.482  -0.960  1.00  0.00     0.120 C 
ATOM     19  C   UNL     1       0.342   2.967  -1.249  1.00  0.00     0.155 C 
ATOM     20  O   UNL     1       0.271   4.214  -0.503  1.00  0.00    -0.352 OA
ATOM     21  N   UNL     1      -0.011   3.328  -2.653  1.00  0.00    -0.293 N 
ATOM     22  C   UNL     1      -0.212   5.237  -1.349  1.00  0.00     0.200 C 
BRANCH  21  23
ATOM     23  C   UNL     1      -0.430   2.295  -3.518  1.00  0.00     0.256 C 
ATOM     24  O   UNL     1      -1.617   2.109  -3.778  1.00  0.00    -0.269 OA
BRANCH  23  25
ATOM     25  C   UNL     1       0.569   1.284  -4.008  1.00  0.00     0.040 A 
ATOM     26  C   UNL     1       1.839   1.655  -4.446  1.00  0.00     0.014 A 
ATOM     27  C   UNL     1       0.246  -0.089  -3.948  1.00  0.00     0.022 A 
ATOM     28  C   UNL     1       2.816   0.668  -4.669  1.00  0.00     0.009 A 
ATOM     29  C   UNL     1       1.239  -1.086  -4.080  1.00  0.00    -0.018 A 
ATOM     30  C   UNL     1       2.553  -0.695  -4.418  1.00  0.00    -0.018 A 
ATOM     31  C   UNL     1       0.980  -2.445  -3.805  1.00  0.00     0.009 A 
ATOM     32  C   UNL     1       3.572  -1.669  -4.441  1.00  0.00     0.009 A 
ATOM     33  C   UNL     1       2.005  -3.396  -3.825  1.00  0.00     0.001 A 
ATOM     34  C   UNL     1       3.303  -3.006  -4.134  1.00  0.00     0.001 A 
ENDBRANCH  23  25
ENDBRANCH  21  23
ENDBRANCH   9  11
ENDBRANCH   8   9
ENDBRANCH   7   8
ENDBRANCH   6   7
ENDBRANCH   5   6
ENDBRANCH   4   5
ENDBRANCH   3   4
ENDBRANCH   2   3
ENDBRANCH   1   2
BRANCH   1  35
ATOM     35  C   UNL     1      -2.024   3.280  -8.223  1.00  0.00     0.188 C 
BRANCH  35  36
ATOM     36  O   UNL     1      -2.917   2.172  -8.070  1.00  0.00    -0.376 OA
BRANCH  36  37
ATOM     37  C   UNL     1      -2.538   1.121  -7.182  1.00  0.00     0.202 C 
BRANCH  37  38
ATOM     38  C   UNL     1      -1.568   0.089  -7.761  1.00  0.00     0.261 C 
BRANCH  38  39
ATOM     39  O   UNL     1      -0.281   0.643  -8.075  1.00  0.00    -0.460 OA
BRANCH  39  40
ATOM     40  C   UNL     1      -0.109   0.981  -9.376  1.00  0.00     0.338 C 
ATOM     41  O   UNL     1      -0.915   0.867 -10.280  1.00  0.00    -0.246 OA
BRANCH  40  42
ATOM     42  C   UNL     1       1.187   1.667  -9.536  1.00  0.00     0.060 A 
ATOM     43  C   UNL     1       1.216   2.885 -10.229  1.00  0.00     0.016 A 
ATOM     44  C   UNL     1       2.370   1.068  -9.098  1.00  0.00     0.016 A 
ATOM     45  C   UNL     1       2.436   3.483 -10.535  1.00  0.00     0.010 A 
ATOM     46  C   UNL     1       3.592   1.661  -9.419  1.00  0.00     0.010 A 
ATOM     47  C   UNL     1       3.629   2.848 -10.174  1.00  0.00    -0.014 A 
BRANCH  47  48
ATOM     48  C   UNL     1       4.913   3.317 -10.746  1.00  0.00     0.031 A 
ATOM     49  C   UNL     1       5.484   2.575 -11.924  1.00  0.00     0.074 A 
ATOM     50  C   UNL     1       5.543   4.389 -10.236  1.00  0.00     0.049 A 
ATOM     51  N   UNL     1       6.627   2.742 -12.536  1.00  0.00    -0.248 NA
ATOM     52  C   UNL     1       4.655   1.494 -12.481  1.00  0.00     0.031 C 
ATOM     53  C   UNL     1       5.043   5.220  -9.141  1.00  0.00     0.029 A 
ATOM     54  N   UNL     1       6.746   4.958 -10.568  1.00  0.00    -0.354 N 
ATOM     55  C   UNL     1       6.665   1.775 -13.536  1.00  0.00     0.074 A 
ATOM     56  C   UNL     1       5.440   1.011 -13.432  1.00  0.00     0.031 C 
ATOM     57  C   UNL     1       5.938   6.189  -8.887  1.00  0.00     0.029 A 
ATOM     58  C   UNL     1       7.095   6.017  -9.763  1.00  0.00     0.049 A 
ATOM     59  H   UNL     1       7.306   4.638 -11.311  1.00  0.00     0.167 HD
ATOM     60  C   UNL     1       7.636   1.549 -14.454  1.00  0.00     0.034 A 
ATOM     61  C   UNL     1       8.233   6.739  -9.722  1.00  0.00     0.034 A 
ATOM     62  C   UNL     1       8.847   2.327 -14.538  1.00  0.00     0.049 A 
ATOM     63  C   UNL     1       9.341   6.404 -10.697  1.00  0.00     0.074 A 
ATOM     64  C   UNL     1       9.884   2.208 -15.445  1.00  0.00     0.029 A 
ATOM     65  N   UNL     1       9.192   3.359 -13.674  1.00  0.00    -0.354 N 
ATOM     66  N   UNL     1       9.363   5.493 -11.644  1.00  0.00    -0.248 NA
ATOM     67  C   UNL     1      10.572   7.198 -10.599  1.00  0.00     0.031 C 
ATOM     68  C   UNL     1      10.893   3.103 -15.076  1.00  0.00     0.029 A 
ATOM     69  C   UNL     1      10.445   3.853 -14.000  1.00  0.00     0.049 A 
ATOM     70  H   UNL     1       8.628   3.691 -12.938  1.00  0.00     0.167 HD
ATOM     71  C   UNL     1      10.594   5.639 -12.281  1.00  0.00     0.074 A 
ATOM     72  C   UNL     1      11.277   6.729 -11.617  1.00  0.00     0.031 C 
ATOM     73  C   UNL     1      11.112   4.941 -13.325  1.00  0.00     0.034 A 
BRANCH  60  74
ATOM     74  C   UNL     1       7.462   0.378 -15.390  1.00  0.00     0.023 A 
ATOM     75  C   UNL     1       6.426   0.324 -16.339  1.00  0.00     0.031 A 
ATOM     76  C   UNL     1       8.354  -0.708 -15.327  1.00  0.00     0.131 A 
ATOM     77  C   UNL     1       6.278  -0.815 -17.147  1.00  0.00     0.055 A 
ATOM     78  C   UNL     1       8.247  -1.802 -16.186  1.00  0.00     0.041 A 
ATOM     79  F   UNL     1       9.345  -0.725 -14.421  1.00  0.00    -0.206 F 
ATOM     80  C   UNL     1       7.197  -1.865 -17.096  1.00  0.00     0.022 A 
BRANCH  77  81
ATOM     81  S   UNL     1       4.793  -0.963 -18.179  1.00  0.00     0.124 S 
ATOM     82  O   UNL     1       3.731  -0.890 -17.179  1.00  0.00    -0.237 OA
ATOM     83  O   UNL     1       4.912   0.185 -19.070  1.00  0.00    -0.237 OA
ATOM     84  O   UNL     1       4.948  -2.268 -18.818  1.00  0.00    -0.744 OA
ENDBRANCH  77  81
ENDBRANCH  60  74
BRANCH  61  85
ATOM     85  C   UNL     1       8.418   7.821  -8.711  1.00  0.00     0.023 A 
ATOM     86  C   UNL     1       8.653   9.146  -9.110  1.00  0.00     0.031 A 
ATOM     87  C   UNL     1       8.446   7.535  -7.334  1.00  0.00     0.131 A 
ATOM     88  C   UNL     1       8.969  10.121  -8.151  1.00  0.00     0.055 A 
ATOM     89  C   UNL     1       8.694   8.523  -6.379  1.00  0.00     0.041 A 
ATOM     90  F   UNL     1       8.233   6.285  -6.894  1.00  0.00    -0.206 F 
ATOM     91  C   UNL     1       8.976   9.822  -6.787  1.00  0.00     0.022 A 
BRANCH  88  92
ATOM     92  S   UNL     1       9.494  11.760  -8.725  1.00  0.00     0.124 S 
ATOM     93  O   UNL     1      10.630  11.423  -9.575  1.00  0.00    -0.237 OA
ATOM     94  O   UNL     1       8.298  12.237  -9.409  1.00  0.00    -0.237 OA
ATOM     95  O   UNL     1       9.826  12.462  -7.487  1.00  0.00    -0.744 OA
ENDBRANCH  88  92
ENDBRANCH  61  85
BRANCH  73  96
ATOM     96  C   UNL     1      12.457   5.382 -13.852  1.00  0.00     0.023 A 
ATOM     97  C   UNL     1      13.630   5.279 -13.083  1.00  0.00     0.031 A 
ATOM     98  C   UNL     1      12.563   5.919 -15.148  1.00  0.00     0.131 A 
ATOM     99  C   UNL     1      14.845   5.760 -13.594  1.00  0.00     0.055 A 
ATOM    100  C   UNL     1      13.787   6.330 -15.678  1.00  0.00     0.041 A 
ATOM    101  F   UNL     1      11.477   6.046 -15.927  1.00  0.00    -0.206 F 
ATOM    102  C   UNL     1      14.935   6.265 -14.894  1.00  0.00     0.022 A 
BRANCH  99 103
ATOM    103  S   UNL     1      16.290   5.812 -12.499  1.00  0.00     0.124 S 
ATOM    104  O   UNL     1      15.809   6.647 -11.403  1.00  0.00    -0.237 OA
ATOM    105  O   UNL     1      16.493   4.402 -12.183  1.00  0.00    -0.237 OA
ATOM    106  O   UNL     1      17.329   6.416 -13.331  1.00  0.00    -0.744 OA
ENDBRANCH  99 103
ENDBRANCH  73  96
ENDBRANCH  47  48
ENDBRANCH  40  42
ENDBRANCH  39  40
ENDBRANCH  38  39
ENDBRANCH  37  38
ENDBRANCH  36  37
ENDBRANCH  35  36
ENDBRANCH   1  35
TORSDOF 25
