REMARK SMILES CC[C@](C)(NC(=O)NC[C@@H](C)[NH+](C)C)C(=O)OCCOCCOCCOCCOC(=O)c1ccc(-c2c3nc(c(-c4cc(S(=O)(=O)[O-])ccc4F)c4ccc([nH]4)c(-c4cc(S(=O)(=O)[O-])ccc4F)c4nc(c(-c5cc(S(=O)(=O)[O-])ccc5F)c5ccc2[nH]5)C=C4)C=C3)cc1
REMARK SMILES IDX 22 1 21 2 20 3 19 4 18 5 17 6 15 7 16 8 3 9 4 10 2 11 1 12
REMARK SMILES IDX 5 13 6 14 7 16 8 17 9 19 10 20 11 21 12 22 13 23 14 24 23 26
REMARK SMILES IDX 24 27 25 28 26 29 27 30 28 31 29 32 30 33 31 34 32 35 33 36
REMARK SMILES IDX 94 37 34 38 93 39 35 40 36 41 37 42 87 43 38 44 92 45 86 46
REMARK SMILES IDX 88 47 39 48 91 49 85 50 84 51 40 53 72 54 52 55 71 56 53 57
REMARK SMILES IDX 56 58 70 59 89 60 54 61 55 62 69 64 90 65 57 66 41 67 42 68
REMARK SMILES IDX 50 69 43 70 49 71 51 72 48 73 44 74 45 75 46 76 47 77 73 78
REMARK SMILES IDX 74 79 82 80 75 81 81 82 83 83 80 84 76 85 77 86 78 87 79 88
REMARK SMILES IDX 58 89 59 90 67 91 60 92 66 93 68 94 65 95 61 96 62 97 63 98
REMARK SMILES IDX 64 99
REMARK H PARENT 5 15 8 18 12 25 88 52 56 63
REMARK Flexibility Score: inf
ROOT
ATOM      1  C   UNL     1       2.773  -1.212   4.111  1.00  0.00     0.188 C 
ENDROOT
BRANCH   1   2
ATOM      2  C   UNL     1       2.969  -2.115   2.876  1.00  0.00     0.188 C 
BRANCH   2   3
ATOM      3  O   UNL     1       4.275  -2.330   2.351  1.00  0.00    -0.376 OA
BRANCH   3   4
ATOM      4  C   UNL     1       5.043  -1.177   2.017  1.00  0.00     0.202 C 
BRANCH   4   5
ATOM      5  C   UNL     1       4.371  -0.110   1.144  1.00  0.00     0.261 C 
BRANCH   5   6
ATOM      6  O   UNL     1       3.151   0.395   1.722  1.00  0.00    -0.462 OA
BRANCH   6   7
ATOM      7  C   UNL     1       2.234   0.955   0.898  1.00  0.00     0.331 C 
ATOM      8  O   UNL     1       2.389   1.030  -0.316  1.00  0.00    -0.249 OA
BRANCH   7   9
ATOM      9  C   UNL     1       0.910   1.345   1.644  1.00  0.00     0.136 C 
ATOM     10  C   UNL     1      -0.024   0.138   1.358  1.00  0.00     0.047 C 
BRANCH   9  11
ATOM     11  C   UNL     1       0.284   2.642   1.062  1.00  0.00     0.037 C 
ATOM     12  C   UNL     1      -0.290   2.553  -0.348  1.00  0.00     0.007 C 
ENDBRANCH   9  11
BRANCH   9  13
ATOM     13  N   UNL     1       0.931   1.461   3.139  1.00  0.00    -0.322 N 
ATOM     14  C   UNL     1       1.388   2.324   4.056  1.00  0.00     0.315 C 
ATOM     15  H   UNL     1       0.487   0.691   3.563  1.00  0.00     0.166 HD
ATOM     16  O   UNL     1       0.846   2.299   5.165  1.00  0.00    -0.249 OA
ATOM     17  N   UNL     1       2.379   3.199   3.848  1.00  0.00    -0.332 N 
ATOM     18  H   UNL     1       2.421   3.958   4.473  1.00  0.00     0.165 HD
BRANCH  17  19
ATOM     19  C   UNL     1       3.391   3.169   2.824  1.00  0.00     0.182 C 
BRANCH  19  20
ATOM     20  C   UNL     1       4.454   4.292   2.853  1.00  0.00     0.200 C 
ATOM     21  C   UNL     1       5.548   3.923   3.871  1.00  0.00     0.077 C 
BRANCH  20  22
ATOM     22  N   UNL     1       4.951   4.594   1.482  1.00  0.00    -0.336 N 
ATOM     23  C   UNL     1       6.041   5.566   1.463  1.00  0.00     0.332 C 
ATOM     24  C   UNL     1       5.311   3.435   0.671  1.00  0.00     0.332 C 
ATOM     25  H   UNL     1       4.128   5.008   1.044  1.00  0.00     0.347 HD
ENDBRANCH  20  22
ENDBRANCH  19  20
ENDBRANCH  17  19
ENDBRANCH   9  13
ENDBRANCH   7   9
ENDBRANCH   6   7
ENDBRANCH   5   6
ENDBRANCH   4   5
ENDBRANCH   3   4
ENDBRANCH   2   3
ENDBRANCH   1   2
BRANCH   1  26
ATOM     26  O   UNL     1       3.695  -0.132   4.223  1.00  0.00    -0.377 OA
BRANCH  26  27
ATOM     27  C   UNL     1       4.356  -0.042   5.486  1.00  0.00     0.188 C 
BRANCH  27  28
ATOM     28  C   UNL     1       5.375  -1.174   5.694  1.00  0.00     0.188 C 
BRANCH  28  29
ATOM     29  O   UNL     1       4.791  -2.458   5.520  1.00  0.00    -0.376 OA
BRANCH  29  30
ATOM     30  C   UNL     1       4.318  -3.164   6.660  1.00  0.00     0.202 C 
BRANCH  30  31
ATOM     31  C   UNL     1       3.355  -2.487   7.659  1.00  0.00     0.261 C 
BRANCH  31  32
ATOM     32  O   UNL     1       3.738  -1.206   8.179  1.00  0.00    -0.460 OA
BRANCH  32  33
ATOM     33  C   UNL     1       4.875  -1.155   8.896  1.00  0.00     0.338 C 
ATOM     34  O   UNL     1       5.604  -2.103   9.165  1.00  0.00    -0.246 OA
BRANCH  33  35
ATOM     35  C   UNL     1       5.221   0.259   9.139  1.00  0.00     0.060 A 
ATOM     36  C   UNL     1       6.499   0.700   8.774  1.00  0.00     0.016 A 
ATOM     37  C   UNL     1       4.337   1.120   9.799  1.00  0.00     0.016 A 
ATOM     38  C   UNL     1       6.936   1.964   9.159  1.00  0.00     0.010 A 
ATOM     39  C   UNL     1       4.784   2.382  10.206  1.00  0.00     0.010 A 
ATOM     40  C   UNL     1       6.111   2.774   9.951  1.00  0.00    -0.014 A 
BRANCH  40  41
ATOM     41  C   UNL     1       6.761   3.830  10.769  1.00  0.00     0.031 A 
ATOM     42  C   UNL     1       7.199   3.455  12.164  1.00  0.00     0.074 A 
ATOM     43  C   UNL     1       7.056   5.040  10.264  1.00  0.00     0.049 A 
ATOM     44  N   UNL     1       7.839   4.161  13.059  1.00  0.00    -0.248 NA
ATOM     45  C   UNL     1       6.870   2.089  12.604  1.00  0.00     0.031 C 
ATOM     46  C   UNL     1       6.745   5.489   8.909  1.00  0.00     0.029 A 
ATOM     47  N   UNL     1       7.703   6.107  10.834  1.00  0.00    -0.354 N 
ATOM     48  C   UNL     1       7.987   3.327  14.164  1.00  0.00     0.074 A 
ATOM     49  C   UNL     1       7.333   2.079  13.842  1.00  0.00     0.031 C 
ATOM     50  C   UNL     1       7.208   6.743   8.750  1.00  0.00     0.029 A 
ATOM     51  C   UNL     1       7.821   7.193   9.999  1.00  0.00     0.049 A 
ATOM     52  H   UNL     1       8.050   6.096  11.755  1.00  0.00     0.167 HD
ATOM     53  C   UNL     1       8.620   3.572  15.338  1.00  0.00     0.034 A 
ATOM     54  C   UNL     1       8.356   8.411  10.226  1.00  0.00     0.034 A 
ATOM     55  C   UNL     1       9.257   4.827  15.649  1.00  0.00     0.049 A 
ATOM     56  C   UNL     1       8.983   8.693  11.573  1.00  0.00     0.074 A 
ATOM     57  C   UNL     1       9.919   5.195  16.807  1.00  0.00     0.029 A 
ATOM     58  N   UNL     1       9.303   5.925  14.799  1.00  0.00    -0.354 N 
ATOM     59  N   UNL     1       9.115   7.897  12.611  1.00  0.00    -0.248 NA
ATOM     60  C   UNL     1       9.549  10.033  11.770  1.00  0.00     0.031 C 
ATOM     61  C   UNL     1      10.300   6.536  16.685  1.00  0.00     0.029 A 
ATOM     62  C   UNL     1       9.955   6.980  15.418  1.00  0.00     0.049 A 
ATOM     63  H   UNL     1       8.926   5.950  13.890  1.00  0.00     0.167 HD
ATOM     64  C   UNL     1       9.820   8.630  13.565  1.00  0.00     0.074 A 
ATOM     65  C   UNL     1      10.090   9.924  12.974  1.00  0.00     0.031 C 
ATOM     66  C   UNL     1      10.216   8.265  14.813  1.00  0.00     0.034 A 
BRANCH  53  67
ATOM     67  C   UNL     1       8.581   2.482  16.384  1.00  0.00     0.023 A 
ATOM     68  C   UNL     1       9.184   1.227  16.178  1.00  0.00     0.031 A 
ATOM     69  C   UNL     1       7.878   2.684  17.584  1.00  0.00     0.131 A 
ATOM     70  C   UNL     1       9.004   0.202  17.120  1.00  0.00     0.055 A 
ATOM     71  C   UNL     1       7.775   1.686  18.555  1.00  0.00     0.041 A 
ATOM     72  F   UNL     1       7.258   3.849  17.826  1.00  0.00    -0.206 F 
ATOM     73  C   UNL     1       8.326   0.430  18.319  1.00  0.00     0.022 A 
BRANCH  70  74
ATOM     74  S   UNL     1       9.532  -1.480  16.686  1.00  0.00     0.124 S 
ATOM     75  O   UNL     1       8.758  -1.728  15.472  1.00  0.00    -0.237 OA
ATOM     76  O   UNL     1      10.971  -1.323  16.506  1.00  0.00    -0.237 OA
ATOM     77  O   UNL     1       9.130  -2.275  17.845  1.00  0.00    -0.744 OA
ENDBRANCH  70  74
ENDBRANCH  53  67
BRANCH  54  78
ATOM     78  C   UNL     1       8.309   9.470   9.177  1.00  0.00     0.023 A 
ATOM     79  C   UNL     1       9.484  10.009   8.628  1.00  0.00     0.031 A 
ATOM     80  C   UNL     1       7.080  10.010   8.756  1.00  0.00     0.131 A 
ATOM     81  C   UNL     1       9.408  11.085   7.728  1.00  0.00     0.055 A 
ATOM     82  C   UNL     1       7.007  11.044   7.821  1.00  0.00     0.041 A 
ATOM     83  F   UNL     1       5.925   9.535   9.249  1.00  0.00    -0.206 F 
ATOM     84  C   UNL     1       8.178  11.598   7.312  1.00  0.00     0.022 A 
BRANCH  81  85
ATOM     85  S   UNL     1      10.949  11.865   7.173  1.00  0.00     0.124 S 
ATOM     86  O   UNL     1      11.543  12.284   8.438  1.00  0.00    -0.237 OA
ATOM     87  O   UNL     1      11.614  10.764   6.484  1.00  0.00    -0.237 OA
ATOM     88  O   UNL     1      10.489  12.950   6.309  1.00  0.00    -0.744 OA
ENDBRANCH  81  85
ENDBRANCH  54  78
BRANCH  66  89
ATOM     89  C   UNL     1      11.046   9.261  15.590  1.00  0.00     0.023 A 
ATOM     90  C   UNL     1      10.530  10.500  16.008  1.00  0.00     0.031 A 
ATOM     91  C   UNL     1      12.388   8.968  15.898  1.00  0.00     0.131 A 
ATOM     92  C   UNL     1      11.368  11.427  16.645  1.00  0.00     0.055 A 
ATOM     93  C   UNL     1      13.197   9.866  16.594  1.00  0.00     0.041 A 
ATOM     94  F   UNL     1      12.936   7.800  15.525  1.00  0.00    -0.206 F 
ATOM     95  C   UNL     1      12.693  11.112  16.956  1.00  0.00     0.022 A 
BRANCH  92  96
ATOM     96  S   UNL     1      10.738  13.100  16.954  1.00  0.00     0.124 S 
ATOM     97  O   UNL     1      10.315  13.517  15.622  1.00  0.00    -0.237 OA
ATOM     98  O   UNL     1       9.668  12.857  17.916  1.00  0.00    -0.237 OA
ATOM     99  O   UNL     1      11.900  13.811  17.487  1.00  0.00    -0.744 OA
ENDBRANCH  92  96
ENDBRANCH  66  89
ENDBRANCH  40  41
ENDBRANCH  33  35
ENDBRANCH  32  33
ENDBRANCH  31  32
ENDBRANCH  30  31
ENDBRANCH  29  30
ENDBRANCH  28  29
ENDBRANCH  27  28
ENDBRANCH  26  27
ENDBRANCH   1  26
TORSDOF 28
