REMARK SMILES O=C(C[C@H](NC(=O)[C@]12C[C@H]3C[C@H](C[C@H](C3)C1)C2)c1cccc([N+](=O)[O-])c1)OCCOCCOCCOCCOC(=O)c1ccc(-c2c3nc(c(-c4cc(S(=O)(=O)[O-])ccc4F)c4ccc([nH]4)c(-c4cc(S(=O)(=O)[O-])ccc4F)c4nc(c(-c5cc(S(=O)(=O)[O-])ccc5F)c5ccc2[nH]5)C=C4)C=C3)cc1
REMARK SMILES IDX 33 1 32 2 31 3 30 4 29 5 28 6 27 7 2 8 1 9 3 10 4 11 18 12
REMARK SMILES IDX 19 13 26 14 20 15 22 16 21 17 23 18 24 19 25 20 5 21 6 22
REMARK SMILES IDX 7 24 8 25 9 26 16 27 17 28 10 29 14 30 12 31 11 32 15 33
REMARK SMILES IDX 13 34 34 35 35 36 36 37 37 38 38 39 39 40 40 41 41 42 42 43
REMARK SMILES IDX 43 44 104 45 44 46 103 47 45 48 46 49 47 50 97 51 48 52
REMARK SMILES IDX 102 53 96 54 98 55 49 56 101 57 95 58 94 59 50 61 82 62
REMARK SMILES IDX 62 63 81 64 63 65 66 66 80 67 99 68 64 69 65 70 79 72 100 73
REMARK SMILES IDX 67 74 51 75 52 76 60 77 53 78 59 79 61 80 58 81 54 82 55 83
REMARK SMILES IDX 56 84 57 85 83 86 84 87 92 88 85 89 91 90 93 91 90 92 86 93
REMARK SMILES IDX 87 94 88 95 89 96 68 97 69 98 77 99 70 100 76 101 78 102
REMARK SMILES IDX 75 103 71 104 72 105 73 106 74 107
REMARK H PARENT 5 23 98 60 66 71
REMARK Flexibility Score: inf
ROOT
ATOM      1  O   UNL     1       4.911  -2.155  -3.513  1.00  0.00    -0.377 OA
ENDROOT
BRANCH   1   2
ATOM      2  C   UNL     1       5.497  -1.259  -2.584  1.00  0.00     0.188 C 
BRANCH   2   3
ATOM      3  C   UNL     1       5.294  -1.676  -1.131  1.00  0.00     0.188 C 
BRANCH   3   4
ATOM      4  O   UNL     1       3.953  -1.828  -0.709  1.00  0.00    -0.376 OA
BRANCH   4   5
ATOM      5  C   UNL     1       3.077  -0.750  -0.448  1.00  0.00     0.202 C 
BRANCH   5   6
ATOM      6  C   UNL     1       3.260   0.629  -1.071  1.00  0.00     0.261 C 
BRANCH   6   7
ATOM      7  O   UNL     1       4.554   1.260  -0.983  1.00  0.00    -0.463 OA
BRANCH   7   8
ATOM      8  C   UNL     1       5.318   1.631   0.050  1.00  0.00     0.308 C 
ATOM      9  O   UNL     1       6.176   2.497  -0.130  1.00  0.00    -0.252 OA
BRANCH   8  10
ATOM     10  C   UNL     1       5.332   0.862   1.334  1.00  0.00     0.152 C 
BRANCH  10  11
ATOM     11  C   UNL     1       4.157   0.817   2.307  1.00  0.00     0.123 C 
BRANCH  11  12
ATOM     12  C   UNL     1       4.624   1.386   3.622  1.00  0.00    -0.018 A 
ATOM     13  C   UNL     1       5.187   0.545   4.597  1.00  0.00     0.006 A 
ATOM     14  C   UNL     1       4.622   2.773   3.815  1.00  0.00     0.091 A 
ATOM     15  C   UNL     1       5.734   1.084   5.758  1.00  0.00     0.007 A 
ATOM     16  C   UNL     1       5.178   3.306   4.976  1.00  0.00     0.269 A 
ATOM     17  C   UNL     1       5.734   2.466   5.950  1.00  0.00     0.085 A 
BRANCH  16  18
ATOM     18  N   UNL     1       5.205   4.760   5.150  1.00  0.00     0.062 N 
ATOM     19  O   UNL     1       5.695   5.202   6.199  1.00  0.00    -0.258 OA
ATOM     20  O   UNL     1       4.739   5.459   4.240  1.00  0.00    -0.258 OA
ENDBRANCH  16  18
ENDBRANCH  11  12
BRANCH  11  21
ATOM     21  N   UNL     1       2.899   1.397   1.886  1.00  0.00    -0.348 N 
ATOM     22  C   UNL     1       1.605   1.046   2.125  1.00  0.00     0.226 C 
ATOM     23  H   UNL     1       2.998   2.197   1.320  1.00  0.00     0.164 HD
ATOM     24  O   UNL     1       0.783   1.622   1.404  1.00  0.00    -0.274 OA
BRANCH  22  25
ATOM     25  C   UNL     1       1.131   0.095   3.255  1.00  0.00     0.050 C 
ATOM     26  C   UNL     1       1.880  -1.247   3.423  1.00  0.00     0.020 C 
ATOM     27  C   UNL     1      -0.366  -0.272   2.991  1.00  0.00     0.020 C 
ATOM     28  C   UNL     1       1.184   0.881   4.586  1.00  0.00     0.020 C 
ATOM     29  C   UNL     1       1.300  -2.079   4.580  1.00  0.00    -0.010 C 
ATOM     30  C   UNL     1      -0.960  -1.097   4.146  1.00  0.00    -0.010 C 
ATOM     31  C   UNL     1       0.613   0.048   5.744  1.00  0.00    -0.010 C 
ATOM     32  C   UNL     1       1.414  -1.258   5.876  1.00  0.00     0.007 C 
ATOM     33  C   UNL     1      -0.168  -2.402   4.296  1.00  0.00     0.007 C 
ATOM     34  C   UNL     1      -0.857  -0.288   5.448  1.00  0.00     0.007 C 
ENDBRANCH  22  25
ENDBRANCH  11  21
ENDBRANCH  10  11
ENDBRANCH   8  10
ENDBRANCH   7   8
ENDBRANCH   6   7
ENDBRANCH   5   6
ENDBRANCH   4   5
ENDBRANCH   3   4
ENDBRANCH   2   3
ENDBRANCH   1   2
BRANCH   1  35
ATOM     35  C   UNL     1       3.497  -2.236  -3.436  1.00  0.00     0.188 C 
BRANCH  35  36
ATOM     36  C   UNL     1       2.922  -3.526  -2.807  1.00  0.00     0.188 C 
BRANCH  36  37
ATOM     37  O   UNL     1       3.763  -4.556  -2.303  1.00  0.00    -0.376 OA
BRANCH  37  38
ATOM     38  C   UNL     1       4.979  -4.865  -2.962  1.00  0.00     0.202 C 
BRANCH  38  39
ATOM     39  C   UNL     1       4.988  -5.209  -4.461  1.00  0.00     0.261 C 
BRANCH  39  40
ATOM     40  O   UNL     1       4.268  -4.310  -5.317  1.00  0.00    -0.460 OA
BRANCH  40  41
ATOM     41  C   UNL     1       3.058  -4.738  -5.760  1.00  0.00     0.338 C 
ATOM     42  O   UNL     1       2.547  -5.825  -5.547  1.00  0.00    -0.246 OA
BRANCH  41  43
ATOM     43  C   UNL     1       2.332  -3.589  -6.355  1.00  0.00     0.060 A 
ATOM     44  C   UNL     1       1.054  -3.279  -5.860  1.00  0.00     0.016 A 
ATOM     45  C   UNL     1       2.926  -2.769  -7.317  1.00  0.00     0.016 A 
ATOM     46  C   UNL     1       0.370  -2.152  -6.322  1.00  0.00     0.010 A 
ATOM     47  C   UNL     1       2.220  -1.667  -7.814  1.00  0.00     0.010 A 
ATOM     48  C   UNL     1       0.933  -1.363  -7.333  1.00  0.00    -0.014 A 
BRANCH  48  49
ATOM     49  C   UNL     1       0.097  -0.373  -8.059  1.00  0.00     0.031 A 
ATOM     50  C   UNL     1      -0.651  -0.858  -9.271  1.00  0.00     0.074 A 
ATOM     51  C   UNL     1       0.026   0.918  -7.684  1.00  0.00     0.049 A 
ATOM     52  N   UNL     1      -1.327  -0.179 -10.158  1.00  0.00    -0.248 NA
ATOM     53  C   UNL     1      -0.623  -2.311  -9.516  1.00  0.00     0.031 C 
ATOM     54  C   UNL     1       0.653   1.492  -6.495  1.00  0.00     0.029 A 
ATOM     55  N   UNL     1      -0.591   1.989  -8.288  1.00  0.00    -0.354 N 
ATOM     56  C   UNL     1      -1.786  -1.115 -11.078  1.00  0.00     0.074 A 
ATOM     57  C   UNL     1      -1.310  -2.409 -10.643  1.00  0.00     0.031 C 
ATOM     58  C   UNL     1       0.420   2.818  -6.477  1.00  0.00     0.029 A 
ATOM     59  C   UNL     1      -0.327   3.195  -7.678  1.00  0.00     0.049 A 
ATOM     60  H   UNL     1      -1.167   1.901  -9.081  1.00  0.00     0.167 HD
ATOM     61  C   UNL     1      -2.526  -0.909 -12.192  1.00  0.00     0.034 A 
ATOM     62  C   UNL     1      -0.611   4.456  -8.073  1.00  0.00     0.034 A 
ATOM     63  C   UNL     1      -2.984   0.386 -12.620  1.00  0.00     0.049 A 
ATOM     64  C   UNL     1      -1.352   4.665  -9.379  1.00  0.00     0.074 A 
ATOM     65  C   UNL     1      -3.780   0.698 -13.706  1.00  0.00     0.029 A 
ATOM     66  N   UNL     1      -2.663   1.585 -12.000  1.00  0.00    -0.354 N 
ATOM     67  N   UNL     1      -1.815   3.768 -10.221  1.00  0.00    -0.248 NA
ATOM     68  C   UNL     1      -1.603   6.054  -9.793  1.00  0.00     0.031 C 
ATOM     69  C   UNL     1      -3.870   2.090 -13.794  1.00  0.00     0.029 A 
ATOM     70  C   UNL     1      -3.200   2.644 -12.714  1.00  0.00     0.049 A 
ATOM     71  H   UNL     1      -2.132   1.671 -11.176  1.00  0.00     0.167 HD
ATOM     72  C   UNL     1      -2.432   4.487 -11.245  1.00  0.00     0.074 A 
ATOM     73  C   UNL     1      -2.300   5.888 -10.907  1.00  0.00     0.031 C 
ATOM     74  C   UNL     1      -3.052   4.035 -12.364  1.00  0.00     0.034 A 
BRANCH  61  75
ATOM     75  C   UNL     1      -2.823  -2.100 -13.064  1.00  0.00     0.023 A 
ATOM     76  C   UNL     1      -3.671  -3.139 -12.647  1.00  0.00     0.031 A 
ATOM     77  C   UNL     1      -2.246  -2.186 -14.344  1.00  0.00     0.131 A 
ATOM     78  C   UNL     1      -3.887  -4.241 -13.489  1.00  0.00     0.055 A 
ATOM     79  C   UNL     1      -2.517  -3.252 -15.202  1.00  0.00     0.041 A 
ATOM     80  F   UNL     1      -1.406  -1.234 -14.779  1.00  0.00    -0.206 F 
ATOM     81  C   UNL     1      -3.336  -4.291 -14.773  1.00  0.00     0.022 A 
BRANCH  78  82
ATOM     82  S   UNL     1      -4.823  -5.656 -12.848  1.00  0.00     0.124 S 
ATOM     83  O   UNL     1      -3.995  -6.071 -11.718  1.00  0.00    -0.237 OA
ATOM     84  O   UNL     1      -6.109  -5.057 -12.512  1.00  0.00    -0.237 OA
ATOM     85  O   UNL     1      -4.845  -6.590 -13.972  1.00  0.00    -0.744 OA
ENDBRANCH  78  82
ENDBRANCH  61  75
BRANCH  62  86
ATOM     86  C   UNL     1      -0.121   5.638  -7.298  1.00  0.00     0.023 A 
ATOM     87  C   UNL     1      -1.012   6.597  -6.789  1.00  0.00     0.031 A 
ATOM     88  C   UNL     1       1.257   5.886  -7.155  1.00  0.00     0.131 A 
ATOM     89  C   UNL     1      -0.518   7.786  -6.224  1.00  0.00     0.055 A 
ATOM     90  C   UNL     1       1.743   7.038  -6.533  1.00  0.00     0.041 A 
ATOM     91  F   UNL     1       2.158   5.014  -7.635  1.00  0.00    -0.206 F 
ATOM     92  C   UNL     1       0.853   8.006  -6.080  1.00  0.00     0.022 A 
BRANCH  89  93
ATOM     93  S   UNL     1      -1.695   9.104  -5.808  1.00  0.00     0.124 S 
ATOM     94  O   UNL     1      -2.377   9.305  -7.081  1.00  0.00    -0.237 OA
ATOM     95  O   UNL     1      -2.482   8.483  -4.748  1.00  0.00    -0.237 OA
ATOM     96  O   UNL     1      -0.834  10.206  -5.380  1.00  0.00    -0.744 OA
ENDBRANCH  89  93
ENDBRANCH  62  86
BRANCH  74  97
ATOM     97  C   UNL     1      -3.669   5.063 -13.282  1.00  0.00     0.023 A 
ATOM     98  C   UNL     1      -2.881   5.958 -14.026  1.00  0.00     0.031 A 
ATOM     99  C   UNL     1      -5.066   5.130 -13.430  1.00  0.00     0.131 A 
ATOM    100  C   UNL     1      -3.497   6.909 -14.853  1.00  0.00     0.055 A 
ATOM    101  C   UNL     1      -5.671   6.038 -14.299  1.00  0.00     0.041 A 
ATOM    102  F   UNL     1      -5.867   4.298 -12.744  1.00  0.00    -0.206 F 
ATOM    103  C   UNL     1      -4.886   6.942 -15.009  1.00  0.00     0.022 A 
BRANCH 100 104
ATOM    104  S   UNL     1      -2.463   8.149 -15.679  1.00  0.00     0.124 S 
ATOM    105  O   UNL     1      -1.852   8.837 -14.546  1.00  0.00    -0.237 OA
ATOM    106  O   UNL     1      -1.567   7.326 -16.484  1.00  0.00    -0.237 OA
ATOM    107  O   UNL     1      -3.425   8.944 -16.442  1.00  0.00    -0.744 OA
ENDBRANCH 100 104
ENDBRANCH  74  97
ENDBRANCH  48  49
ENDBRANCH  41  43
ENDBRANCH  40  41
ENDBRANCH  39  40
ENDBRANCH  38  39
ENDBRANCH  37  38
ENDBRANCH  36  37
ENDBRANCH  35  36
ENDBRANCH   1  35
TORSDOF 28
