REMARK SMILES COc1ccccc1C(=O)N/C(=C/c1ccc2c(c1)OCO2)C(=O)Nc1ccc(C(=O)OCCOCCOCCOCCOC(=O)c2ccc(-c3c4nc(c(-c5cc(S(=O)(=O)[O-])ccc5F)c5ccc([nH]5)c(-c5cc(S(=O)(=O)[O-])ccc5F)c5nc(c(-c6cc(S(=O)(=O)[O-])ccc6F)c6ccc3[nH]6)C=C5)C=C4)cc2)cc1
REMARK SMILES IDX 37 1 36 2 35 3 34 4 33 5 32 6 30 7 31 8 29 9 26 10 27 11
REMARK SMILES IDX 111 12 28 13 110 14 25 15 23 16 24 17 12 19 13 20 11 21 9 22
REMARK SMILES IDX 10 23 8 25 3 26 4 27 5 28 7 29 6 30 2 31 1 32 14 33 15 34
REMARK SMILES IDX 19 35 16 36 18 37 17 38 20 39 22 40 21 41 38 42 39 43 40 44
REMARK SMILES IDX 41 45 42 46 43 47 44 48 45 49 46 50 47 51 48 52 109 53 49 54
REMARK SMILES IDX 108 55 50 56 51 57 52 58 102 59 53 60 107 61 101 62 103 63
REMARK SMILES IDX 54 64 106 65 100 66 99 67 55 69 87 70 67 71 86 72 68 73
REMARK SMILES IDX 71 74 85 75 104 76 69 77 70 78 84 80 105 81 72 82 56 83
REMARK SMILES IDX 57 84 65 85 58 86 64 87 66 88 63 89 59 90 60 91 61 92 62 93
REMARK SMILES IDX 88 94 89 95 97 96 90 97 96 98 98 99 95 100 91 101 92 102
REMARK SMILES IDX 93 103 94 104 73 105 74 106 82 107 75 108 81 109 83 110
REMARK SMILES IDX 80 111 76 112 77 113 78 114 79 115
REMARK H PARENT 25 18 11 24 103 68 71 79
REMARK Flexibility Score: inf
ROOT
ATOM      1  C   UNL     1      -4.560   5.011  -0.530  1.00  0.00     0.188 C 
ENDROOT
BRANCH   1   2
ATOM      2  C   UNL     1      -4.630   5.560   0.905  1.00  0.00     0.188 C 
BRANCH   2   3
ATOM      3  O   UNL     1      -4.565   6.950   1.204  1.00  0.00    -0.376 OA
BRANCH   3   4
ATOM      4  C   UNL     1      -3.858   7.864   0.379  1.00  0.00     0.202 C 
BRANCH   4   5
ATOM      5  C   UNL     1      -2.362   7.673   0.075  1.00  0.00     0.261 C 
BRANCH   5   6
ATOM      6  O   UNL     1      -1.946   6.314  -0.102  1.00  0.00    -0.460 OA
BRANCH   6   7
ATOM      7  C   UNL     1      -1.352   5.763   0.971  1.00  0.00     0.338 C 
ATOM      8  O   UNL     1      -1.005   6.317   2.000  1.00  0.00    -0.246 OA
BRANCH   7   9
ATOM      9  C   UNL     1      -1.330   4.305   0.822  1.00  0.00     0.060 A 
ATOM     10  C   UNL     1      -1.322   0.585   0.600  1.00  0.00     0.041 A 
ATOM     11  C   UNL     1      -1.278   1.338   2.202  1.00  0.00     0.027 A 
ATOM     12  C   UNL     1      -1.446   1.626  -0.817  1.00  0.00     0.027 A 
ATOM     13  C   UNL     1      -1.229   3.358   2.344  1.00  0.00     0.018 A 
ATOM     14  C   UNL     1      -1.453   3.416  -0.708  1.00  0.00     0.018 A 
BRANCH  10  15
ATOM     15  N   UNL     1      -0.514  -0.569   0.573  1.00  0.00    -0.321 N 
ATOM     16  C   UNL     1       0.436  -0.771   1.576  1.00  0.00     0.272 C 
ATOM     17  O   UNL     1       0.342  -1.705   2.372  1.00  0.00    -0.267 OA
ATOM     18  H   UNL     1      -0.619  -1.229  -0.150  1.00  0.00     0.170 HD
BRANCH  16  19
ATOM     19  C   UNL     1       1.700   0.108   1.576  1.00  0.00     0.108 C 
ATOM     20  C   UNL     1       1.788   1.366   2.098  1.00  0.00     0.040 C 
BRANCH  19  21
ATOM     21  N   UNL     1       2.858  -0.395   0.998  1.00  0.00    -0.317 N 
ATOM     22  C   UNL     1       3.232  -1.592   0.425  1.00  0.00     0.259 C 
ATOM     23  O   UNL     1       4.362  -1.673  -0.064  1.00  0.00    -0.269 OA
ATOM     24  H   UNL     1       3.591   0.263   0.997  1.00  0.00     0.170 HD
BRANCH  22  25
ATOM     25  C   UNL     1       2.425  -2.823   0.463  1.00  0.00     0.082 A 
ATOM     26  C   UNL     1       1.241  -3.065  -0.242  1.00  0.00     0.131 A 
ATOM     27  C   UNL     1       0.509  -4.225   0.063  1.00  0.00     0.047 A 
ATOM     28  C   UNL     1       1.008  -5.191   0.937  1.00  0.00     0.004 A 
ATOM     29  C   UNL     1       2.962  -3.835   1.283  1.00  0.00     0.018 A 
ATOM     30  C   UNL     1       2.262  -5.019   1.509  1.00  0.00     0.001 A 
BRANCH  26  31
ATOM     31  O   UNL     1       0.623  -2.295  -1.188  1.00  0.00    -0.496 OA
ATOM     32  C   UNL     1       1.414  -1.385  -1.941  1.00  0.00     0.278 C 
ENDBRANCH  26  31
ENDBRANCH  22  25
ENDBRANCH  19  21
BRANCH  20  33
ATOM     33  C   UNL     1       0.624   2.208   2.446  1.00  0.00    -0.019 A 
ATOM     34  C   UNL     1      -0.348   2.429   0.955  1.00  0.00     0.012 A 
ATOM     35  C   UNL     1      -0.229   2.133   4.001  1.00  0.00     0.058 A 
ATOM     36  C   UNL     1      -2.370   2.442   1.111  1.00  0.00     0.051 A 
ATOM     37  C   UNL     1      -2.002   2.197   4.105  1.00  0.00     0.166 A 
ATOM     38  C   UNL     1      -3.063   2.335   2.752  1.00  0.00     0.165 A 
ATOM     39  O   UNL     1      -2.757   1.657   5.118  1.00  0.00    -0.454 OA
ATOM     40  O   UNL     1      -4.286   1.868   3.119  1.00  0.00    -0.454 OA
ATOM     41  C   UNL     1      -3.949   1.206   4.383  1.00  0.00     0.468 C 
ENDBRANCH  20  33
ENDBRANCH  16  19
ENDBRANCH  10  15
ENDBRANCH   7   9
ENDBRANCH   6   7
ENDBRANCH   5   6
ENDBRANCH   4   5
ENDBRANCH   3   4
ENDBRANCH   2   3
ENDBRANCH   1   2
BRANCH   1  42
ATOM     42  O   UNL     1      -4.231   5.969  -1.513  1.00  0.00    -0.377 OA
BRANCH  42  43
ATOM     43  C   UNL     1      -5.279   6.294  -2.410  1.00  0.00     0.188 C 
BRANCH  43  44
ATOM     44  C   UNL     1      -6.612   6.703  -1.758  1.00  0.00     0.188 C 
BRANCH  44  45
ATOM     45  O   UNL     1      -7.194   5.652  -0.986  1.00  0.00    -0.376 OA
BRANCH  45  46
ATOM     46  C   UNL     1      -8.278   4.950  -1.582  1.00  0.00     0.202 C 
BRANCH  46  47
ATOM     47  C   UNL     1      -7.903   3.936  -2.675  1.00  0.00     0.261 C 
BRANCH  47  48
ATOM     48  O   UNL     1      -7.234   4.448  -3.840  1.00  0.00    -0.460 OA
BRANCH  48  49
ATOM     49  C   UNL     1      -7.814   5.453  -4.535  1.00  0.00     0.338 C 
ATOM     50  O   UNL     1      -8.902   5.952  -4.321  1.00  0.00    -0.246 OA
BRANCH  49  51
ATOM     51  C   UNL     1      -6.794   5.993  -5.465  1.00  0.00     0.060 A 
ATOM     52  C   UNL     1      -6.455   7.352  -5.398  1.00  0.00     0.016 A 
ATOM     53  C   UNL     1      -6.142   5.151  -6.370  1.00  0.00     0.016 A 
ATOM     54  C   UNL     1      -5.473   7.875  -6.245  1.00  0.00     0.010 A 
ATOM     55  C   UNL     1      -5.184   5.682  -7.239  1.00  0.00     0.010 A 
ATOM     56  C   UNL     1      -4.862   7.051  -7.199  1.00  0.00    -0.014 A 
BRANCH  56  57
ATOM     57  C   UNL     1      -4.080   7.643  -8.314  1.00  0.00     0.031 A 
ATOM     58  C   UNL     1      -4.807   7.911  -9.605  1.00  0.00     0.074 A 
ATOM     59  C   UNL     1      -2.767   7.917  -8.207  1.00  0.00     0.049 A 
ATOM     60  N   UNL     1      -4.338   8.287 -10.765  1.00  0.00    -0.248 NA
ATOM     61  C   UNL     1      -6.265   7.713  -9.577  1.00  0.00     0.031 C 
ATOM     62  C   UNL     1      -1.966   7.762  -6.995  1.00  0.00     0.029 A 
ATOM     63  N   UNL     1      -1.873   8.369  -9.147  1.00  0.00    -0.354 N 
ATOM     64  C   UNL     1      -5.441   8.360 -11.610  1.00  0.00     0.074 A 
ATOM     65  C   UNL     1      -6.594   7.956 -10.835  1.00  0.00     0.031 C 
ATOM     66  C   UNL     1      -0.691   8.093  -7.272  1.00  0.00     0.029 A 
ATOM     67  C   UNL     1      -0.577   8.438  -8.690  1.00  0.00     0.049 A 
ATOM     68  H   UNL     1      -2.135   8.621 -10.062  1.00  0.00     0.167 HD
ATOM     69  C   UNL     1      -5.488   8.732 -12.912  1.00  0.00     0.034 A 
ATOM     70  C   UNL     1       0.570   8.708  -9.351  1.00  0.00     0.034 A 
ATOM     71  C   UNL     1      -4.328   9.112 -13.677  1.00  0.00     0.049 A 
ATOM     72  C   UNL     1       0.510   9.014 -10.833  1.00  0.00     0.074 A 
ATOM     73  C   UNL     1      -4.261   9.509 -15.000  1.00  0.00     0.029 A 
ATOM     74  N   UNL     1      -3.027   9.128 -13.190  1.00  0.00    -0.354 N 
ATOM     75  N   UNL     1      -0.536   9.075 -11.625  1.00  0.00    -0.248 NA
ATOM     76  C   UNL     1       1.787   9.287 -11.509  1.00  0.00     0.031 C 
ATOM     77  C   UNL     1      -2.915   9.689 -15.335  1.00  0.00     0.029 A 
ATOM     78  C   UNL     1      -2.148   9.492 -14.197  1.00  0.00     0.049 A 
ATOM     79  H   UNL     1      -2.767   8.912 -12.265  1.00  0.00     0.167 HD
ATOM     80  C   UNL     1      -0.045   9.432 -12.880  1.00  0.00     0.074 A 
ATOM     81  C   UNL     1       1.388   9.576 -12.740  1.00  0.00     0.031 C 
ATOM     82  C   UNL     1      -0.719   9.632 -14.042  1.00  0.00     0.034 A 
BRANCH  69  83
ATOM     83  C   UNL     1      -6.832   8.679 -13.596  1.00  0.00     0.023 A 
ATOM     84  C   UNL     1      -7.902   9.495 -13.191  1.00  0.00     0.031 A 
ATOM     85  C   UNL     1      -7.059   7.766 -14.641  1.00  0.00     0.131 A 
ATOM     86  C   UNL     1      -9.167   9.330 -13.774  1.00  0.00     0.055 A 
ATOM     87  C   UNL     1      -8.298   7.667 -15.276  1.00  0.00     0.041 A 
ATOM     88  F   UNL     1      -6.083   6.941 -15.052  1.00  0.00    -0.206 F 
ATOM     89  C   UNL     1      -9.366   8.441 -14.832  1.00  0.00     0.022 A 
BRANCH  86  90
ATOM     90  S   UNL     1     -10.583  10.182 -13.025  1.00  0.00     0.124 S 
ATOM     91  O   UNL     1     -10.551   9.662 -11.660  1.00  0.00    -0.237 OA
ATOM     92  O   UNL     1     -10.225  11.587 -13.182  1.00  0.00    -0.237 OA
ATOM     93  O   UNL     1     -11.718   9.732 -13.829  1.00  0.00    -0.744 OA
ENDBRANCH  86  90
ENDBRANCH  69  83
BRANCH  70  94
ATOM     94  C   UNL     1       1.887   8.652  -8.648  1.00  0.00     0.023 A 
ATOM     95  C   UNL     1       2.704   9.788  -8.541  1.00  0.00     0.031 A 
ATOM     96  C   UNL     1       2.380   7.438  -8.134  1.00  0.00     0.131 A 
ATOM     97  C   UNL     1       3.988   9.679  -7.982  1.00  0.00     0.055 A 
ATOM     98  C   UNL     1       3.634   7.347  -7.527  1.00  0.00     0.041 A 
ATOM     99  F   UNL     1       1.645   6.317  -8.216  1.00  0.00    -0.206 F 
ATOM    100  C   UNL     1       4.452   8.469  -7.461  1.00  0.00     0.022 A 
BRANCH  97 101
ATOM    101  S   UNL     1       5.085  11.123  -8.033  1.00  0.00     0.124 S 
ATOM    102  O   UNL     1       5.164  11.384  -9.465  1.00  0.00    -0.237 OA
ATOM    103  O   UNL     1       4.340  12.097  -7.242  1.00  0.00    -0.237 OA
ATOM    104  O   UNL     1       6.318  10.636  -7.417  1.00  0.00    -0.744 OA
ENDBRANCH  97 101
ENDBRANCH  70  94
BRANCH  82 105
ATOM    105  C   UNL     1       0.077  10.094 -15.241  1.00  0.00     0.023 A 
ATOM    106  C   UNL     1       1.016   9.265 -15.879  1.00  0.00     0.031 A 
ATOM    107  C   UNL     1      -0.133  11.383 -15.766  1.00  0.00     0.131 A 
ATOM    108  C   UNL     1       1.740   9.750 -16.980  1.00  0.00     0.055 A 
ATOM    109  C   UNL     1       0.547  11.837 -16.896  1.00  0.00     0.041 A 
ATOM    110  F   UNL     1      -1.017  12.217 -15.195  1.00  0.00    -0.206 F 
ATOM    111  C   UNL     1       1.498  11.023 -17.504  1.00  0.00     0.022 A 
BRANCH 108 112
ATOM    112  S   UNL     1       3.059   8.720 -17.681  1.00  0.00     0.124 S 
ATOM    113  O   UNL     1       3.948   8.546 -16.537  1.00  0.00    -0.237 OA
ATOM    114  O   UNL     1       2.332   7.529 -18.110  1.00  0.00    -0.237 OA
ATOM    115  O   UNL     1       3.596   9.540 -18.765  1.00  0.00    -0.744 OA
ENDBRANCH 108 112
ENDBRANCH  82 105
ENDBRANCH  56  57
ENDBRANCH  49  51
ENDBRANCH  48  49
ENDBRANCH  47  48
ENDBRANCH  46  47
ENDBRANCH  45  46
ENDBRANCH  44  45
ENDBRANCH  43  44
ENDBRANCH  42  43
ENDBRANCH   1  42
TORSDOF 29
