REMARK SMILES Nc1cc([N+](=O)[O-])ccc1[C@H]([NH3+])C(=O)OCCOCCOCCOCCOC(=O)c1ccc(-c2c3nc(c(-c4cc(S(=O)(=O)[O-])ccc4F)c4ccc([nH]4)c(-c4cc(S(=O)(=O)[O-])ccc4F)c4nc(c(-c5cc(S(=O)(=O)[O-])ccc5F)c5ccc2[nH]5)C=C4)C=C3)cc1
REMARK SMILES IDX 22 1 21 2 20 3 19 4 18 5 17 6 16 7 15 8 13 9 14 10 11 11
REMARK SMILES IDX 10 12 2 13 3 14 4 15 9 16 8 17 1 18 5 21 6 22 7 23 12 24
REMARK SMILES IDX 23 28 24 29 25 30 26 31 27 32 28 33 29 34 30 35 31 36 92 37
REMARK SMILES IDX 32 38 91 39 33 40 34 41 35 42 85 43 36 44 90 45 84 46 86 47
REMARK SMILES IDX 37 48 89 49 83 50 82 51 38 53 70 54 50 55 69 56 51 57 54 58
REMARK SMILES IDX 68 59 87 60 52 61 53 62 67 64 88 65 55 66 39 67 40 68 48 69
REMARK SMILES IDX 41 70 47 71 49 72 46 73 42 74 43 75 44 76 45 77 71 78 72 79
REMARK SMILES IDX 80 80 73 81 79 82 81 83 78 84 74 85 75 86 76 87 77 88 56 89
REMARK SMILES IDX 57 90 65 91 58 92 64 93 66 94 63 95 59 96 60 97 61 98 62 99
REMARK H PARENT 1 19 1 20 12 25 12 26 12 27 86 52 54 63
REMARK Flexibility Score: inf
ROOT
ATOM      1  C   UNL     1      -1.589   1.820   4.092  1.00  0.00     0.188 C 
ENDROOT
BRANCH   1   2
ATOM      2  O   UNL     1      -0.904   2.191   2.902  1.00  0.00    -0.377 OA
BRANCH   2   3
ATOM      3  C   UNL     1       0.392   1.656   2.751  1.00  0.00     0.188 C 
BRANCH   3   4
ATOM      4  C   UNL     1       1.529   2.638   3.074  1.00  0.00     0.188 C 
BRANCH   4   5
ATOM      5  O   UNL     1       1.313   3.888   3.720  1.00  0.00    -0.376 OA
BRANCH   5   6
ATOM      6  C   UNL     1       0.137   4.660   3.539  1.00  0.00     0.202 C 
BRANCH   6   7
ATOM      7  C   UNL     1      -0.363   5.099   2.154  1.00  0.00     0.261 C 
BRANCH   7   8
ATOM      8  O   UNL     1      -0.241   4.151   1.095  1.00  0.00    -0.459 OA
BRANCH   8   9
ATOM      9  C   UNL     1       0.951   4.161   0.442  1.00  0.00     0.369 C 
ATOM     10  O   UNL     1       1.874   4.931   0.700  1.00  0.00    -0.245 OA
BRANCH   9  11
ATOM     11  C   UNL     1       1.012   3.124  -0.714  1.00  0.00     0.325 C 
BRANCH  11  12
ATOM     12  C   UNL     1       0.695   3.739  -2.077  1.00  0.00     0.044 A 
ATOM     13  C   UNL     1       0.284   2.991  -3.205  1.00  0.00     0.048 A 
ATOM     14  C   UNL     1       0.069   3.650  -4.423  1.00  0.00     0.111 A 
ATOM     15  C   UNL     1       0.212   5.036  -4.525  1.00  0.00     0.271 A 
ATOM     16  C   UNL     1       0.873   5.136  -2.230  1.00  0.00     0.020 A 
ATOM     17  C   UNL     1       0.620   5.787  -3.431  1.00  0.00     0.086 A 
BRANCH  13  18
ATOM     18  N   UNL     1       0.227   1.600  -3.224  1.00  0.00    -0.398 N 
ATOM     19  H   UNL     1      -0.067   1.130  -4.038  1.00  0.00     0.156 HD
ATOM     20  H   UNL     1       0.480   1.085  -2.424  1.00  0.00     0.156 HD
ENDBRANCH  13  18
BRANCH  15  21
ATOM     21  N   UNL     1      -0.042   5.701  -5.802  1.00  0.00     0.062 N 
ATOM     22  O   UNL     1      -0.377   4.995  -6.764  1.00  0.00    -0.258 OA
ATOM     23  O   UNL     1       0.106   6.931  -5.851  1.00  0.00    -0.258 OA
ENDBRANCH  15  21
ENDBRANCH  11  12
BRANCH  11  24
ATOM     24  N   UNL     1       0.187   1.956  -0.384  1.00  0.00    -0.342 N 
ATOM     25  H   UNL     1      -0.786   2.245  -0.283  1.00  0.00     0.345 HD
ATOM     26  H   UNL     1       0.512   1.547   0.492  1.00  0.00     0.345 HD
ATOM     27  H   UNL     1       0.261   1.265  -1.130  1.00  0.00     0.345 HD
ENDBRANCH  11  24
ENDBRANCH   9  11
ENDBRANCH   8   9
ENDBRANCH   7   8
ENDBRANCH   6   7
ENDBRANCH   5   6
ENDBRANCH   4   5
ENDBRANCH   3   4
ENDBRANCH   2   3
ENDBRANCH   1   2
BRANCH   1  28
ATOM     28  C   UNL     1      -0.771   1.774   5.404  1.00  0.00     0.188 C 
BRANCH  28  29
ATOM     29  O   UNL     1       0.444   1.036   5.321  1.00  0.00    -0.376 OA
BRANCH  29  30
ATOM     30  C   UNL     1       0.462  -0.312   5.765  1.00  0.00     0.202 C 
BRANCH  30  31
ATOM     31  C   UNL     1      -0.390  -1.345   5.003  1.00  0.00     0.261 C 
BRANCH  31  32
ATOM     32  O   UNL     1      -1.795  -1.074   4.904  1.00  0.00    -0.460 OA
BRANCH  32  33
ATOM     33  C   UNL     1      -2.484  -0.923   6.055  1.00  0.00     0.338 C 
ATOM     34  O   UNL     1      -2.047  -1.062   7.186  1.00  0.00    -0.246 OA
BRANCH  33  35
ATOM     35  C   UNL     1      -3.801  -0.340   5.722  1.00  0.00     0.060 A 
ATOM     36  C   UNL     1      -4.163   0.883   6.303  1.00  0.00     0.016 A 
ATOM     37  C   UNL     1      -4.667  -0.984   4.835  1.00  0.00     0.016 A 
ATOM     38  C   UNL     1      -5.410   1.446   6.031  1.00  0.00     0.010 A 
ATOM     39  C   UNL     1      -5.928  -0.434   4.586  1.00  0.00     0.010 A 
ATOM     40  C   UNL     1      -6.318   0.763   5.214  1.00  0.00    -0.014 A 
BRANCH  40  41
ATOM     41  C   UNL     1      -7.744   1.174   5.214  1.00  0.00     0.031 A 
ATOM     42  C   UNL     1      -8.692   0.427   6.112  1.00  0.00     0.074 A 
ATOM     43  C   UNL     1      -8.185   2.200   4.466  1.00  0.00     0.049 A 
ATOM     44  N   UNL     1      -9.986   0.550   6.247  1.00  0.00    -0.248 NA
ATOM     45  C   UNL     1      -8.089  -0.607   6.966  1.00  0.00     0.031 C 
ATOM     46  C   UNL     1      -7.353   3.030   3.599  1.00  0.00     0.029 A 
ATOM     47  N   UNL     1      -9.450   2.709   4.312  1.00  0.00    -0.354 N 
ATOM     48  C   UNL     1     -10.355  -0.394   7.201  1.00  0.00     0.074 A 
ATOM     49  C   UNL     1      -9.153  -1.114   7.565  1.00  0.00     0.031 C 
ATOM     50  C   UNL     1      -8.136   3.934   2.985  1.00  0.00     0.029 A 
ATOM     51  C   UNL     1      -9.527   3.719   3.383  1.00  0.00     0.049 A 
ATOM     52  H   UNL     1     -10.229   2.382   4.819  1.00  0.00     0.167 HD
ATOM     53  C   UNL     1     -11.579  -0.628   7.735  1.00  0.00     0.034 A 
ATOM     54  C   UNL     1     -10.600   4.366   2.884  1.00  0.00     0.034 A 
ATOM     55  C   UNL     1     -12.770   0.082   7.336  1.00  0.00     0.049 A 
ATOM     56  C   UNL     1     -11.975   4.020   3.407  1.00  0.00     0.074 A 
ATOM     57  C   UNL     1     -14.063  -0.071   7.803  1.00  0.00     0.029 A 
ATOM     58  N   UNL     1     -12.818   1.067   6.356  1.00  0.00    -0.354 N 
ATOM     59  N   UNL     1     -12.316   3.129   4.311  1.00  0.00    -0.248 NA
ATOM     60  C   UNL     1     -13.105   4.773   2.849  1.00  0.00     0.031 C 
ATOM     61  C   UNL     1     -14.903   0.755   7.048  1.00  0.00     0.029 A 
ATOM     62  C   UNL     1     -14.123   1.500   6.176  1.00  0.00     0.049 A 
ATOM     63  H   UNL     1     -12.038   1.408   5.861  1.00  0.00     0.167 HD
ATOM     64  C   UNL     1     -13.700   3.236   4.449  1.00  0.00     0.074 A 
ATOM     65  C   UNL     1     -14.123   4.285   3.544  1.00  0.00     0.031 C 
ATOM     66  C   UNL     1     -14.540   2.536   5.256  1.00  0.00     0.034 A 
BRANCH  53  67
ATOM     67  C   UNL     1     -11.681  -1.741   8.753  1.00  0.00     0.023 A 
ATOM     68  C   UNL     1     -10.954  -1.710   9.957  1.00  0.00     0.031 A 
ATOM     69  C   UNL     1     -12.454  -2.885   8.484  1.00  0.00     0.131 A 
ATOM     70  C   UNL     1     -10.929  -2.839  10.790  1.00  0.00     0.055 A 
ATOM     71  C   UNL     1     -12.506  -3.964   9.369  1.00  0.00     0.041 A 
ATOM     72  F   UNL     1     -13.149  -2.988   7.341  1.00  0.00    -0.206 F 
ATOM     73  C   UNL     1     -11.722  -3.955  10.519  1.00  0.00     0.022 A 
BRANCH  70  74
ATOM     74  S   UNL     1      -9.692  -2.904  12.116  1.00  0.00     0.124 S 
ATOM     75  O   UNL     1      -8.451  -2.702  11.371  1.00  0.00    -0.237 OA
ATOM     76  O   UNL     1     -10.102  -1.807  12.984  1.00  0.00    -0.237 OA
ATOM     77  O   UNL     1      -9.860  -4.243  12.676  1.00  0.00    -0.744 OA
ENDBRANCH  70  74
ENDBRANCH  53  67
BRANCH  54  78
ATOM     78  C   UNL     1     -10.424   5.363   1.789  1.00  0.00     0.023 A 
ATOM     79  C   UNL     1     -10.731   6.720   1.972  1.00  0.00     0.031 A 
ATOM     80  C   UNL     1      -9.960   4.957   0.523  1.00  0.00     0.131 A 
ATOM     81  C   UNL     1     -10.597   7.617   0.899  1.00  0.00     0.055 A 
ATOM     82  C   UNL     1      -9.779   5.861  -0.523  1.00  0.00     0.041 A 
ATOM     83  F   UNL     1      -9.658   3.669   0.293  1.00  0.00    -0.206 F 
ATOM     84  C   UNL     1     -10.106   7.200  -0.341  1.00  0.00     0.022 A 
BRANCH  81  85
ATOM     85  S   UNL     1     -11.135   9.335   1.126  1.00  0.00     0.124 S 
ATOM     86  O   UNL     1     -12.547   9.164   1.446  1.00  0.00    -0.237 OA
ATOM     87  O   UNL     1     -10.277   9.779   2.220  1.00  0.00    -0.237 OA
ATOM     88  O   UNL     1     -10.858   9.952  -0.169  1.00  0.00    -0.744 OA
ENDBRANCH  81  85
ENDBRANCH  54  78
BRANCH  66  89
ATOM     89  C   UNL     1     -16.003   2.917   5.232  1.00  0.00     0.023 A 
ATOM     90  C   UNL     1     -16.802   2.739   4.088  1.00  0.00     0.031 A 
ATOM     91  C   UNL     1     -16.608   3.467   6.377  1.00  0.00     0.131 A 
ATOM     92  C   UNL     1     -18.142   3.159   4.098  1.00  0.00     0.055 A 
ATOM     93  C   UNL     1     -17.959   3.817   6.403  1.00  0.00     0.041 A 
ATOM     94  F   UNL     1     -15.896   3.666   7.498  1.00  0.00    -0.206 F 
ATOM     95  C   UNL     1     -18.731   3.677   5.254  1.00  0.00     0.022 A 
BRANCH  92  96
ATOM     96  S   UNL     1     -19.080   3.120   2.545  1.00  0.00     0.124 S 
ATOM     97  O   UNL     1     -18.259   3.956   1.675  1.00  0.00    -0.237 OA
ATOM     98  O   UNL     1     -19.099   1.696   2.228  1.00  0.00    -0.237 OA
ATOM     99  O   UNL     1     -20.375   3.690   2.912  1.00  0.00    -0.744 OA
ENDBRANCH  92  96
ENDBRANCH  66  89
ENDBRANCH  40  41
ENDBRANCH  33  35
ENDBRANCH  32  33
ENDBRANCH  31  32
ENDBRANCH  30  31
ENDBRANCH  29  30
ENDBRANCH  28  29
ENDBRANCH   1  28
TORSDOF 27
