REMARK SMILES Nc1nccc(N2CCC[C@@](Cc3ccc(F)cc3F)(C(=O)OCCOCCOCCOCCOC(=O)c3ccc(-c4c5nc(c(-c6cc(S(=O)(=O)[O-])ccc6F)c6ccc([nH]6)c(-c6cc(S(=O)(=O)[O-])ccc6F)c6nc(c(-c7cc(S(=O)(=O)[O-])ccc7F)c7ccc4[nH]7)C=C6)C=C5)cc3)C2)n1
REMARK SMILES IDX 30 1 29 2 28 3 27 4 26 5 25 6 24 7 23 8 21 9 22 10 11 11
REMARK SMILES IDX 7 12 8 13 101 14 9 15 10 16 6 17 2 18 3 19 102 20 4 21 5 22
REMARK SMILES IDX 1 23 12 26 13 27 14 28 19 29 15 30 18 31 20 32 16 33 17 34
REMARK SMILES IDX 31 35 32 36 33 37 34 38 35 39 36 40 37 41 38 42 39 43 100 44
REMARK SMILES IDX 40 45 99 46 41 47 42 48 43 49 93 50 44 51 98 52 92 53 94 54
REMARK SMILES IDX 45 55 97 56 91 57 90 58 46 60 78 61 58 62 77 63 59 64 62 65
REMARK SMILES IDX 76 66 95 67 60 68 61 69 75 71 96 72 63 73 47 74 48 75 56 76
REMARK SMILES IDX 49 77 55 78 57 79 54 80 50 81 51 82 52 83 53 84 79 85 80 86
REMARK SMILES IDX 88 87 81 88 87 89 89 90 86 91 82 92 83 93 84 94 85 95 64 96
REMARK SMILES IDX 65 97 73 98 66 99 72 100 74 101 71 102 67 103 68 104 69 105
REMARK SMILES IDX 70 106
REMARK H PARENT 1 24 1 25 94 59 62 70
REMARK Flexibility Score: inf
ROOT
ATOM      1  C   UNL     1       3.054  -8.489  -2.534  1.00  0.00     0.188 C 
ENDROOT
BRANCH   1   2
ATOM      2  O   UNL     1       2.852  -7.138  -2.135  1.00  0.00    -0.377 OA
BRANCH   2   3
ATOM      3  C   UNL     1       1.569  -6.714  -1.727  1.00  0.00     0.188 C 
BRANCH   3   4
ATOM      4  C   UNL     1       0.567  -6.353  -2.829  1.00  0.00     0.188 C 
BRANCH   4   5
ATOM      5  O   UNL     1       0.656  -6.955  -4.101  1.00  0.00    -0.376 OA
BRANCH   5   6
ATOM      6  C   UNL     1       1.763  -6.760  -4.965  1.00  0.00     0.202 C 
BRANCH   6   7
ATOM      7  C   UNL     1       2.757  -5.589  -4.907  1.00  0.00     0.261 C 
BRANCH   7   8
ATOM      8  O   UNL     1       3.143  -5.088  -3.619  1.00  0.00    -0.463 OA
BRANCH   8   9
ATOM      9  C   UNL     1       2.611  -3.891  -3.301  1.00  0.00     0.314 C 
ATOM     10  O   UNL     1       1.796  -3.312  -4.019  1.00  0.00    -0.252 OA
BRANCH   9  11
ATOM     11  C   UNL     1       3.143  -3.248  -2.019  1.00  0.00     0.090 C 
ATOM     12  N   UNL     1       2.119  -2.080  -0.120  1.00  0.00    -0.355 N 
ATOM     13  C   UNL     1       2.697  -2.885   0.936  1.00  0.00     0.118 C 
ATOM     14  C   UNL     1       1.828  -2.749  -1.372  1.00  0.00     0.137 C 
ATOM     15  C   UNL     1       4.033  -3.423   0.416  1.00  0.00     0.023 C 
ATOM     16  C   UNL     1       3.903  -4.111  -0.963  1.00  0.00     0.023 C 
BRANCH  12  17
ATOM     17  C   UNL     1       1.301  -1.003   0.168  1.00  0.00     0.134 A 
ATOM     18  C   UNL     1      -0.764  -0.017   0.164  1.00  0.00     0.221 A 
ATOM     19  N   UNL     1      -0.265   1.219   0.259  1.00  0.00    -0.222 NA
ATOM     20  N   UNL     1      -0.036  -1.136   0.101  1.00  0.00    -0.196 NA
ATOM     21  C   UNL     1       1.073   1.313   0.321  1.00  0.00     0.119 A 
ATOM     22  C   UNL     1       1.906   0.227   0.303  1.00  0.00     0.067 A 
BRANCH  18  23
ATOM     23  N   UNL     1      -2.123  -0.132   0.089  1.00  0.00    -0.368 N 
ATOM     24  H   UNL     1      -2.688   0.674   0.133  1.00  0.00     0.159 HD
ATOM     25  H   UNL     1      -2.537  -1.019  -0.008  1.00  0.00     0.159 HD
ENDBRANCH  18  23
ENDBRANCH  12  17
BRANCH  11  26
ATOM     26  C   UNL     1       4.039  -2.062  -2.504  1.00  0.00     0.059 C 
BRANCH  26  27
ATOM     27  C   UNL     1       5.359  -2.524  -3.102  1.00  0.00    -0.011 A 
ATOM     28  C   UNL     1       5.409  -3.124  -4.371  1.00  0.00     0.010 A 
ATOM     29  C   UNL     1       6.535  -2.491  -2.339  1.00  0.00     0.129 A 
ATOM     30  C   UNL     1       6.566  -3.774  -4.801  1.00  0.00     0.040 A 
ATOM     31  C   UNL     1       7.700  -3.113  -2.772  1.00  0.00     0.078 A 
ATOM     32  F   UNL     1       6.533  -1.900  -1.136  1.00  0.00    -0.207 F 
ATOM     33  C   UNL     1       7.695  -3.773  -3.992  1.00  0.00     0.126 A 
ATOM     34  F   UNL     1       8.793  -4.424  -4.393  1.00  0.00    -0.207 F 
ENDBRANCH  26  27
ENDBRANCH  11  26
ENDBRANCH   9  11
ENDBRANCH   8   9
ENDBRANCH   7   8
ENDBRANCH   6   7
ENDBRANCH   5   6
ENDBRANCH   4   5
ENDBRANCH   3   4
ENDBRANCH   2   3
ENDBRANCH   1   2
BRANCH   1  35
ATOM     35  C   UNL     1       1.853  -9.444  -2.679  1.00  0.00     0.188 C 
BRANCH  35  36
ATOM     36  O   UNL     1       0.835  -9.272  -1.708  1.00  0.00    -0.376 OA
BRANCH  36  37
ATOM     37  C   UNL     1       0.892 -10.037  -0.513  1.00  0.00     0.202 C 
BRANCH  37  38
ATOM     38  C   UNL     1       2.145  -9.924   0.372  1.00  0.00     0.261 C 
BRANCH  38  39
ATOM     39  O   UNL     1       3.393 -10.342  -0.206  1.00  0.00    -0.460 OA
BRANCH  39  40
ATOM     40  C   UNL     1       3.460 -11.572  -0.767  1.00  0.00     0.338 C 
ATOM     41  O   UNL     1       2.594 -12.419  -0.775  1.00  0.00    -0.246 OA
BRANCH  40  42
ATOM     42  C   UNL     1       4.710 -11.628  -1.558  1.00  0.00     0.060 A 
ATOM     43  C   UNL     1       4.631 -11.845  -2.940  1.00  0.00     0.016 A 
ATOM     44  C   UNL     1       5.950 -11.475  -0.936  1.00  0.00     0.016 A 
ATOM     45  C   UNL     1       5.796 -11.947  -3.699  1.00  0.00     0.010 A 
ATOM     46  C   UNL     1       7.117 -11.601  -1.694  1.00  0.00     0.010 A 
ATOM     47  C   UNL     1       7.046 -11.873  -3.072  1.00  0.00    -0.014 A 
BRANCH  47  48
ATOM     48  C   UNL     1       8.264 -12.291  -3.810  1.00  0.00     0.031 A 
ATOM     49  C   UNL     1       8.785 -13.684  -3.587  1.00  0.00     0.074 A 
ATOM     50  C   UNL     1       8.882 -11.466  -4.672  1.00  0.00     0.049 A 
ATOM     51  N   UNL     1       9.868 -14.254  -4.046  1.00  0.00    -0.248 NA
ATOM     52  C   UNL     1       7.970 -14.546  -2.718  1.00  0.00     0.031 C 
ATOM     53  C   UNL     1       8.442 -10.114  -5.008  1.00  0.00     0.029 A 
ATOM     54  N   UNL     1      10.025 -11.644  -5.412  1.00  0.00    -0.354 N 
ATOM     55  C   UNL     1       9.868 -15.542  -3.520  1.00  0.00     0.074 A 
ATOM     56  C   UNL     1       8.703 -15.647  -2.668  1.00  0.00     0.031 C 
ATOM     57  C   UNL     1       9.320  -9.574  -5.872  1.00  0.00     0.029 A 
ATOM     58  C   UNL     1      10.405 -10.525  -6.114  1.00  0.00     0.049 A 
ATOM     59  H   UNL     1      10.524 -12.492  -5.437  1.00  0.00     0.167 HD
ATOM     60  C   UNL     1      10.752 -16.547  -3.737  1.00  0.00     0.034 A 
ATOM     61  C   UNL     1      11.520 -10.283  -6.835  1.00  0.00     0.034 A 
ATOM     62  C   UNL     1      11.923 -16.413  -4.569  1.00  0.00     0.049 A 
ATOM     63  C   UNL     1      12.553 -11.377  -6.978  1.00  0.00     0.074 A 
ATOM     64  C   UNL     1      12.888 -17.361  -4.859  1.00  0.00     0.029 A 
ATOM     65  N   UNL     1      12.300 -15.250  -5.230  1.00  0.00    -0.354 N 
ATOM     66  N   UNL     1      12.545 -12.593  -6.479  1.00  0.00    -0.248 NA
ATOM     67  C   UNL     1      13.740 -11.068  -7.785  1.00  0.00     0.031 C 
ATOM     68  C   UNL     1      13.889 -16.749  -5.622  1.00  0.00     0.029 A 
ATOM     69  C   UNL     1      13.503 -15.445  -5.893  1.00  0.00     0.049 A 
ATOM     70  H   UNL     1      11.788 -14.409  -5.229  1.00  0.00     0.167 HD
ATOM     71  C   UNL     1      13.713 -13.201  -6.937  1.00  0.00     0.074 A 
ATOM     72  C   UNL     1      14.390 -12.223  -7.763  1.00  0.00     0.031 C 
ATOM     73  C   UNL     1      14.179 -14.455  -6.702  1.00  0.00     0.034 A 
BRANCH  60  74
ATOM     74  C   UNL     1      10.505 -17.849  -3.011  1.00  0.00     0.023 A 
ATOM     75  C   UNL     1       9.334 -18.601  -3.218  1.00  0.00     0.031 A 
ATOM     76  C   UNL     1      11.421 -18.316  -2.052  1.00  0.00     0.131 A 
ATOM     77  C   UNL     1       9.067 -19.718  -2.414  1.00  0.00     0.055 A 
ATOM     78  C   UNL     1      11.194 -19.485  -1.323  1.00  0.00     0.041 A 
ATOM     79  F   UNL     1      12.545 -17.631  -1.789  1.00  0.00    -0.206 F 
ATOM     80  C   UNL     1      10.002 -20.183  -1.486  1.00  0.00     0.022 A 
BRANCH  77  81
ATOM     81  S   UNL     1       7.403 -20.441  -2.466  1.00  0.00     0.124 S 
ATOM     82  O   UNL     1       6.570 -19.287  -2.135  1.00  0.00    -0.237 OA
ATOM     83  O   UNL     1       7.312 -20.922  -3.840  1.00  0.00    -0.237 OA
ATOM     84  O   UNL     1       7.449 -21.481  -1.440  1.00  0.00    -0.744 OA
ENDBRANCH  77  81
ENDBRANCH  60  74
BRANCH  61  85
ATOM     85  C   UNL     1      11.751  -8.931  -7.423  1.00  0.00     0.023 A 
ATOM     86  C   UNL     1      11.843  -8.738  -8.811  1.00  0.00     0.031 A 
ATOM     87  C   UNL     1      11.921  -7.809  -6.591  1.00  0.00     0.131 A 
ATOM     88  C   UNL     1      12.132  -7.462  -9.322  1.00  0.00     0.055 A 
ATOM     89  C   UNL     1      12.150  -6.532  -7.106  1.00  0.00     0.041 A 
ATOM     90  F   UNL     1      11.853  -7.938  -5.256  1.00  0.00    -0.206 F 
ATOM     91  C   UNL     1      12.269  -6.356  -8.480  1.00  0.00     0.022 A 
BRANCH  88  92
ATOM     92  S   UNL     1      12.406  -7.280 -11.106  1.00  0.00     0.124 S 
ATOM     93  O   UNL     1      13.526  -8.187 -11.329  1.00  0.00    -0.237 OA
ATOM     94  O   UNL     1      11.120  -7.700 -11.654  1.00  0.00    -0.237 OA
ATOM     95  O   UNL     1      12.712  -5.859 -11.261  1.00  0.00    -0.744 OA
ENDBRANCH  88  92
ENDBRANCH  61  85
BRANCH  73  96
ATOM     96  C   UNL     1      15.466 -14.857  -7.386  1.00  0.00     0.023 A 
ATOM     97  C   UNL     1      16.695 -14.245  -7.083  1.00  0.00     0.031 A 
ATOM     98  C   UNL     1      15.461 -15.874  -8.359  1.00  0.00     0.131 A 
ATOM     99  C   UNL     1      17.854 -14.614  -7.783  1.00  0.00     0.055 A 
ATOM    100  C   UNL     1      16.629 -16.286  -9.002  1.00  0.00     0.041 A 
ATOM    101  F   UNL     1      14.317 -16.492  -8.696  1.00  0.00    -0.206 F 
ATOM    102  C   UNL     1      17.832 -15.646  -8.726  1.00  0.00     0.022 A 
BRANCH  99 103
ATOM    103  S   UNL     1      19.373 -13.659  -7.521  1.00  0.00     0.124 S 
ATOM    104  O   UNL     1      18.948 -12.310  -7.877  1.00  0.00    -0.237 OA
ATOM    105  O   UNL     1      19.648 -13.890  -6.107  1.00  0.00    -0.237 OA
ATOM    106  O   UNL     1      20.327 -14.272  -8.445  1.00  0.00    -0.744 OA
ENDBRANCH  99 103
ENDBRANCH  73  96
ENDBRANCH  47  48
ENDBRANCH  40  42
ENDBRANCH  39  40
ENDBRANCH  38  39
ENDBRANCH  37  38
ENDBRANCH  36  37
ENDBRANCH  35  36
ENDBRANCH   1  35
TORSDOF 27
