REMARK SMILES O=C(OCCOCCOCCOCCOC(=O)[C@@H](Cc1ccccc1)N1C(=O)/C(=C/c2ccc3ncccc3c2)SC1=S)c1ccc(-c2c3nc(c(-c4cc(S(=O)(=O)[O-])ccc4F)c4ccc([nH]4)c(-c4cc(S(=O)(=O)[O-])ccc4F)c4nc(c(-c5cc(S(=O)(=O)[O-])ccc5F)c5ccc2[nH]5)C=C4)C=C3)cc1
REMARK SMILES IDX 8 1 7 2 6 3 5 4 4 5 3 6 2 7 1 8 44 9 45 10 106 11 46 12
REMARK SMILES IDX 105 13 47 14 48 15 49 16 99 17 50 18 104 19 98 20 100 21
REMARK SMILES IDX 51 22 103 23 97 24 96 25 52 27 84 28 64 29 83 30 65 31 68 32
REMARK SMILES IDX 82 33 101 34 66 35 67 36 81 38 102 39 69 40 53 41 54 42
REMARK SMILES IDX 62 43 55 44 61 45 63 46 60 47 56 48 57 49 58 50 59 51 85 52
REMARK SMILES IDX 86 53 94 54 87 55 93 56 95 57 92 58 88 59 89 60 90 61 91 62
REMARK SMILES IDX 70 63 71 64 79 65 72 66 78 67 80 68 77 69 73 70 74 71 75 72
REMARK SMILES IDX 76 73 9 74 10 75 11 76 12 77 13 78 14 79 15 80 16 81 17 82
REMARK SMILES IDX 18 83 19 84 20 85 21 86 25 87 22 88 24 89 23 90 26 91 27 92
REMARK SMILES IDX 42 93 28 94 29 95 41 96 43 97 30 98 31 99 32 100 40 101
REMARK SMILES IDX 33 102 39 103 34 104 38 105 35 106 37 107 36 108
REMARK H PARENT 100 26 68 37
REMARK Flexibility Score: inf
ROOT
ATOM      1  C   UNL     1       2.271  -2.145   1.523  1.00  0.00     0.188 C 
ENDROOT
BRANCH   1   2
ATOM      2  C   UNL     1       2.551  -0.692   1.224  1.00  0.00     0.188 C 
BRANCH   2   3
ATOM      3  O   UNL     1       3.828  -0.633   0.625  1.00  0.00    -0.376 OA
BRANCH   3   4
ATOM      4  C   UNL     1       4.670   0.462   0.934  1.00  0.00     0.202 C 
BRANCH   4   5
ATOM      5  C   UNL     1       4.154   1.817   0.476  1.00  0.00     0.261 C 
BRANCH   5   6
ATOM      6  O   UNL     1       2.783   1.845   0.033  1.00  0.00    -0.460 OA
BRANCH   6   7
ATOM      7  C   UNL     1       2.207   1.512  -1.146  1.00  0.00     0.338 C 
ATOM      8  O   UNL     1       1.012   1.770  -1.293  1.00  0.00    -0.246 OA
BRANCH   7   9
ATOM      9  C   UNL     1       2.895   0.814  -2.272  1.00  0.00     0.060 A 
ATOM     10  C   UNL     1       3.962  -0.065  -2.132  1.00  0.00     0.016 A 
ATOM     11  C   UNL     1       2.350   0.957  -3.557  1.00  0.00     0.016 A 
ATOM     12  C   UNL     1       4.514  -0.751  -3.189  1.00  0.00     0.010 A 
ATOM     13  C   UNL     1       2.892   0.267  -4.648  1.00  0.00     0.010 A 
ATOM     14  C   UNL     1       3.993  -0.574  -4.455  1.00  0.00    -0.014 A 
BRANCH  14  15
ATOM     15  C   UNL     1       4.811  -1.102  -5.550  1.00  0.00     0.031 A 
ATOM     16  C   UNL     1       5.667  -0.116  -6.277  1.00  0.00     0.074 A 
ATOM     17  C   UNL     1       4.942  -2.430  -5.706  1.00  0.00     0.049 A 
ATOM     18  N   UNL     1       6.395  -0.277  -7.342  1.00  0.00    -0.248 NA
ATOM     19  C   UNL     1       5.719   1.245  -5.708  1.00  0.00     0.031 C 
ATOM     20  C   UNL     1       4.322  -3.448  -4.848  1.00  0.00     0.029 A 
ATOM     21  N   UNL     1       5.664  -3.155  -6.609  1.00  0.00    -0.354 N 
ATOM     22  C   UNL     1       6.944   0.971  -7.606  1.00  0.00     0.074 A 
ATOM     23  C   UNL     1       6.479   1.878  -6.584  1.00  0.00     0.031 C 
ATOM     24  C   UNL     1       4.690  -4.666  -5.277  1.00  0.00     0.029 A 
ATOM     25  C   UNL     1       5.477  -4.512  -6.492  1.00  0.00     0.049 A 
ATOM     26  H   UNL     1       6.260  -2.746  -7.278  1.00  0.00     0.167 HD
ATOM     27  C   UNL     1       7.744   1.312  -8.642  1.00  0.00     0.034 A 
ATOM     28  C   UNL     1       5.845  -5.497  -7.332  1.00  0.00     0.034 A 
ATOM     29  C   UNL     1       8.152   0.347  -9.628  1.00  0.00     0.049 A 
ATOM     30  C   UNL     1       6.596  -5.074  -8.572  1.00  0.00     0.074 A 
ATOM     31  C   UNL     1       8.869   0.539 -10.790  1.00  0.00     0.029 A 
ATOM     32  N   UNL     1       7.856  -1.014  -9.555  1.00  0.00    -0.354 N 
ATOM     33  N   UNL     1       7.010  -3.872  -8.913  1.00  0.00    -0.248 NA
ATOM     34  C   UNL     1       6.913  -6.121  -9.546  1.00  0.00     0.031 C 
ATOM     35  C   UNL     1       8.938  -0.690 -11.457  1.00  0.00     0.029 A 
ATOM     36  C   UNL     1       8.344  -1.668 -10.668  1.00  0.00     0.049 A 
ATOM     37  H   UNL     1       7.370  -1.445  -8.815  1.00  0.00     0.167 HD
ATOM     38  C   UNL     1       7.656  -4.021 -10.134  1.00  0.00     0.074 A 
ATOM     39  C   UNL     1       7.592  -5.436 -10.455  1.00  0.00     0.031 C 
ATOM     40  C   UNL     1       8.246  -3.088 -10.926  1.00  0.00     0.034 A 
BRANCH  27  41
ATOM     41  C   UNL     1       8.064   2.775  -8.802  1.00  0.00     0.023 A 
ATOM     42  C   UNL     1       8.808   3.492  -7.848  1.00  0.00     0.031 A 
ATOM     43  C   UNL     1       7.496   3.494  -9.869  1.00  0.00     0.131 A 
ATOM     44  C   UNL     1       8.889   4.892  -7.934  1.00  0.00     0.055 A 
ATOM     45  C   UNL     1       7.654   4.875  -9.996  1.00  0.00     0.041 A 
ATOM     46  F   UNL     1       6.737   2.872 -10.785  1.00  0.00    -0.206 F 
ATOM     47  C   UNL     1       8.339   5.585  -9.015  1.00  0.00     0.022 A 
BRANCH  44  48
ATOM     48  S   UNL     1       9.566   5.812  -6.522  1.00  0.00     0.124 S 
ATOM     49  O   UNL     1       8.635   5.446  -5.458  1.00  0.00    -0.237 OA
ATOM     50  O   UNL     1      10.914   5.267  -6.405  1.00  0.00    -0.237 OA
ATOM     51  O   UNL     1       9.492   7.207  -6.953  1.00  0.00    -0.744 OA
ENDBRANCH  44  48
ENDBRANCH  27  41
BRANCH  28  52
ATOM     52  C   UNL     1       5.415  -6.909  -7.107  1.00  0.00     0.023 A 
ATOM     53  C   UNL     1       6.347  -7.955  -7.027  1.00  0.00     0.031 A 
ATOM     54  C   UNL     1       4.049  -7.250  -7.034  1.00  0.00     0.131 A 
ATOM     55  C   UNL     1       5.905  -9.285  -6.930  1.00  0.00     0.055 A 
ATOM     56  C   UNL     1       3.616  -8.567  -6.872  1.00  0.00     0.041 A 
ATOM     57  F   UNL     1       3.103  -6.300  -7.119  1.00  0.00    -0.206 F 
ATOM     58  C   UNL     1       4.547  -9.597  -6.837  1.00  0.00     0.022 A 
BRANCH  55  59
ATOM     59  S   UNL     1       7.130 -10.618  -7.045  1.00  0.00     0.124 S 
ATOM     60  O   UNL     1       7.779 -10.315  -8.315  1.00  0.00    -0.237 OA
ATOM     61  O   UNL     1       7.931 -10.397  -5.845  1.00  0.00    -0.237 OA
ATOM     62  O   UNL     1       6.315 -11.831  -7.034  1.00  0.00    -0.744 OA
ENDBRANCH  55  59
ENDBRANCH  28  52
BRANCH  40  63
ATOM     63  C   UNL     1       8.904  -3.595 -12.179  1.00  0.00     0.023 A 
ATOM     64  C   UNL     1       8.153  -4.113 -13.245  1.00  0.00     0.031 A 
ATOM     65  C   UNL     1      10.302  -3.530 -12.309  1.00  0.00     0.131 A 
ATOM     66  C   UNL     1       8.811  -4.595 -14.382  1.00  0.00     0.055 A 
ATOM     67  C   UNL     1      10.945  -3.945 -13.473  1.00  0.00     0.041 A 
ATOM     68  F   UNL     1      11.060  -3.043 -11.314  1.00  0.00    -0.206 F 
ATOM     69  C   UNL     1      10.200  -4.492 -14.513  1.00  0.00     0.022 A 
BRANCH  66  70
ATOM     70  S   UNL     1       7.834  -5.436 -15.654  1.00  0.00     0.124 S 
ATOM     71  O   UNL     1       7.257  -6.548 -14.905  1.00  0.00    -0.237 OA
ATOM     72  O   UNL     1       6.900  -4.396 -16.072  1.00  0.00    -0.237 OA
ATOM     73  O   UNL     1       8.830  -5.813 -16.655  1.00  0.00    -0.744 OA
ENDBRANCH  66  70
ENDBRANCH  40  63
ENDBRANCH  14  15
ENDBRANCH   7   9
ENDBRANCH   6   7
ENDBRANCH   5   6
ENDBRANCH   4   5
ENDBRANCH   3   4
ENDBRANCH   2   3
ENDBRANCH   1   2
BRANCH   1  74
ATOM     74  O   UNL     1       3.255  -2.764   2.338  1.00  0.00    -0.377 OA
BRANCH  74  75
ATOM     75  C   UNL     1       4.616  -2.810   1.932  1.00  0.00     0.188 C 
BRANCH  75  76
ATOM     76  C   UNL     1       5.028  -3.699   0.765  1.00  0.00     0.188 C 
BRANCH  76  77
ATOM     77  O   UNL     1       4.011  -4.101  -0.114  1.00  0.00    -0.376 OA
BRANCH  77  78
ATOM     78  C   UNL     1       3.075  -5.103   0.259  1.00  0.00     0.202 C 
BRANCH  78  79
ATOM     79  C   UNL     1       3.077  -5.906   1.581  1.00  0.00     0.261 C 
BRANCH  79  80
ATOM     80  O   UNL     1       3.167  -5.189   2.840  1.00  0.00    -0.462 OA
BRANCH  80  81
ATOM     81  C   UNL     1       4.304  -5.390   3.552  1.00  0.00     0.329 C 
ATOM     82  O   UNL     1       5.149  -6.193   3.161  1.00  0.00    -0.250 OA
BRANCH  81  83
ATOM     83  C   UNL     1       4.493  -4.604   4.919  1.00  0.00     0.206 C 
BRANCH  83  84
ATOM     84  C   UNL     1       3.816  -3.231   5.132  1.00  0.00     0.073 C 
BRANCH  84  85
ATOM     85  C   UNL     1       2.317  -3.038   5.093  1.00  0.00    -0.045 A 
ATOM     86  C   UNL     1       1.831  -1.715   5.078  1.00  0.00     0.004 A 
ATOM     87  C   UNL     1       1.393  -4.085   5.038  1.00  0.00     0.004 A 
ATOM     88  C   UNL     1       0.467  -1.449   4.968  1.00  0.00     0.000 A 
ATOM     89  C   UNL     1       0.026  -3.818   4.929  1.00  0.00     0.000 A 
ATOM     90  C   UNL     1      -0.436  -2.504   4.886  1.00  0.00     0.000 A 
ENDBRANCH  84  85
ENDBRANCH  83  84
BRANCH  83  91
ATOM     91  N   UNL     1       4.439  -5.579   6.041  1.00  0.00    -0.278 N 
ATOM     92  C   UNL     1       5.285  -6.676   5.926  1.00  0.00     0.267 C 
ATOM     93  C   UNL     1       3.912  -5.476   7.314  1.00  0.00     0.149 C 
ATOM     94  O   UNL     1       6.366  -6.736   5.370  1.00  0.00    -0.268 OA
ATOM     95  C   UNL     1       4.737  -7.763   6.742  1.00  0.00     0.081 C 
ATOM     96  S   UNL     1       3.937  -7.066   8.085  1.00  0.00    -0.054 SA
ATOM     97  S   UNL     1       3.344  -4.190   8.207  1.00  0.00    -0.052 S 
ATOM     98  C   UNL     1       4.777  -9.042   6.353  1.00  0.00     0.029 C 
BRANCH  98  99
ATOM     99  C   UNL     1       4.135 -10.077   7.156  1.00  0.00    -0.024 A 
ATOM    100  C   UNL     1       4.931 -10.926   7.916  1.00  0.00     0.010 A 
ATOM    101  C   UNL     1       2.747 -10.075   7.335  1.00  0.00     0.018 A 
ATOM    102  C   UNL     1       4.345 -11.713   8.909  1.00  0.00     0.029 A 
ATOM    103  C   UNL     1       2.175 -10.822   8.372  1.00  0.00     0.001 A 
ATOM    104  C   UNL     1       2.984 -11.652   9.178  1.00  0.00     0.070 A 
ATOM    105  C   UNL     1       0.814 -10.716   8.679  1.00  0.00     0.012 A 
ATOM    106  N   UNL     1       2.484 -12.348  10.212  1.00  0.00    -0.256 NA
ATOM    107  C   UNL     1       0.301 -11.415   9.762  1.00  0.00     0.021 A 
ATOM    108  C   UNL     1       1.168 -12.211  10.488  1.00  0.00     0.112 A 
ENDBRANCH  98  99
ENDBRANCH  83  91
ENDBRANCH  81  83
ENDBRANCH  80  81
ENDBRANCH  79  80
ENDBRANCH  78  79
ENDBRANCH  77  78
ENDBRANCH  76  77
ENDBRANCH  75  76
ENDBRANCH  74  75
ENDBRANCH   1  74
TORSDOF 27
