REMARK SMILES O=C(OCCOCCOCCOCCOC(=O)[C@@H]1CCCC[C@@H]1C(=O)Nc1cccc(Br)c1)c1ccc(-c2c3nc(c(-c4cc(S(=O)(=O)[O-])ccc4F)c4ccc([nH]4)c(-c4cc(S(=O)(=O)[O-])ccc4F)c4nc(c(-c5cc(S(=O)(=O)[O-])ccc5F)c5ccc2[nH]5)C=C4)C=C3)cc1
REMARK SMILES IDX 8 1 7 2 6 3 5 4 4 5 3 6 2 7 1 8 34 9 35 10 96 11 36 12 95 13
REMARK SMILES IDX 37 14 38 15 39 16 89 17 40 18 94 19 88 20 90 21 41 22 93 23
REMARK SMILES IDX 87 24 86 25 42 27 74 28 54 29 73 30 55 31 58 32 72 33 91 34
REMARK SMILES IDX 56 35 57 36 71 38 92 39 59 40 43 41 44 42 52 43 45 44 51 45
REMARK SMILES IDX 53 46 50 47 46 48 47 49 48 50 49 51 75 52 76 53 84 54 77 55
REMARK SMILES IDX 83 56 85 57 82 58 78 59 79 60 80 61 81 62 60 63 61 64 69 65
REMARK SMILES IDX 62 66 68 67 70 68 67 69 63 70 64 71 65 72 66 73 9 74 10 75
REMARK SMILES IDX 11 76 12 77 13 78 14 79 15 80 16 81 17 82 18 83 19 84 23 85
REMARK SMILES IDX 20 86 22 87 21 88 24 89 25 90 26 91 27 93 28 94 33 95 29 96
REMARK SMILES IDX 31 97 30 98 32 99
REMARK H PARENT 90 26 58 37 26 92
REMARK Flexibility Score: inf
ROOT
ATOM      1  C   UNL     1       2.724  -1.747  -1.376  1.00  0.00     0.188 C 
ENDROOT
BRANCH   1   2
ATOM      2  C   UNL     1       2.401  -0.774  -0.265  1.00  0.00     0.188 C 
BRANCH   2   3
ATOM      3  O   UNL     1       3.582  -0.389   0.400  1.00  0.00    -0.376 OA
BRANCH   3   4
ATOM      4  C   UNL     1       4.118  -1.306   1.337  1.00  0.00     0.202 C 
BRANCH   4   5
ATOM      5  C   UNL     1       4.221  -0.552   2.658  1.00  0.00     0.261 C 
BRANCH   5   6
ATOM      6  O   UNL     1       2.970   0.097   2.978  1.00  0.00    -0.460 OA
BRANCH   6   7
ATOM      7  C   UNL     1       2.386   1.148   2.343  1.00  0.00     0.338 C 
ATOM      8  O   UNL     1       1.163   1.266   2.441  1.00  0.00    -0.246 OA
BRANCH   7   9
ATOM      9  C   UNL     1       3.120   2.227   1.583  1.00  0.00     0.060 A 
ATOM     10  C   UNL     1       4.361   2.110   0.944  1.00  0.00     0.016 A 
ATOM     11  C   UNL     1       2.446   3.458   1.456  1.00  0.00     0.016 A 
ATOM     12  C   UNL     1       4.903   3.143   0.186  1.00  0.00     0.010 A 
ATOM     13  C   UNL     1       3.012   4.531   0.758  1.00  0.00     0.010 A 
ATOM     14  C   UNL     1       4.258   4.374   0.143  1.00  0.00    -0.014 A 
BRANCH  14  15
ATOM     15  C   UNL     1       5.091   5.536  -0.210  1.00  0.00     0.031 A 
ATOM     16  C   UNL     1       5.848   6.167   0.924  1.00  0.00     0.074 A 
ATOM     17  C   UNL     1       5.287   5.895  -1.489  1.00  0.00     0.049 A 
ATOM     18  N   UNL     1       6.619   7.217   0.935  1.00  0.00    -0.248 NA
ATOM     19  C   UNL     1       5.733   5.492   2.231  1.00  0.00     0.031 C 
ATOM     20  C   UNL     1       4.727   5.209  -2.655  1.00  0.00     0.029 A 
ATOM     21  N   UNL     1       6.028   6.914  -2.023  1.00  0.00    -0.354 N 
ATOM     22  C   UNL     1       7.064   7.336   2.248  1.00  0.00     0.074 A 
ATOM     23  C   UNL     1       6.479   6.258   3.005  1.00  0.00     0.031 C 
ATOM     24  C   UNL     1       5.139   5.840  -3.770  1.00  0.00     0.029 A 
ATOM     25  C   UNL     1       5.932   7.007  -3.392  1.00  0.00     0.049 A 
ATOM     26  H   UNL     1       6.578   7.522  -1.478  1.00  0.00     0.167 HD
ATOM     27  C   UNL     1       7.880   8.280   2.771  1.00  0.00     0.034 A 
ATOM     28  C   UNL     1       6.398   7.965  -4.218  1.00  0.00     0.034 A 
ATOM     29  C   UNL     1       8.396   9.365   1.981  1.00  0.00     0.049 A 
ATOM     30  C   UNL     1       7.171   9.105  -3.590  1.00  0.00     0.074 A 
ATOM     31  C   UNL     1       9.138  10.458   2.381  1.00  0.00     0.029 A 
ATOM     32  N   UNL     1       8.197   9.492   0.608  1.00  0.00    -0.354 N 
ATOM     33  N   UNL     1       7.513   9.276  -2.330  1.00  0.00    -0.248 NA
ATOM     34  C   UNL     1       7.613  10.181  -4.483  1.00  0.00     0.031 C 
ATOM     35  C   UNL     1       9.324  11.281   1.265  1.00  0.00     0.029 A 
ATOM     36  C   UNL     1       8.777  10.659   0.150  1.00  0.00     0.049 A 
ATOM     37  H   UNL     1       7.713   8.845   0.046  1.00  0.00     0.167 HD
ATOM     38  C   UNL     1       8.234  10.466  -2.285  1.00  0.00     0.074 A 
ATOM     39  C   UNL     1       8.290  10.957  -3.650  1.00  0.00     0.031 C 
ATOM     40  C   UNL     1       8.801  11.102  -1.226  1.00  0.00     0.034 A 
BRANCH  27  41
ATOM     41  C   UNL     1       8.120   8.220   4.260  1.00  0.00     0.023 A 
ATOM     42  C   UNL     1       8.776   7.133   4.867  1.00  0.00     0.031 A 
ATOM     43  C   UNL     1       7.566   9.204   5.097  1.00  0.00     0.131 A 
ATOM     44  C   UNL     1       8.778   7.010   6.266  1.00  0.00     0.055 A 
ATOM     45  C   UNL     1       7.649   9.120   6.489  1.00  0.00     0.041 A 
ATOM     46  F   UNL     1       6.891  10.242   4.579  1.00  0.00    -0.206 F 
ATOM     47  C   UNL     1       8.242   8.009   7.081  1.00  0.00     0.022 A 
BRANCH  44  48
ATOM     48  S   UNL     1       9.328   5.442   7.000  1.00  0.00     0.124 S 
ATOM     49  O   UNL     1       8.375   4.497   6.423  1.00  0.00    -0.237 OA
ATOM     50  O   UNL     1      10.702   5.334   6.525  1.00  0.00    -0.237 OA
ATOM     51  O   UNL     1       9.180   5.666   8.437  1.00  0.00    -0.744 OA
ENDBRANCH  44  48
ENDBRANCH  27  41
BRANCH  28  52
ATOM     52  C   UNL     1       6.082   7.949  -5.680  1.00  0.00     0.023 A 
ATOM     53  C   UNL     1       7.093   7.947  -6.654  1.00  0.00     0.031 A 
ATOM     54  C   UNL     1       4.747   8.006  -6.129  1.00  0.00     0.131 A 
ATOM     55  C   UNL     1       6.759   8.044  -8.017  1.00  0.00     0.055 A 
ATOM     56  C   UNL     1       4.418   8.043  -7.486  1.00  0.00     0.041 A 
ATOM     57  F   UNL     1       3.733   8.026  -5.249  1.00  0.00    -0.206 F 
ATOM     58  C   UNL     1       5.428   8.076  -8.439  1.00  0.00     0.022 A 
BRANCH  55  59
ATOM     59  S   UNL     1       8.094   8.231  -9.233  1.00  0.00     0.124 S 
ATOM     60  O   UNL     1       8.777   9.422  -8.743  1.00  0.00    -0.237 OA
ATOM     61  O   UNL     1       8.814   6.971  -9.087  1.00  0.00    -0.237 OA
ATOM     62  O   UNL     1       7.381   8.397 -10.498  1.00  0.00    -0.744 OA
ENDBRANCH  55  59
ENDBRANCH  28  52
BRANCH  40  63
ATOM     63  C   UNL     1       9.568  12.364  -1.525  1.00  0.00     0.023 A 
ATOM     64  C   UNL     1       8.926  13.528  -1.974  1.00  0.00     0.031 A 
ATOM     65  C   UNL     1      10.961  12.397  -1.339  1.00  0.00     0.131 A 
ATOM     66  C   UNL     1       9.687  14.665  -2.279  1.00  0.00     0.055 A 
ATOM     67  C   UNL     1      11.703  13.553  -1.576  1.00  0.00     0.041 A 
ATOM     68  F   UNL     1      11.620  11.308  -0.911  1.00  0.00    -0.206 F 
ATOM     69  C   UNL     1      11.067  14.692  -2.062  1.00  0.00     0.022 A 
BRANCH  66  70
ATOM     70  S   UNL     1       8.859  16.076  -3.058  1.00  0.00     0.124 S 
ATOM     71  O   UNL     1       8.308  15.472  -4.268  1.00  0.00    -0.237 OA
ATOM     72  O   UNL     1       7.887  16.468  -2.043  1.00  0.00    -0.237 OA
ATOM     73  O   UNL     1       9.944  17.029  -3.279  1.00  0.00    -0.744 OA
ENDBRANCH  66  70
ENDBRANCH  40  63
ENDBRANCH  14  15
ENDBRANCH   7   9
ENDBRANCH   6   7
ENDBRANCH   5   6
ENDBRANCH   4   5
ENDBRANCH   3   4
ENDBRANCH   2   3
ENDBRANCH   1   2
BRANCH   1  74
ATOM     74  O   UNL     1       4.117  -1.875  -1.689  1.00  0.00    -0.377 OA
BRANCH  74  75
ATOM     75  C   UNL     1       4.918  -0.691  -1.879  1.00  0.00     0.188 C 
BRANCH  75  76
ATOM     76  C   UNL     1       4.292   0.508  -2.656  1.00  0.00     0.188 C 
BRANCH  76  77
ATOM     77  O   UNL     1       3.061   0.134  -3.294  1.00  0.00    -0.376 OA
BRANCH  77  78
ATOM     78  C   UNL     1       2.712   0.738  -4.537  1.00  0.00     0.202 C 
BRANCH  78  79
ATOM     79  C   UNL     1       2.285  -0.253  -5.701  1.00  0.00     0.261 C 
BRANCH  79  80
ATOM     80  O   UNL     1       3.371  -1.354  -6.465  1.00  0.00    -0.463 OA
BRANCH  80  81
ATOM     81  C   UNL     1       4.567  -2.798  -6.620  1.00  0.00     0.309 C 
ATOM     82  O   UNL     1       5.305  -2.971  -7.623  1.00  0.00    -0.252 OA
BRANCH  81  83
ATOM     83  C   UNL     1       4.853  -4.062  -5.447  1.00  0.00     0.111 C 
ATOM     84  C   UNL     1       4.420  -5.396  -6.108  1.00  0.00     0.016 C 
ATOM     85  C   UNL     1       4.639  -4.178  -3.884  1.00  0.00     0.093 C 
ATOM     86  C   UNL     1       5.126  -6.608  -5.505  1.00  0.00     0.001 C 
ATOM     87  C   UNL     1       5.359  -5.413  -3.304  1.00  0.00     0.014 C 
ATOM     88  C   UNL     1       4.945  -6.705  -3.997  1.00  0.00     0.001 C 
BRANCH  85  89
ATOM     89  C   UNL     1       3.159  -4.241  -3.487  1.00  0.00     0.228 C 
ATOM     90  O   UNL     1       2.698  -4.937  -2.587  1.00  0.00    -0.274 OA
ATOM     91  N   UNL     1       2.333  -3.515  -4.288  1.00  0.00    -0.326 N 
ATOM     92  H   UNL     1       1.356  -3.580  -4.181  1.00  0.00     0.169 HD
BRANCH  91  93
ATOM     93  C   UNL     1       2.872  -2.688  -5.251  1.00  0.00     0.042 A 
ATOM     94  C   UNL     1       2.337  -2.897  -6.960  1.00  0.00     0.026 A 
ATOM     95  C   UNL     1       4.316  -1.594  -4.887  1.00  0.00     0.041 A 
ATOM     96  C   UNL     1       3.149  -1.964  -8.269  1.00  0.00     0.003 A 
ATOM     97  C   UNL     1       5.104  -0.644  -6.221  1.00  0.00     0.020 A 
ATOM     98  C   UNL     1       4.495  -0.811  -7.905  1.00  0.00     0.016 A 
ATOM     99  Br  UNL     1       6.392   0.683  -5.865  1.00  0.00    -0.051 Br
ENDBRANCH  91  93
ENDBRANCH  85  89
ENDBRANCH  81  83
ENDBRANCH  80  81
ENDBRANCH  79  80
ENDBRANCH  78  79
ENDBRANCH  77  78
ENDBRANCH  76  77
ENDBRANCH  75  76
ENDBRANCH  74  75
ENDBRANCH   1  74
TORSDOF 25
