REMARK SMILES O=C(Cc1cccn1-c1ccccc1F)OCCOCCOCCOCCOC(=O)c1ccc(-c2c3nc(c(-c4cc(S(=O)(=O)[O-])ccc4F)c4ccc([nH]4)c(-c4cc(S(=O)(=O)[O-])ccc4F)c4nc(c(-c5cc(S(=O)(=O)[O-])ccc5F)c5ccc2[nH]5)C=C4)C=C3)cc1
REMARK SMILES IDX 23 1 22 2 21 3 20 4 19 5 18 6 17 7 16 8 2 9 1 10 3 11 4 12
REMARK SMILES IDX 5 13 8 14 6 15 7 16 9 17 10 18 14 19 11 20 13 21 15 22 12 23
REMARK SMILES IDX 24 24 25 25 26 26 27 27 28 28 29 29 30 30 31 31 32 32 93 33
REMARK SMILES IDX 33 34 92 35 34 36 35 37 36 38 86 39 37 40 91 41 85 42 87 43
REMARK SMILES IDX 38 44 90 45 84 46 83 47 39 49 71 50 51 51 70 52 52 53 55 54
REMARK SMILES IDX 69 55 88 56 53 57 54 58 68 60 89 61 56 62 40 63 41 64 49 65
REMARK SMILES IDX 42 66 48 67 50 68 47 69 43 70 44 71 45 72 46 73 72 74 73 75
REMARK SMILES IDX 81 76 74 77 80 78 82 79 79 80 75 81 76 82 77 83 78 84 57 85
REMARK SMILES IDX 58 86 66 87 59 88 65 89 67 90 64 91 60 92 61 93 62 94 63 95
REMARK H PARENT 87 48 55 59
REMARK Flexibility Score: inf
ROOT
ATOM      1  C   UNL     1       4.322  -1.395   3.336  1.00  0.00     0.188 C 
ENDROOT
BRANCH   1   2
ATOM      2  O   UNL     1       2.972  -1.822   3.256  1.00  0.00    -0.377 OA
BRANCH   2   3
ATOM      3  C   UNL     1       2.170  -1.133   2.304  1.00  0.00     0.188 C 
BRANCH   3   4
ATOM      4  C   UNL     1       2.602  -1.320   0.847  1.00  0.00     0.188 C 
BRANCH   4   5
ATOM      5  O   UNL     1       4.004  -1.232   0.704  1.00  0.00    -0.376 OA
BRANCH   5   6
ATOM      6  C   UNL     1       4.645  -0.187   0.015  1.00  0.00     0.202 C 
BRANCH   6   7
ATOM      7  C   UNL     1       4.077   1.222   0.081  1.00  0.00     0.261 C 
BRANCH   7   8
ATOM      8  O   UNL     1       2.716   1.449  -0.353  1.00  0.00    -0.463 OA
BRANCH   8   9
ATOM      9  C   UNL     1       2.070   1.056  -1.473  1.00  0.00     0.311 C 
ATOM     10  O   UNL     1       0.916   1.444  -1.657  1.00  0.00    -0.252 OA
BRANCH   9  11
ATOM     11  C   UNL     1       2.709   0.070  -2.430  1.00  0.00     0.177 C 
BRANCH  11  12
ATOM     12  C   UNL     1       3.910   0.623  -3.135  1.00  0.00     0.034 A 
ATOM     13  C   UNL     1       4.137   1.953  -3.454  1.00  0.00     0.024 A 
ATOM     14  N   UNL     1       5.043  -0.115  -3.504  1.00  0.00    -0.318 N 
ATOM     15  C   UNL     1       5.456   2.071  -3.914  1.00  0.00     0.020 A 
ATOM     16  C   UNL     1       5.996   0.808  -3.911  1.00  0.00     0.091 A 
BRANCH  14  17
ATOM     17  C   UNL     1       5.291  -1.523  -3.420  1.00  0.00     0.081 A 
ATOM     18  C   UNL     1       6.599  -1.977  -3.161  1.00  0.00     0.030 A 
ATOM     19  C   UNL     1       4.282  -2.476  -3.580  1.00  0.00     0.147 A 
ATOM     20  C   UNL     1       6.873  -3.345  -3.048  1.00  0.00     0.002 A 
ATOM     21  C   UNL     1       4.557  -3.841  -3.468  1.00  0.00     0.041 A 
ATOM     22  F   UNL     1       3.034  -2.128  -3.916  1.00  0.00    -0.205 F 
ATOM     23  C   UNL     1       5.852  -4.278  -3.200  1.00  0.00     0.003 A 
ENDBRANCH  14  17
ENDBRANCH  11  12
ENDBRANCH   9  11
ENDBRANCH   8   9
ENDBRANCH   7   8
ENDBRANCH   6   7
ENDBRANCH   5   6
ENDBRANCH   4   5
ENDBRANCH   3   4
ENDBRANCH   2   3
ENDBRANCH   1   2
BRANCH   1  24
ATOM     24  C   UNL     1       5.378  -2.453   2.936  1.00  0.00     0.188 C 
BRANCH  24  25
ATOM     25  O   UNL     1       5.138  -3.603   2.129  1.00  0.00    -0.376 OA
BRANCH  25  26
ATOM     26  C   UNL     1       3.904  -4.295   2.026  1.00  0.00     0.202 C 
BRANCH  26  27
ATOM     27  C   UNL     1       3.164  -4.921   3.209  1.00  0.00     0.261 C 
BRANCH  27  28
ATOM     28  O   UNL     1       3.203  -4.148   4.383  1.00  0.00    -0.460 OA
BRANCH  28  29
ATOM     29  C   UNL     1       4.362  -4.293   5.024  1.00  0.00     0.338 C 
ATOM     30  O   UNL     1       5.321  -5.008   4.696  1.00  0.00    -0.246 OA
BRANCH  29  31
ATOM     31  C   UNL     1       4.345  -3.526   6.255  1.00  0.00     0.060 A 
ATOM     32  C   UNL     1       5.596  -3.382   6.857  1.00  0.00     0.016 A 
ATOM     33  C   UNL     1       3.138  -3.530   6.964  1.00  0.00     0.016 A 
ATOM     34  C   UNL     1       5.668  -3.595   8.204  1.00  0.00     0.010 A 
ATOM     35  C   UNL     1       3.213  -3.794   8.304  1.00  0.00     0.010 A 
ATOM     36  C   UNL     1       4.484  -3.904   8.882  1.00  0.00    -0.014 A 
BRANCH  36  37
ATOM     37  C   UNL     1       4.606  -4.257  10.287  1.00  0.00     0.031 A 
ATOM     38  C   UNL     1       4.602  -2.991  11.133  1.00  0.00     0.074 A 
ATOM     39  C   UNL     1       4.758  -5.591  10.536  1.00  0.00     0.049 A 
ATOM     40  N   UNL     1       5.133  -2.767  12.291  1.00  0.00    -0.248 NA
ATOM     41  C   UNL     1       4.009  -1.743  10.560  1.00  0.00     0.031 C 
ATOM     42  C   UNL     1       4.770  -6.669   9.511  1.00  0.00     0.029 A 
ATOM     43  N   UNL     1       4.947  -6.317  11.685  1.00  0.00    -0.354 N 
ATOM     44  C   UNL     1       4.733  -1.476  12.675  1.00  0.00     0.074 A 
ATOM     45  C   UNL     1       4.193  -0.840  11.518  1.00  0.00     0.031 C 
ATOM     46  C   UNL     1       5.032  -7.871  10.074  1.00  0.00     0.029 A 
ATOM     47  C   UNL     1       5.180  -7.704  11.506  1.00  0.00     0.049 A 
ATOM     48  H   UNL     1       4.921  -5.901  12.578  1.00  0.00     0.167 HD
ATOM     49  C   UNL     1       4.727  -1.051  13.965  1.00  0.00     0.034 A 
ATOM     50  C   UNL     1       5.508  -8.637  12.451  1.00  0.00     0.034 A 
ATOM     51  C   UNL     1       5.247  -2.057  14.829  1.00  0.00     0.049 A 
ATOM     52  C   UNL     1       5.422  -7.915  13.735  1.00  0.00     0.074 A 
ATOM     53  C   UNL     1       6.516  -2.531  15.032  1.00  0.00     0.029 A 
ATOM     54  N   UNL     1       4.348  -2.951  15.361  1.00  0.00    -0.354 N 
ATOM     55  N   UNL     1       4.323  -7.503  14.292  1.00  0.00    -0.248 NA
ATOM     56  C   UNL     1       6.671  -7.529  14.401  1.00  0.00     0.031 C 
ATOM     57  C   UNL     1       6.330  -3.904  15.306  1.00  0.00     0.029 A 
ATOM     58  C   UNL     1       4.961  -4.183  15.390  1.00  0.00     0.049 A 
ATOM     59  H   UNL     1       3.434  -2.747  15.665  1.00  0.00     0.167 HD
ATOM     60  C   UNL     1       4.764  -6.558  15.187  1.00  0.00     0.074 A 
ATOM     61  C   UNL     1       6.167  -6.827  15.412  1.00  0.00     0.031 C 
ATOM     62  C   UNL     1       4.126  -5.364  15.290  1.00  0.00     0.034 A 
BRANCH  49  63
ATOM     63  C   UNL     1       4.108   0.166  14.572  1.00  0.00     0.023 A 
ATOM     64  C   UNL     1       4.629   0.587  15.813  1.00  0.00     0.031 A 
ATOM     65  C   UNL     1       2.904   0.754  14.156  1.00  0.00     0.131 A 
ATOM     66  C   UNL     1       3.930   1.488  16.623  1.00  0.00     0.055 A 
ATOM     67  C   UNL     1       2.233   1.697  14.943  1.00  0.00     0.041 A 
ATOM     68  F   UNL     1       2.293   0.379  13.023  1.00  0.00    -0.206 F 
ATOM     69  C   UNL     1       2.731   2.049  16.195  1.00  0.00     0.022 A 
BRANCH  66  70
ATOM     70  S   UNL     1       4.560   1.798  18.294  1.00  0.00     0.124 S 
ATOM     71  O   UNL     1       4.633   0.454  18.856  1.00  0.00    -0.237 OA
ATOM     72  O   UNL     1       5.841   2.445  18.020  1.00  0.00    -0.237 OA
ATOM     73  O   UNL     1       3.543   2.666  18.884  1.00  0.00    -0.744 OA
ENDBRANCH  66  70
ENDBRANCH  49  63
BRANCH  50  74
ATOM     74  C   UNL     1       5.994 -10.073  12.507  1.00  0.00     0.023 A 
ATOM     75  C   UNL     1       6.220 -10.920  11.408  1.00  0.00     0.031 A 
ATOM     76  C   UNL     1       6.363 -10.625  13.773  1.00  0.00     0.131 A 
ATOM     77  C   UNL     1       6.842 -12.185  11.593  1.00  0.00     0.055 A 
ATOM     78  C   UNL     1       7.044 -11.831  13.940  1.00  0.00     0.041 A 
ATOM     79  F   UNL     1       6.093  -9.998  14.927  1.00  0.00    -0.206 F 
ATOM     80  C   UNL     1       7.301 -12.616  12.840  1.00  0.00     0.022 A 
BRANCH  77  81
ATOM     81  S   UNL     1       7.108 -13.338  10.213  1.00  0.00     0.124 S 
ATOM     82  O   UNL     1       6.033 -14.304  10.419  1.00  0.00    -0.237 OA
ATOM     83  O   UNL     1       6.983 -12.489   9.033  1.00  0.00    -0.237 OA
ATOM     84  O   UNL     1       8.456 -13.843  10.472  1.00  0.00    -0.744 OA
ENDBRANCH  77  81
ENDBRANCH  50  74
BRANCH  62  85
ATOM     85  C   UNL     1       2.668  -5.389  14.860  1.00  0.00     0.023 A 
ATOM     86  C   UNL     1       1.717  -6.093  15.616  1.00  0.00     0.031 A 
ATOM     87  C   UNL     1       2.208  -4.816  13.662  1.00  0.00     0.131 A 
ATOM     88  C   UNL     1       0.384  -6.202  15.169  1.00  0.00     0.055 A 
ATOM     89  C   UNL     1       0.886  -4.916  13.216  1.00  0.00     0.041 A 
ATOM     90  F   UNL     1       3.039  -4.144  12.871  1.00  0.00    -0.206 F 
ATOM     91  C   UNL     1      -0.038  -5.615  13.973  1.00  0.00     0.022 A 
BRANCH  88  92
ATOM     92  S   UNL     1      -0.825  -7.083  16.193  1.00  0.00     0.124 S 
ATOM     93  O   UNL     1      -0.455  -8.479  15.989  1.00  0.00    -0.237 OA
ATOM     94  O   UNL     1      -0.566  -6.541  17.524  1.00  0.00    -0.237 OA
ATOM     95  O   UNL     1      -2.111  -6.692  15.615  1.00  0.00    -0.744 OA
ENDBRANCH  88  92
ENDBRANCH  62  85
ENDBRANCH  36  37
ENDBRANCH  29  31
ENDBRANCH  28  29
ENDBRANCH  27  28
ENDBRANCH  26  27
ENDBRANCH  25  26
ENDBRANCH  24  25
ENDBRANCH   1  24
TORSDOF 25
