REMARK SMILES Cc1cccc(Cl)c1Nc1ccccc1CC(=O)OCCOCCOCCOCCOC(=O)c1ccc(-c2c3nc(c(-c4cc(S(=O)(=O)[O-])ccc4F)c4ccc([nH]4)c(-c4cc(S(=O)(=O)[O-])ccc4F)c4nc(c(-c5cc(S(=O)(=O)[O-])ccc5F)c5ccc2[nH]5)C=C4)C=C3)cc1
REMARK SMILES IDX 25 1 24 2 23 3 22 4 21 5 20 6 19 7 17 8 18 9 16 10 15 11
REMARK SMILES IDX 10 12 11 13 12 14 14 15 13 16 9 17 8 19 1 20 2 21 3 22 4 23
REMARK SMILES IDX 6 24 5 25 7 26 26 27 27 28 28 29 29 30 30 31 31 32 32 33
REMARK SMILES IDX 33 34 34 35 35 36 96 37 36 38 95 39 37 40 38 41 39 42 89 43
REMARK SMILES IDX 40 44 94 45 88 46 90 47 41 48 93 49 87 50 86 51 42 53 74 54
REMARK SMILES IDX 54 55 73 56 55 57 58 58 72 59 91 60 56 61 57 62 71 64 92 65
REMARK SMILES IDX 59 66 43 67 44 68 52 69 45 70 51 71 53 72 50 73 46 74 47 75
REMARK SMILES IDX 48 76 49 77 75 78 76 79 84 80 77 81 83 82 85 83 82 84 78 85
REMARK SMILES IDX 79 86 80 87 81 88 60 89 61 90 69 91 62 92 68 93 70 94 67 95
REMARK SMILES IDX 63 96 64 97 65 98 66 99
REMARK H PARENT 9 18 90 52 58 63
REMARK Flexibility Score: inf
ROOT
ATOM      1  O   UNL     1       2.698   4.838  -4.085  1.00  0.00    -0.377 OA
ENDROOT
BRANCH   1   2
ATOM      2  C   UNL     1       3.257   3.714  -3.437  1.00  0.00     0.188 C 
BRANCH   2   3
ATOM      3  C   UNL     1       3.503   2.506  -4.370  1.00  0.00     0.188 C 
BRANCH   3   4
ATOM      4  O   UNL     1       2.713   2.283  -5.539  1.00  0.00    -0.376 OA
BRANCH   4   5
ATOM      5  C   UNL     1       1.574   3.096  -5.770  1.00  0.00     0.202 C 
BRANCH   5   6
ATOM      6  C   UNL     1       0.390   2.903  -4.801  1.00  0.00     0.261 C 
BRANCH   6   7
ATOM      7  O   UNL     1       0.749   2.547  -3.443  1.00  0.00    -0.463 OA
BRANCH   7   8
ATOM      8  C   UNL     1       0.739   1.232  -3.131  1.00  0.00     0.310 C 
ATOM      9  O   UNL     1       0.267   0.370  -3.874  1.00  0.00    -0.252 OA
BRANCH   8  10
ATOM     10  C   UNL     1       1.464   0.822  -1.857  1.00  0.00     0.160 C 
BRANCH  10  11
ATOM     11  C   UNL     1       1.958   1.803  -0.794  1.00  0.00    -0.013 A 
ATOM     12  C   UNL     1       1.137   2.408   0.182  1.00  0.00     0.042 A 
ATOM     13  C   UNL     1       1.683   3.388   1.041  1.00  0.00     0.026 A 
ATOM     14  C   UNL     1       3.043   3.685   1.035  1.00  0.00     0.002 A 
ATOM     15  C   UNL     1       3.348   2.061  -0.718  1.00  0.00     0.006 A 
ATOM     16  C   UNL     1       3.883   2.989   0.182  1.00  0.00     0.000 A 
BRANCH  12  17
ATOM     17  N   UNL     1      -0.151   1.943   0.512  1.00  0.00    -0.354 N 
ATOM     18  H   UNL     1      -0.815   2.644   0.704  1.00  0.00     0.167 HD
BRANCH  17  19
ATOM     19  C   UNL     1      -0.630   0.615   0.609  1.00  0.00     0.060 A 
ATOM     20  C   UNL     1      -2.922   1.490  -0.068  1.00  0.00     0.046 C 
ATOM     21  C   UNL     1      -1.956   0.363   0.190  1.00  0.00    -0.026 A 
ATOM     22  C   UNL     1      -2.369  -0.957  -0.057  1.00  0.00     0.005 A 
ATOM     23  C   UNL     1      -1.501  -2.028   0.140  1.00  0.00     0.002 A 
ATOM     24  C   UNL     1       0.188  -0.498   0.931  1.00  0.00     0.064 A 
ATOM     25  C   UNL     1      -0.235  -1.803   0.663  1.00  0.00     0.023 A 
ATOM     26  Cl  UNL     1       1.739  -0.352   1.697  1.00  0.00    -0.082 Cl
ENDBRANCH  17  19
ENDBRANCH  12  17
ENDBRANCH  10  11
ENDBRANCH   8  10
ENDBRANCH   7   8
ENDBRANCH   6   7
ENDBRANCH   5   6
ENDBRANCH   4   5
ENDBRANCH   3   4
ENDBRANCH   2   3
ENDBRANCH   1   2
BRANCH   1  27
ATOM     27  C   UNL     1       3.574   5.930  -4.255  1.00  0.00     0.188 C 
BRANCH  27  28
ATOM     28  C   UNL     1       4.855   5.598  -5.031  1.00  0.00     0.188 C 
BRANCH  28  29
ATOM     29  O   UNL     1       5.601   4.540  -4.432  1.00  0.00    -0.376 OA
BRANCH  29  30
ATOM     30  C   UNL     1       6.757   4.858  -3.677  1.00  0.00     0.202 C 
BRANCH  30  31
ATOM     31  C   UNL     1       6.570   5.514  -2.298  1.00  0.00     0.261 C 
BRANCH  31  32
ATOM     32  O   UNL     1       5.713   6.660  -2.223  1.00  0.00    -0.460 OA
BRANCH  32  33
ATOM     33  C   UNL     1       6.092   7.768  -2.907  1.00  0.00     0.338 C 
ATOM     34  O   UNL     1       7.097   7.901  -3.562  1.00  0.00    -0.246 OA
BRANCH  33  35
ATOM     35  C   UNL     1       4.943   8.711  -2.885  1.00  0.00     0.060 A 
ATOM     36  C   UNL     1       4.383   9.114  -4.104  1.00  0.00     0.016 A 
ATOM     37  C   UNL     1       4.394   9.153  -1.678  1.00  0.00     0.016 A 
ATOM     38  C   UNL     1       3.281   9.971  -4.122  1.00  0.00     0.010 A 
ATOM     39  C   UNL     1       3.314  10.044  -1.698  1.00  0.00     0.010 A 
ATOM     40  C   UNL     1       2.772  10.479  -2.920  1.00  0.00    -0.014 A 
BRANCH  40  41
ATOM     41  C   UNL     1       1.845  11.638  -2.956  1.00  0.00     0.031 A 
ATOM     42  C   UNL     1       2.444  13.014  -2.839  1.00  0.00     0.074 A 
ATOM     43  C   UNL     1       0.519  11.485  -3.123  1.00  0.00     0.049 A 
ATOM     44  N   UNL     1       1.856  14.180  -2.798  1.00  0.00    -0.248 NA
ATOM     45  C   UNL     1       3.912  13.075  -2.753  1.00  0.00     0.031 C 
ATOM     46  C   UNL     1      -0.168  10.209  -3.309  1.00  0.00     0.029 A 
ATOM     47  N   UNL     1      -0.488  12.418  -3.159  1.00  0.00    -0.354 N 
ATOM     48  C   UNL     1       2.880  15.114  -2.681  1.00  0.00     0.074 A 
ATOM     49  C   UNL     1       4.122  14.373  -2.617  1.00  0.00     0.031 C 
ATOM     50  C   UNL     1      -1.488  10.439  -3.428  1.00  0.00     0.029 A 
ATOM     51  C   UNL     1      -1.745  11.872  -3.286  1.00  0.00     0.049 A 
ATOM     52  H   UNL     1      -0.326  13.387  -3.099  1.00  0.00     0.167 HD
ATOM     53  C   UNL     1       2.794  16.465  -2.639  1.00  0.00     0.034 A 
ATOM     54  C   UNL     1      -2.959  12.462  -3.260  1.00  0.00     0.034 A 
ATOM     55  C   UNL     1       1.546  17.185  -2.680  1.00  0.00     0.049 A 
ATOM     56  C   UNL     1      -3.039  13.965  -3.100  1.00  0.00     0.074 A 
ATOM     57  C   UNL     1       1.339  18.553  -2.643  1.00  0.00     0.029 A 
ATOM     58  N   UNL     1       0.290  16.596  -2.750  1.00  0.00    -0.354 N 
ATOM     59  N   UNL     1      -2.064  14.840  -2.992  1.00  0.00    -0.248 NA
ATOM     60  C   UNL     1      -4.382  14.559  -3.065  1.00  0.00     0.031 C 
ATOM     61  C   UNL     1      -0.039  18.786  -2.604  1.00  0.00     0.029 A 
ATOM     62  C   UNL     1      -0.696  17.570  -2.716  1.00  0.00     0.049 A 
ATOM     63  H   UNL     1       0.124  15.627  -2.813  1.00  0.00     0.167 HD
ATOM     64  C   UNL     1      -2.679  16.089  -2.917  1.00  0.00     0.074 A 
ATOM     65  C   UNL     1      -4.105  15.853  -3.002  1.00  0.00     0.031 C 
ATOM     66  C   UNL     1      -2.117  17.320  -2.797  1.00  0.00     0.034 A 
BRANCH  53  67
ATOM     67  C   UNL     1       4.082  17.236  -2.479  1.00  0.00     0.023 A 
ATOM     68  C   UNL     1       5.096  17.199  -3.453  1.00  0.00     0.031 A 
ATOM     69  C   UNL     1       4.315  17.991  -1.316  1.00  0.00     0.131 A 
ATOM     70  C   UNL     1       6.321  17.839  -3.212  1.00  0.00     0.055 A 
ATOM     71  C   UNL     1       5.503  18.698  -1.122  1.00  0.00     0.041 A 
ATOM     72  F   UNL     1       3.397  18.041  -0.338  1.00  0.00    -0.206 F 
ATOM     73  C   UNL     1       6.521  18.612  -2.066  1.00  0.00     0.022 A 
BRANCH  70  74
ATOM     74  S   UNL     1       7.702  17.520  -4.344  1.00  0.00     0.124 S 
ATOM     75  O   UNL     1       7.827  16.067  -4.255  1.00  0.00    -0.237 OA
ATOM     76  O   UNL     1       7.200  18.042  -5.610  1.00  0.00    -0.237 OA
ATOM     77  O   UNL     1       8.809  18.270  -3.754  1.00  0.00    -0.744 OA
ENDBRANCH  70  74
ENDBRANCH  53  67
BRANCH  54  78
ATOM     78  C   UNL     1      -4.205  11.643  -3.340  1.00  0.00     0.023 A 
ATOM     79  C   UNL     1      -5.125  11.813  -4.388  1.00  0.00     0.031 A 
ATOM     80  C   UNL     1      -4.531  10.725  -2.325  1.00  0.00     0.131 A 
ATOM     81  C   UNL     1      -6.345  11.116  -4.370  1.00  0.00     0.055 A 
ATOM     82  C   UNL     1      -5.717   9.989  -2.344  1.00  0.00     0.041 A 
ATOM     83  F   UNL     1      -3.695  10.528  -1.292  1.00  0.00    -0.206 F 
ATOM     84  C   UNL     1      -6.640  10.194  -3.365  1.00  0.00     0.022 A 
BRANCH  81  85
ATOM     85  S   UNL     1      -7.590  11.510  -5.630  1.00  0.00     0.124 S 
ATOM     86  O   UNL     1      -7.793  12.937  -5.409  1.00  0.00    -0.237 OA
ATOM     87  O   UNL     1      -6.900  11.142  -6.863  1.00  0.00    -0.237 OA
ATOM     88  O   UNL     1      -8.719  10.654  -5.272  1.00  0.00    -0.744 OA
ENDBRANCH  81  85
ENDBRANCH  54  78
BRANCH  66  89
ATOM     89  C   UNL     1      -3.045  18.513  -2.811  1.00  0.00     0.023 A 
ATOM     90  C   UNL     1      -3.980  18.744  -1.787  1.00  0.00     0.031 A 
ATOM     91  C   UNL     1      -2.987  19.436  -3.872  1.00  0.00     0.131 A 
ATOM     92  C   UNL     1      -4.855  19.838  -1.874  1.00  0.00     0.055 A 
ATOM     93  C   UNL     1      -3.813  20.560  -3.917  1.00  0.00     0.041 A 
ATOM     94  F   UNL     1      -2.116  19.265  -4.880  1.00  0.00    -0.206 F 
ATOM     95  C   UNL     1      -4.764  20.758  -2.922  1.00  0.00     0.022 A 
BRANCH  92  96
ATOM     96  S   UNL     1      -6.186  19.989  -0.651  1.00  0.00     0.124 S 
ATOM     97  O   UNL     1      -6.895  18.724  -0.817  1.00  0.00    -0.237 OA
ATOM     98  O   UNL     1      -5.447  20.147   0.597  1.00  0.00    -0.237 OA
ATOM     99  O   UNL     1      -6.923  21.174  -1.089  1.00  0.00    -0.744 OA
ENDBRANCH  92  96
ENDBRANCH  66  89
ENDBRANCH  40  41
ENDBRANCH  33  35
ENDBRANCH  32  33
ENDBRANCH  31  32
ENDBRANCH  30  31
ENDBRANCH  29  30
ENDBRANCH  28  29
ENDBRANCH  27  28
ENDBRANCH   1  27
TORSDOF 26
