REMARK SMILES CC(C)[C@@H]1C(=O)Nc2ccccc2N1C(=O)N[C@H](Cc1ccccc1)C(=O)OCCOCCOCCOCCOC(=O)c1ccc(-c2c3nc(c(-c4cc(S(=O)(=O)[O-])ccc4F)c4ccc([nH]4)c(-c4cc(S(=O)(=O)[O-])ccc4F)c4nc(c(-c5cc(S(=O)(=O)[O-])ccc5F)c5ccc2[nH]5)C=C4)C=C3)cc1
REMARK SMILES IDX 34 1 33 2 32 3 31 4 30 5 29 6 28 7 26 8 27 9 18 10 17 11
REMARK SMILES IDX 15 12 16 13 14 15 4 16 5 17 6 18 7 19 13 20 8 21 12 23 9 24
REMARK SMILES IDX 11 25 10 26 2 27 1 28 3 29 19 30 20 31 21 32 25 33 22 34
REMARK SMILES IDX 24 35 23 36 35 37 36 38 37 39 38 40 39 41 40 42 41 43 42 44
REMARK SMILES IDX 43 45 44 46 105 47 45 48 104 49 46 50 47 51 48 52 98 53
REMARK SMILES IDX 49 54 103 55 97 56 99 57 50 58 102 59 96 60 95 61 51 63
REMARK SMILES IDX 83 64 63 65 82 66 64 67 67 68 81 69 100 70 65 71 66 72 80 74
REMARK SMILES IDX 101 75 68 76 52 77 53 78 61 79 54 80 60 81 62 82 59 83 55 84
REMARK SMILES IDX 56 85 57 86 58 87 84 88 85 89 93 90 86 91 92 92 94 93 91 94
REMARK SMILES IDX 87 95 88 96 89 97 90 98 69 99 70 100 78 101 71 102 77 103
REMARK SMILES IDX 79 104 76 105 72 106 73 107 74 108 75 109
REMARK H PARENT 17 14 7 22 99 62 67 73
REMARK Flexibility Score: inf
ROOT
ATOM      1  O   UNL     1       1.443   3.008   1.437  1.00  0.00    -0.377 OA
ENDROOT
BRANCH   1   2
ATOM      2  C   UNL     1       0.817   2.325   2.514  1.00  0.00     0.188 C 
BRANCH   2   3
ATOM      3  C   UNL     1       1.432   0.933   2.712  1.00  0.00     0.188 C 
BRANCH   3   4
ATOM      4  O   UNL     1       2.798   0.966   3.116  1.00  0.00    -0.376 OA
BRANCH   4   5
ATOM      5  C   UNL     1       3.747   1.298   2.097  1.00  0.00     0.202 C 
BRANCH   5   6
ATOM      6  C   UNL     1       4.007   0.193   1.050  1.00  0.00     0.261 C 
BRANCH   6   7
ATOM      7  O   UNL     1       3.117   0.162  -0.106  1.00  0.00    -0.462 OA
BRANCH   7   8
ATOM      8  C   UNL     1       2.610  -1.026  -0.551  1.00  0.00     0.329 C 
ATOM      9  O   UNL     1       2.561  -2.024   0.169  1.00  0.00    -0.250 OA
BRANCH   8  10
ATOM     10  C   UNL     1       2.348  -1.135  -2.120  1.00  0.00     0.198 C 
BRANCH  10  11
ATOM     11  N   UNL     1       3.612  -0.778  -2.764  1.00  0.00    -0.324 N 
ATOM     12  C   UNL     1       4.083   0.444  -3.123  1.00  0.00     0.323 C 
ATOM     13  O   UNL     1       4.758   0.427  -4.158  1.00  0.00    -0.248 OA
ATOM     14  H   UNL     1       4.208  -1.535  -2.968  1.00  0.00     0.166 HD
BRANCH  12  15
ATOM     15  N   UNL     1       4.104   1.484  -2.209  1.00  0.00    -0.280 N 
ATOM     16  C   UNL     1       3.011   2.550  -1.878  1.00  0.00     0.184 C 
ATOM     17  C   UNL     1       3.380   3.914  -2.537  1.00  0.00     0.247 C 
ATOM     18  O   UNL     1       2.597   4.826  -2.796  1.00  0.00    -0.272 OA
ATOM     19  N   UNL     1       4.696   4.233  -2.618  1.00  0.00    -0.322 N 
ATOM     20  C   UNL     1       5.465   2.009  -2.073  1.00  0.00     0.070 A 
ATOM     21  C   UNL     1       5.725   3.356  -2.327  1.00  0.00     0.065 A 
ATOM     22  H   UNL     1       4.934   5.145  -2.902  1.00  0.00     0.170 HD
ATOM     23  C   UNL     1       6.568   1.153  -1.892  1.00  0.00     0.028 A 
ATOM     24  C   UNL     1       7.032   3.837  -2.426  1.00  0.00     0.028 A 
ATOM     25  C   UNL     1       7.881   1.642  -1.962  1.00  0.00     0.002 A 
ATOM     26  C   UNL     1       8.112   2.985  -2.236  1.00  0.00     0.002 A 
BRANCH  16  27
ATOM     27  C   UNL     1       1.461   2.222  -2.041  1.00  0.00     0.015 C 
ATOM     28  C   UNL     1       0.774   1.434  -0.908  1.00  0.00     0.010 C 
ATOM     29  C   UNL     1       0.504   3.413  -2.257  1.00  0.00     0.010 C 
ENDBRANCH  16  27
ENDBRANCH  12  15
ENDBRANCH  10  11
BRANCH  10  30
ATOM     30  C   UNL     1       1.252  -0.800  -3.217  1.00  0.00     0.072 C 
BRANCH  30  31
ATOM     31  C   UNL     1      -0.261  -0.673  -3.182  1.00  0.00    -0.045 A 
ATOM     32  C   UNL     1      -0.888   0.485  -3.708  1.00  0.00     0.004 A 
ATOM     33  C   UNL     1      -1.083  -1.744  -2.842  1.00  0.00     0.004 A 
ATOM     34  C   UNL     1      -2.277   0.603  -3.809  1.00  0.00     0.000 A 
ATOM     35  C   UNL     1      -2.476  -1.648  -2.993  1.00  0.00     0.000 A 
ATOM     36  C   UNL     1      -3.074  -0.474  -3.457  1.00  0.00     0.000 A 
ENDBRANCH  30  31
ENDBRANCH  10  30
ENDBRANCH   8  10
ENDBRANCH   7   8
ENDBRANCH   6   7
ENDBRANCH   5   6
ENDBRANCH   4   5
ENDBRANCH   3   4
ENDBRANCH   2   3
ENDBRANCH   1   2
BRANCH   1  37
ATOM     37  C   UNL     1       1.608   4.414   1.507  1.00  0.00     0.188 C 
BRANCH  37  38
ATOM     38  C   UNL     1       0.638   5.190   2.395  1.00  0.00     0.188 C 
BRANCH  38  39
ATOM     39  O   UNL     1      -0.752   4.904   2.255  1.00  0.00    -0.376 OA
BRANCH  39  40
ATOM     40  C   UNL     1      -1.274   4.662   0.951  1.00  0.00     0.202 C 
BRANCH  40  41
ATOM     41  C   UNL     1      -1.504   5.889   0.069  1.00  0.00     0.261 C 
BRANCH  41  42
ATOM     42  O   UNL     1      -0.274   6.421  -0.441  1.00  0.00    -0.460 OA
BRANCH  42  43
ATOM     43  C   UNL     1       0.185   7.520   0.187  1.00  0.00     0.338 C 
ATOM     44  O   UNL     1      -0.331   8.103   1.137  1.00  0.00    -0.246 OA
BRANCH  43  45
ATOM     45  C   UNL     1       1.507   7.865  -0.342  1.00  0.00     0.060 A 
ATOM     46  C   UNL     1       2.600   7.896   0.532  1.00  0.00     0.016 A 
ATOM     47  C   UNL     1       1.633   8.276  -1.669  1.00  0.00     0.016 A 
ATOM     48  C   UNL     1       3.818   8.406   0.097  1.00  0.00     0.010 A 
ATOM     49  C   UNL     1       2.850   8.799  -2.100  1.00  0.00     0.010 A 
ATOM     50  C   UNL     1       3.927   8.912  -1.203  1.00  0.00    -0.014 A 
BRANCH  50  51
ATOM     51  C   UNL     1       5.079   9.764  -1.564  1.00  0.00     0.031 A 
ATOM     52  C   UNL     1       4.889  11.255  -1.544  1.00  0.00     0.074 A 
ATOM     53  C   UNL     1       6.264   9.224  -1.889  1.00  0.00     0.049 A 
ATOM     54  N   UNL     1       5.698  12.200  -1.941  1.00  0.00    -0.248 NA
ATOM     55  C   UNL     1       3.610  11.740  -1.002  1.00  0.00     0.031 C 
ATOM     56  C   UNL     1       6.583   7.799  -1.835  1.00  0.00     0.029 A 
ATOM     57  N   UNL     1       7.417   9.814  -2.335  1.00  0.00    -0.354 N 
ATOM     58  C   UNL     1       5.023  13.393  -1.706  1.00  0.00     0.074 A 
ATOM     59  C   UNL     1       3.724  13.047  -1.171  1.00  0.00     0.031 C 
ATOM     60  C   UNL     1       7.847   7.627  -2.257  1.00  0.00     0.029 A 
ATOM     61  C   UNL     1       8.396   8.912  -2.671  1.00  0.00     0.049 A 
ATOM     62  H   UNL     1       7.533  10.789  -2.408  1.00  0.00     0.167 HD
ATOM     63  C   UNL     1       5.457  14.659  -1.915  1.00  0.00     0.034 A 
ATOM     64  C   UNL     1       9.583   9.097  -3.280  1.00  0.00     0.034 A 
ATOM     65  C   UNL     1       6.752  14.968  -2.469  1.00  0.00     0.049 A 
ATOM     66  C   UNL     1       9.996  10.504  -3.629  1.00  0.00     0.074 A 
ATOM     67  C   UNL     1       7.304  16.208  -2.734  1.00  0.00     0.029 A 
ATOM     68  N   UNL     1       7.696  14.023  -2.856  1.00  0.00    -0.354 N 
ATOM     69  N   UNL     1       9.347  11.628  -3.425  1.00  0.00    -0.248 NA
ATOM     70  C   UNL     1      11.305  10.671  -4.270  1.00  0.00     0.031 C 
ATOM     71  C   UNL     1       8.542  16.011  -3.355  1.00  0.00     0.029 A 
ATOM     72  C   UNL     1       8.809  14.651  -3.389  1.00  0.00     0.049 A 
ATOM     73  H   UNL     1       7.588  13.048  -2.764  1.00  0.00     0.167 HD
ATOM     74  C   UNL     1      10.193  12.640  -3.869  1.00  0.00     0.074 A 
ATOM     75  C   UNL     1      11.396  11.991  -4.350  1.00  0.00     0.031 C 
ATOM     76  C   UNL     1       9.999  13.984  -3.865  1.00  0.00     0.034 A 
BRANCH  63  77
ATOM     77  C   UNL     1       4.497  15.783  -1.605  1.00  0.00     0.023 A 
ATOM     78  C   UNL     1       4.014  16.010  -0.304  1.00  0.00     0.031 A 
ATOM     79  C   UNL     1       4.022  16.614  -2.635  1.00  0.00     0.131 A 
ATOM     80  C   UNL     1       3.032  16.987  -0.082  1.00  0.00     0.055 A 
ATOM     81  C   UNL     1       3.110  17.643  -2.392  1.00  0.00     0.041 A 
ATOM     82  F   UNL     1       4.423  16.428  -3.903  1.00  0.00    -0.206 F 
ATOM     83  C   UNL     1       2.597  17.824  -1.112  1.00  0.00     0.022 A 
BRANCH  80  84
ATOM     84  S   UNL     1       2.215  17.042   1.538  1.00  0.00     0.124 S 
ATOM     85  O   UNL     1       1.665  15.693   1.636  1.00  0.00    -0.237 OA
ATOM     86  O   UNL     1       3.320  17.349   2.438  1.00  0.00    -0.237 OA
ATOM     87  O   UNL     1       1.222  18.103   1.384  1.00  0.00    -0.744 OA
ENDBRANCH  80  84
ENDBRANCH  63  77
BRANCH  64  88
ATOM     88  C   UNL     1      10.442   7.930  -3.631  1.00  0.00     0.023 A 
ATOM     89  C   UNL     1      11.718   7.779  -3.071  1.00  0.00     0.031 A 
ATOM     90  C   UNL     1      10.014   6.967  -4.564  1.00  0.00     0.131 A 
ATOM     91  C   UNL     1      12.544   6.723  -3.487  1.00  0.00     0.055 A 
ATOM     92  C   UNL     1      10.817   5.886  -4.933  1.00  0.00     0.041 A 
ATOM     93  F   UNL     1       8.796   7.056  -5.124  1.00  0.00    -0.206 F 
ATOM     94  C   UNL     1      12.098   5.768  -4.403  1.00  0.00     0.022 A 
BRANCH  91  95
ATOM     95  S   UNL     1      14.250   6.670  -2.876  1.00  0.00     0.124 S 
ATOM     96  O   UNL     1      14.758   7.968  -3.306  1.00  0.00    -0.237 OA
ATOM     97  O   UNL     1      14.049   6.502  -1.441  1.00  0.00    -0.237 OA
ATOM     98  O   UNL     1      14.821   5.515  -3.564  1.00  0.00    -0.744 OA
ENDBRANCH  91  95
ENDBRANCH  64  88
BRANCH  76  99
ATOM     99  C   UNL     1      11.147  14.844  -4.333  1.00  0.00     0.023 A 
ATOM    100  C   UNL     1      11.595  14.832  -5.665  1.00  0.00     0.031 A 
ATOM    101  C   UNL     1      11.800  15.695  -3.422  1.00  0.00     0.131 A 
ATOM    102  C   UNL     1      12.699  15.614  -6.035  1.00  0.00     0.055 A 
ATOM    103  C   UNL     1      12.852  16.523  -3.813  1.00  0.00     0.041 A 
ATOM    104  F   UNL     1      11.418  15.742  -2.136  1.00  0.00    -0.206 F 
ATOM    105  C   UNL     1      13.316  16.475  -5.124  1.00  0.00     0.022 A 
BRANCH 102 106
ATOM    106  S   UNL     1      13.383  15.416  -7.703  1.00  0.00     0.124 S 
ATOM    107  O   UNL     1      13.718  13.996  -7.726  1.00  0.00    -0.237 OA
ATOM    108  O   UNL     1      12.265  15.821  -8.549  1.00  0.00    -0.237 OA
ATOM    109  O   UNL     1      14.528  16.324  -7.713  1.00  0.00    -0.744 OA
ENDBRANCH 102 106
ENDBRANCH  76  99
ENDBRANCH  50  51
ENDBRANCH  43  45
ENDBRANCH  42  43
ENDBRANCH  41  42
ENDBRANCH  40  41
ENDBRANCH  39  40
ENDBRANCH  38  39
ENDBRANCH  37  38
ENDBRANCH   1  37
TORSDOF 28
