REMARK SMILES Cc1ccc(S(=O)(=O)n2cc(C(=O)C(=O)N[C@@H](Cc3cnc[nH]3)C(=O)OCCOCCOCCOCCOC(=O)c3ccc(-c4c5nc(c(-c6cc(S(=O)(=O)[O-])ccc6F)c6ccc([nH]6)c(-c6cc(S(=O)(=O)[O-])ccc6F)c6nc(c(-c7cc(S(=O)(=O)[O-])ccc7F)c7ccc4[nH]7)C=C6)C=C5)cc3)c3ccccc32)cc1
REMARK SMILES IDX 31 1 30 2 29 3 28 4 27 5 26 6 24 7 25 8 17 9 16 10 14 11
REMARK SMILES IDX 15 12 12 14 13 15 11 16 9 17 10 18 109 19 104 20 108 21
REMARK SMILES IDX 105 22 107 23 106 24 6 25 7 26 8 27 5 28 1 29 2 30 3 31
REMARK SMILES IDX 111 32 4 33 110 34 18 35 19 36 20 37 23 38 21 39 22 40 32 42
REMARK SMILES IDX 33 43 34 44 35 45 36 46 37 47 38 48 39 49 40 50 41 51 42 52
REMARK SMILES IDX 103 53 43 54 102 55 44 56 45 57 46 58 96 59 47 60 101 61
REMARK SMILES IDX 95 62 97 63 48 64 100 65 94 66 93 67 49 69 81 70 61 71 80 72
REMARK SMILES IDX 62 73 65 74 79 75 98 76 63 77 64 78 78 80 99 81 66 82 50 83
REMARK SMILES IDX 51 84 59 85 52 86 58 87 60 88 57 89 53 90 54 91 55 92 56 93
REMARK SMILES IDX 82 94 83 95 91 96 84 97 90 98 92 99 89 100 85 101 86 102
REMARK SMILES IDX 87 103 88 104 67 105 68 106 76 107 69 108 75 109 77 110
REMARK SMILES IDX 74 111 70 112 71 113 72 114 73 115
REMARK H PARENT 16 13 23 41 97 68 65 79
REMARK Flexibility Score: inf
ROOT
ATOM      1  C   UNL     1      -5.146   5.063   3.424  1.00  0.00     0.188 C 
ENDROOT
BRANCH   1   2
ATOM      2  C   UNL     1      -4.817   6.150   2.376  1.00  0.00     0.188 C 
BRANCH   2   3
ATOM      3  O   UNL     1      -4.430   7.451   2.821  1.00  0.00    -0.376 OA
BRANCH   3   4
ATOM      4  C   UNL     1      -5.439   8.195   3.509  1.00  0.00     0.202 C 
BRANCH   4   5
ATOM      5  C   UNL     1      -6.637   8.575   2.647  1.00  0.00     0.261 C 
BRANCH   5   6
ATOM      6  O   UNL     1      -7.491   7.425   2.481  1.00  0.00    -0.462 OA
BRANCH   6   7
ATOM      7  C   UNL     1      -8.149   7.374   1.298  1.00  0.00     0.329 C 
ATOM      8  O   UNL     1      -8.137   8.267   0.457  1.00  0.00    -0.250 OA
BRANCH   7   9
ATOM      9  C   UNL     1      -9.025   6.123   1.155  1.00  0.00     0.198 C 
BRANCH   9  10
ATOM     10  N   UNL     1      -8.635   4.895   1.874  1.00  0.00    -0.335 N 
ATOM     11  C   UNL     1      -7.781   3.892   1.441  1.00  0.00     0.293 C 
ATOM     12  O   UNL     1      -7.784   2.790   1.976  1.00  0.00    -0.265 OA
ATOM     13  H   UNL     1      -9.028   4.774   2.768  1.00  0.00     0.164 HD
BRANCH  11  14
ATOM     14  C   UNL     1      -6.772   4.181   0.306  1.00  0.00     0.252 C 
ATOM     15  O   UNL     1      -6.921   5.220  -0.332  1.00  0.00    -0.283 OA
BRANCH  14  16
ATOM     16  C   UNL     1      -5.639   3.300  -0.035  1.00  0.00     0.054 A 
ATOM     17  N   UNL     1      -4.242   1.569  -0.261  1.00  0.00    -0.240 N 
ATOM     18  C   UNL     1      -5.293   2.062   0.482  1.00  0.00     0.117 A 
ATOM     19  C   UNL     1      -3.898   2.439  -1.273  1.00  0.00     0.065 A 
ATOM     20  C   UNL     1      -4.665   3.589  -1.059  1.00  0.00     0.012 A 
ATOM     21  C   UNL     1      -2.990   2.349  -2.346  1.00  0.00     0.028 A 
ATOM     22  C   UNL     1      -4.421   4.720  -1.871  1.00  0.00     0.011 A 
ATOM     23  C   UNL     1      -2.797   3.476  -3.150  1.00  0.00     0.002 A 
ATOM     24  C   UNL     1      -3.482   4.657  -2.900  1.00  0.00     0.001 A 
BRANCH  17  25
ATOM     25  S   UNL     1      -3.618  -0.007  -0.079  1.00  0.00     0.268 S 
ATOM     26  O   UNL     1      -3.911  -0.658  -1.362  1.00  0.00    -0.201 OA
ATOM     27  O   UNL     1      -4.114  -0.517   1.161  1.00  0.00    -0.201 OA
BRANCH  25  28
ATOM     28  C   UNL     1      -1.845   0.070   0.051  1.00  0.00     0.088 A 
ATOM     29  C   UNL     1       2.461  -0.004   0.055  1.00  0.00     0.044 C 
ATOM     30  C   UNL     1       0.961   0.028   0.071  1.00  0.00    -0.051 A 
ATOM     31  C   UNL     1       0.239  -1.165  -0.056  1.00  0.00     0.005 A 
ATOM     32  C   UNL     1       0.263   1.234   0.228  1.00  0.00     0.005 A 
ATOM     33  C   UNL     1      -1.156  -1.144  -0.073  1.00  0.00     0.022 A 
ATOM     34  C   UNL     1      -1.138   1.258   0.234  1.00  0.00     0.022 A 
ENDBRANCH  25  28
ENDBRANCH  17  25
ENDBRANCH  14  16
ENDBRANCH  11  14
ENDBRANCH   9  10
BRANCH   9  35
ATOM     35  C   UNL     1     -10.496   6.539   1.355  1.00  0.00     0.092 C 
BRANCH  35  36
ATOM     36  C   UNL     1     -11.119   6.258   2.680  1.00  0.00     0.037 A 
ATOM     37  C   UNL     1     -11.706   5.120   3.193  1.00  0.00     0.134 A 
ATOM     38  N   UNL     1     -11.326   7.212   3.645  1.00  0.00    -0.348 N 
ATOM     39  N   UNL     1     -12.319   5.376   4.389  1.00  0.00    -0.245 NA
ATOM     40  C   UNL     1     -12.088   6.646   4.628  1.00  0.00     0.196 A 
ATOM     41  H   UNL     1     -10.987   8.136   3.632  1.00  0.00     0.167 HD
ENDBRANCH  35  36
ENDBRANCH   9  35
ENDBRANCH   7   9
ENDBRANCH   6   7
ENDBRANCH   5   6
ENDBRANCH   4   5
ENDBRANCH   3   4
ENDBRANCH   2   3
ENDBRANCH   1   2
BRANCH   1  42
ATOM     42  O   UNL     1      -5.361   5.551   4.727  1.00  0.00    -0.377 OA
BRANCH  42  43
ATOM     43  C   UNL     1      -4.258   5.484   5.619  1.00  0.00     0.188 C 
BRANCH  43  44
ATOM     44  C   UNL     1      -2.878   5.753   5.019  1.00  0.00     0.188 C 
BRANCH  44  45
ATOM     45  O   UNL     1      -2.335   4.557   4.470  1.00  0.00    -0.376 OA
BRANCH  45  46
ATOM     46  C   UNL     1      -1.456   3.804   5.311  1.00  0.00     0.202 C 
BRANCH  46  47
ATOM     47  C   UNL     1      -1.759   3.669   6.819  1.00  0.00     0.261 C 
BRANCH  47  48
ATOM     48  O   UNL     1      -1.493   4.930   7.470  1.00  0.00    -0.460 OA
BRANCH  48  49
ATOM     49  C   UNL     1      -1.926   5.064   8.752  1.00  0.00     0.338 C 
ATOM     50  O   UNL     1      -1.974   4.189   9.595  1.00  0.00    -0.246 OA
BRANCH  49  51
ATOM     51  C   UNL     1      -2.565   6.411   8.864  1.00  0.00     0.060 A 
ATOM     52  C   UNL     1      -3.732   6.530   9.622  1.00  0.00     0.016 A 
ATOM     53  C   UNL     1      -2.215   7.431   7.977  1.00  0.00     0.016 A 
ATOM     54  C   UNL     1      -4.659   7.536   9.314  1.00  0.00     0.010 A 
ATOM     55  C   UNL     1      -3.180   8.364   7.603  1.00  0.00     0.010 A 
ATOM     56  C   UNL     1      -4.452   8.362   8.197  1.00  0.00    -0.014 A 
BRANCH  56  57
ATOM     57  C   UNL     1      -5.588   8.918   7.413  1.00  0.00     0.031 A 
ATOM     58  C   UNL     1      -5.584  10.266   6.756  1.00  0.00     0.074 A 
ATOM     59  C   UNL     1      -6.581   8.064   7.040  1.00  0.00     0.049 A 
ATOM     60  N   UNL     1      -6.627  10.781   6.186  1.00  0.00    -0.248 NA
ATOM     61  C   UNL     1      -4.446  11.177   6.689  1.00  0.00     0.031 C 
ATOM     62  C   UNL     1      -7.513   8.239   5.927  1.00  0.00     0.029 A 
ATOM     63  N   UNL     1      -6.943   6.816   7.546  1.00  0.00    -0.354 N 
ATOM     64  C   UNL     1      -6.238  11.831   5.391  1.00  0.00     0.074 A 
ATOM     65  C   UNL     1      -4.907  12.127   5.861  1.00  0.00     0.031 C 
ATOM     66  C   UNL     1      -8.327   7.187   5.825  1.00  0.00     0.029 A 
ATOM     67  C   UNL     1      -8.207   6.453   7.048  1.00  0.00     0.049 A 
ATOM     68  H   UNL     1      -6.398   6.272   8.159  1.00  0.00     0.167 HD
ATOM     69  C   UNL     1      -7.049  12.243   4.365  1.00  0.00     0.034 A 
ATOM     70  C   UNL     1      -9.259   6.282   7.898  1.00  0.00     0.034 A 
ATOM     71  C   UNL     1      -8.405  11.628   4.404  1.00  0.00     0.049 A 
ATOM     72  C   UNL     1     -10.265   7.426   7.846  1.00  0.00     0.074 A 
ATOM     73  C   UNL     1      -9.297  11.138   3.459  1.00  0.00     0.029 A 
ATOM     74  N   UNL     1      -9.032  11.398   5.638  1.00  0.00    -0.354 N 
ATOM     75  N   UNL     1     -10.174   8.446   7.020  1.00  0.00    -0.248 NA
ATOM     76  C   UNL     1     -11.453   7.538   8.682  1.00  0.00     0.031 C 
ATOM     77  C   UNL     1     -10.449  10.639   4.137  1.00  0.00     0.029 A 
ATOM     78  C   UNL     1     -10.255  10.774   5.501  1.00  0.00     0.049 A 
ATOM     79  H   UNL     1      -8.643  11.655   6.505  1.00  0.00     0.167 HD
ATOM     80  C   UNL     1     -11.137   9.382   7.278  1.00  0.00     0.074 A 
ATOM     81  C   UNL     1     -11.957   8.725   8.286  1.00  0.00     0.031 C 
ATOM     82  C   UNL     1     -11.139  10.612   6.663  1.00  0.00     0.034 A 
BRANCH  69  83
ATOM     83  C   UNL     1      -6.602  13.156   3.205  1.00  0.00     0.023 A 
ATOM     84  C   UNL     1      -7.551  13.641   2.269  1.00  0.00     0.031 A 
ATOM     85  C   UNL     1      -5.264  13.505   2.899  1.00  0.00     0.131 A 
ATOM     86  C   UNL     1      -7.171  14.389   1.129  1.00  0.00     0.055 A 
ATOM     87  C   UNL     1      -4.898  14.325   1.818  1.00  0.00     0.041 A 
ATOM     88  F   UNL     1      -4.222  13.019   3.581  1.00  0.00    -0.206 F 
ATOM     89  C   UNL     1      -5.850  14.765   0.918  1.00  0.00     0.022 A 
BRANCH  86  90
ATOM     90  S   UNL     1      -8.413  14.820  -0.129  1.00  0.00     0.124 S 
ATOM     91  O   UNL     1      -8.732  13.516  -0.699  1.00  0.00    -0.237 OA
ATOM     92  O   UNL     1      -9.460  15.453   0.664  1.00  0.00    -0.237 OA
ATOM     93  O   UNL     1      -7.690  15.723  -1.025  1.00  0.00    -0.744 OA
ENDBRANCH  86  90
ENDBRANCH  69  83
BRANCH  70  94
ATOM     94  C   UNL     1      -8.883   5.285   8.947  1.00  0.00     0.023 A 
ATOM     95  C   UNL     1      -8.623   3.998   8.409  1.00  0.00     0.031 A 
ATOM     96  C   UNL     1      -8.164   5.663  10.094  1.00  0.00     0.131 A 
ATOM     97  C   UNL     1      -7.495   3.275   8.826  1.00  0.00     0.055 A 
ATOM     98  C   UNL     1      -7.096   4.883  10.570  1.00  0.00     0.041 A 
ATOM     99  F   UNL     1      -8.345   6.874  10.644  1.00  0.00    -0.206 F 
ATOM    100  C   UNL     1      -6.715   3.721   9.894  1.00  0.00     0.022 A 
BRANCH  97 101
ATOM    101  S   UNL     1      -6.839   1.955   7.747  1.00  0.00     0.124 S 
ATOM    102  O   UNL     1      -7.364   0.755   8.389  1.00  0.00    -0.237 OA
ATOM    103  O   UNL     1      -7.405   2.280   6.443  1.00  0.00    -0.237 OA
ATOM    104  O   UNL     1      -5.392   2.147   7.847  1.00  0.00    -0.744 OA
ENDBRANCH  97 101
ENDBRANCH  70  94
BRANCH  82 105
ATOM    105  C   UNL     1     -11.985  11.818   7.057  1.00  0.00     0.023 A 
ATOM    106  C   UNL     1     -12.825  11.850   8.175  1.00  0.00     0.031 A 
ATOM    107  C   UNL     1     -11.908  13.042   6.335  1.00  0.00     0.131 A 
ATOM    108  C   UNL     1     -13.577  12.995   8.501  1.00  0.00     0.055 A 
ATOM    109  C   UNL     1     -12.613  14.197   6.689  1.00  0.00     0.041 A 
ATOM    110  F   UNL     1     -11.124  13.191   5.258  1.00  0.00    -0.206 F 
ATOM    111  C   UNL     1     -13.467  14.175   7.775  1.00  0.00     0.022 A 
BRANCH 108 112
ATOM    112  S   UNL     1     -14.731  12.882   9.891  1.00  0.00     0.124 S 
ATOM    113  O   UNL     1     -15.669  11.868   9.418  1.00  0.00    -0.237 OA
ATOM    114  O   UNL     1     -13.858  12.474  10.987  1.00  0.00    -0.237 OA
ATOM    115  O   UNL     1     -15.275  14.234   9.999  1.00  0.00    -0.744 OA
ENDBRANCH 108 112
ENDBRANCH  82 105
ENDBRANCH  56  57
ENDBRANCH  49  51
ENDBRANCH  48  49
ENDBRANCH  47  48
ENDBRANCH  46  47
ENDBRANCH  45  46
ENDBRANCH  44  45
ENDBRANCH  43  44
ENDBRANCH  42  43
ENDBRANCH   1  42
TORSDOF 30
