REMARK SMILES COC(=O)c1ccc([C@H]2CC(=O)Nc3c(C(=O)OCCOCCOCCOCCOC(=O)c4ccc(-c5c6nc(c(-c7cc(S(=O)(=O)[O-])ccc7F)c7ccc([nH]7)c(-c7cc(S(=O)(=O)[O-])ccc7F)c7nc(c(-c8cc(S(=O)(=O)[O-])ccc8F)c8ccc5[nH]8)C=C7)C=C6)cc4)cn(-c4cc(OC)ccc4OC)c32)cc1
REMARK SMILES IDX 24 1 23 2 22 3 21 4 20 5 19 6 18 7 16 8 17 9 15 10 9 11
REMARK SMILES IDX 10 12 108 13 11 14 14 15 97 16 12 17 13 18 96 19 8 21 5 22
REMARK SMILES IDX 6 23 110 24 7 25 109 26 3 27 4 28 2 29 1 30 98 31 99 32
REMARK SMILES IDX 105 33 100 34 104 35 103 36 106 37 107 38 101 39 102 40
REMARK SMILES IDX 25 41 26 42 27 43 28 44 29 45 30 46 31 47 32 48 33 49 34 50
REMARK SMILES IDX 95 51 35 52 94 53 36 54 37 55 38 56 88 57 39 58 93 59 87 60
REMARK SMILES IDX 89 61 40 62 92 63 86 64 85 65 41 67 73 68 53 69 72 70 54 71
REMARK SMILES IDX 57 72 71 73 90 74 55 75 56 76 70 78 91 79 58 80 42 81 43 82
REMARK SMILES IDX 51 83 44 84 50 85 52 86 49 87 45 88 46 89 47 90 48 91 74 92
REMARK SMILES IDX 75 93 83 94 76 95 82 96 84 97 81 98 77 99 78 100 79 101
REMARK SMILES IDX 80 102 59 103 60 104 68 105 61 106 67 107 69 108 66 109
REMARK SMILES IDX 62 110 63 111 64 112 65 113
REMARK H PARENT 13 20 89 66 57 77
REMARK Flexibility Score: inf
ROOT
ATOM      1  O   UNL     1      -3.669  13.419   0.716  1.00  0.00    -0.377 OA
ENDROOT
BRANCH   1   2
ATOM      2  C   UNL     1      -2.296  13.265   0.415  1.00  0.00     0.188 C 
BRANCH   2   3
ATOM      3  C   UNL     1      -1.890  13.738  -1.005  1.00  0.00     0.188 C 
BRANCH   3   4
ATOM      4  O   UNL     1      -2.784  14.418  -1.883  1.00  0.00    -0.376 OA
BRANCH   4   5
ATOM      5  C   UNL     1      -4.182  14.188  -1.905  1.00  0.00     0.202 C 
BRANCH   5   6
ATOM      6  C   UNL     1      -4.759  12.784  -2.134  1.00  0.00     0.261 C 
BRANCH   6   7
ATOM      7  O   UNL     1      -4.082  11.725  -1.464  1.00  0.00    -0.460 OA
BRANCH   7   8
ATOM      8  C   UNL     1      -3.010  11.220  -2.131  1.00  0.00     0.341 C 
ATOM      9  O   UNL     1      -2.719  11.467  -3.294  1.00  0.00    -0.246 OA
BRANCH   8  10
ATOM     10  C   UNL     1      -2.182  10.403  -1.260  1.00  0.00     0.102 A 
ATOM     11  C   UNL     1      -1.808   7.285   0.270  1.00  0.00     0.078 C 
ATOM     12  C   UNL     1      -2.529   7.420   1.615  1.00  0.00     0.115 C 
ATOM     13  C   UNL     1      -1.583   8.692  -0.091  1.00  0.00     0.055 A 
ATOM     14  C   UNL     1      -3.855   8.201   1.324  1.00  0.00     0.225 C 
ATOM     15  C   UNL     1      -2.613   9.551  -0.236  1.00  0.00     0.078 A 
ATOM     16  N   UNL     1      -0.365   9.251  -0.456  1.00  0.00    -0.314 N 
ATOM     17  O   UNL     1      -4.910   7.926   1.894  1.00  0.00    -0.275 OA
ATOM     18  N   UNL     1      -3.793   9.248   0.401  1.00  0.00    -0.324 N 
ATOM     19  C   UNL     1      -0.776  10.284  -1.308  1.00  0.00     0.109 A 
ATOM     20  H   UNL     1      -4.603   9.774   0.206  1.00  0.00     0.170 HD
BRANCH  11  21
ATOM     21  C   UNL     1      -0.468   6.795  -0.187  1.00  0.00    -0.038 A 
ATOM     22  C   UNL     1       2.685   8.159  -1.339  1.00  0.00     0.060 A 
ATOM     23  C   UNL     1       2.340   7.553   0.571  1.00  0.00     0.016 A 
ATOM     24  C   UNL     1       1.326   7.990  -2.510  1.00  0.00     0.016 A 
ATOM     25  C   UNL     1       0.758   6.902   1.046  1.00  0.00     0.005 A 
ATOM     26  C   UNL     1      -0.197   7.289  -1.930  1.00  0.00     0.005 A 
BRANCH  22  27
ATOM     27  C   UNL     1       3.902   8.619  -2.215  1.00  0.00     0.337 C 
ATOM     28  O   UNL     1       4.465   7.863  -2.997  1.00  0.00    -0.246 OA
BRANCH  27  29
ATOM     29  O   UNL     1       4.249   9.921  -2.017  1.00  0.00    -0.465 OA
ATOM     30  C   UNL     1       5.604  10.235  -2.373  1.00  0.00     0.282 C 
ENDBRANCH  27  29
ENDBRANCH  22  27
ENDBRANCH  11  21
BRANCH  16  31
ATOM     31  C   UNL     1       1.026   8.565  -0.414  1.00  0.00     0.091 A 
ATOM     32  C   UNL     1       1.582   6.667  -0.902  1.00  0.00     0.077 A 
ATOM     33  C   UNL     1       2.351   9.629   0.220  1.00  0.00     0.143 A 
ATOM     34  C   UNL     1       3.275   6.140  -0.729  1.00  0.00     0.121 A 
ATOM     35  C   UNL     1       4.000   8.944   0.371  1.00  0.00     0.052 A 
ATOM     36  C   UNL     1       4.439   7.272  -0.098  1.00  0.00     0.050 A 
BRANCH  33  37
ATOM     37  O   UNL     1       2.302  10.834   0.856  1.00  0.00    -0.495 OA
ATOM     38  C   UNL     1       1.338  11.781   0.466  1.00  0.00     0.278 C 
ENDBRANCH  33  37
BRANCH  34  39
ATOM     39  O   UNL     1       3.455   4.857  -1.137  1.00  0.00    -0.497 OA
ATOM     40  C   UNL     1       4.789   4.404  -1.148  1.00  0.00     0.278 C 
ENDBRANCH  34  39
ENDBRANCH  16  31
ENDBRANCH   8  10
ENDBRANCH   7   8
ENDBRANCH   6   7
ENDBRANCH   5   6
ENDBRANCH   4   5
ENDBRANCH   3   4
ENDBRANCH   2   3
ENDBRANCH   1   2
BRANCH   1  41
ATOM     41  C   UNL     1      -4.008  14.608   1.431  1.00  0.00     0.188 C 
BRANCH  41  42
ATOM     42  C   UNL     1      -3.353  15.947   0.991  1.00  0.00     0.188 C 
BRANCH  42  43
ATOM     43  O   UNL     1      -1.994  15.852   0.587  1.00  0.00    -0.376 OA
BRANCH  43  44
ATOM     44  C   UNL     1      -0.901  16.294   1.374  1.00  0.00     0.202 C 
BRANCH  44  45
ATOM     45  C   UNL     1      -0.631  15.601   2.706  1.00  0.00     0.261 C 
BRANCH  45  46
ATOM     46  O   UNL     1      -1.808  15.272   3.408  1.00  0.00    -0.460 OA
BRANCH  46  47
ATOM     47  C   UNL     1      -2.492  16.342   3.858  1.00  0.00     0.338 C 
ATOM     48  O   UNL     1      -2.300  17.510   3.573  1.00  0.00    -0.246 OA
BRANCH  47  49
ATOM     49  C   UNL     1      -3.458  15.869   4.848  1.00  0.00     0.060 A 
ATOM     50  C   UNL     1      -4.256  16.861   5.413  1.00  0.00     0.016 A 
ATOM     51  C   UNL     1      -3.173  14.655   5.487  1.00  0.00     0.016 A 
ATOM     52  C   UNL     1      -4.460  16.793   6.765  1.00  0.00     0.010 A 
ATOM     53  C   UNL     1      -3.336  14.613   6.840  1.00  0.00     0.010 A 
ATOM     54  C   UNL     1      -3.875  15.733   7.466  1.00  0.00    -0.014 A 
BRANCH  54  55
ATOM     55  C   UNL     1      -3.958  15.732   8.904  1.00  0.00     0.031 A 
ATOM     56  C   UNL     1      -5.296  15.281   9.329  1.00  0.00     0.074 A 
ATOM     57  C   UNL     1      -2.893  15.982   9.687  1.00  0.00     0.049 A 
ATOM     58  N   UNL     1      -6.287  16.025   9.695  1.00  0.00    -0.248 NA
ATOM     59  C   UNL     1      -5.682  13.899   8.983  1.00  0.00     0.031 C 
ATOM     60  C   UNL     1      -1.494  16.175   9.299  1.00  0.00     0.029 A 
ATOM     61  N   UNL     1      -2.833  16.025  11.040  1.00  0.00    -0.354 N 
ATOM     62  C   UNL     1      -7.319  15.127   9.928  1.00  0.00     0.074 A 
ATOM     63  C   UNL     1      -7.001  13.970   9.149  1.00  0.00     0.031 C 
ATOM     64  C   UNL     1      -0.708  16.077  10.399  1.00  0.00     0.029 A 
ATOM     65  C   UNL     1      -1.551  15.939  11.577  1.00  0.00     0.049 A 
ATOM     66  H   UNL     1      -3.637  16.111  11.603  1.00  0.00     0.167 HD
ATOM     67  C   UNL     1      -8.090  15.248  11.043  1.00  0.00     0.034 A 
ATOM     68  C   UNL     1      -1.244  15.683  12.881  1.00  0.00     0.034 A 
ATOM     69  C   UNL     1      -7.978  16.594  11.584  1.00  0.00     0.049 A 
ATOM     70  C   UNL     1      -2.468  16.010  13.668  1.00  0.00     0.074 A 
ATOM     71  C   UNL     1      -8.200  17.859  11.072  1.00  0.00     0.029 A 
ATOM     72  N   UNL     1      -7.179  16.782  12.695  1.00  0.00    -0.354 N 
ATOM     73  N   UNL     1      -2.950  17.221  13.762  1.00  0.00    -0.248 NA
ATOM     74  C   UNL     1      -3.440  14.944  13.879  1.00  0.00     0.031 C 
ATOM     75  C   UNL     1      -7.150  18.667  11.603  1.00  0.00     0.029 A 
ATOM     76  C   UNL     1      -6.398  17.892  12.488  1.00  0.00     0.049 A 
ATOM     77  H   UNL     1      -7.172  16.215  13.500  1.00  0.00     0.167 HD
ATOM     78  C   UNL     1      -4.324  17.081  13.617  1.00  0.00     0.074 A 
ATOM     79  C   UNL     1      -4.573  15.646  13.764  1.00  0.00     0.031 C 
ATOM     80  C   UNL     1      -5.087  18.086  13.087  1.00  0.00     0.034 A 
BRANCH  67  81
ATOM     81  C   UNL     1      -8.517  14.058  11.893  1.00  0.00     0.023 A 
ATOM     82  C   UNL     1      -9.121  14.374  13.120  1.00  0.00     0.031 A 
ATOM     83  C   UNL     1      -8.129  12.703  11.746  1.00  0.00     0.131 A 
ATOM     84  C   UNL     1      -9.138  13.453  14.177  1.00  0.00     0.055 A 
ATOM     85  C   UNL     1      -8.195  11.773  12.786  1.00  0.00     0.041 A 
ATOM     86  F   UNL     1      -7.619  12.190  10.623  1.00  0.00    -0.206 F 
ATOM     87  C   UNL     1      -8.660  12.156  14.027  1.00  0.00     0.022 A 
BRANCH  84  88
ATOM     88  S   UNL     1      -9.616  14.062  15.807  1.00  0.00     0.124 S 
ATOM     89  O   UNL     1      -8.694  15.180  15.972  1.00  0.00    -0.237 OA
ATOM     90  O   UNL     1     -11.018  14.405  15.594  1.00  0.00    -0.237 OA
ATOM     91  O   UNL     1      -9.378  12.914  16.678  1.00  0.00    -0.744 OA
ENDBRANCH  84  88
ENDBRANCH  67  81
BRANCH  68  92
ATOM     92  C   UNL     1      -0.147  14.799  13.392  1.00  0.00     0.023 A 
ATOM     93  C   UNL     1       0.316  14.817  14.730  1.00  0.00     0.031 A 
ATOM     94  C   UNL     1       0.307  13.725  12.591  1.00  0.00     0.131 A 
ATOM     95  C   UNL     1       1.191  13.802  15.202  1.00  0.00     0.055 A 
ATOM     96  C   UNL     1       1.165  12.729  13.062  1.00  0.00     0.041 A 
ATOM     97  F   UNL     1      -0.137  13.556  11.336  1.00  0.00    -0.206 F 
ATOM     98  C   UNL     1       1.605  12.758  14.373  1.00  0.00     0.022 A 
BRANCH  95  99
ATOM     99  S   UNL     1       1.765  13.778  16.938  1.00  0.00     0.124 S 
ATOM    100  O   UNL     1       2.583  14.983  17.012  1.00  0.00    -0.237 OA
ATOM    101  O   UNL     1       0.513  13.794  17.685  1.00  0.00    -0.237 OA
ATOM    102  O   UNL     1       2.516  12.524  17.033  1.00  0.00    -0.744 OA
ENDBRANCH  95  99
ENDBRANCH  68  92
BRANCH  80 103
ATOM    103  C   UNL     1      -4.475  19.469  12.954  1.00  0.00     0.023 A 
ATOM    104  C   UNL     1      -3.328  19.796  12.191  1.00  0.00     0.031 A 
ATOM    105  C   UNL     1      -5.185  20.529  13.547  1.00  0.00     0.131 A 
ATOM    106  C   UNL     1      -2.937  21.146  12.053  1.00  0.00     0.055 A 
ATOM    107  C   UNL     1      -4.808  21.860  13.388  1.00  0.00     0.041 A 
ATOM    108  F   UNL     1      -6.294  20.285  14.264  1.00  0.00    -0.206 F 
ATOM    109  C   UNL     1      -3.679  22.174  12.643  1.00  0.00     0.022 A 
BRANCH 106 110
ATOM    110  S   UNL     1      -1.440  21.600  11.113  1.00  0.00     0.124 S 
ATOM    111  O   UNL     1      -0.424  20.692  11.631  1.00  0.00    -0.237 OA
ATOM    112  O   UNL     1      -1.855  21.375   9.731  1.00  0.00    -0.237 OA
ATOM    113  O   UNL     1      -1.233  23.008  11.461  1.00  0.00    -0.744 OA
ENDBRANCH 106 110
ENDBRANCH  80 103
ENDBRANCH  54  55
ENDBRANCH  47  49
ENDBRANCH  46  47
ENDBRANCH  45  46
ENDBRANCH  44  45
ENDBRANCH  43  44
ENDBRANCH  42  43
ENDBRANCH  41  42
ENDBRANCH   1  41
TORSDOF 29
