REMARK SMILES Cc1ccc(-c2nc(NC(=O)[C@H]3[C@@H](C(=O)OCCOCCOCCOCCOC(=O)c4ccc(-c5c6nc(c(-c7cc(S(=O)(=O)[O-])ccc7F)c7ccc([nH]7)c(-c7cc(S(=O)(=O)[O-])ccc7F)c7nc(c(-c8cc(S(=O)(=O)[O-])ccc8F)c8ccc5[nH]8)C=C7)C=C6)cc4)[C@@H]4CC[C@H]3O4)sc2C)cc1
REMARK SMILES IDX 22 1 21 2 20 3 19 4 18 5 17 6 16 7 14 8 15 9 13 10 12 11
REMARK SMILES IDX 97 12 94 13 96 14 98 15 95 16 10 17 9 18 11 20 8 21 6 22
REMARK SMILES IDX 7 23 100 24 99 25 101 26 5 27 1 28 2 29 3 30 103 31 4 32
REMARK SMILES IDX 102 33 23 34 24 35 25 36 26 37 27 38 28 39 29 40 30 41 31 42
REMARK SMILES IDX 32 43 93 44 33 45 92 46 34 47 35 48 36 49 86 50 37 51 91 52
REMARK SMILES IDX 85 53 87 54 38 55 90 56 84 57 83 58 39 60 71 61 51 62 70 63
REMARK SMILES IDX 52 64 55 65 69 66 88 67 53 68 54 69 68 71 89 72 56 73 40 74
REMARK SMILES IDX 41 75 49 76 42 77 48 78 50 79 47 80 43 81 44 82 45 83 46 84
REMARK SMILES IDX 72 85 73 86 81 87 74 88 80 89 82 90 79 91 75 92 76 93 77 94
REMARK SMILES IDX 78 95 57 96 58 97 66 98 59 99 65 100 67 101 64 102 60 103
REMARK SMILES IDX 61 104 62 105 63 106
REMARK H PARENT 9 19 87 59 55 70
REMARK Flexibility Score: inf
ROOT
ATOM      1  O   UNL     1      -9.224  -0.087  -4.800  1.00  0.00    -0.377 OA
ENDROOT
BRANCH   1   2
ATOM      2  C   UNL     1      -9.917   0.707  -3.832  1.00  0.00     0.188 C 
BRANCH   2   3
ATOM      3  C   UNL     1      -9.864   2.256  -3.923  1.00  0.00     0.188 C 
BRANCH   3   4
ATOM      4  O   UNL     1      -8.700   2.923  -3.440  1.00  0.00    -0.376 OA
BRANCH   4   5
ATOM      5  C   UNL     1      -7.904   2.164  -2.578  1.00  0.00     0.202 C 
BRANCH   5   6
ATOM      6  C   UNL     1      -8.424   1.796  -1.246  1.00  0.00     0.261 C 
BRANCH   6   7
ATOM      7  O   UNL     1      -9.722   2.305  -0.997  1.00  0.00    -0.463 OA
BRANCH   7   8
ATOM      8  C   UNL     1     -10.858   1.631  -0.816  1.00  0.00     0.312 C 
ATOM      9  O   UNL     1     -11.899   2.125  -1.264  1.00  0.00    -0.252 OA
BRANCH   8  10
ATOM     10  C   UNL     1     -10.982   0.400   0.058  1.00  0.00     0.143 C 
ATOM     11  C   UNL     1      -9.862  -0.521   0.513  1.00  0.00     0.124 C 
ATOM     12  C   UNL     1      -9.991  -1.678  -0.560  1.00  0.00     0.132 C 
ATOM     13  C   UNL     1     -11.851  -0.576  -0.746  1.00  0.00     0.133 C 
ATOM     14  C   UNL     1     -11.012  -2.707  -0.075  1.00  0.00     0.035 C 
ATOM     15  O   UNL     1     -10.834  -1.109  -1.605  1.00  0.00    -0.373 OA
ATOM     16  C   UNL     1     -12.250  -1.811   0.079  1.00  0.00     0.036 C 
BRANCH  11  17
ATOM     17  C   UNL     1      -8.447  -0.118   0.880  1.00  0.00     0.232 C 
ATOM     18  N   UNL     1      -7.976   1.030   1.419  1.00  0.00    -0.302 N 
ATOM     19  H   UNL     1      -7.034   0.949   1.694  1.00  0.00     0.172 HD
ATOM     20  O   UNL     1      -7.562  -0.960   0.694  1.00  0.00    -0.274 OA
BRANCH  18  21
ATOM     21  C   UNL     1      -8.477   2.274   1.680  1.00  0.00     0.190 A 
ATOM     22  C   UNL     1      -8.461   4.603   1.551  1.00  0.00     0.086 A 
ATOM     23  N   UNL     1      -7.778   3.382   1.540  1.00  0.00    -0.220 NA
ATOM     24  C   UNL     1      -9.943   4.060   1.464  1.00  0.00     0.031 A 
ATOM     25  S   UNL     1     -10.012   2.459   2.234  1.00  0.00    -0.101 S 
ATOM     26  C   UNL     1     -11.417   4.439   1.108  1.00  0.00     0.059 C 
BRANCH  22  27
ATOM     27  C   UNL     1      -7.626   6.321   1.587  1.00  0.00     0.001 A 
ATOM     28  C   UNL     1      -7.484  10.789   0.938  1.00  0.00     0.044 C 
ATOM     29  C   UNL     1      -7.229   9.350   1.240  1.00  0.00    -0.051 A 
ATOM     30  C   UNL     1      -6.650   8.418   0.407  1.00  0.00     0.004 A 
ATOM     31  C   UNL     1      -7.665   8.833   2.416  1.00  0.00     0.004 A 
ATOM     32  C   UNL     1      -6.781   6.984   0.638  1.00  0.00     0.010 A 
ATOM     33  C   UNL     1      -7.813   7.431   2.562  1.00  0.00     0.010 A 
ENDBRANCH  22  27
ENDBRANCH  18  21
ENDBRANCH  11  17
ENDBRANCH   8  10
ENDBRANCH   7   8
ENDBRANCH   6   7
ENDBRANCH   5   6
ENDBRANCH   4   5
ENDBRANCH   3   4
ENDBRANCH   2   3
ENDBRANCH   1   2
BRANCH   1  34
ATOM     34  C   UNL     1      -7.810  -0.272  -4.637  1.00  0.00     0.188 C 
BRANCH  34  35
ATOM     35  C   UNL     1      -7.015   0.926  -5.138  1.00  0.00     0.188 C 
BRANCH  35  36
ATOM     36  O   UNL     1      -7.849   1.859  -5.819  1.00  0.00    -0.376 OA
BRANCH  36  37
ATOM     37  C   UNL     1      -8.214   1.452  -7.125  1.00  0.00     0.202 C 
BRANCH  37  38
ATOM     38  C   UNL     1      -6.915   1.384  -7.919  1.00  0.00     0.261 C 
BRANCH  38  39
ATOM     39  O   UNL     1      -6.208   2.649  -7.643  1.00  0.00    -0.460 OA
BRANCH  39  40
ATOM     40  C   UNL     1      -5.070   2.633  -6.877  1.00  0.00     0.338 C 
ATOM     41  O   UNL     1      -4.107   1.916  -7.117  1.00  0.00    -0.246 OA
BRANCH  40  42
ATOM     42  C   UNL     1      -5.149   3.503  -5.627  1.00  0.00     0.060 A 
ATOM     43  C   UNL     1      -4.229   3.337  -4.574  1.00  0.00     0.016 A 
ATOM     44  C   UNL     1      -6.245   4.329  -5.382  1.00  0.00     0.016 A 
ATOM     45  C   UNL     1      -4.505   3.845  -3.278  1.00  0.00     0.010 A 
ATOM     46  C   UNL     1      -6.529   4.799  -4.088  1.00  0.00     0.010 A 
ATOM     47  C   UNL     1      -5.741   4.469  -2.986  1.00  0.00    -0.014 A 
BRANCH  47  48
ATOM     48  C   UNL     1      -6.305   4.604  -1.579  1.00  0.00     0.031 A 
ATOM     49  C   UNL     1      -7.787   5.453  -1.322  1.00  0.00     0.074 A 
ATOM     50  C   UNL     1      -5.638   3.913  -0.577  1.00  0.00     0.049 A 
ATOM     51  N   UNL     1      -8.807   5.208  -0.519  1.00  0.00    -0.248 NA
ATOM     52  C   UNL     1      -8.082   6.736  -1.959  1.00  0.00     0.031 C 
ATOM     53  C   UNL     1      -5.526   4.394   0.754  1.00  0.00     0.029 A 
ATOM     54  N   UNL     1      -4.990   2.628  -0.428  1.00  0.00    -0.354 N 
ATOM     55  C   UNL     1      -9.537   6.420  -0.071  1.00  0.00     0.074 A 
ATOM     56  C   UNL     1      -9.165   7.208  -1.286  1.00  0.00     0.031 C 
ATOM     57  C   UNL     1      -5.314   3.390   1.556  1.00  0.00     0.029 A 
ATOM     58  C   UNL     1      -4.901   2.228   0.936  1.00  0.00     0.049 A 
ATOM     59  H   UNL     1      -4.651   2.092  -1.181  1.00  0.00     0.167 HD
ATOM     60  C   UNL     1     -10.099   6.819   1.341  1.00  0.00     0.034 A 
ATOM     61  C   UNL     1      -4.575   1.220   1.815  1.00  0.00     0.034 A 
ATOM     62  C   UNL     1      -9.950   5.961   2.959  1.00  0.00     0.049 A 
ATOM     63  C   UNL     1      -4.984   1.625   3.464  1.00  0.00     0.074 A 
ATOM     64  C   UNL     1     -10.772   5.438   4.003  1.00  0.00     0.029 A 
ATOM     65  N   UNL     1      -8.663   5.385   3.683  1.00  0.00    -0.354 N 
ATOM     66  N   UNL     1      -5.250   2.873   3.925  1.00  0.00    -0.248 NA
ATOM     67  C   UNL     1      -5.363   0.750   4.588  1.00  0.00     0.031 C 
ATOM     68  C   UNL     1     -10.007   4.500   4.974  1.00  0.00     0.029 A 
ATOM     69  C   UNL     1      -8.656   4.395   4.650  1.00  0.00     0.049 A 
ATOM     70  H   UNL     1      -7.792   5.763   3.421  1.00  0.00     0.167 HD
ATOM     71  C   UNL     1      -6.464   2.849   4.683  1.00  0.00     0.074 A 
ATOM     72  C   UNL     1      -6.181   1.556   5.332  1.00  0.00     0.031 C 
ATOM     73  C   UNL     1      -7.206   3.959   5.179  1.00  0.00     0.034 A 
BRANCH  60  74
ATOM     74  C   UNL     1     -10.987   8.135   1.371  1.00  0.00     0.023 A 
ATOM     75  C   UNL     1     -11.749   8.335   2.525  1.00  0.00     0.031 A 
ATOM     76  C   UNL     1     -11.234   9.132   0.388  1.00  0.00     0.131 A 
ATOM     77  C   UNL     1     -12.740   9.332   2.631  1.00  0.00     0.055 A 
ATOM     78  C   UNL     1     -12.199  10.152   0.496  1.00  0.00     0.041 A 
ATOM     79  F   UNL     1     -10.562   9.262  -0.747  1.00  0.00    -0.206 F 
ATOM     80  C   UNL     1     -12.982  10.245   1.620  1.00  0.00     0.022 A 
BRANCH  77  81
ATOM     81  S   UNL     1     -13.782   9.301   4.101  1.00  0.00     0.124 S 
ATOM     82  O   UNL     1     -14.354   7.961   4.025  1.00  0.00    -0.237 OA
ATOM     83  O   UNL     1     -12.809   9.529   5.163  1.00  0.00    -0.237 OA
ATOM     84  O   UNL     1     -14.724  10.394   3.871  1.00  0.00    -0.744 OA
ENDBRANCH  77  81
ENDBRANCH  60  74
BRANCH  61  85
ATOM     85  C   UNL     1      -3.958   0.050   0.997  1.00  0.00     0.023 A 
ATOM     86  C   UNL     1      -4.669  -1.056   0.425  1.00  0.00     0.031 A 
ATOM     87  C   UNL     1      -2.894   0.531   0.175  1.00  0.00     0.131 A 
ATOM     88  C   UNL     1      -4.483  -1.426  -0.954  1.00  0.00     0.055 A 
ATOM     89  C   UNL     1      -2.807   0.255  -1.201  1.00  0.00     0.041 A 
ATOM     90  F   UNL     1      -2.103   1.519   0.626  1.00  0.00    -0.206 F 
ATOM     91  C   UNL     1      -3.638  -0.686  -1.779  1.00  0.00     0.022 A 
BRANCH  88  92
ATOM     92  S   UNL     1      -5.372  -2.812  -1.806  1.00  0.00     0.124 S 
ATOM     93  O   UNL     1      -4.516  -3.959  -1.486  1.00  0.00    -0.237 OA
ATOM     94  O   UNL     1      -6.694  -2.826  -1.224  1.00  0.00    -0.237 OA
ATOM     95  O   UNL     1      -5.341  -2.405  -3.216  1.00  0.00    -0.744 OA
ENDBRANCH  88  92
ENDBRANCH  61  85
BRANCH  73  96
ATOM     96  C   UNL     1      -6.383   5.116   5.818  1.00  0.00     0.023 A 
ATOM     97  C   UNL     1      -5.111   4.879   6.356  1.00  0.00     0.031 A 
ATOM     98  C   UNL     1      -6.918   6.404   6.095  1.00  0.00     0.131 A 
ATOM     99  C   UNL     1      -4.508   5.810   7.224  1.00  0.00     0.055 A 
ATOM    100  C   UNL     1      -6.252   7.382   6.841  1.00  0.00     0.041 A 
ATOM    101  F   UNL     1      -8.154   6.762   5.728  1.00  0.00    -0.206 F 
ATOM    102  C   UNL     1      -5.053   7.071   7.453  1.00  0.00     0.022 A 
BRANCH  99 103
ATOM    103  S   UNL     1      -3.196   5.176   8.302  1.00  0.00     0.124 S 
ATOM    104  O   UNL     1      -3.798   3.954   8.821  1.00  0.00    -0.237 OA
ATOM    105  O   UNL     1      -2.079   5.012   7.394  1.00  0.00    -0.237 OA
ATOM    106  O   UNL     1      -3.036   6.247   9.306  1.00  0.00    -0.744 OA
ENDBRANCH  99 103
ENDBRANCH  73  96
ENDBRANCH  47  48
ENDBRANCH  40  42
ENDBRANCH  39  40
ENDBRANCH  38  39
ENDBRANCH  37  38
ENDBRANCH  36  37
ENDBRANCH  35  36
ENDBRANCH  34  35
ENDBRANCH   1  34
TORSDOF 26
