REMARK SMILES C#CC[NH2+]CC(=O)N1CC[C@](CCC)(C(=O)OCCOCCOCCOCCOC(=O)c2ccc(-c3c4nc(c(-c5cc(S(=O)(=O)[O-])ccc5F)c5ccc([nH]5)c(-c5cc(S(=O)(=O)[O-])ccc5F)c5nc(c(-c6cc(S(=O)(=O)[O-])ccc6F)c6ccc3[nH]6)C=C5)C=C4)cc2)C1
REMARK SMILES IDX 22 1 21 2 20 3 19 4 18 5 17 6 15 7 16 8 11 9 8 10 9 11 95 12
REMARK SMILES IDX 10 13 6 14 7 15 5 16 4 17 3 20 2 21 1 22 12 23 13 24 14 25
REMARK SMILES IDX 23 26 24 27 25 28 26 29 27 30 28 31 29 32 30 33 31 34 32 35
REMARK SMILES IDX 33 36 94 37 34 38 93 39 35 40 36 41 37 42 87 43 38 44 92 45
REMARK SMILES IDX 86 46 88 47 39 48 91 49 85 50 84 51 40 53 72 54 52 55 71 56
REMARK SMILES IDX 53 57 56 58 70 59 89 60 54 61 55 62 69 64 90 65 57 66 41 67
REMARK SMILES IDX 42 68 50 69 43 70 49 71 51 72 48 73 44 74 45 75 46 76 47 77
REMARK SMILES IDX 73 78 74 79 82 80 75 81 81 82 83 83 80 84 76 85 77 86 78 87
REMARK SMILES IDX 79 88 58 89 59 90 67 91 60 92 66 93 68 94 65 95 61 96 62 97
REMARK SMILES IDX 63 98 64 99
REMARK H PARENT 4 18 4 19 88 52 56 63
REMARK Flexibility Score: inf
ROOT
ATOM      1  C   UNL     1      -6.610   5.985  -0.275  1.00  0.00     0.188 C 
ENDROOT
BRANCH   1   2
ATOM      2  C   UNL     1      -7.657   5.242   0.541  1.00  0.00     0.188 C 
BRANCH   2   3
ATOM      3  O   UNL     1      -7.775   5.364   1.950  1.00  0.00    -0.376 OA
BRANCH   3   4
ATOM      4  C   UNL     1      -6.788   5.984   2.762  1.00  0.00     0.202 C 
BRANCH   4   5
ATOM      5  C   UNL     1      -5.418   5.301   2.959  1.00  0.00     0.261 C 
BRANCH   5   6
ATOM      6  O   UNL     1      -4.610   5.149   1.769  1.00  0.00    -0.463 OA
BRANCH   6   7
ATOM      7  C   UNL     1      -4.757   3.961   1.152  1.00  0.00     0.314 C 
ATOM      8  O   UNL     1      -5.363   3.025   1.672  1.00  0.00    -0.252 OA
BRANCH   7   9
ATOM      9  C   UNL     1      -4.052   3.816  -0.216  1.00  0.00     0.087 C 
ATOM     10  N   UNL     1      -3.684   1.716  -1.270  1.00  0.00    -0.337 N 
ATOM     11  C   UNL     1      -2.404   2.467  -1.130  1.00  0.00     0.121 C 
ATOM     12  C   UNL     1      -4.755   2.590  -0.879  1.00  0.00     0.138 C 
ATOM     13  C   UNL     1      -2.658   3.271   0.123  1.00  0.00     0.042 C 
BRANCH  10  14
ATOM     14  C   UNL     1      -4.038   0.420  -1.658  1.00  0.00     0.277 C 
ATOM     15  O   UNL     1      -4.676   0.240  -2.700  1.00  0.00    -0.268 OA
BRANCH  14  16
ATOM     16  C   UNL     1      -3.949  -0.751  -0.587  1.00  0.00     0.362 C 
BRANCH  16  17
ATOM     17  N   UNL     1      -2.573  -1.175  -0.175  1.00  0.00    -0.328 N 
ATOM     18  H   UNL     1      -2.596  -1.656   0.724  1.00  0.00     0.347 HD
ATOM     19  H   UNL     1      -2.149  -1.829  -0.833  1.00  0.00     0.347 HD
BRANCH  17  20
ATOM     20  C   UNL     1      -1.845   0.063  -0.075  1.00  0.00     0.352 C 
BRANCH  20  21
ATOM     21  C   UNL     1      -0.325   0.063  -0.075  1.00  0.00    -0.047 C 
ATOM     22  C   UNL     1       0.979   0.063  -0.075  1.00  0.00     0.010 C 
ENDBRANCH  20  21
ENDBRANCH  17  20
ENDBRANCH  16  17
ENDBRANCH  14  16
ENDBRANCH  10  14
BRANCH   9  23
ATOM     23  C   UNL     1      -3.758   4.998  -1.250  1.00  0.00     0.020 C 
BRANCH  23  24
ATOM     24  C   UNL     1      -3.990   4.758  -2.777  1.00  0.00    -0.002 C 
ATOM     25  C   UNL     1      -5.397   4.907  -3.326  1.00  0.00     0.004 C 
ENDBRANCH  23  24
ENDBRANCH   9  23
ENDBRANCH   7   9
ENDBRANCH   6   7
ENDBRANCH   5   6
ENDBRANCH   4   5
ENDBRANCH   3   4
ENDBRANCH   2   3
ENDBRANCH   1   2
BRANCH   1  26
ATOM     26  O   UNL     1      -5.773   6.871   0.427  1.00  0.00    -0.377 OA
BRANCH  26  27
ATOM     27  C   UNL     1      -6.015   8.263   0.354  1.00  0.00     0.188 C 
BRANCH  27  28
ATOM     28  C   UNL     1      -7.468   8.675   0.116  1.00  0.00     0.188 C 
BRANCH  28  29
ATOM     29  O   UNL     1      -8.034   8.078  -1.040  1.00  0.00    -0.376 OA
BRANCH  29  30
ATOM     30  C   UNL     1      -7.894   8.697  -2.310  1.00  0.00     0.202 C 
BRANCH  30  31
ATOM     31  C   UNL     1      -6.507   9.054  -2.883  1.00  0.00     0.261 C 
BRANCH  31  32
ATOM     32  O   UNL     1      -5.637   9.896  -2.113  1.00  0.00    -0.460 OA
BRANCH  32  33
ATOM     33  C   UNL     1      -6.132  11.041  -1.611  1.00  0.00     0.338 C 
ATOM     34  O   UNL     1      -7.251  11.498  -1.804  1.00  0.00    -0.246 OA
BRANCH  33  35
ATOM     35  C   UNL     1      -5.176  11.552  -0.608  1.00  0.00     0.060 A 
ATOM     36  C   UNL     1      -5.630  11.792   0.695  1.00  0.00     0.016 A 
ATOM     37  C   UNL     1      -3.853  11.830  -0.960  1.00  0.00     0.016 A 
ATOM     38  C   UNL     1      -4.788  12.391   1.628  1.00  0.00     0.010 A 
ATOM     39  C   UNL     1      -3.016  12.454  -0.031  1.00  0.00     0.010 A 
ATOM     40  C   UNL     1      -3.503  12.793   1.244  1.00  0.00    -0.014 A 
BRANCH  40  41
ATOM     41  C   UNL     1      -2.805  13.818   2.059  1.00  0.00     0.031 A 
ATOM     42  C   UNL     1      -2.925  15.256   1.621  1.00  0.00     0.074 A 
ATOM     43  C   UNL     1      -2.146  13.500   3.185  1.00  0.00     0.049 A 
ATOM     44  N   UNL     1      -2.387  16.332   2.131  1.00  0.00    -0.248 NA
ATOM     45  C   UNL     1      -3.767  15.507   0.439  1.00  0.00     0.031 C 
ATOM     46  C   UNL     1      -2.027  12.154   3.744  1.00  0.00     0.029 A 
ATOM     47  N   UNL     1      -1.452  14.293   4.064  1.00  0.00    -0.354 N 
ATOM     48  C   UNL     1      -2.820  17.385   1.330  1.00  0.00     0.074 A 
ATOM     49  C   UNL     1      -3.622  16.811   0.273  1.00  0.00     0.031 C 
ATOM     50  C   UNL     1      -1.297  12.216   4.872  1.00  0.00     0.029 A 
ATOM     51  C   UNL     1      -0.863  13.595   5.091  1.00  0.00     0.049 A 
ATOM     52  H   UNL     1      -1.383  15.270   3.968  1.00  0.00     0.167 HD
ATOM     53  C   UNL     1      -2.581  18.712   1.471  1.00  0.00     0.034 A 
ATOM     54  C   UNL     1      -0.049  14.023   6.078  1.00  0.00     0.034 A 
ATOM     55  C   UNL     1      -1.769  19.264   2.526  1.00  0.00     0.049 A 
ATOM     56  C   UNL     1       0.291  15.495   6.156  1.00  0.00     0.074 A 
ATOM     57  C   UNL     1      -1.447  20.588   2.763  1.00  0.00     0.029 A 
ATOM     58  N   UNL     1      -1.142  18.519   3.517  1.00  0.00    -0.354 N 
ATOM     59  N   UNL     1      -0.109  16.481   5.384  1.00  0.00    -0.248 NA
ATOM     60  C   UNL     1       1.181  15.912   7.247  1.00  0.00     0.031 C 
ATOM     61  C   UNL     1      -0.563  20.636   3.845  1.00  0.00     0.029 A 
ATOM     62  C   UNL     1      -0.412  19.354   4.349  1.00  0.00     0.049 A 
ATOM     63  H   UNL     1      -1.206  17.542   3.615  1.00  0.00     0.167 HD
ATOM     64  C   UNL     1       0.443  17.639   5.930  1.00  0.00     0.074 A 
ATOM     65  C   UNL     1       1.195  17.228   7.097  1.00  0.00     0.031 C 
ATOM     66  C   UNL     1       0.331  18.927   5.512  1.00  0.00     0.034 A 
BRANCH  53  67
ATOM     67  C   UNL     1      -3.160  19.636   0.426  1.00  0.00     0.023 A 
ATOM     68  C   UNL     1      -4.547  19.764   0.234  1.00  0.00     0.031 A 
ATOM     69  C   UNL     1      -2.309  20.372  -0.418  1.00  0.00     0.131 A 
ATOM     70  C   UNL     1      -5.038  20.546  -0.823  1.00  0.00     0.055 A 
ATOM     71  C   UNL     1      -2.808  21.218  -1.410  1.00  0.00     0.041 A 
ATOM     72  F   UNL     1      -0.976  20.268  -0.304  1.00  0.00    -0.206 F 
ATOM     73  C   UNL     1      -4.179  21.297  -1.628  1.00  0.00     0.022 A 
BRANCH  70  74
ATOM     74  S   UNL     1      -6.803  20.441  -1.231  1.00  0.00     0.124 S 
ATOM     75  O   UNL     1      -6.956  19.014  -1.507  1.00  0.00    -0.237 OA
ATOM     76  O   UNL     1      -7.438  20.927  -0.012  1.00  0.00    -0.237 OA
ATOM     77  O   UNL     1      -6.938  21.311  -2.397  1.00  0.00    -0.744 OA
ENDBRANCH  70  74
ENDBRANCH  53  67
BRANCH  54  78
ATOM     78  C   UNL     1       0.535  13.057   7.055  1.00  0.00     0.023 A 
ATOM     79  C   UNL     1       0.275  13.168   8.431  1.00  0.00     0.031 A 
ATOM     80  C   UNL     1       1.425  12.052   6.635  1.00  0.00     0.131 A 
ATOM     81  C   UNL     1       0.940  12.330   9.339  1.00  0.00     0.055 A 
ATOM     82  C   UNL     1       2.035  11.179   7.537  1.00  0.00     0.041 A 
ATOM     83  F   UNL     1       1.716  11.903   5.332  1.00  0.00    -0.206 F 
ATOM     84  C   UNL     1       1.806  11.326   8.901  1.00  0.00     0.022 A 
BRANCH  81  85
ATOM     85  S   UNL     1       0.742  12.646  11.115  1.00  0.00     0.124 S 
ATOM     86  O   UNL     1       1.195  14.028  11.220  1.00  0.00    -0.237 OA
ATOM     87  O   UNL     1      -0.687  12.421  11.304  1.00  0.00    -0.237 OA
ATOM     88  O   UNL     1       1.616  11.652  11.736  1.00  0.00    -0.744 OA
ENDBRANCH  81  85
ENDBRANCH  54  78
BRANCH  66  89
ATOM     89  C   UNL     1       0.974  19.994   6.370  1.00  0.00     0.023 A 
ATOM     90  C   UNL     1       2.365  20.068   6.555  1.00  0.00     0.031 A 
ATOM     91  C   UNL     1       0.170  20.949   7.020  1.00  0.00     0.131 A 
ATOM     92  C   UNL     1       2.903  21.032   7.423  1.00  0.00     0.055 A 
ATOM     93  C   UNL     1       0.717  21.951   7.821  1.00  0.00     0.041 A 
ATOM     94  F   UNL     1      -1.166  20.926   6.883  1.00  0.00    -0.206 F 
ATOM     95  C   UNL     1       2.091  21.986   8.040  1.00  0.00     0.022 A 
BRANCH  92  96
ATOM     96  S   UNL     1       4.670  20.948   7.827  1.00  0.00     0.124 S 
ATOM     97  O   UNL     1       4.796  19.591   8.349  1.00  0.00    -0.237 OA
ATOM     98  O   UNL     1       5.298  21.195   6.534  1.00  0.00    -0.237 OA
ATOM     99  O   UNL     1       4.846  22.011   8.815  1.00  0.00    -0.744 OA
ENDBRANCH  92  96
ENDBRANCH  66  89
ENDBRANCH  40  41
ENDBRANCH  33  35
ENDBRANCH  32  33
ENDBRANCH  31  32
ENDBRANCH  30  31
ENDBRANCH  29  30
ENDBRANCH  28  29
ENDBRANCH  27  28
ENDBRANCH  26  27
ENDBRANCH   1  26
TORSDOF 30
