REMARK SMILES CC(C)[N@@H+](C)Cc1cc2c(cc1Cl)C=C(C(=O)OCCOCCOCCOCCOC(=O)c1ccc(-c3c4nc(c(-c5cc(S(=O)(=O)[O-])ccc5F)c5ccc([nH]5)c(-c5cc(S(=O)(=O)[O-])ccc5F)c5nc(c(-c6cc(S(=O)(=O)[O-])ccc6F)c6ccc3[nH]6)C=C5)C=C4)cc1)[C@@H](C(F)(F)F)O2
REMARK SMILES IDX 24 1 23 2 22 3 21 4 20 5 19 6 18 7 16 8 17 9 15 10 7 11 8 12
REMARK SMILES IDX 12 13 9 14 11 15 13 16 10 17 101 18 14 19 96 20 6 21 4 22
REMARK SMILES IDX 5 23 2 25 1 26 3 27 97 28 98 29 99 30 100 31 25 32 26 33
REMARK SMILES IDX 27 34 28 35 29 36 30 37 31 38 32 39 33 40 34 41 95 42 35 43
REMARK SMILES IDX 94 44 36 45 37 46 38 47 88 48 39 49 93 50 87 51 89 52 40 53
REMARK SMILES IDX 92 54 86 55 85 56 41 58 73 59 53 60 72 61 54 62 57 63 71 64
REMARK SMILES IDX 90 65 55 66 56 67 70 69 91 70 58 71 42 72 43 73 51 74 44 75
REMARK SMILES IDX 50 76 52 77 49 78 45 79 46 80 47 81 48 82 74 83 75 84 83 85
REMARK SMILES IDX 76 86 82 87 84 88 81 89 77 90 78 91 79 92 80 93 59 94 60 95
REMARK SMILES IDX 68 96 61 97 67 98 69 99 66 100 62 101 63 102 64 103 65 104
REMARK H PARENT 4 24 89 57 57 68
REMARK Flexibility Score: inf
ROOT
ATOM      1  O   UNL     1       3.380   0.484  -9.288  1.00  0.00    -0.377 OA
ENDROOT
BRANCH   1   2
ATOM      2  C   UNL     1       3.057  -0.679  -8.546  1.00  0.00     0.188 C 
BRANCH   2   3
ATOM      3  C   UNL     1       2.499  -1.816  -9.422  1.00  0.00     0.188 C 
BRANCH   3   4
ATOM      4  O   UNL     1       2.729  -1.621 -10.814  1.00  0.00    -0.376 OA
BRANCH   4   5
ATOM      5  C   UNL     1       1.657  -1.136 -11.613  1.00  0.00     0.202 C 
BRANCH   5   6
ATOM      6  C   UNL     1       1.092   0.261 -11.311  1.00  0.00     0.261 C 
BRANCH   6   7
ATOM      7  O   UNL     1       0.663   0.466  -9.959  1.00  0.00    -0.460 OA
BRANCH   7   8
ATOM      8  C   UNL     1      -0.371  -0.262  -9.503  1.00  0.00     0.338 C 
ATOM      9  O   UNL     1      -1.039  -1.069 -10.127  1.00  0.00    -0.246 OA
BRANCH   8  10
ATOM     10  C   UNL     1      -0.451  -0.048  -8.042  1.00  0.00     0.087 C 
ATOM     11  C   UNL     1      -1.088  -0.443  -3.059  1.00  0.00     0.029 A 
ATOM     12  C   UNL     1      -0.900   0.599  -3.978  1.00  0.00     0.058 A 
ATOM     13  C   UNL     1      -1.061  -1.754  -3.573  1.00  0.00     0.050 A 
ATOM     14  C   UNL     1      -0.660   0.363  -5.329  1.00  0.00     0.128 A 
ATOM     15  C   UNL     1      -0.865  -1.994  -4.944  1.00  0.00     0.033 A 
ATOM     16  Cl  UNL     1      -1.310  -3.143  -2.572  1.00  0.00    -0.084 Cl
ATOM     17  C   UNL     1      -0.692  -0.929  -5.831  1.00  0.00     0.019 A 
ATOM     18  O   UNL     1      -0.416   1.476  -6.072  1.00  0.00    -0.475 OA
ATOM     19  C   UNL     1      -0.621  -1.131  -7.269  1.00  0.00     0.027 C 
ATOM     20  C   UNL     1      -0.242   1.348  -7.506  1.00  0.00     0.316 C 
BRANCH  11  21
ATOM     21  C   UNL     1      -1.416  -0.149  -1.606  1.00  0.00     0.300 C 
BRANCH  21  22
ATOM     22  N   UNL     1      -0.805   1.004  -0.937  1.00  0.00    -0.332 N 
ATOM     23  C   UNL     1      -1.437   2.295  -1.147  1.00  0.00     0.333 C 
ATOM     24  H   UNL     1      -1.092   0.724   0.001  1.00  0.00     0.348 HD
BRANCH  22  25
ATOM     25  C   UNL     1       0.642   1.047  -0.704  1.00  0.00     0.177 C 
ATOM     26  C   UNL     1       1.091  -0.122   0.179  1.00  0.00     0.075 C 
ATOM     27  C   UNL     1       1.531   1.126  -1.948  1.00  0.00     0.075 C 
ENDBRANCH  22  25
ENDBRANCH  21  22
ENDBRANCH  11  21
BRANCH  20  28
ATOM     28  C   UNL     1      -1.163   2.389  -8.156  1.00  0.00     0.430 C 
ATOM     29  F   UNL     1      -0.973   3.614  -7.609  1.00  0.00    -0.167 F 
ATOM     30  F   UNL     1      -0.953   2.513  -9.484  1.00  0.00    -0.167 F 
ATOM     31  F   UNL     1      -2.467   2.067  -7.980  1.00  0.00    -0.167 F 
ENDBRANCH  20  28
ENDBRANCH   8  10
ENDBRANCH   7   8
ENDBRANCH   6   7
ENDBRANCH   5   6
ENDBRANCH   4   5
ENDBRANCH   3   4
ENDBRANCH   2   3
ENDBRANCH   1   2
BRANCH   1  32
ATOM     32  C   UNL     1       4.636   0.512  -9.969  1.00  0.00     0.188 C 
BRANCH  32  33
ATOM     33  C   UNL     1       5.392  -0.785 -10.345  1.00  0.00     0.188 C 
BRANCH  33  34
ATOM     34  O   UNL     1       5.436  -1.752  -9.298  1.00  0.00    -0.376 OA
BRANCH  34  35
ATOM     35  C   UNL     1       6.698  -1.982  -8.689  1.00  0.00     0.202 C 
BRANCH  35  36
ATOM     36  C   UNL     1       7.128  -0.891  -7.702  1.00  0.00     0.261 C 
BRANCH  36  37
ATOM     37  O   UNL     1       7.275   0.421  -8.261  1.00  0.00    -0.460 OA
BRANCH  37  38
ATOM     38  C   UNL     1       8.175   0.593  -9.258  1.00  0.00     0.338 C 
ATOM     39  O   UNL     1       8.920  -0.247  -9.725  1.00  0.00    -0.246 OA
BRANCH  38  40
ATOM     40  C   UNL     1       7.931   1.941  -9.815  1.00  0.00     0.060 A 
ATOM     41  C   UNL     1       7.889   3.046  -8.961  1.00  0.00     0.016 A 
ATOM     42  C   UNL     1       7.664   2.088 -11.182  1.00  0.00     0.016 A 
ATOM     43  C   UNL     1       7.592   4.306  -9.479  1.00  0.00     0.010 A 
ATOM     44  C   UNL     1       7.358   3.351 -11.698  1.00  0.00     0.010 A 
ATOM     45  C   UNL     1       7.336   4.470 -10.852  1.00  0.00    -0.014 A 
BRANCH  45  46
ATOM     46  C   UNL     1       7.249   5.841 -11.411  1.00  0.00     0.031 A 
ATOM     47  C   UNL     1       5.943   6.494 -11.739  1.00  0.00     0.074 A 
ATOM     48  C   UNL     1       8.407   6.501 -11.606  1.00  0.00     0.049 A 
ATOM     49  N   UNL     1       5.722   7.724 -12.124  1.00  0.00    -0.248 NA
ATOM     50  C   UNL     1       4.732   5.669 -11.628  1.00  0.00     0.031 C 
ATOM     51  C   UNL     1       9.732   5.938 -11.343  1.00  0.00     0.029 A 
ATOM     52  N   UNL     1       8.663   7.770 -12.055  1.00  0.00    -0.354 N 
ATOM     53  C   UNL     1       4.346   7.836 -12.282  1.00  0.00     0.074 A 
ATOM     54  C   UNL     1       3.788   6.530 -11.996  1.00  0.00     0.031 C 
ATOM     55  C   UNL     1      10.661   6.865 -11.614  1.00  0.00     0.029 A 
ATOM     56  C   UNL     1      10.003   8.076 -12.098  1.00  0.00     0.049 A 
ATOM     57  H   UNL     1       7.956   8.402 -12.321  1.00  0.00     0.167 HD
ATOM     58  C   UNL     1       3.627   8.936 -12.617  1.00  0.00     0.034 A 
ATOM     59  C   UNL     1      10.637   9.203 -12.479  1.00  0.00     0.034 A 
ATOM     60  C   UNL     1       4.214  10.222 -12.912  1.00  0.00     0.049 A 
ATOM     61  C   UNL     1       9.815  10.402 -12.871  1.00  0.00     0.074 A 
ATOM     62  C   UNL     1       3.563  11.408 -13.207  1.00  0.00     0.029 A 
ATOM     63  N   UNL     1       5.575  10.496 -12.965  1.00  0.00    -0.354 N 
ATOM     64  N   UNL     1       8.509  10.528 -12.902  1.00  0.00    -0.248 NA
ATOM     65  C   UNL     1      10.543  11.617 -13.260  1.00  0.00     0.031 C 
ATOM     66  C   UNL     1       4.524  12.371 -13.517  1.00  0.00     0.029 A 
ATOM     67  C   UNL     1       5.780  11.819 -13.327  1.00  0.00     0.049 A 
ATOM     68  H   UNL     1       6.289   9.846 -12.774  1.00  0.00     0.167 HD
ATOM     69  C   UNL     1       8.259  11.842 -13.286  1.00  0.00     0.074 A 
ATOM     70  C   UNL     1       9.550  12.476 -13.453  1.00  0.00     0.031 C 
ATOM     71  C   UNL     1       7.066  12.459 -13.482  1.00  0.00     0.034 A 
BRANCH  58  72
ATOM     72  C   UNL     1       2.120   8.841 -12.663  1.00  0.00     0.023 A 
ATOM     73  C   UNL     1       1.428   9.116 -13.859  1.00  0.00     0.031 A 
ATOM     74  C   UNL     1       1.366   8.656 -11.490  1.00  0.00     0.131 A 
ATOM     75  C   UNL     1       0.033   9.245 -13.846  1.00  0.00     0.055 A 
ATOM     76  C   UNL     1      -0.027   8.743 -11.491  1.00  0.00     0.041 A 
ATOM     77  F   UNL     1       1.976   8.402 -10.321  1.00  0.00    -0.206 F 
ATOM     78  C   UNL     1      -0.699   9.054 -12.669  1.00  0.00     0.022 A 
BRANCH  75  79
ATOM     79  S   UNL     1      -0.879   9.749 -15.331  1.00  0.00     0.124 S 
ATOM     80  O   UNL     1      -1.784   8.618 -15.525  1.00  0.00    -0.237 OA
ATOM     81  O   UNL     1      -1.516  10.989 -14.894  1.00  0.00    -0.237 OA
ATOM     82  O   UNL     1       0.157   9.896 -16.347  1.00  0.00    -0.744 OA
ENDBRANCH  75  79
ENDBRANCH  58  72
BRANCH  59  83
ATOM     83  C   UNL     1      12.127   9.242 -12.419  1.00  0.00     0.023 A 
ATOM     84  C   UNL     1      12.900   8.353 -13.190  1.00  0.00     0.031 A 
ATOM     85  C   UNL     1      12.791  10.068 -11.498  1.00  0.00     0.131 A 
ATOM     86  C   UNL     1      14.279   8.256 -12.967  1.00  0.00     0.055 A 
ATOM     87  C   UNL     1      14.176  10.024 -11.336  1.00  0.00     0.041 A 
ATOM     88  F   UNL     1      12.095  10.918 -10.728  1.00  0.00    -0.206 F 
ATOM     89  C   UNL     1      14.925   9.099 -12.058  1.00  0.00     0.022 A 
BRANCH  86  90
ATOM     90  S   UNL     1      15.252   6.932 -13.737  1.00  0.00     0.124 S 
ATOM     91  O   UNL     1      16.238   7.686 -14.505  1.00  0.00    -0.237 OA
ATOM     92  O   UNL     1      15.769   6.225 -12.568  1.00  0.00    -0.237 OA
ATOM     93  O   UNL     1      14.269   6.194 -14.523  1.00  0.00    -0.744 OA
ENDBRANCH  86  90
ENDBRANCH  59  83
BRANCH  71  94
ATOM     94  C   UNL     1       7.060  13.912 -13.901  1.00  0.00     0.023 A 
ATOM     95  C   UNL     1       6.439  14.877 -13.082  1.00  0.00     0.031 A 
ATOM     96  C   UNL     1       7.515  14.314 -15.169  1.00  0.00     0.131 A 
ATOM     97  C   UNL     1       6.243  16.178 -13.561  1.00  0.00     0.055 A 
ATOM     98  C   UNL     1       7.367  15.627 -15.619  1.00  0.00     0.041 A 
ATOM     99  F   UNL     1       8.104  13.433 -15.993  1.00  0.00    -0.206 F 
ATOM    100  C   UNL     1       6.713  16.561 -14.821  1.00  0.00     0.022 A 
BRANCH  97 101
ATOM    101  S   UNL     1       5.286  17.393 -12.611  1.00  0.00     0.124 S 
ATOM    102  O   UNL     1       6.262  18.464 -12.421  1.00  0.00    -0.237 OA
ATOM    103  O   UNL     1       4.191  17.703 -13.525  1.00  0.00    -0.237 OA
ATOM    104  O   UNL     1       4.909  16.675 -11.398  1.00  0.00    -0.744 OA
ENDBRANCH  97 101
ENDBRANCH  71  94
ENDBRANCH  45  46
ENDBRANCH  38  40
ENDBRANCH  37  38
ENDBRANCH  36  37
ENDBRANCH  35  36
ENDBRANCH  34  35
ENDBRANCH  33  34
ENDBRANCH  32  33
ENDBRANCH   1  32
TORSDOF 27
