REMARK SMILES O=C(OCCOCCOCCOCCOC(=O)c1ccc(-c2c3nc(c(-c4cc(S(=O)(=O)[O-])ccc4F)c4ccc([nH]4)c(-c4cc(S(=O)(=O)[O-])ccc4F)c4nc(c(-c5cc(S(=O)(=O)[O-])ccc5F)c5ccc2[nH]5)C=C4)C=C3)cc1)C1=Cc2cc(Cl)c(Cl)cc2O[C@@H]1C(F)(F)F
REMARK SMILES IDX 10 1 9 2 8 3 7 4 6 5 5 6 4 7 3 8 2 9 1 10 81 11 82 12 92 13
REMARK SMILES IDX 83 14 91 15 84 16 90 17 85 18 89 19 86 20 87 21 88 22 93 23
REMARK SMILES IDX 94 24 95 25 96 26 11 27 12 28 13 29 14 30 15 31 16 32 17 33
REMARK SMILES IDX 18 34 19 35 80 36 20 37 79 38 21 39 22 40 23 41 73 42 24 43
REMARK SMILES IDX 78 44 72 45 74 46 25 47 77 48 71 49 70 50 26 52 58 53 38 54
REMARK SMILES IDX 57 55 39 56 42 57 56 58 75 59 40 60 41 61 55 63 76 64 43 65
REMARK SMILES IDX 27 66 28 67 36 68 29 69 35 70 37 71 34 72 30 73 31 74 32 75
REMARK SMILES IDX 33 76 59 77 60 78 68 79 61 80 67 81 69 82 66 83 62 84 63 85
REMARK SMILES IDX 64 86 65 87 44 88 45 89 53 90 46 91 52 92 54 93 51 94 47 95
REMARK SMILES IDX 48 96 49 97 50 98
REMARK H PARENT 74 51 42 62
REMARK Flexibility Score: inf
ROOT
ATOM      1  C   UNL     1       4.093  -0.915   3.591  1.00  0.00     0.188 C 
ENDROOT
BRANCH   1   2
ATOM      2  O   UNL     1       2.750  -1.213   3.889  1.00  0.00    -0.377 OA
BRANCH   2   3
ATOM      3  C   UNL     1       1.908  -1.020   2.778  1.00  0.00     0.188 C 
BRANCH   3   4
ATOM      4  C   UNL     1       2.235  -1.865   1.535  1.00  0.00     0.188 C 
BRANCH   4   5
ATOM      5  O   UNL     1       3.552  -1.936   0.885  1.00  0.00    -0.376 OA
BRANCH   5   6
ATOM      6  C   UNL     1       4.305  -1.017  -0.273  1.00  0.00     0.202 C 
BRANCH   6   7
ATOM      7  C   UNL     1       3.585   0.854  -1.140  1.00  0.00     0.261 C 
BRANCH   7   8
ATOM      8  O   UNL     1       2.672   0.996  -2.340  1.00  0.00    -0.460 OA
BRANCH   8   9
ATOM      9  C   UNL     1       2.871   0.030  -3.245  1.00  0.00     0.338 C 
ATOM     10  O   UNL     1       2.208  -0.226  -4.220  1.00  0.00    -0.246 OA
BRANCH   9  11
ATOM     11  C   UNL     1       3.733  -0.811  -2.428  1.00  0.00     0.087 C 
ATOM     12  C   UNL     1       5.115  -0.321  -2.311  1.00  0.00     0.027 C 
ATOM     13  C   UNL     1       2.469  -0.871  -0.980  1.00  0.00     0.316 C 
ATOM     14  C   UNL     1       5.782   0.509  -0.857  1.00  0.00     0.019 A 
ATOM     15  O   UNL     1       3.107   0.146   0.555  1.00  0.00    -0.475 OA
ATOM     16  C   UNL     1       7.082   0.934  -0.850  1.00  0.00     0.034 A 
ATOM     17  C   UNL     1       4.807   0.848   0.531  1.00  0.00     0.129 A 
ATOM     18  C   UNL     1       7.508   1.587   0.329  1.00  0.00     0.060 A 
ATOM     19  C   UNL     1       5.286   1.518   1.627  1.00  0.00     0.069 A 
ATOM     20  Cl  UNL     1       9.185   2.070   0.309  1.00  0.00    -0.083 Cl
ATOM     21  C   UNL     1       6.662   1.860   1.499  1.00  0.00     0.063 A 
ATOM     22  Cl  UNL     1       7.371   2.644   2.886  1.00  0.00    -0.083 Cl
BRANCH  13  23
ATOM     23  C   UNL     1       2.152  -2.494  -1.190  1.00  0.00     0.430 C 
ATOM     24  F   UNL     1       1.256  -3.080  -0.376  1.00  0.00    -0.167 F 
ATOM     25  F   UNL     1       1.593  -2.619  -2.435  1.00  0.00    -0.167 F 
ATOM     26  F   UNL     1       3.246  -3.294  -1.241  1.00  0.00    -0.167 F 
ENDBRANCH  13  23
ENDBRANCH   9  11
ENDBRANCH   8   9
ENDBRANCH   7   8
ENDBRANCH   6   7
ENDBRANCH   5   6
ENDBRANCH   4   5
ENDBRANCH   3   4
ENDBRANCH   2   3
ENDBRANCH   1   2
BRANCH   1  27
ATOM     27  C   UNL     1       5.055  -2.106   3.525  1.00  0.00     0.188 C 
BRANCH  27  28
ATOM     28  O   UNL     1       4.605  -3.447   3.434  1.00  0.00    -0.376 OA
BRANCH  28  29
ATOM     29  C   UNL     1       3.415  -3.883   4.066  1.00  0.00     0.202 C 
BRANCH  29  30
ATOM     30  C   UNL     1       3.157  -3.719   5.571  1.00  0.00     0.261 C 
BRANCH  30  31
ATOM     31  O   UNL     1       3.426  -2.428   6.127  1.00  0.00    -0.460 OA
BRANCH  31  32
ATOM     32  C   UNL     1       4.684  -2.276   6.593  1.00  0.00     0.338 C 
ATOM     33  O   UNL     1       5.545  -3.139   6.646  1.00  0.00    -0.246 OA
BRANCH  32  34
ATOM     34  C   UNL     1       4.964  -0.847   6.852  1.00  0.00     0.060 A 
ATOM     35  C   UNL     1       6.189  -0.339   6.394  1.00  0.00     0.016 A 
ATOM     36  C   UNL     1       4.086  -0.035   7.573  1.00  0.00     0.016 A 
ATOM     37  C   UNL     1       6.592   0.941   6.741  1.00  0.00     0.010 A 
ATOM     38  C   UNL     1       4.511   1.240   7.962  1.00  0.00     0.010 A 
ATOM     39  C   UNL     1       5.799   1.689   7.613  1.00  0.00    -0.014 A 
BRANCH  39  40
ATOM     40  C   UNL     1       6.476   2.738   8.411  1.00  0.00     0.031 A 
ATOM     41  C   UNL     1       6.937   2.368   9.799  1.00  0.00     0.074 A 
ATOM     42  C   UNL     1       6.786   3.931   7.880  1.00  0.00     0.049 A 
ATOM     43  N   UNL     1       7.566   3.089  10.689  1.00  0.00    -0.248 NA
ATOM     44  C   UNL     1       6.644   0.994  10.242  1.00  0.00     0.031 C 
ATOM     45  C   UNL     1       6.477   4.354   6.515  1.00  0.00     0.029 A 
ATOM     46  N   UNL     1       7.447   5.001   8.425  1.00  0.00    -0.354 N 
ATOM     47  C   UNL     1       7.723   2.264  11.800  1.00  0.00     0.074 A 
ATOM     48  C   UNL     1       7.088   1.005  11.487  1.00  0.00     0.031 C 
ATOM     49  C   UNL     1       6.953   5.597   6.329  1.00  0.00     0.029 A 
ATOM     50  C   UNL     1       7.558   6.072   7.572  1.00  0.00     0.049 A 
ATOM     51  H   UNL     1       7.807   5.002   9.341  1.00  0.00     0.167 HD
ATOM     52  C   UNL     1       8.348   2.534  12.971  1.00  0.00     0.034 A 
ATOM     53  C   UNL     1       8.071   7.300   7.785  1.00  0.00     0.034 A 
ATOM     54  C   UNL     1       8.973   3.800  13.261  1.00  0.00     0.049 A 
ATOM     55  C   UNL     1       8.670   7.612   9.137  1.00  0.00     0.074 A 
ATOM     56  C   UNL     1       9.643   4.186  14.408  1.00  0.00     0.029 A 
ATOM     57  N   UNL     1       8.994   4.892  12.402  1.00  0.00    -0.354 N 
ATOM     58  N   UNL     1       8.798   6.835  10.189  1.00  0.00    -0.248 NA
ATOM     59  C   UNL     1       9.207   8.965   9.322  1.00  0.00     0.031 C 
ATOM     60  C   UNL     1       9.972   5.539  14.285  1.00  0.00     0.029 A 
ATOM     61  C   UNL     1       9.624   5.964  13.012  1.00  0.00     0.049 A 
ATOM     62  H   UNL     1       8.617   4.902  11.492  1.00  0.00     0.167 HD
ATOM     63  C   UNL     1       9.480   7.591  11.140  1.00  0.00     0.074 A 
ATOM     64  C   UNL     1       9.738   8.880  10.531  1.00  0.00     0.031 C 
ATOM     65  C   UNL     1       9.872   7.248  12.396  1.00  0.00     0.034 A 
BRANCH  52  66
ATOM     66  C   UNL     1       8.309   1.471  14.046  1.00  0.00     0.023 A 
ATOM     67  C   UNL     1       8.883   0.199  13.870  1.00  0.00     0.031 A 
ATOM     68  C   UNL     1       7.646   1.728  15.259  1.00  0.00     0.131 A 
ATOM     69  C   UNL     1       8.715  -0.787  14.855  1.00  0.00     0.055 A 
ATOM     70  C   UNL     1       7.567   0.774  16.275  1.00  0.00     0.041 A 
ATOM     71  F   UNL     1       7.047   2.910  15.474  1.00  0.00    -0.206 F 
ATOM     72  C   UNL     1       8.089  -0.498  16.069  1.00  0.00     0.022 A 
BRANCH  69  73
ATOM     73  S   UNL     1       9.171  -2.498  14.459  1.00  0.00     0.124 S 
ATOM     74  O   UNL     1       8.356  -2.752  13.273  1.00  0.00    -0.237 OA
ATOM     75  O   UNL     1      10.609  -2.399  14.238  1.00  0.00    -0.237 OA
ATOM     76  O   UNL     1       8.771  -3.244  15.650  1.00  0.00    -0.744 OA
ENDBRANCH  69  73
ENDBRANCH  52  66
BRANCH  53  77
ATOM     77  C   UNL     1       8.022   8.337   6.714  1.00  0.00     0.023 A 
ATOM     78  C   UNL     1       9.197   8.908   6.202  1.00  0.00     0.031 A 
ATOM     79  C   UNL     1       6.792   8.823   6.235  1.00  0.00     0.131 A 
ATOM     80  C   UNL     1       9.118   9.970   5.288  1.00  0.00     0.055 A 
ATOM     81  C   UNL     1       6.719   9.831   5.274  1.00  0.00     0.041 A 
ATOM     82  F   UNL     1       5.635   8.320   6.697  1.00  0.00    -0.206 F 
ATOM     83  C   UNL     1       7.888  10.422   4.806  1.00  0.00     0.022 A 
BRANCH  80  84
ATOM     84  S   UNL     1      10.645  10.835   4.828  1.00  0.00     0.124 S 
ATOM     85  O   UNL     1      11.133  11.280   6.127  1.00  0.00    -0.237 OA
ATOM     86  O   UNL     1      11.411   9.774   4.181  1.00  0.00    -0.237 OA
ATOM     87  O   UNL     1      10.178  11.896   3.938  1.00  0.00    -0.744 OA
ENDBRANCH  80  84
ENDBRANCH  53  77
BRANCH  65  88
ATOM     88  C   UNL     1      10.697   8.257  13.165  1.00  0.00     0.023 A 
ATOM     89  C   UNL     1      10.203   9.526  13.510  1.00  0.00     0.031 A 
ATOM     90  C   UNL     1      12.021   7.945  13.530  1.00  0.00     0.131 A 
ATOM     91  C   UNL     1      11.053  10.465  14.114  1.00  0.00     0.055 A 
ATOM     92  C   UNL     1      12.831   8.851  14.215  1.00  0.00     0.041 A 
ATOM     93  F   UNL     1      12.554   6.751  13.223  1.00  0.00    -0.206 F 
ATOM     94  C   UNL     1      12.355  10.128  14.492  1.00  0.00     0.022 A 
BRANCH  91  95
ATOM     95  S   UNL     1      10.486  12.183  14.255  1.00  0.00     0.124 S 
ATOM     96  O   UNL     1      10.140  12.499  12.873  1.00  0.00    -0.237 OA
ATOM     97  O   UNL     1       9.366  12.067  15.182  1.00  0.00    -0.237 OA
ATOM     98  O   UNL     1      11.655  12.887  14.778  1.00  0.00    -0.744 OA
ENDBRANCH  91  95
ENDBRANCH  65  88
ENDBRANCH  39  40
ENDBRANCH  32  34
ENDBRANCH  31  32
ENDBRANCH  30  31
ENDBRANCH  29  30
ENDBRANCH  28  29
ENDBRANCH  27  28
ENDBRANCH   1  27
TORSDOF 24
