REMARK SMILES C[C@H](C(=O)OCCOCCOCCOCCOC(=O)c1ccc(-c2c3nc(c(-c4cc(S(=O)(=O)[O-])ccc4F)c4ccc([nH]4)c(-c4cc(S(=O)(=O)[O-])ccc4F)c4nc(c(-c5cc(S(=O)(=O)[O-])ccc5F)c5ccc2[nH]5)C=C4)C=C3)cc1)[C@H](C)[N@H+]1CC[C@H]([NH+]2CCCCC2)C1
REMARK SMILES IDX 11 1 10 2 9 3 8 4 7 5 6 6 5 7 3 8 4 9 2 10 1 11 83 12 84 13
REMARK SMILES IDX 85 14 86 15 95 16 87 18 88 19 89 20 90 21 94 22 91 24 93 25
REMARK SMILES IDX 92 26 12 27 13 28 14 29 15 30 16 31 17 32 18 33 19 34 20 35
REMARK SMILES IDX 21 36 82 37 22 38 81 39 23 40 24 41 25 42 75 43 26 44 80 45
REMARK SMILES IDX 74 46 76 47 27 48 79 49 73 50 72 51 28 53 60 54 40 55 59 56
REMARK SMILES IDX 41 57 44 58 58 59 77 60 42 61 43 62 57 64 78 65 45 66 29 67
REMARK SMILES IDX 30 68 38 69 31 70 37 71 39 72 36 73 32 74 33 75 34 76 35 77
REMARK SMILES IDX 61 78 62 79 70 80 63 81 69 82 71 83 68 84 64 85 65 86 66 87
REMARK SMILES IDX 67 88 46 89 47 90 55 91 48 92 54 93 56 94 53 95 49 96 50 97
REMARK SMILES IDX 51 98 52 99
REMARK H PARENT 85 17 89 23 76 52 44 63
REMARK Flexibility Score: inf
ROOT
ATOM      1  O   UNL     1       0.442   5.019   1.662  1.00  0.00    -0.377 OA
ENDROOT
BRANCH   1   2
ATOM      2  C   UNL     1      -0.212   3.783   1.822  1.00  0.00     0.188 C 
BRANCH   2   3
ATOM      3  C   UNL     1       0.103   3.130   3.162  1.00  0.00     0.188 C 
BRANCH   3   4
ATOM      4  O   UNL     1       1.471   2.916   3.495  1.00  0.00    -0.376 OA
BRANCH   4   5
ATOM      5  C   UNL     1       2.439   3.171   2.489  1.00  0.00     0.202 C 
BRANCH   5   6
ATOM      6  C   UNL     1       2.597   2.070   1.423  1.00  0.00     0.261 C 
BRANCH   6   7
ATOM      7  O   UNL     1       1.455   1.707   0.602  1.00  0.00    -0.463 OA
BRANCH   7   8
ATOM      8  C   UNL     1       0.643   0.710   1.038  1.00  0.00     0.314 C 
ATOM      9  O   UNL     1       0.803   0.146   2.119  1.00  0.00    -0.252 OA
BRANCH   8  10
ATOM     10  C   UNL     1      -0.466   0.251   0.061  1.00  0.00     0.154 C 
ATOM     11  C   UNL     1      -1.777   0.016   0.823  1.00  0.00     0.026 C 
BRANCH  10  12
ATOM     12  C   UNL     1      -0.703   0.961  -1.323  1.00  0.00     0.195 C 
ATOM     13  C   UNL     1       0.601   0.864  -2.143  1.00  0.00     0.076 C 
BRANCH  12  14
ATOM     14  N   UNL     1      -1.274   2.305  -1.207  1.00  0.00    -0.327 N 
ATOM     15  C   UNL     1      -0.814   3.377  -2.089  1.00  0.00     0.269 C 
ATOM     16  C   UNL     1      -2.736   2.496  -1.224  1.00  0.00     0.328 C 
ATOM     17  H   UNL     1      -0.885   2.380  -0.267  1.00  0.00     0.348 HD
ATOM     18  C   UNL     1      -1.498   4.557  -1.406  1.00  0.00     0.132 C 
ATOM     19  C   UNL     1      -2.883   4.033  -0.985  1.00  0.00     0.245 C 
BRANCH  19  20
ATOM     20  N   UNL     1      -3.383   4.506   0.314  1.00  0.00    -0.328 N 
ATOM     21  C   UNL     1      -3.524   3.373   1.645  1.00  0.00     0.262 C 
ATOM     22  C   UNL     1      -3.290   6.279   0.641  1.00  0.00     0.262 C 
ATOM     23  H   UNL     1      -4.385   4.461   0.131  1.00  0.00     0.348 HD
ATOM     24  C   UNL     1      -3.802   3.898   3.450  1.00  0.00     0.062 C 
ATOM     25  C   UNL     1      -3.733   7.038   2.450  1.00  0.00     0.062 C 
ATOM     26  C   UNL     1      -3.841   5.757   3.926  1.00  0.00     0.012 C 
ENDBRANCH  19  20
ENDBRANCH  12  14
ENDBRANCH  10  12
ENDBRANCH   8  10
ENDBRANCH   7   8
ENDBRANCH   6   7
ENDBRANCH   5   6
ENDBRANCH   4   5
ENDBRANCH   3   4
ENDBRANCH   2   3
ENDBRANCH   1   2
BRANCH   1  27
ATOM     27  C   UNL     1      -0.408   6.141   1.757  1.00  0.00     0.188 C 
BRANCH  27  28
ATOM     28  C   UNL     1      -1.651   5.990   2.691  1.00  0.00     0.188 C 
BRANCH  28  29
ATOM     29  O   UNL     1      -2.988   5.234   2.208  1.00  0.00    -0.376 OA
BRANCH  29  30
ATOM     30  C   UNL     1      -4.883   5.389   1.885  1.00  0.00     0.202 C 
BRANCH  30  31
ATOM     31  C   UNL     1      -5.886   6.598   1.091  1.00  0.00     0.261 C 
BRANCH  31  32
ATOM     32  O   UNL     1      -5.393   7.664   0.203  1.00  0.00    -0.460 OA
BRANCH  32  33
ATOM     33  C   UNL     1      -4.901   8.864   0.634  1.00  0.00     0.338 C 
ATOM     34  O   UNL     1      -5.191   9.428   1.680  1.00  0.00    -0.246 OA
BRANCH  33  35
ATOM     35  C   UNL     1      -3.730   9.273  -0.225  1.00  0.00     0.060 A 
ATOM     36  C   UNL     1      -2.508   9.670   0.357  1.00  0.00     0.016 A 
ATOM     37  C   UNL     1      -3.821   9.232  -1.617  1.00  0.00     0.016 A 
ATOM     38  C   UNL     1      -1.426  10.100  -0.441  1.00  0.00     0.010 A 
ATOM     39  C   UNL     1      -2.751   9.681  -2.411  1.00  0.00     0.010 A 
ATOM     40  C   UNL     1      -1.563  10.173  -1.833  1.00  0.00    -0.014 A 
BRANCH  40  41
ATOM     41  C   UNL     1      -0.654  11.031  -2.663  1.00  0.00     0.031 A 
ATOM     42  C   UNL     1      -1.109  12.448  -2.944  1.00  0.00     0.074 A 
ATOM     43  C   UNL     1       0.517  10.615  -3.187  1.00  0.00     0.049 A 
ATOM     44  N   UNL     1      -0.592  13.359  -3.729  1.00  0.00    -0.248 NA
ATOM     45  C   UNL     1      -2.329  12.882  -2.245  1.00  0.00     0.031 C 
ATOM     46  C   UNL     1       1.136   9.312  -2.965  1.00  0.00     0.029 A 
ATOM     47  N   UNL     1       1.393  11.259  -4.037  1.00  0.00    -0.354 N 
ATOM     48  C   UNL     1      -1.432  14.466  -3.631  1.00  0.00     0.074 A 
ATOM     49  C   UNL     1      -2.507  14.097  -2.735  1.00  0.00     0.031 C 
ATOM     50  C   UNL     1       2.285   9.249  -3.667  1.00  0.00     0.029 A 
ATOM     51  C   UNL     1       2.466  10.487  -4.428  1.00  0.00     0.049 A 
ATOM     52  H   UNL     1       1.264  12.187  -4.337  1.00  0.00     0.167 HD
ATOM     53  C   UNL     1      -1.325  15.681  -4.225  1.00  0.00     0.034 A 
ATOM     54  C   UNL     1       3.460  10.735  -5.313  1.00  0.00     0.034 A 
ATOM     55  C   UNL     1      -0.263  16.055  -5.126  1.00  0.00     0.049 A 
ATOM     56  C   UNL     1       3.501  12.059  -6.054  1.00  0.00     0.074 A 
ATOM     57  C   UNL     1      -0.062  17.270  -5.757  1.00  0.00     0.029 A 
ATOM     58  N   UNL     1       0.764  15.220  -5.540  1.00  0.00    -0.354 N 
ATOM     59  N   UNL     1       2.700  13.094  -5.952  1.00  0.00    -0.248 NA
ATOM     60  C   UNL     1       4.585  12.243  -7.034  1.00  0.00     0.031 C 
ATOM     61  C   UNL     1       1.032  17.143  -6.620  1.00  0.00     0.029 A 
ATOM     62  C   UNL     1       1.575  15.880  -6.453  1.00  0.00     0.049 A 
ATOM     63  H   UNL     1       0.899  14.294  -5.232  1.00  0.00     0.167 HD
ATOM     64  C   UNL     1       3.211  14.062  -6.819  1.00  0.00     0.074 A 
ATOM     65  C   UNL     1       4.390  13.492  -7.432  1.00  0.00     0.031 C 
ATOM     66  C   UNL     1       2.750  15.314  -7.074  1.00  0.00     0.034 A 
BRANCH  53  67
ATOM     67  C   UNL     1      -2.429  16.679  -3.964  1.00  0.00     0.023 A 
ATOM     68  C   UNL     1      -2.674  17.201  -2.683  1.00  0.00     0.031 A 
ATOM     69  C   UNL     1      -3.263  17.097  -5.017  1.00  0.00     0.131 A 
ATOM     70  C   UNL     1      -3.768  18.055  -2.474  1.00  0.00     0.055 A 
ATOM     71  C   UNL     1      -4.296  18.014  -4.818  1.00  0.00     0.041 A 
ATOM     72  F   UNL     1      -3.093  16.613  -6.257  1.00  0.00    -0.206 F 
ATOM     73  C   UNL     1      -4.563  18.487  -3.537  1.00  0.00     0.022 A 
BRANCH  70  74
ATOM     74  S   UNL     1      -4.226  18.475  -0.770  1.00  0.00     0.124 S 
ATOM     75  O   UNL     1      -4.447  17.153  -0.189  1.00  0.00    -0.237 OA
ATOM     76  O   UNL     1      -3.050  19.194  -0.295  1.00  0.00    -0.237 OA
ATOM     77  O   UNL     1      -5.432  19.286  -0.930  1.00  0.00    -0.744 OA
ENDBRANCH  70  74
ENDBRANCH  53  67
BRANCH  54  78
ATOM     78  C   UNL     1       4.499   9.698  -5.609  1.00  0.00     0.023 A 
ATOM     79  C   UNL     1       5.861   9.935  -5.352  1.00  0.00     0.031 A 
ATOM     80  C   UNL     1       4.154   8.488  -6.239  1.00  0.00     0.131 A 
ATOM     81  C   UNL     1       6.828   9.001  -5.762  1.00  0.00     0.055 A 
ATOM     82  C   UNL     1       5.114   7.537  -6.592  1.00  0.00     0.041 A 
ATOM     83  F   UNL     1       2.871   8.214  -6.527  1.00  0.00    -0.206 F 
ATOM     84  C   UNL     1       6.461   7.796  -6.364  1.00  0.00     0.022 A 
BRANCH  81  85
ATOM     85  S   UNL     1       8.585   9.421  -5.580  1.00  0.00     0.124 S 
ATOM     86  O   UNL     1       8.689  10.619  -6.405  1.00  0.00    -0.237 OA
ATOM     87  O   UNL     1       8.702   9.621  -4.139  1.00  0.00    -0.237 OA
ATOM     88  O   UNL     1       9.273   8.242  -6.101  1.00  0.00    -0.744 OA
ENDBRANCH  81  85
ENDBRANCH  54  78
BRANCH  66  89
ATOM     89  C   UNL     1       3.554  16.187  -8.014  1.00  0.00     0.023 A 
ATOM     90  C   UNL     1       3.705  15.880  -9.379  1.00  0.00     0.031 A 
ATOM     91  C   UNL     1       4.174  17.355  -7.533  1.00  0.00     0.131 A 
ATOM     92  C   UNL     1       4.498  16.700 -10.199  1.00  0.00     0.055 A 
ATOM     93  C   UNL     1       4.907  18.202  -8.367  1.00  0.00     0.041 A 
ATOM     94  F   UNL     1       4.070  17.702  -6.240  1.00  0.00    -0.206 F 
ATOM     95  C   UNL     1       5.084  17.869  -9.706  1.00  0.00     0.022 A 
BRANCH  92  96
ATOM     96  S   UNL     1       4.836  16.171 -11.902  1.00  0.00     0.124 S 
ATOM     97  O   UNL     1       5.451  14.864 -11.697  1.00  0.00    -0.237 OA
ATOM     98  O   UNL     1       3.503  16.163 -12.496  1.00  0.00    -0.237 OA
ATOM     99  O   UNL     1       5.734  17.206 -12.412  1.00  0.00    -0.744 OA
ENDBRANCH  92  96
ENDBRANCH  66  89
ENDBRANCH  40  41
ENDBRANCH  33  35
ENDBRANCH  32  33
ENDBRANCH  31  32
ENDBRANCH  30  31
ENDBRANCH  29  30
ENDBRANCH  28  29
ENDBRANCH  27  28
ENDBRANCH   1  27
TORSDOF 26
