REMARK SMILES NS(=O)(=O)c1ccc(-n2ccnc2-c2ccc(O)c(C(=O)OCCOCCOCCOCCOC(=O)c3ccc(-c4c5nc(c(-c6cc(S(=O)(=O)[O-])ccc6F)c6ccc([nH]6)c(-c6cc(S(=O)(=O)[O-])ccc6F)c6nc(c(-c7cc(S(=O)(=O)[O-])ccc7F)c7ccc4[nH]7)C=C6)C=C5)cc3)c2)cc1
REMARK SMILES IDX 27 1 26 2 25 3 24 4 23 5 22 6 20 7 21 8 19 9 14 10 15 11
REMARK SMILES IDX 100 12 16 13 17 14 13 15 9 16 10 17 11 18 12 19 8 20 5 21
REMARK SMILES IDX 6 22 102 23 7 24 101 25 2 26 3 27 4 28 1 29 18 32 28 34
REMARK SMILES IDX 29 35 30 36 31 37 32 38 33 39 34 40 35 41 36 42 37 43 38 44
REMARK SMILES IDX 99 45 39 46 98 47 40 48 41 49 42 50 92 51 43 52 97 53 91 54
REMARK SMILES IDX 93 55 44 56 96 57 90 58 89 59 45 61 77 62 57 63 76 64 58 65
REMARK SMILES IDX 61 66 75 67 94 68 59 69 60 70 74 72 95 73 62 74 46 75 47 76
REMARK SMILES IDX 55 77 48 78 54 79 56 80 53 81 49 82 50 83 51 84 52 85 78 86
REMARK SMILES IDX 79 87 87 88 80 89 86 90 88 91 85 92 81 93 82 94 83 95 84 96
REMARK SMILES IDX 63 97 64 98 72 99 65 100 71 101 73 102 70 103 66 104 67 105
REMARK SMILES IDX 68 106 69 107
REMARK H PARENT 1 30 1 31 18 33 93 60 61 71
REMARK Flexibility Score: inf
ROOT
ATOM      1  C   UNL     1      -0.458  -4.722  -6.115  1.00  0.00     0.188 C 
ENDROOT
BRANCH   1   2
ATOM      2  C   UNL     1      -1.891  -4.156  -5.995  1.00  0.00     0.188 C 
BRANCH   2   3
ATOM      3  O   UNL     1      -2.185  -2.770  -6.130  1.00  0.00    -0.376 OA
BRANCH   3   4
ATOM      4  C   UNL     1      -1.320  -1.750  -5.665  1.00  0.00     0.202 C 
BRANCH   4   5
ATOM      5  C   UNL     1      -0.697  -1.764  -4.259  1.00  0.00     0.261 C 
BRANCH   5   6
ATOM      6  O   UNL     1      -0.493  -3.040  -3.654  1.00  0.00    -0.460 OA
BRANCH   6   7
ATOM      7  C   UNL     1      -1.550  -3.544  -2.982  1.00  0.00     0.342 C 
ATOM      8  O   UNL     1      -2.624  -3.000  -2.779  1.00  0.00    -0.246 OA
BRANCH   7   9
ATOM      9  C   UNL     1      -1.322  -4.982  -2.710  1.00  0.00     0.102 A 
ATOM     10  C   UNL     1       0.179  -6.816  -2.145  1.00  0.00     0.019 A 
ATOM     11  C   UNL     1      -0.892  -7.708  -2.253  1.00  0.00     0.016 A 
ATOM     12  C   UNL     1      -0.035  -5.465  -2.466  1.00  0.00     0.031 A 
ATOM     13  C   UNL     1      -2.170  -7.245  -2.580  1.00  0.00     0.048 A 
ATOM     14  C   UNL     1      -2.390  -5.882  -2.768  1.00  0.00     0.130 A 
BRANCH  10  15
ATOM     15  C   UNL     1       1.487  -7.274  -1.652  1.00  0.00     0.144 A 
ATOM     16  N   UNL     1       2.323  -6.530  -0.815  1.00  0.00    -0.300 N 
ATOM     17  C   UNL     1       3.534  -7.178  -0.783  1.00  0.00     0.113 A 
ATOM     18  C   UNL     1       3.331  -8.362  -1.450  1.00  0.00     0.132 A 
ATOM     19  N   UNL     1       2.062  -8.423  -1.962  1.00  0.00    -0.236 NA
BRANCH  16  20
ATOM     20  C   UNL     1       2.011  -5.311  -0.162  1.00  0.00     0.047 A 
ATOM     21  C   UNL     1       1.186  -2.817   0.742  1.00  0.00     0.082 A 
ATOM     22  C   UNL     1       0.365  -3.928   0.951  1.00  0.00     0.024 A 
ATOM     23  C   UNL     1       2.426  -2.950   0.103  1.00  0.00     0.024 A 
ATOM     24  C   UNL     1       0.781  -5.180   0.503  1.00  0.00     0.028 A 
ATOM     25  C   UNL     1       2.853  -4.207  -0.335  1.00  0.00     0.028 A 
BRANCH  21  26
ATOM     26  S   UNL     1       0.624  -1.231   1.283  1.00  0.00     0.238 S 
ATOM     27  O   UNL     1       1.284  -0.911   2.515  1.00  0.00    -0.207 OA
ATOM     28  O   UNL     1      -0.820  -1.171   1.127  1.00  0.00    -0.207 OA
BRANCH  26  29
ATOM     29  N   UNL     1       1.224  -0.168   0.129  1.00  0.00    -0.225 NA
ATOM     30  H   UNL     1       0.944   0.784   0.365  1.00  0.00     0.137 HD
ATOM     31  H   UNL     1       0.851  -0.414  -0.787  1.00  0.00     0.137 HD
ENDBRANCH  26  29
ENDBRANCH  21  26
ENDBRANCH  16  20
ENDBRANCH  10  15
BRANCH  14  32
ATOM     32  O   UNL     1      -3.673  -5.503  -3.062  1.00  0.00    -0.507 OA
ATOM     33  H   UNL     1      -4.356  -6.144  -3.089  1.00  0.00     0.293 HD
ENDBRANCH  14  32
ENDBRANCH   7   9
ENDBRANCH   6   7
ENDBRANCH   5   6
ENDBRANCH   4   5
ENDBRANCH   3   4
ENDBRANCH   2   3
ENDBRANCH   1   2
BRANCH   1  34
ATOM     34  O   UNL     1       0.546  -3.726  -6.208  1.00  0.00    -0.377 OA
BRANCH  34  35
ATOM     35  C   UNL     1       0.956  -3.397  -7.536  1.00  0.00     0.188 C 
BRANCH  35  36
ATOM     36  C   UNL     1      -0.135  -3.205  -8.626  1.00  0.00     0.188 C 
BRANCH  36  37
ATOM     37  O   UNL     1      -1.222  -4.117  -8.553  1.00  0.00    -0.376 OA
BRANCH  37  38
ATOM     38  C   UNL     1      -1.427  -5.182  -9.465  1.00  0.00     0.202 C 
BRANCH  38  39
ATOM     39  C   UNL     1      -0.414  -6.322  -9.489  1.00  0.00     0.261 C 
BRANCH  39  40
ATOM     40  O   UNL     1       0.913  -5.884  -9.310  1.00  0.00    -0.460 OA
BRANCH  40  41
ATOM     41  C   UNL     1       1.397  -5.160 -10.338  1.00  0.00     0.338 C 
ATOM     42  O   UNL     1       0.777  -4.731 -11.293  1.00  0.00    -0.246 OA
BRANCH  41  43
ATOM     43  C   UNL     1       2.844  -5.044 -10.150  1.00  0.00     0.060 A 
ATOM     44  C   UNL     1       3.514  -4.365 -11.163  1.00  0.00     0.016 A 
ATOM     45  C   UNL     1       3.466  -5.978  -9.307  1.00  0.00     0.016 A 
ATOM     46  C   UNL     1       4.697  -4.909 -11.585  1.00  0.00     0.010 A 
ATOM     47  C   UNL     1       4.628  -6.537  -9.748  1.00  0.00     0.010 A 
ATOM     48  C   UNL     1       5.148  -6.071 -10.950  1.00  0.00    -0.014 A 
BRANCH  48  49
ATOM     49  C   UNL     1       6.258  -6.774 -11.533  1.00  0.00     0.031 A 
ATOM     50  C   UNL     1       7.524  -6.107 -11.193  1.00  0.00     0.074 A 
ATOM     51  C   UNL     1       6.104  -7.931 -12.201  1.00  0.00     0.049 A 
ATOM     52  N   UNL     1       8.212  -5.318 -11.947  1.00  0.00    -0.248 NA
ATOM     53  C   UNL     1       7.902  -6.058  -9.769  1.00  0.00     0.031 C 
ATOM     54  C   UNL     1       4.905  -8.761 -12.341  1.00  0.00     0.029 A 
ATOM     55  N   UNL     1       7.049  -8.662 -12.839  1.00  0.00    -0.354 N 
ATOM     56  C   UNL     1       9.275  -4.917 -11.154  1.00  0.00     0.074 A 
ATOM     57  C   UNL     1       8.857  -5.129  -9.799  1.00  0.00     0.031 C 
ATOM     58  C   UNL     1       5.260  -9.981 -12.815  1.00  0.00     0.029 A 
ATOM     59  C   UNL     1       6.680  -9.971 -13.131  1.00  0.00     0.049 A 
ATOM     60  H   UNL     1       7.930  -8.295 -13.077  1.00  0.00     0.167 HD
ATOM     61  C   UNL     1      10.519  -4.789 -11.685  1.00  0.00     0.034 A 
ATOM     62  C   UNL     1       7.519 -10.973 -13.518  1.00  0.00     0.034 A 
ATOM     63  C   UNL     1      10.449  -4.699 -13.129  1.00  0.00     0.049 A 
ATOM     64  C   UNL     1       8.752 -10.311 -14.033  1.00  0.00     0.074 A 
ATOM     65  C   UNL     1       9.830  -3.833 -14.010  1.00  0.00     0.029 A 
ATOM     66  N   UNL     1      10.723  -5.839 -13.858  1.00  0.00    -0.354 N 
ATOM     67  N   UNL     1       8.761  -9.570 -15.110  1.00  0.00    -0.248 NA
ATOM     68  C   UNL     1       9.820 -10.019 -13.084  1.00  0.00     0.031 C 
ATOM     69  C   UNL     1       9.338  -4.661 -15.062  1.00  0.00     0.029 A 
ATOM     70  C   UNL     1       9.756  -5.973 -14.826  1.00  0.00     0.049 A 
ATOM     71  H   UNL     1      11.481  -6.450 -13.710  1.00  0.00     0.167 HD
ATOM     72  C   UNL     1       9.537  -8.463 -14.790  1.00  0.00     0.074 A 
ATOM     73  C   UNL     1      10.231  -8.836 -13.557  1.00  0.00     0.031 C 
ATOM     74  C   UNL     1       9.313  -7.246 -15.374  1.00  0.00     0.034 A 
BRANCH  61  75
ATOM     75  C   UNL     1      11.786  -5.166 -10.949  1.00  0.00     0.023 A 
ATOM     76  C   UNL     1      12.990  -4.991 -11.649  1.00  0.00     0.031 A 
ATOM     77  C   UNL     1      11.878  -5.921  -9.753  1.00  0.00     0.131 A 
ATOM     78  C   UNL     1      14.166  -5.634 -11.231  1.00  0.00     0.055 A 
ATOM     79  C   UNL     1      13.065  -6.503  -9.307  1.00  0.00     0.041 A 
ATOM     80  F   UNL     1      10.827  -6.222  -8.984  1.00  0.00    -0.206 F 
ATOM     81  C   UNL     1      14.213  -6.392 -10.066  1.00  0.00     0.022 A 
BRANCH  78  82
ATOM     82  S   UNL     1      15.591  -5.604 -12.342  1.00  0.00     0.124 S 
ATOM     83  O   UNL     1      15.009  -6.118 -13.577  1.00  0.00    -0.237 OA
ATOM     84  O   UNL     1      15.944  -4.189 -12.333  1.00  0.00    -0.237 OA
ATOM     85  O   UNL     1      16.547  -6.491 -11.685  1.00  0.00    -0.744 OA
ENDBRANCH  78  82
ENDBRANCH  61  75
BRANCH  62  86
ATOM     86  C   UNL     1       7.465 -12.393 -13.055  1.00  0.00     0.023 A 
ATOM     87  C   UNL     1       8.045 -13.476 -13.754  1.00  0.00     0.031 A 
ATOM     88  C   UNL     1       6.998 -12.669 -11.748  1.00  0.00     0.131 A 
ATOM     89  C   UNL     1       8.124 -14.758 -13.149  1.00  0.00     0.055 A 
ATOM     90  C   UNL     1       7.074 -13.933 -11.159  1.00  0.00     0.041 A 
ATOM     91  F   UNL     1       6.519 -11.691 -10.962  1.00  0.00    -0.206 F 
ATOM     92  C   UNL     1       7.643 -14.984 -11.856  1.00  0.00     0.022 A 
BRANCH  89  93
ATOM     93  S   UNL     1       8.906 -16.163 -14.015  1.00  0.00     0.124 S 
ATOM     94  O   UNL     1       8.083 -16.294 -15.212  1.00  0.00    -0.237 OA
ATOM     95  O   UNL     1      10.270 -15.686 -14.213  1.00  0.00    -0.237 OA
ATOM     96  O   UNL     1       8.778 -17.268 -13.063  1.00  0.00    -0.744 OA
ENDBRANCH  89  93
ENDBRANCH  62  86
BRANCH  74  97
ATOM     97  C   UNL     1       8.386  -7.187 -16.577  1.00  0.00     0.023 A 
ATOM     98  C   UNL     1       7.023  -7.571 -16.581  1.00  0.00     0.031 A 
ATOM     99  C   UNL     1       8.894  -6.586 -17.743  1.00  0.00     0.131 A 
ATOM    100  C   UNL     1       6.232  -7.354 -17.730  1.00  0.00     0.055 A 
ATOM    101  C   UNL     1       8.102  -6.351 -18.866  1.00  0.00     0.041 A 
ATOM    102  F   UNL     1      10.172  -6.175 -17.793  1.00  0.00    -0.206 F 
ATOM    103  C   UNL     1       6.769  -6.739 -18.866  1.00  0.00     0.022 A 
BRANCH 100 104
ATOM    104  S   UNL     1       4.486  -7.881 -17.781  1.00  0.00     0.124 S 
ATOM    105  O   UNL     1       4.532  -9.253 -17.290  1.00  0.00    -0.237 OA
ATOM    106  O   UNL     1       3.838  -6.909 -16.905  1.00  0.00    -0.237 OA
ATOM    107  O   UNL     1       4.133  -7.752 -19.196  1.00  0.00    -0.744 OA
ENDBRANCH 100 104
ENDBRANCH  74  97
ENDBRANCH  48  49
ENDBRANCH  41  43
ENDBRANCH  40  41
ENDBRANCH  39  40
ENDBRANCH  38  39
ENDBRANCH  37  38
ENDBRANCH  36  37
ENDBRANCH  35  36
ENDBRANCH  34  35
ENDBRANCH   1  34
TORSDOF 28
