REMARK SMILES C/C(=N\NC(N)=S)c1nnn(-c2ccc(C(=O)OCCOCCOCCOCCOC(=O)c3ccc(-c4c5nc(c(-c6cc(S(=O)(=O)[O-])ccc6F)c6ccc([nH]6)c(-c6cc(S(=O)(=O)[O-])ccc6F)c6nc(c(-c7cc(S(=O)(=O)[O-])ccc7F)c7ccc4[nH]7)C=C6)C=C5)cc3)cc2)c1C
REMARK SMILES IDX 23 1 22 2 21 3 20 4 19 5 18 6 16 7 17 8 15 9 12 10 13 11
REMARK SMILES IDX 97 12 14 13 96 14 11 15 8 16 9 17 98 18 10 19 99 20 2 21
REMARK SMILES IDX 1 22 3 23 4 24 5 26 7 27 6 28 24 31 25 32 26 33 27 34 28 35
REMARK SMILES IDX 29 36 30 37 31 38 32 39 33 40 34 41 95 42 35 43 94 44 36 45
REMARK SMILES IDX 37 46 38 47 88 48 39 49 93 50 87 51 89 52 40 53 92 54 86 55
REMARK SMILES IDX 85 56 41 58 73 59 53 60 72 61 54 62 57 63 71 64 90 65 55 66
REMARK SMILES IDX 56 67 70 69 91 70 58 71 42 72 43 73 51 74 44 75 50 76 52 77
REMARK SMILES IDX 49 78 45 79 46 80 47 81 48 82 74 83 75 84 83 85 76 86 82 87
REMARK SMILES IDX 84 88 81 89 77 90 78 91 79 92 80 93 59 94 60 95 68 96 61 97
REMARK SMILES IDX 67 98 69 99 66 100 62 101 63 102 64 103 65 104
REMARK H PARENT 4 25 6 29 6 30 89 57 57 68
REMARK Flexibility Score: inf
ROOT
ATOM      1  C   UNL     1       7.088  -6.759   5.029  1.00  0.00     0.188 C 
ENDROOT
BRANCH   1   2
ATOM      2  C   UNL     1       7.198  -7.625   3.751  1.00  0.00     0.188 C 
BRANCH   2   3
ATOM      3  O   UNL     1       8.426  -7.881   3.071  1.00  0.00    -0.376 OA
BRANCH   3   4
ATOM      4  C   UNL     1       9.569  -7.069   3.273  1.00  0.00     0.202 C 
BRANCH   4   5
ATOM      5  C   UNL     1       9.540  -5.647   2.711  1.00  0.00     0.261 C 
BRANCH   5   6
ATOM      6  O   UNL     1       8.300  -4.967   2.919  1.00  0.00    -0.460 OA
BRANCH   6   7
ATOM      7  C   UNL     1       7.421  -5.074   1.897  1.00  0.00     0.338 C 
ATOM      8  O   UNL     1       7.610  -5.576   0.803  1.00  0.00    -0.246 OA
BRANCH   7   9
ATOM      9  C   UNL     1       6.099  -4.580   2.338  1.00  0.00     0.060 A 
ATOM     10  C   UNL     1       3.591  -3.556   2.874  1.00  0.00     0.067 A 
ATOM     11  C   UNL     1       3.693  -4.736   2.131  1.00  0.00     0.029 A 
ATOM     12  C   UNL     1       4.713  -2.976   3.478  1.00  0.00     0.029 A 
ATOM     13  C   UNL     1       4.959  -5.228   1.837  1.00  0.00     0.018 A 
ATOM     14  C   UNL     1       5.976  -3.498   3.215  1.00  0.00     0.018 A 
BRANCH  10  15
ATOM     15  N   UNL     1       2.401  -2.808   2.750  1.00  0.00    -0.217 N 
ATOM     16  C   UNL     1       0.976  -1.423   1.863  1.00  0.00     0.132 A 
ATOM     17  N   UNL     1       0.303  -2.548   2.251  1.00  0.00    -0.128 NA
ATOM     18  C   UNL     1       2.316  -1.551   2.167  1.00  0.00     0.071 A 
ATOM     19  N   UNL     1       1.184  -3.402   2.750  1.00  0.00    -0.061 NA
ATOM     20  C   UNL     1       3.479  -0.726   1.753  1.00  0.00     0.069 C 
BRANCH  16  21
ATOM     21  C   UNL     1       0.366  -0.404   1.037  1.00  0.00     0.087 C 
ATOM     22  C   UNL     1       0.164  -0.753  -0.417  1.00  0.00     0.071 C 
ATOM     23  N   UNL     1       0.066   0.713   1.633  1.00  0.00    -0.176 NA
BRANCH  23  24
ATOM     24  N   UNL     1      -0.532   1.708   0.918  1.00  0.00    -0.254 N 
ATOM     25  H   UNL     1      -1.495   1.850   1.065  1.00  0.00     0.193 HD
BRANCH  24  26
ATOM     26  C   UNL     1       0.093   2.535   0.007  1.00  0.00     0.184 C 
ATOM     27  S   UNL     1       1.659   2.485  -0.551  1.00  0.00    -0.040 S 
BRANCH  26  28
ATOM     28  N   UNL     1      -0.745   3.497  -0.482  1.00  0.00    -0.375 N 
ATOM     29  H   UNL     1      -1.677   3.545  -0.166  1.00  0.00     0.159 HD
ATOM     30  H   UNL     1      -0.419   4.141  -1.151  1.00  0.00     0.159 HD
ENDBRANCH  26  28
ENDBRANCH  24  26
ENDBRANCH  23  24
ENDBRANCH  16  21
ENDBRANCH  10  15
ENDBRANCH   7   9
ENDBRANCH   6   7
ENDBRANCH   5   6
ENDBRANCH   4   5
ENDBRANCH   3   4
ENDBRANCH   2   3
ENDBRANCH   1   2
BRANCH   1  31
ATOM     31  O   UNL     1       8.315  -6.396   5.644  1.00  0.00    -0.377 OA
BRANCH  31  32
ATOM     32  C   UNL     1       8.685  -7.214   6.753  1.00  0.00     0.188 C 
BRANCH  32  33
ATOM     33  C   UNL     1       8.868  -8.713   6.440  1.00  0.00     0.188 C 
BRANCH  33  34
ATOM     34  O   UNL     1       7.702  -9.319   5.883  1.00  0.00    -0.376 OA
BRANCH  34  35
ATOM     35  C   UNL     1       6.987 -10.259   6.672  1.00  0.00     0.202 C 
BRANCH  35  36
ATOM     36  C   UNL     1       5.988  -9.597   7.615  1.00  0.00     0.261 C 
BRANCH  36  37
ATOM     37  O   UNL     1       6.581  -8.653   8.495  1.00  0.00    -0.460 OA
BRANCH  37  38
ATOM     38  C   UNL     1       7.572  -9.111   9.288  1.00  0.00     0.338 C 
ATOM     39  O   UNL     1       8.095 -10.208   9.263  1.00  0.00    -0.246 OA
BRANCH  38  40
ATOM     40  C   UNL     1       7.866  -8.086  10.291  1.00  0.00     0.060 A 
ATOM     41  C   UNL     1       8.798  -8.448  11.265  1.00  0.00     0.016 A 
ATOM     42  C   UNL     1       6.975  -7.016  10.453  1.00  0.00     0.016 A 
ATOM     43  C   UNL     1       8.632  -7.933  12.525  1.00  0.00     0.010 A 
ATOM     44  C   UNL     1       6.787  -6.531  11.717  1.00  0.00     0.010 A 
ATOM     45  C   UNL     1       7.554  -7.074  12.746  1.00  0.00    -0.014 A 
BRANCH  45  46
ATOM     46  C   UNL     1       7.218  -6.761  14.112  1.00  0.00     0.031 A 
ATOM     47  C   UNL     1       7.971  -5.631  14.663  1.00  0.00     0.074 A 
ATOM     48  C   UNL     1       6.209  -7.375  14.750  1.00  0.00     0.049 A 
ATOM     49  N   UNL     1       8.877  -5.658  15.579  1.00  0.00    -0.248 NA
ATOM     50  C   UNL     1       7.842  -4.341  13.970  1.00  0.00     0.031 C 
ATOM     51  C   UNL     1       5.207  -8.273  14.171  1.00  0.00     0.029 A 
ATOM     52  N   UNL     1       5.788  -7.206  16.030  1.00  0.00    -0.354 N 
ATOM     53  C   UNL     1       9.253  -4.333  15.749  1.00  0.00     0.074 A 
ATOM     54  C   UNL     1       8.802  -3.647  14.573  1.00  0.00     0.031 C 
ATOM     55  C   UNL     1       4.174  -8.383  15.035  1.00  0.00     0.029 A 
ATOM     56  C   UNL     1       4.493  -7.650  16.251  1.00  0.00     0.049 A 
ATOM     57  H   UNL     1       6.348  -6.807  16.733  1.00  0.00     0.167 HD
ATOM     58  C   UNL     1       9.630  -3.865  16.968  1.00  0.00     0.034 A 
ATOM     59  C   UNL     1       3.707  -7.337  17.311  1.00  0.00     0.034 A 
ATOM     60  C   UNL     1       9.984  -4.964  17.851  1.00  0.00     0.049 A 
ATOM     61  C   UNL     1       4.598  -6.879  18.410  1.00  0.00     0.074 A 
ATOM     62  C   UNL     1      10.884  -6.012  17.766  1.00  0.00     0.029 A 
ATOM     63  N   UNL     1       9.113  -5.310  18.865  1.00  0.00    -0.354 N 
ATOM     64  N   UNL     1       5.447  -7.655  19.026  1.00  0.00    -0.248 NA
ATOM     65  C   UNL     1       4.868  -5.453  18.545  1.00  0.00     0.031 C 
ATOM     66  C   UNL     1      10.249  -7.115  18.407  1.00  0.00     0.029 A 
ATOM     67  C   UNL     1       9.019  -6.680  18.902  1.00  0.00     0.049 A 
ATOM     68  H   UNL     1       8.640  -4.683  19.459  1.00  0.00     0.167 HD
ATOM     69  C   UNL     1       6.565  -6.866  19.253  1.00  0.00     0.074 A 
ATOM     70  C   UNL     1       6.102  -5.497  19.058  1.00  0.00     0.031 C 
ATOM     71  C   UNL     1       7.820  -7.408  19.285  1.00  0.00     0.034 A 
BRANCH  58  72
ATOM     72  C   UNL     1       9.274  -2.477  17.479  1.00  0.00     0.023 A 
ATOM     73  C   UNL     1       9.569  -2.228  18.829  1.00  0.00     0.031 A 
ATOM     74  C   UNL     1       8.435  -1.518  16.861  1.00  0.00     0.131 A 
ATOM     75  C   UNL     1       8.901  -1.221  19.542  1.00  0.00     0.055 A 
ATOM     76  C   UNL     1       7.825  -0.472  17.561  1.00  0.00     0.041 A 
ATOM     77  F   UNL     1       8.098  -1.548  15.569  1.00  0.00    -0.206 F 
ATOM     78  C   UNL     1       8.015  -0.348  18.922  1.00  0.00     0.022 A 
BRANCH  75  79
ATOM     79  S   UNL     1       9.054  -1.235  21.342  1.00  0.00     0.124 S 
ATOM     80  O   UNL     1       8.729  -2.626  21.642  1.00  0.00    -0.237 OA
ATOM     81  O   UNL     1      10.447  -0.842  21.521  1.00  0.00    -0.237 OA
ATOM     82  O   UNL     1       8.063  -0.252  21.771  1.00  0.00    -0.744 OA
ENDBRANCH  75  79
ENDBRANCH  58  72
BRANCH  59  83
ATOM     83  C   UNL     1       2.231  -7.170  17.303  1.00  0.00     0.023 A 
ATOM     84  C   UNL     1       1.469  -7.204  18.485  1.00  0.00     0.031 A 
ATOM     85  C   UNL     1       1.557  -6.769  16.125  1.00  0.00     0.131 A 
ATOM     86  C   UNL     1       0.098  -6.868  18.454  1.00  0.00     0.055 A 
ATOM     87  C   UNL     1       0.195  -6.468  16.094  1.00  0.00     0.041 A 
ATOM     88  F   UNL     1       2.216  -6.572  14.972  1.00  0.00    -0.206 F 
ATOM     89  C   UNL     1      -0.542  -6.510  17.264  1.00  0.00     0.022 A 
BRANCH  86  90
ATOM     90  S   UNL     1      -0.851  -6.768  20.003  1.00  0.00     0.124 S 
ATOM     91  O   UNL     1      -1.028  -8.173  20.349  1.00  0.00    -0.237 OA
ATOM     92  O   UNL     1       0.035  -5.992  20.864  1.00  0.00    -0.237 OA
ATOM     93  O   UNL     1      -2.075  -6.072  19.605  1.00  0.00    -0.744 OA
ENDBRANCH  86  90
ENDBRANCH  59  83
BRANCH  71  94
ATOM     94  C   UNL     1       7.955  -8.905  19.484  1.00  0.00     0.023 A 
ATOM     95  C   UNL     1       7.346  -9.882  18.667  1.00  0.00     0.031 A 
ATOM     96  C   UNL     1       8.827  -9.354  20.493  1.00  0.00     0.131 A 
ATOM     97  C   UNL     1       7.603 -11.248  18.888  1.00  0.00     0.055 A 
ATOM     98  C   UNL     1       9.094 -10.708  20.698  1.00  0.00     0.041 A 
ATOM     99  F   UNL     1       9.465  -8.476  21.286  1.00  0.00    -0.206 F 
ATOM    100  C   UNL     1       8.475 -11.662  19.900  1.00  0.00     0.022 A 
BRANCH  97 101
ATOM    101  S   UNL     1       6.787 -12.519  17.871  1.00  0.00     0.124 S 
ATOM    102  O   UNL     1       5.408 -12.055  17.777  1.00  0.00    -0.237 OA
ATOM    103  O   UNL     1       7.563 -12.473  16.634  1.00  0.00    -0.237 OA
ATOM    104  O   UNL     1       6.965 -13.743  18.654  1.00  0.00    -0.744 OA
ENDBRANCH  97 101
ENDBRANCH  71  94
ENDBRANCH  45  46
ENDBRANCH  38  40
ENDBRANCH  37  38
ENDBRANCH  36  37
ENDBRANCH  35  36
ENDBRANCH  34  35
ENDBRANCH  33  34
ENDBRANCH  32  33
ENDBRANCH  31  32
ENDBRANCH   1  31
TORSDOF 28
