REMARK SMILES CC(C)CCc1cc2c(cc1Cl)C=C(C(=O)OCCOCCOCCOCCOC(=O)c1ccc(-c3c4nc(c(-c5cc(S(=O)(=O)[O-])ccc5F)c5ccc([nH]5)c(-c5cc(S(=O)(=O)[O-])ccc5F)c5nc(c(-c6cc(S(=O)(=O)[O-])ccc6F)c6ccc3[nH]6)C=C5)C=C4)cc1)[C@@H](C(F)(F)F)O2
REMARK SMILES IDX 23 1 22 2 21 3 20 4 19 5 18 6 17 7 15 8 16 9 14 10 6 11 7 12
REMARK SMILES IDX 11 13 8 14 10 15 12 16 9 17 100 18 13 19 95 20 5 21 4 22
REMARK SMILES IDX 2 23 1 24 3 25 96 26 97 27 98 28 99 29 24 30 25 31 26 32
REMARK SMILES IDX 27 33 28 34 29 35 30 36 31 37 32 38 33 39 94 40 34 41 93 42
REMARK SMILES IDX 35 43 36 44 37 45 87 46 38 47 92 48 86 49 88 50 39 51 91 52
REMARK SMILES IDX 85 53 84 54 40 56 72 57 52 58 71 59 53 60 56 61 70 62 89 63
REMARK SMILES IDX 54 64 55 65 69 67 90 68 57 69 41 70 42 71 50 72 43 73 49 74
REMARK SMILES IDX 51 75 48 76 44 77 45 78 46 79 47 80 73 81 74 82 82 83 75 84
REMARK SMILES IDX 81 85 83 86 80 87 76 88 77 89 78 90 79 91 58 92 59 93 67 94
REMARK SMILES IDX 60 95 66 96 68 97 65 98 61 99 62 100 63 101 64 102
REMARK H PARENT 88 55 56 66
REMARK Flexibility Score: inf
ROOT
ATOM      1  O   UNL     1       3.252  -1.578  -9.201  1.00  0.00    -0.377 OA
ENDROOT
BRANCH   1   2
ATOM      2  C   UNL     1       2.783  -2.592  -8.333  1.00  0.00     0.188 C 
BRANCH   2   3
ATOM      3  C   UNL     1       2.021  -3.716  -9.055  1.00  0.00     0.188 C 
BRANCH   3   4
ATOM      4  O   UNL     1       2.160  -3.683 -10.474  1.00  0.00    -0.376 OA
BRANCH   4   5
ATOM      5  C   UNL     1       1.052  -3.188 -11.219  1.00  0.00     0.202 C 
BRANCH   5   6
ATOM      6  C   UNL     1       0.788  -1.677 -11.126  1.00  0.00     0.261 C 
BRANCH   6   7
ATOM      7  O   UNL     1       0.521  -1.197  -9.798  1.00  0.00    -0.460 OA
BRANCH   7   8
ATOM      8  C   UNL     1      -0.589  -1.653  -9.191  1.00  0.00     0.338 C 
ATOM      9  O   UNL     1      -1.441  -2.382  -9.671  1.00  0.00    -0.246 OA
BRANCH   8  10
ATOM     10  C   UNL     1      -0.523  -1.276  -7.764  1.00  0.00     0.087 C 
ATOM     11  C   UNL     1      -1.141  -1.103  -2.775  1.00  0.00    -0.026 A 
ATOM     12  C   UNL     1      -0.632  -0.210  -3.743  1.00  0.00     0.052 A 
ATOM     13  C   UNL     1      -1.430  -2.415  -3.184  1.00  0.00     0.045 A 
ATOM     14  C   UNL     1      -0.491  -0.590  -5.082  1.00  0.00     0.128 A 
ATOM     15  C   UNL     1      -1.254  -2.803  -4.518  1.00  0.00     0.032 A 
ATOM     16  Cl  UNL     1      -2.106  -3.603  -2.129  1.00  0.00    -0.084 Cl
ATOM     17  C   UNL     1      -0.832  -1.879  -5.475  1.00  0.00     0.019 A 
ATOM     18  O   UNL     1      -0.044   0.371  -5.943  1.00  0.00    -0.475 OA
ATOM     19  C   UNL     1      -0.839  -2.232  -6.882  1.00  0.00     0.027 C 
ATOM     20  C   UNL     1      -0.074   0.111  -7.379  1.00  0.00     0.316 C 
BRANCH  11  21
ATOM     21  C   UNL     1      -1.467  -0.550  -1.402  1.00  0.00     0.037 C 
BRANCH  21  22
ATOM     22  C   UNL     1      -0.822  -1.212  -0.177  1.00  0.00     0.008 C 
BRANCH  22  23
ATOM     23  C   UNL     1       0.714  -1.265  -0.185  1.00  0.00    -0.017 C 
ATOM     24  C   UNL     1       1.328   0.124  -0.012  1.00  0.00     0.007 C 
ATOM     25  C   UNL     1       1.198  -2.190   0.935  1.00  0.00     0.007 C 
ENDBRANCH  22  23
ENDBRANCH  21  22
ENDBRANCH  11  21
BRANCH  20  26
ATOM     26  C   UNL     1      -0.927   1.199  -8.049  1.00  0.00     0.430 C 
ATOM     27  F   UNL     1      -0.542   2.437  -7.660  1.00  0.00    -0.167 F 
ATOM     28  F   UNL     1      -0.834   1.159  -9.397  1.00  0.00    -0.167 F 
ATOM     29  F   UNL     1      -2.237   1.065  -7.732  1.00  0.00    -0.167 F 
ENDBRANCH  20  26
ENDBRANCH   8  10
ENDBRANCH   7   8
ENDBRANCH   6   7
ENDBRANCH   5   6
ENDBRANCH   4   5
ENDBRANCH   3   4
ENDBRANCH   2   3
ENDBRANCH   1   2
BRANCH   1  30
ATOM     30  C   UNL     1       4.436  -1.833  -9.958  1.00  0.00     0.188 C 
BRANCH  30  31
ATOM     31  C   UNL     1       5.005  -3.258 -10.145  1.00  0.00     0.188 C 
BRANCH  31  32
ATOM     32  O   UNL     1       5.032  -4.039  -8.952  1.00  0.00    -0.376 OA
BRANCH  32  33
ATOM     33  C   UNL     1       6.317  -4.307  -8.404  1.00  0.00     0.202 C 
BRANCH  33  34
ATOM     34  C   UNL     1       6.886  -3.143  -7.586  1.00  0.00     0.261 C 
BRANCH  34  35
ATOM     35  O   UNL     1       7.141  -1.944  -8.331  1.00  0.00    -0.460 OA
BRANCH  35  36
ATOM     36  C   UNL     1       8.009  -2.013  -9.367  1.00  0.00     0.338 C 
ATOM     37  O   UNL     1       8.647  -2.985  -9.728  1.00  0.00    -0.246 OA
BRANCH  36  38
ATOM     38  C   UNL     1       7.884  -0.741 -10.109  1.00  0.00     0.060 A 
ATOM     39  C   UNL     1       7.975   0.475  -9.426  1.00  0.00     0.016 A 
ATOM     40  C   UNL     1       7.603  -0.769 -11.481  1.00  0.00     0.016 A 
ATOM     41  C   UNL     1       7.793   1.669 -10.121  1.00  0.00     0.010 A 
ATOM     42  C   UNL     1       7.414   0.430 -12.173  1.00  0.00     0.010 A 
ATOM     43  C   UNL     1       7.521   1.657 -11.499  1.00  0.00    -0.014 A 
BRANCH  43  44
ATOM     44  C   UNL     1       7.539   2.935 -12.249  1.00  0.00     0.031 A 
ATOM     45  C   UNL     1       6.284   3.664 -12.613  1.00  0.00     0.074 A 
ATOM     46  C   UNL     1       8.742   3.441 -12.580  1.00  0.00     0.049 A 
ATOM     47  N   UNL     1       6.159   4.848 -13.156  1.00  0.00    -0.248 NA
ATOM     48  C   UNL     1       5.009   2.987 -12.338  1.00  0.00     0.031 C 
ATOM     49  C   UNL     1      10.021   2.792 -12.289  1.00  0.00     0.029 A 
ATOM     50  N   UNL     1       9.091   4.603 -13.217  1.00  0.00    -0.354 N 
ATOM     51  C   UNL     1       4.794   5.075 -13.268  1.00  0.00     0.074 A 
ATOM     52  C   UNL     1       4.132   3.882 -12.780  1.00  0.00     0.031 C 
ATOM     53  C   UNL     1      11.015   3.573 -12.730  1.00  0.00     0.029 A 
ATOM     54  C   UNL     1      10.448   4.764 -13.357  1.00  0.00     0.049 A 
ATOM     55  H   UNL     1       8.432   5.259 -13.542  1.00  0.00     0.167 HD
ATOM     56  C   UNL     1       4.163   6.187 -13.719  1.00  0.00     0.034 A 
ATOM     57  C   UNL     1      11.162   5.760 -13.921  1.00  0.00     0.034 A 
ATOM     58  C   UNL     1       4.849   7.357 -14.215  1.00  0.00     0.049 A 
ATOM     59  C   UNL     1      10.435   6.967 -14.448  1.00  0.00     0.074 A 
ATOM     60  C   UNL     1       4.297   8.555 -14.636  1.00  0.00     0.029 A 
ATOM     61  N   UNL     1       6.223   7.478 -14.374  1.00  0.00    -0.354 N 
ATOM     62  N   UNL     1       9.147   7.221 -14.436  1.00  0.00    -0.248 NA
ATOM     63  C   UNL     1      11.249   8.031 -15.050  1.00  0.00     0.031 C 
ATOM     64  C   UNL     1       5.324   9.367 -15.119  1.00  0.00     0.029 A 
ATOM     65  C   UNL     1       6.531   8.712 -14.928  1.00  0.00     0.049 A 
ATOM     66  H   UNL     1       6.882   6.789 -14.130  1.00  0.00     0.167 HD
ATOM     67  C   UNL     1       8.998   8.481 -15.009  1.00  0.00     0.074 A 
ATOM     68  C   UNL     1      10.331   8.948 -15.330  1.00  0.00     0.031 C 
ATOM     69  C   UNL     1       7.860   9.180 -15.249  1.00  0.00     0.034 A 
BRANCH  56  70
ATOM     70  C   UNL     1       2.654   6.237 -13.681  1.00  0.00     0.023 A 
ATOM     71  C   UNL     1       1.919   6.392 -14.872  1.00  0.00     0.031 A 
ATOM     72  C   UNL     1       1.960   6.300 -12.459  1.00  0.00     0.131 A 
ATOM     73  C   UNL     1       0.542   6.643 -14.813  1.00  0.00     0.055 A 
ATOM     74  C   UNL     1       0.582   6.512 -12.408  1.00  0.00     0.041 A 
ATOM     75  F   UNL     1       2.617   6.168 -11.295  1.00  0.00    -0.206 F 
ATOM     76  C   UNL     1      -0.131   6.699 -13.588  1.00  0.00     0.022 A 
BRANCH  73  77
ATOM     77  S   UNL     1      -0.417   6.982 -16.316  1.00  0.00     0.124 S 
ATOM     78  O   UNL     1      -1.417   5.918 -16.279  1.00  0.00    -0.237 OA
ATOM     79  O   UNL     1      -0.926   8.326 -16.057  1.00  0.00    -0.237 OA
ATOM     80  O   UNL     1       0.564   6.874 -17.390  1.00  0.00    -0.744 OA
ENDBRANCH  73  77
ENDBRANCH  56  70
BRANCH  57  81
ATOM     81  C   UNL     1      12.650   5.657 -13.932  1.00  0.00     0.023 A 
ATOM     82  C   UNL     1      13.293   4.603 -14.608  1.00  0.00     0.031 A 
ATOM     83  C   UNL     1      13.437   6.528 -13.161  1.00  0.00     0.131 A 
ATOM     84  C   UNL     1      14.668   4.404 -14.438  1.00  0.00     0.055 A 
ATOM     85  C   UNL     1      14.819   6.368 -13.055  1.00  0.00     0.041 A 
ATOM     86  F   UNL     1      12.866   7.536 -12.485  1.00  0.00    -0.206 F 
ATOM     87  C   UNL     1      15.439   5.290 -13.680  1.00  0.00     0.022 A 
BRANCH  84  88
ATOM     88  S   UNL     1      15.474   2.907 -15.073  1.00  0.00     0.124 S 
ATOM     89  O   UNL     1      16.468   3.461 -15.986  1.00  0.00    -0.237 OA
ATOM     90  O   UNL     1      16.003   2.312 -13.848  1.00  0.00    -0.237 OA
ATOM     91  O   UNL     1      14.384   2.167 -15.700  1.00  0.00    -0.744 OA
ENDBRANCH  84  88
ENDBRANCH  57  81
BRANCH  69  92
ATOM     92  C   UNL     1       7.971  10.535 -15.909  1.00  0.00     0.023 A 
ATOM     93  C   UNL     1       7.524  11.690 -15.238  1.00  0.00     0.031 A 
ATOM     94  C   UNL     1       8.374  10.662 -17.250  1.00  0.00     0.131 A 
ATOM     95  C   UNL     1       7.447  12.910 -15.922  1.00  0.00     0.055 A 
ATOM     96  C   UNL     1       8.344  11.891 -17.912  1.00  0.00     0.041 A 
ATOM     97  F   UNL     1       8.801   9.591 -17.938  1.00  0.00    -0.206 F 
ATOM     98  C   UNL     1       7.864  13.018 -17.252  1.00  0.00     0.022 A 
BRANCH  95  99
ATOM     99  S   UNL     1       6.721  14.379 -15.142  1.00  0.00     0.124 S 
ATOM    100  O   UNL     1       7.833  15.326 -15.190  1.00  0.00    -0.237 OA
ATOM    101  O   UNL     1       5.607  14.682 -16.036  1.00  0.00    -0.237 OA
ATOM    102  O   UNL     1       6.350  13.923 -13.807  1.00  0.00    -0.744 OA
ENDBRANCH  95  99
ENDBRANCH  69  92
ENDBRANCH  43  44
ENDBRANCH  36  38
ENDBRANCH  35  36
ENDBRANCH  34  35
ENDBRANCH  33  34
ENDBRANCH  32  33
ENDBRANCH  31  32
ENDBRANCH  30  31
ENDBRANCH   1  30
TORSDOF 27
