REMARK SMILES O=C(OCCOCCOCCOCCOC(=O)c1nnn(-c2cccc(C(F)(F)F)c2)c1[C@@H]1COc2ccccc2O1)c1ccc(-c2c3nc(c(-c4cc(S(=O)(=O)[O-])ccc4F)c4ccc([nH]4)c(-c4cc(S(=O)(=O)[O-])ccc4F)c4nc(c(-c5cc(S(=O)(=O)[O-])ccc5F)c5ccc2[nH]5)C=C4)C=C3)cc1
REMARK SMILES IDX 8 1 7 2 6 3 5 4 4 5 3 6 2 7 1 8 43 9 44 10 105 11 45 12
REMARK SMILES IDX 104 13 46 14 47 15 48 16 98 17 49 18 103 19 97 20 99 21
REMARK SMILES IDX 50 22 102 23 96 24 95 25 51 27 83 28 63 29 82 30 64 31 67 32
REMARK SMILES IDX 81 33 100 34 65 35 66 36 80 38 101 39 68 40 52 41 53 42
REMARK SMILES IDX 61 43 54 44 60 45 62 46 59 47 55 48 56 49 57 50 58 51 84 52
REMARK SMILES IDX 85 53 93 54 86 55 92 56 94 57 91 58 87 59 88 60 89 61 90 62
REMARK SMILES IDX 69 63 70 64 78 65 71 66 77 67 79 68 76 69 72 70 73 71 74 72
REMARK SMILES IDX 75 73 9 74 10 75 11 76 12 77 13 78 14 79 15 80 16 81 17 82
REMARK SMILES IDX 18 83 19 84 32 85 20 86 21 87 33 88 34 89 42 90 35 91 41 92
REMARK SMILES IDX 36 93 40 94 37 95 39 96 38 97 22 98 23 99 31 100 24 101
REMARK SMILES IDX 26 102 25 103 27 104 28 105 29 106 30 107
REMARK H PARENT 99 26 67 37
REMARK Flexibility Score: inf
ROOT
ATOM      1  C   UNL     1       2.384  -0.515   2.190  1.00  0.00     0.188 C 
ENDROOT
BRANCH   1   2
ATOM      2  C   UNL     1       3.012  -1.214   0.974  1.00  0.00     0.188 C 
BRANCH   2   3
ATOM      3  O   UNL     1       4.411  -1.012   0.921  1.00  0.00    -0.376 OA
BRANCH   3   4
ATOM      4  C   UNL     1       5.008  -0.010   0.124  1.00  0.00     0.202 C 
BRANCH   4   5
ATOM      5  C   UNL     1       4.482   1.431   0.071  1.00  0.00     0.261 C 
BRANCH   5   6
ATOM      6  O   UNL     1       3.075   1.652   0.233  1.00  0.00    -0.460 OA
BRANCH   6   7
ATOM      7  C   UNL     1       2.012   1.488  -0.576  1.00  0.00     0.338 C 
ATOM      8  O   UNL     1       0.915   1.863  -0.166  1.00  0.00    -0.246 OA
BRANCH   7   9
ATOM      9  C   UNL     1       2.069   0.719  -1.846  1.00  0.00     0.060 A 
ATOM     10  C   UNL     1       3.213   0.512  -2.614  1.00  0.00     0.016 A 
ATOM     11  C   UNL     1       0.844   0.182  -2.291  1.00  0.00     0.016 A 
ATOM     12  C   UNL     1       3.134  -0.167  -3.822  1.00  0.00     0.010 A 
ATOM     13  C   UNL     1       0.756  -0.484  -3.506  1.00  0.00     0.010 A 
ATOM     14  C   UNL     1       1.897  -0.606  -4.294  1.00  0.00    -0.014 A 
BRANCH  14  15
ATOM     15  C   UNL     1       1.848  -1.048  -5.681  1.00  0.00     0.031 A 
ATOM     16  C   UNL     1       2.564  -2.297  -6.049  1.00  0.00     0.074 A 
ATOM     17  C   UNL     1       1.187  -0.336  -6.614  1.00  0.00     0.049 A 
ATOM     18  N   UNL     1       3.525  -2.445  -6.903  1.00  0.00    -0.248 NA
ATOM     19  C   UNL     1       2.189  -3.532  -5.350  1.00  0.00     0.031 C 
ATOM     20  C   UNL     1       0.252   0.773  -6.401  1.00  0.00     0.029 A 
ATOM     21  N   UNL     1       1.151  -0.526  -7.962  1.00  0.00    -0.354 N 
ATOM     22  C   UNL     1       3.765  -3.814  -6.991  1.00  0.00     0.074 A 
ATOM     23  C   UNL     1       2.985  -4.424  -5.943  1.00  0.00     0.031 C 
ATOM     24  C   UNL     1      -0.423   1.007  -7.546  1.00  0.00     0.029 A 
ATOM     25  C   UNL     1       0.132   0.168  -8.594  1.00  0.00     0.049 A 
ATOM     26  H   UNL     1       1.789  -1.102  -8.442  1.00  0.00     0.167 HD
ATOM     27  C   UNL     1       4.475  -4.368  -8.014  1.00  0.00     0.034 A 
ATOM     28  C   UNL     1      -0.288   0.019  -9.872  1.00  0.00     0.034 A 
ATOM     29  C   UNL     1       5.317  -3.399  -8.668  1.00  0.00     0.049 A 
ATOM     30  C   UNL     1       0.835  -0.546 -10.652  1.00  0.00     0.074 A 
ATOM     31  C   UNL     1       6.362  -2.594  -8.256  1.00  0.00     0.029 A 
ATOM     32  N   UNL     1       4.937  -2.903  -9.892  1.00  0.00    -0.354 N 
ATOM     33  N   UNL     1       1.949   0.093 -10.880  1.00  0.00    -0.248 NA
ATOM     34  C   UNL     1       0.901  -1.986 -10.847  1.00  0.00     0.031 C 
ATOM     35  C   UNL     1       6.218  -1.386  -8.999  1.00  0.00     0.029 A 
ATOM     36  C   UNL     1       5.115  -1.540  -9.842  1.00  0.00     0.049 A 
ATOM     37  H   UNL     1       4.602  -3.423 -10.657  1.00  0.00     0.167 HD
ATOM     38  C   UNL     1       2.938  -0.875 -10.831  1.00  0.00     0.074 A 
ATOM     39  C   UNL     1       2.224  -2.143 -10.937  1.00  0.00     0.031 C 
ATOM     40  C   UNL     1       4.211  -0.573 -10.436  1.00  0.00     0.034 A 
BRANCH  27  41
ATOM     41  C   UNL     1       4.249  -5.754  -8.570  1.00  0.00     0.023 A 
ATOM     42  C   UNL     1       5.152  -6.260  -9.528  1.00  0.00     0.031 A 
ATOM     43  C   UNL     1       3.060  -6.497  -8.394  1.00  0.00     0.131 A 
ATOM     44  C   UNL     1       4.847  -7.416 -10.271  1.00  0.00     0.055 A 
ATOM     45  C   UNL     1       2.792  -7.683  -9.085  1.00  0.00     0.041 A 
ATOM     46  F   UNL     1       2.058  -6.066  -7.617  1.00  0.00    -0.206 F 
ATOM     47  C   UNL     1       3.679  -8.139 -10.045  1.00  0.00     0.022 A 
BRANCH  44  48
ATOM     48  S   UNL     1       5.918  -7.871 -11.664  1.00  0.00     0.124 S 
ATOM     49  O   UNL     1       6.031  -6.607 -12.384  1.00  0.00    -0.237 OA
ATOM     50  O   UNL     1       7.120  -8.334 -10.980  1.00  0.00    -0.237 OA
ATOM     51  O   UNL     1       5.154  -8.910 -12.353  1.00  0.00    -0.744 OA
ENDBRANCH  44  48
ENDBRANCH  27  41
BRANCH  28  52
ATOM     52  C   UNL     1      -1.703   0.042 -10.311  1.00  0.00     0.023 A 
ATOM     53  C   UNL     1      -2.077   0.298 -11.640  1.00  0.00     0.031 A 
ATOM     54  C   UNL     1      -2.720  -0.403  -9.432  1.00  0.00     0.131 A 
ATOM     55  C   UNL     1      -3.420   0.127 -12.039  1.00  0.00     0.055 A 
ATOM     56  C   UNL     1      -4.048  -0.551  -9.826  1.00  0.00     0.041 A 
ATOM     57  F   UNL     1      -2.438  -0.787  -8.177  1.00  0.00    -0.206 F 
ATOM     58  C   UNL     1      -4.404  -0.290 -11.138  1.00  0.00     0.022 A 
BRANCH  55  59
ATOM     59  S   UNL     1      -3.882   0.343 -13.784  1.00  0.00     0.124 S 
ATOM     60  O   UNL     1      -3.781   1.788 -13.953  1.00  0.00    -0.237 OA
ATOM     61  O   UNL     1      -2.881  -0.463 -14.474  1.00  0.00    -0.237 OA
ATOM     62  O   UNL     1      -5.243  -0.191 -13.844  1.00  0.00    -0.744 OA
ENDBRANCH  55  59
ENDBRANCH  28  52
BRANCH  40  63
ATOM     63  C   UNL     1       4.611   0.887 -10.345  1.00  0.00     0.023 A 
ATOM     64  C   UNL     1       3.956   1.839  -9.532  1.00  0.00     0.031 A 
ATOM     65  C   UNL     1       5.783   1.296 -11.007  1.00  0.00     0.131 A 
ATOM     66  C   UNL     1       4.468   3.146  -9.417  1.00  0.00     0.055 A 
ATOM     67  C   UNL     1       6.298   2.587 -10.878  1.00  0.00     0.041 A 
ATOM     68  F   UNL     1       6.476   0.428 -11.764  1.00  0.00    -0.206 F 
ATOM     69  C   UNL     1       5.637   3.520 -10.087  1.00  0.00     0.022 A 
BRANCH  66  70
ATOM     70  S   UNL     1       3.617   4.382  -8.385  1.00  0.00     0.124 S 
ATOM     71  O   UNL     1       2.222   4.265  -8.790  1.00  0.00    -0.237 OA
ATOM     72  O   UNL     1       3.932   3.931  -7.031  1.00  0.00    -0.237 OA
ATOM     73  O   UNL     1       4.259   5.642  -8.766  1.00  0.00    -0.744 OA
ENDBRANCH  66  70
ENDBRANCH  40  63
ENDBRANCH  14  15
ENDBRANCH   7   9
ENDBRANCH   6   7
ENDBRANCH   5   6
ENDBRANCH   4   5
ENDBRANCH   3   4
ENDBRANCH   2   3
ENDBRANCH   1   2
BRANCH   1  74
ATOM     74  O   UNL     1       2.970  -0.895   3.442  1.00  0.00    -0.377 OA
BRANCH  74  75
ATOM     75  C   UNL     1       4.334  -0.512   3.591  1.00  0.00     0.188 C 
BRANCH  75  76
ATOM     76  C   UNL     1       5.405  -1.627   3.494  1.00  0.00     0.188 C 
BRANCH  76  77
ATOM     77  O   UNL     1       5.138  -3.023   3.604  1.00  0.00    -0.376 OA
BRANCH  77  78
ATOM     78  C   UNL     1       3.829  -3.510   3.814  1.00  0.00     0.202 C 
BRANCH  78  79
ATOM     79  C   UNL     1       3.363  -3.487   5.273  1.00  0.00     0.261 C 
BRANCH  79  80
ATOM     80  O   UNL     1       3.694  -2.273   5.961  1.00  0.00    -0.458 OA
BRANCH  80  81
ATOM     81  C   UNL     1       4.902  -2.281   6.604  1.00  0.00     0.361 C 
ATOM     82  O   UNL     1       5.595  -3.265   6.768  1.00  0.00    -0.244 OA
BRANCH  81  83
ATOM     83  C   UNL     1       5.306  -0.942   7.024  1.00  0.00     0.198 A 
ATOM     84  N   UNL     1       6.627  -0.570   6.970  1.00  0.00    -0.122 NA
ATOM     85  C   UNL     1       4.546   0.155   7.419  1.00  0.00     0.123 A 
ATOM     86  N   UNL     1       6.715   0.704   7.309  1.00  0.00    -0.061 NA
ATOM     87  N   UNL     1       5.506   1.092   7.777  1.00  0.00    -0.213 N 
BRANCH  85  88
ATOM     88  C   UNL     1       3.063   0.399   7.417  1.00  0.00     0.262 C 
ATOM     89  C   UNL     1       2.596   1.496   6.449  1.00  0.00     0.281 C 
ATOM     90  O   UNL     1       2.598   0.577   8.760  1.00  0.00    -0.477 OA
ATOM     91  O   UNL     1       2.881   2.809   6.936  1.00  0.00    -0.485 OA
ATOM     92  C   UNL     1       2.228   1.860   9.071  1.00  0.00     0.162 A 
ATOM     93  C   UNL     1       2.393   2.946   8.207  1.00  0.00     0.161 A 
ATOM     94  C   UNL     1       1.742   2.070  10.360  1.00  0.00     0.050 A 
ATOM     95  C   UNL     1       2.127   4.242   8.644  1.00  0.00     0.050 A 
ATOM     96  C   UNL     1       1.455   3.366  10.793  1.00  0.00     0.004 A 
ATOM     97  C   UNL     1       1.657   4.452   9.940  1.00  0.00     0.004 A 
ENDBRANCH  85  88
BRANCH  87  98
ATOM     98  C   UNL     1       5.511   1.957   8.885  1.00  0.00     0.067 A 
ATOM     99  C   UNL     1       5.781   3.313   8.709  1.00  0.00     0.028 A 
ATOM    100  C   UNL     1       5.348   1.407  10.163  1.00  0.00     0.041 A 
ATOM    101  C   UNL     1       5.801   4.145   9.827  1.00  0.00     0.003 A 
ATOM    102  C   UNL     1       5.423   2.231  11.291  1.00  0.00     0.058 A 
ATOM    103  C   UNL     1       5.621   3.609  11.108  1.00  0.00     0.013 A 
BRANCH 102 104
ATOM    104  C   UNL     1       5.284   1.648  12.673  1.00  0.00     0.416 C 
ATOM    105  F   UNL     1       6.196   2.152  13.552  1.00  0.00    -0.166 F 
ATOM    106  F   UNL     1       4.062   1.891  13.223  1.00  0.00    -0.166 F 
ATOM    107  F   UNL     1       5.446   0.295  12.712  1.00  0.00    -0.166 F 
ENDBRANCH 102 104
ENDBRANCH  87  98
ENDBRANCH  81  83
ENDBRANCH  80  81
ENDBRANCH  79  80
ENDBRANCH  78  79
ENDBRANCH  77  78
ENDBRANCH  76  77
ENDBRANCH  75  76
ENDBRANCH  74  75
ENDBRANCH   1  74
TORSDOF 26
