REMARK SMILES CC[C@H](c1ccc(OC)cc1)[N@H+]1CC[C@H](C(=O)OCCOCCOCCOCCOC(=O)c2ccc(-c3c4nc(c(-c5cc(S(=O)(=O)[O-])ccc5F)c5ccc([nH]5)c(-c5cc(S(=O)(=O)[O-])ccc5F)c5nc(c(-c6cc(S(=O)(=O)[O-])ccc6F)c6ccc3[nH]6)C=C5)C=C4)cc2)[C@@H]1C
REMARK SMILES IDX 24 1 23 2 22 3 21 4 20 5 19 6 18 7 16 8 17 9 15 10 12 11
REMARK SMILES IDX 13 12 96 13 14 15 97 16 3 17 2 18 1 19 4 20 5 21 11 22 6 23
REMARK SMILES IDX 10 24 7 25 8 26 9 27 25 28 26 29 27 30 28 31 29 32 30 33
REMARK SMILES IDX 31 34 32 35 33 36 34 37 95 38 35 39 94 40 36 41 37 42 38 43
REMARK SMILES IDX 88 44 39 45 93 46 87 47 89 48 40 49 92 50 86 51 85 52 41 54
REMARK SMILES IDX 73 55 53 56 72 57 54 58 57 59 71 60 90 61 55 62 56 63 70 65
REMARK SMILES IDX 91 66 58 67 42 68 43 69 51 70 44 71 50 72 52 73 49 74 45 75
REMARK SMILES IDX 46 76 47 77 48 78 74 79 75 80 83 81 76 82 82 83 84 84 81 85
REMARK SMILES IDX 77 86 78 87 79 88 80 89 59 90 60 91 68 92 61 93 67 94 69 95
REMARK SMILES IDX 66 96 62 97 63 98 64 99 65 100
REMARK H PARENT 12 14 89 53 57 64
REMARK Flexibility Score: inf
ROOT
ATOM      1  O   UNL     1      -0.561   9.079  -2.620  1.00  0.00    -0.377 OA
ENDROOT
BRANCH   1   2
ATOM      2  C   UNL     1      -0.773   7.832  -1.987  1.00  0.00     0.188 C 
BRANCH   2   3
ATOM      3  C   UNL     1      -1.908   7.662  -0.946  1.00  0.00     0.188 C 
BRANCH   3   4
ATOM      4  O   UNL     1      -2.328   8.886  -0.385  1.00  0.00    -0.376 OA
BRANCH   4   5
ATOM      5  C   UNL     1      -1.822   9.167   0.905  1.00  0.00     0.202 C 
BRANCH   5   6
ATOM      6  C   UNL     1      -0.296   9.161   1.095  1.00  0.00     0.261 C 
BRANCH   6   7
ATOM      7  O   UNL     1       0.466   8.025   0.617  1.00  0.00    -0.463 OA
BRANCH   7   8
ATOM      8  C   UNL     1       0.268   6.777   1.123  1.00  0.00     0.315 C 
ATOM      9  O   UNL     1      -0.558   6.521   1.987  1.00  0.00    -0.252 OA
BRANCH   8  10
ATOM     10  C   UNL     1       1.292   5.792   0.523  1.00  0.00     0.162 C 
ATOM     11  N   UNL     1       0.530   3.486   0.276  1.00  0.00    -0.326 N 
ATOM     12  C   UNL     1       0.866   3.766   1.686  1.00  0.00     0.264 C 
ATOM     13  C   UNL     1       0.945   4.669  -0.493  1.00  0.00     0.196 C 
ATOM     14  H   UNL     1      -0.474   3.344   0.165  1.00  0.00     0.348 HD
ATOM     15  C   UNL     1       1.815   4.953   1.680  1.00  0.00     0.083 C 
ATOM     16  C   UNL     1      -0.058   4.918  -1.599  1.00  0.00     0.076 C 
BRANCH  11  17
ATOM     17  C   UNL     1       1.068   2.190  -0.223  1.00  0.00     0.215 C 
BRANCH  17  18
ATOM     18  C   UNL     1       0.712   1.843  -1.699  1.00  0.00     0.067 C 
ATOM     19  C   UNL     1       1.201   0.481  -2.186  1.00  0.00     0.010 C 
ENDBRANCH  17  18
BRANCH  17  20
ATOM     20  C   UNL     1       0.572   1.067   0.675  1.00  0.00     0.010 A 
ATOM     21  C   UNL     1      -0.797   0.890   0.921  1.00  0.00     0.014 A 
ATOM     22  C   UNL     1       1.502   0.254   1.331  1.00  0.00     0.014 A 
ATOM     23  C   UNL     1      -1.223  -0.068   1.836  1.00  0.00     0.047 A 
ATOM     24  C   UNL     1       1.071  -0.703   2.244  1.00  0.00     0.047 A 
ATOM     25  C   UNL     1      -0.291  -0.864   2.504  1.00  0.00     0.118 A 
BRANCH  25  26
ATOM     26  O   UNL     1      -0.830  -1.752   3.395  1.00  0.00    -0.497 OA
ATOM     27  C   UNL     1       0.090  -2.633   4.024  1.00  0.00     0.278 C 
ENDBRANCH  25  26
ENDBRANCH  17  20
ENDBRANCH  11  17
ENDBRANCH   8  10
ENDBRANCH   7   8
ENDBRANCH   6   7
ENDBRANCH   5   6
ENDBRANCH   4   5
ENDBRANCH   3   4
ENDBRANCH   2   3
ENDBRANCH   1   2
BRANCH   1  28
ATOM     28  C   UNL     1      -1.706   9.861  -2.902  1.00  0.00     0.188 C 
BRANCH  28  29
ATOM     29  C   UNL     1      -2.956   9.178  -3.508  1.00  0.00     0.188 C 
BRANCH  29  30
ATOM     30  O   UNL     1      -2.969   7.762  -3.433  1.00  0.00    -0.376 OA
BRANCH  30  31
ATOM     31  C   UNL     1      -2.927   6.973  -4.605  1.00  0.00     0.202 C 
BRANCH  31  32
ATOM     32  C   UNL     1      -1.679   7.027  -5.499  1.00  0.00     0.261 C 
BRANCH  32  33
ATOM     33  O   UNL     1      -1.091   8.314  -5.684  1.00  0.00    -0.460 OA
BRANCH  33  34
ATOM     34  C   UNL     1      -1.768   9.162  -6.497  1.00  0.00     0.338 C 
ATOM     35  O   UNL     1      -2.813   8.953  -7.061  1.00  0.00    -0.246 OA
BRANCH  34  36
ATOM     36  C   UNL     1      -1.088  10.471  -6.390  1.00  0.00     0.060 A 
ATOM     37  C   UNL     1      -1.801  11.559  -5.872  1.00  0.00     0.016 A 
ATOM     38  C   UNL     1       0.258  10.598  -6.741  1.00  0.00     0.016 A 
ATOM     39  C   UNL     1      -1.158  12.776  -5.670  1.00  0.00     0.010 A 
ATOM     40  C   UNL     1       0.884  11.836  -6.599  1.00  0.00     0.010 A 
ATOM     41  C   UNL     1       0.172  12.929  -6.077  1.00  0.00    -0.014 A 
BRANCH  41  42
ATOM     42  C   UNL     1       0.719  14.296  -6.203  1.00  0.00     0.031 A 
ATOM     43  C   UNL     1       0.526  14.989  -7.521  1.00  0.00     0.074 A 
ATOM     44  C   UNL     1       1.327  14.909  -5.175  1.00  0.00     0.049 A 
ATOM     45  N   UNL     1       0.936  16.165  -7.911  1.00  0.00    -0.248 NA
ATOM     46  C   UNL     1      -0.236  14.245  -8.539  1.00  0.00     0.031 C 
ATOM     47  C   UNL     1       1.502  14.347  -3.837  1.00  0.00     0.029 A 
ATOM     48  N   UNL     1       1.911  16.147  -5.101  1.00  0.00    -0.354 N 
ATOM     49  C   UNL     1       0.482  16.304  -9.217  1.00  0.00     0.074 A 
ATOM     50  C   UNL     1      -0.203  15.079  -9.565  1.00  0.00     0.031 C 
ATOM     51  C   UNL     1       2.166  15.236  -3.076  1.00  0.00     0.029 A 
ATOM     52  C   UNL     1       2.496  16.410  -3.884  1.00  0.00     0.049 A 
ATOM     53  H   UNL     1       1.912  16.788  -5.848  1.00  0.00     0.167 HD
ATOM     54  C   UNL     1       0.622  17.363 -10.048  1.00  0.00     0.034 A 
ATOM     55  C   UNL     1       3.236  17.466  -3.490  1.00  0.00     0.034 A 
ATOM     56  C   UNL     1       1.336  18.561  -9.687  1.00  0.00     0.049 A 
ATOM     57  C   UNL     1       3.477  18.589  -4.474  1.00  0.00     0.074 A 
ATOM     58  C   UNL     1       1.551  19.696 -10.446  1.00  0.00     0.029 A 
ATOM     59  N   UNL     1       1.969  18.769  -8.468  1.00  0.00    -0.354 N 
ATOM     60  N   UNL     1       3.044  18.716  -5.709  1.00  0.00    -0.248 NA
ATOM     61  C   UNL     1       4.299  19.714  -4.009  1.00  0.00     0.031 C 
ATOM     62  C   UNL     1       2.382  20.553  -9.719  1.00  0.00     0.029 A 
ATOM     63  C   UNL     1       2.607  19.999  -8.468  1.00  0.00     0.049 A 
ATOM     64  H   UNL     1       1.965  18.136  -7.714  1.00  0.00     0.167 HD
ATOM     65  C   UNL     1       3.511  19.952  -6.152  1.00  0.00     0.074 A 
ATOM     66  C   UNL     1       4.247  20.534  -5.048  1.00  0.00     0.031 C 
ATOM     67  C   UNL     1       3.342  20.557  -7.357  1.00  0.00     0.034 A 
BRANCH  54  68
ATOM     68  C   UNL     1       0.052  17.230 -11.438  1.00  0.00     0.023 A 
ATOM     69  C   UNL     1      -1.327  17.072 -11.664  1.00  0.00     0.031 A 
ATOM     70  C   UNL     1       0.908  17.216 -12.553  1.00  0.00     0.131 A 
ATOM     71  C   UNL     1      -1.801  16.839 -12.964  1.00  0.00     0.055 A 
ATOM     72  C   UNL     1       0.421  17.068 -13.852  1.00  0.00     0.041 A 
ATOM     73  F   UNL     1       2.236  17.328 -12.396  1.00  0.00    -0.206 F 
ATOM     74  C   UNL     1      -0.939  16.864 -14.063  1.00  0.00     0.022 A 
BRANCH  71  75
ATOM     75  S   UNL     1      -3.535  16.353 -13.182  1.00  0.00     0.124 S 
ATOM     76  O   UNL     1      -3.607  15.141 -12.369  1.00  0.00    -0.237 OA
ATOM     77  O   UNL     1      -4.254  17.512 -12.666  1.00  0.00    -0.237 OA
ATOM     78  O   UNL     1      -3.651  16.136 -14.622  1.00  0.00    -0.744 OA
ENDBRANCH  71  75
ENDBRANCH  54  68
BRANCH  55  79
ATOM     79  C   UNL     1       3.846  17.503  -2.128  1.00  0.00     0.023 A 
ATOM     80  C   UNL     1       3.521  18.515  -1.211  1.00  0.00     0.031 A 
ATOM     81  C   UNL     1       4.820  16.561  -1.748  1.00  0.00     0.131 A 
ATOM     82  C   UNL     1       4.198  18.593   0.017  1.00  0.00     0.055 A 
ATOM     83  C   UNL     1       5.448  16.608  -0.502  1.00  0.00     0.041 A 
ATOM     84  F   UNL     1       5.178  15.576  -2.587  1.00  0.00    -0.206 F 
ATOM     85  C   UNL     1       5.148  17.638   0.384  1.00  0.00     0.022 A 
BRANCH  82  86
ATOM     86  S   UNL     1       3.893  20.025   1.088  1.00  0.00     0.124 S 
ATOM     87  O   UNL     1       4.251  21.133   0.210  1.00  0.00    -0.237 OA
ATOM     88  O   UNL     1       2.474  19.879   1.392  1.00  0.00    -0.237 OA
ATOM     89  O   UNL     1       4.796  19.804   2.216  1.00  0.00    -0.744 OA
ENDBRANCH  82  86
ENDBRANCH  55  79
BRANCH  67  90
ATOM     90  C   UNL     1       3.917  21.945  -7.520  1.00  0.00     0.023 A 
ATOM     91  C   UNL     1       5.302  22.186  -7.494  1.00  0.00     0.031 A 
ATOM     92  C   UNL     1       3.059  23.044  -7.710  1.00  0.00     0.131 A 
ATOM     93  C   UNL     1       5.784  23.500  -7.596  1.00  0.00     0.055 A 
ATOM     94  C   UNL     1       3.548  24.338  -7.882  1.00  0.00     0.041 A 
ATOM     95  F   UNL     1       1.727  22.874  -7.741  1.00  0.00    -0.206 F 
ATOM     96  C   UNL     1       4.917  24.574  -7.811  1.00  0.00     0.022 A 
BRANCH  93  97
ATOM     97  S   UNL     1       7.554  23.800  -7.342  1.00  0.00     0.124 S 
ATOM     98  O   UNL     1       7.764  23.257  -6.004  1.00  0.00    -0.237 OA
ATOM     99  O   UNL     1       8.159  23.049  -8.437  1.00  0.00    -0.237 OA
ATOM    100  O   UNL     1       7.674  25.253  -7.448  1.00  0.00    -0.744 OA
ENDBRANCH  93  97
ENDBRANCH  67  90
ENDBRANCH  41  42
ENDBRANCH  34  36
ENDBRANCH  33  34
ENDBRANCH  32  33
ENDBRANCH  31  32
ENDBRANCH  30  31
ENDBRANCH  29  30
ENDBRANCH  28  29
ENDBRANCH   1  28
TORSDOF 27
