REMARK SMILES O=C(Nc1ccc(-c2nc3ccccc3o2)cc1)C1=C(C(=O)OCCOCCOCCOCCOC(=O)c2ccc(-c3c4nc(c(-c5cc(S(=O)(=O)[O-])ccc5F)c5ccc([nH]5)c(-c5cc(S(=O)(=O)[O-])ccc5F)c5nc(c(-c6cc(S(=O)(=O)[O-])ccc6F)c6ccc3[nH]6)C=C5)C=C4)cc2)CCCC1
REMARK SMILES IDX 29 1 28 2 27 3 26 4 25 5 24 6 23 7 21 8 22 9 20 10 19 11
REMARK SMILES IDX 104 12 101 13 103 14 102 15 2 16 1 17 3 18 4 20 5 21 18 22
REMARK SMILES IDX 6 23 17 24 7 25 8 26 9 27 16 28 10 29 15 30 11 31 14 32
REMARK SMILES IDX 12 33 13 34 30 35 31 36 32 37 33 38 34 39 35 40 36 41 37 42
REMARK SMILES IDX 38 43 39 44 100 45 40 46 99 47 41 48 42 49 43 50 93 51 44 52
REMARK SMILES IDX 98 53 92 54 94 55 45 56 97 57 91 58 90 59 46 61 78 62 58 63
REMARK SMILES IDX 77 64 59 65 62 66 76 67 95 68 60 69 61 70 75 72 96 73 63 74
REMARK SMILES IDX 47 75 48 76 56 77 49 78 55 79 57 80 54 81 50 82 51 83 52 84
REMARK SMILES IDX 53 85 79 86 80 87 88 88 81 89 87 90 89 91 86 92 82 93 83 94
REMARK SMILES IDX 84 95 85 96 64 97 65 98 73 99 66 100 72 101 74 102 71 103
REMARK SMILES IDX 67 104 68 105 69 106 70 107
REMARK H PARENT 3 19 94 60 62 71
REMARK Flexibility Score: inf
ROOT
ATOM      1  O   UNL     1       2.638  -2.233  -2.559  1.00  0.00    -0.377 OA
ENDROOT
BRANCH   1   2
ATOM      2  C   UNL     1       3.101  -1.309  -3.520  1.00  0.00     0.188 C 
BRANCH   2   3
ATOM      3  C   UNL     1       4.580  -1.485  -3.934  1.00  0.00     0.188 C 
BRANCH   3   4
ATOM      4  O   UNL     1       5.281  -2.701  -3.723  1.00  0.00    -0.376 OA
BRANCH   4   5
ATOM      5  C   UNL     1       5.330  -3.359  -2.469  1.00  0.00     0.202 C 
BRANCH   5   6
ATOM      6  C   UNL     1       5.309  -2.644  -1.119  1.00  0.00     0.261 C 
BRANCH   6   7
ATOM      7  O   UNL     1       4.547  -1.443  -1.043  1.00  0.00    -0.460 OA
BRANCH   7   8
ATOM      8  C   UNL     1       5.255  -0.303  -1.134  1.00  0.00     0.334 C 
ATOM      9  O   UNL     1       6.461  -0.228  -1.329  1.00  0.00    -0.247 OA
BRANCH   8  10
ATOM     10  C   UNL     1       4.368   0.896  -1.134  1.00  0.00     0.046 C 
ATOM     11  C   UNL     1       3.260   1.088  -0.377  1.00  0.00     0.028 C 
ATOM     12  C   UNL     1       2.453   2.371  -0.478  1.00  0.00     0.042 C 
ATOM     13  C   UNL     1       4.869   1.936  -2.115  1.00  0.00     0.044 C 
ATOM     14  C   UNL     1       2.832   3.291  -1.643  1.00  0.00     0.005 C 
ATOM     15  C   UNL     1       4.335   3.334  -1.852  1.00  0.00     0.005 C 
BRANCH  11  16
ATOM     16  C   UNL     1       2.629   0.093   0.572  1.00  0.00     0.252 C 
ATOM     17  O   UNL     1       1.405  -0.055   0.541  1.00  0.00    -0.269 OA
ATOM     18  N   UNL     1       3.359  -0.643   1.466  1.00  0.00    -0.322 N 
ATOM     19  H   UNL     1       2.865  -1.362   1.923  1.00  0.00     0.170 HD
BRANCH  18  20
ATOM     20  C   UNL     1       4.706  -0.521   1.825  1.00  0.00     0.041 A 
ATOM     21  C   UNL     1       5.455  -1.689   2.021  1.00  0.00     0.027 A 
ATOM     22  C   UNL     1       5.334   0.717   1.838  1.00  0.00     0.027 A 
ATOM     23  C   UNL     1       6.858  -1.628   2.007  1.00  0.00     0.016 A 
ATOM     24  C   UNL     1       6.719   0.778   1.855  1.00  0.00     0.016 A 
ATOM     25  C   UNL     1       7.496  -0.390   1.889  1.00  0.00     0.037 A 
BRANCH  25  26
ATOM     26  C   UNL     1       8.935  -0.203   1.846  1.00  0.00     0.227 A 
ATOM     27  N   UNL     1       9.590   0.789   2.419  1.00  0.00    -0.209 NA
ATOM     28  O   UNL     1       9.688  -0.992   1.008  1.00  0.00    -0.436 OA
ATOM     29  C   UNL     1      10.849   0.673   1.925  1.00  0.00     0.110 A 
ATOM     30  C   UNL     1      10.929  -0.403   1.055  1.00  0.00     0.155 A 
ATOM     31  C   UNL     1      11.973   1.466   2.165  1.00  0.00     0.032 A 
ATOM     32  C   UNL     1      12.089  -0.758   0.374  1.00  0.00     0.049 A 
ATOM     33  C   UNL     1      13.161   1.135   1.508  1.00  0.00     0.003 A 
ATOM     34  C   UNL     1      13.215   0.045   0.628  1.00  0.00     0.004 A 
ENDBRANCH  25  26
ENDBRANCH  18  20
ENDBRANCH  11  16
ENDBRANCH   8  10
ENDBRANCH   7   8
ENDBRANCH   6   7
ENDBRANCH   5   6
ENDBRANCH   4   5
ENDBRANCH   3   4
ENDBRANCH   2   3
ENDBRANCH   1   2
BRANCH   1  35
ATOM     35  C   UNL     1       2.079  -3.459  -3.011  1.00  0.00     0.188 C 
BRANCH  35  36
ATOM     36  C   UNL     1       2.558  -4.079  -4.342  1.00  0.00     0.188 C 
BRANCH  36  37
ATOM     37  O   UNL     1       2.804  -3.138  -5.375  1.00  0.00    -0.376 OA
BRANCH  37  38
ATOM     38  C   UNL     1       1.843  -2.965  -6.398  1.00  0.00     0.202 C 
BRANCH  38  39
ATOM     39  C   UNL     1       0.451  -2.444  -6.004  1.00  0.00     0.261 C 
BRANCH  39  40
ATOM     40  O   UNL     1      -0.226  -3.156  -4.961  1.00  0.00    -0.460 OA
BRANCH  40  41
ATOM     41  C   UNL     1      -0.525  -4.448  -5.201  1.00  0.00     0.338 C 
ATOM     42  O   UNL     1      -0.293  -5.069  -6.231  1.00  0.00    -0.246 OA
BRANCH  41  43
ATOM     43  C   UNL     1      -1.001  -5.054  -3.944  1.00  0.00     0.060 A 
ATOM     44  C   UNL     1      -0.329  -6.173  -3.433  1.00  0.00     0.016 A 
ATOM     45  C   UNL     1      -2.123  -4.539  -3.289  1.00  0.00     0.016 A 
ATOM     46  C   UNL     1      -0.823  -6.826  -2.306  1.00  0.00     0.010 A 
ATOM     47  C   UNL     1      -2.630  -5.209  -2.172  1.00  0.00     0.010 A 
ATOM     48  C   UNL     1      -2.014  -6.388  -1.715  1.00  0.00    -0.014 A 
BRANCH  48  49
ATOM     49  C   UNL     1      -2.757  -7.318  -0.829  1.00  0.00     0.031 A 
ATOM     50  C   UNL     1      -3.859  -8.139  -1.450  1.00  0.00     0.074 A 
ATOM     51  C   UNL     1      -2.432  -7.477   0.466  1.00  0.00     0.049 A 
ATOM     52  N   UNL     1      -4.678  -8.993  -0.895  1.00  0.00    -0.248 NA
ATOM     53  C   UNL     1      -4.063  -7.965  -2.898  1.00  0.00     0.031 C 
ATOM     54  C   UNL     1      -1.346  -6.784   1.156  1.00  0.00     0.029 A 
ATOM     55  N   UNL     1      -2.990  -8.277   1.431  1.00  0.00    -0.354 N 
ATOM     56  C   UNL     1      -5.499  -9.450  -1.921  1.00  0.00     0.074 A 
ATOM     57  C   UNL     1      -5.105  -8.749  -3.123  1.00  0.00     0.031 C 
ATOM     58  C   UNL     1      -1.323  -7.184   2.440  1.00  0.00     0.029 A 
ATOM     59  C   UNL     1      -2.417  -8.128   2.672  1.00  0.00     0.049 A 
ATOM     60  H   UNL     1      -3.732  -8.899   1.252  1.00  0.00     0.167 HD
ATOM     61  C   UNL     1      -6.485 -10.377  -1.868  1.00  0.00     0.034 A 
ATOM     62  C   UNL     1      -2.756  -8.673   3.859  1.00  0.00     0.034 A 
ATOM     63  C   UNL     1      -6.870 -11.059  -0.658  1.00  0.00     0.049 A 
ATOM     64  C   UNL     1      -3.918  -9.640   3.911  1.00  0.00     0.074 A 
ATOM     65  C   UNL     1      -7.855 -12.015  -0.485  1.00  0.00     0.029 A 
ATOM     66  N   UNL     1      -6.293 -10.852   0.589  1.00  0.00    -0.354 N 
ATOM     67  N   UNL     1      -4.693 -10.061   2.936  1.00  0.00    -0.248 NA
ATOM     68  C   UNL     1      -4.241 -10.218   5.222  1.00  0.00     0.031 C 
ATOM     69  C   UNL     1      -7.929 -12.324   0.877  1.00  0.00     0.029 A 
ATOM     70  C   UNL     1      -6.922 -11.640   1.540  1.00  0.00     0.049 A 
ATOM     71  H   UNL     1      -5.548 -10.235   0.771  1.00  0.00     0.167 HD
ATOM     72  C   UNL     1      -5.560 -10.990   3.511  1.00  0.00     0.074 A 
ATOM     73  C   UNL     1      -5.205 -11.072   4.912  1.00  0.00     0.031 C 
ATOM     74  C   UNL     1      -6.553 -11.716   2.934  1.00  0.00     0.034 A 
BRANCH  61  75
ATOM     75  C   UNL     1      -7.252 -10.654  -3.139  1.00  0.00     0.023 A 
ATOM     76  C   UNL     1      -6.636 -11.205  -4.277  1.00  0.00     0.031 A 
ATOM     77  C   UNL     1      -8.620 -10.338  -3.220  1.00  0.00     0.131 A 
ATOM     78  C   UNL     1      -7.370 -11.364  -5.462  1.00  0.00     0.055 A 
ATOM     79  C   UNL     1      -9.364 -10.576  -4.376  1.00  0.00     0.041 A 
ATOM     80  F   UNL     1      -9.255  -9.780  -2.177  1.00  0.00    -0.206 F 
ATOM     81  C   UNL     1      -8.737 -11.081  -5.511  1.00  0.00     0.022 A 
BRANCH  78  82
ATOM     82  S   UNL     1      -6.485 -11.813  -6.980  1.00  0.00     0.124 S 
ATOM     83  O   UNL     1      -5.534 -10.711  -7.104  1.00  0.00    -0.237 OA
ATOM     84  O   UNL     1      -5.917 -13.113  -6.642  1.00  0.00    -0.237 OA
ATOM     85  O   UNL     1      -7.536 -11.837  -7.996  1.00  0.00    -0.744 OA
ENDBRANCH  78  82
ENDBRANCH  61  75
BRANCH  62  86
ATOM     86  C   UNL     1      -2.027  -8.299   5.107  1.00  0.00     0.023 A 
ATOM     87  C   UNL     1      -1.350  -9.261   5.874  1.00  0.00     0.031 A 
ATOM     88  C   UNL     1      -2.067  -6.980   5.597  1.00  0.00     0.131 A 
ATOM     89  C   UNL     1      -0.796  -8.906   7.115  1.00  0.00     0.055 A 
ATOM     90  C   UNL     1      -1.458  -6.619   6.800  1.00  0.00     0.041 A 
ATOM     91  F   UNL     1      -2.705  -6.019   4.910  1.00  0.00    -0.206 F 
ATOM     92  C   UNL     1      -0.833  -7.589   7.576  1.00  0.00     0.022 A 
BRANCH  89  93
ATOM     93  S   UNL     1      -0.130 -10.219   8.176  1.00  0.00     0.124 S 
ATOM     94  O   UNL     1      -1.285 -11.098   8.318  1.00  0.00    -0.237 OA
ATOM     95  O   UNL     1       0.971 -10.731   7.367  1.00  0.00    -0.237 OA
ATOM     96  O   UNL     1       0.268  -9.507   9.388  1.00  0.00    -0.744 OA
ENDBRANCH  89  93
ENDBRANCH  62  86
BRANCH  74  97
ATOM     97  C   UNL     1      -7.269 -12.726   3.803  1.00  0.00     0.023 A 
ATOM     98  C   UNL     1      -8.041 -12.347   4.914  1.00  0.00     0.031 A 
ATOM     99  C   UNL     1      -7.158 -14.100   3.516  1.00  0.00     0.131 A 
ATOM    100  C   UNL     1      -8.610 -13.331   5.738  1.00  0.00     0.055 A 
ATOM    101  C   UNL     1      -7.790 -15.069   4.294  1.00  0.00     0.041 A 
ATOM    102  F   UNL     1      -6.431 -14.523   2.469  1.00  0.00    -0.206 F 
ATOM    103  C   UNL     1      -8.507 -14.688   5.423  1.00  0.00     0.022 A 
BRANCH 100 104
ATOM    104  S   UNL     1      -9.380 -12.820   7.299  1.00  0.00     0.124 S 
ATOM    105  O   UNL     1      -8.297 -12.085   7.945  1.00  0.00    -0.237 OA
ATOM    106  O   UNL     1     -10.511 -12.020   6.842  1.00  0.00    -0.237 OA
ATOM    107  O   UNL     1      -9.735 -14.087   7.937  1.00  0.00    -0.744 OA
ENDBRANCH 100 104
ENDBRANCH  74  97
ENDBRANCH  48  49
ENDBRANCH  41  43
ENDBRANCH  40  41
ENDBRANCH  39  40
ENDBRANCH  38  39
ENDBRANCH  37  38
ENDBRANCH  36  37
ENDBRANCH  35  36
ENDBRANCH   1  35
TORSDOF 26
