REMARK SMILES Cc1cc(OC(F)(F)F)cc2c1O[C@H](C(F)(F)F)C(C(=O)OCCOCCOCCOCCOC(=O)c1ccc(-c3c4nc(c(-c5cc(S(=O)(=O)[O-])ccc5F)c5ccc([nH]5)c(-c5cc(S(=O)(=O)[O-])ccc5F)c5nc(c(-c6cc(S(=O)(=O)[O-])ccc6F)c6ccc3[nH]6)C=C5)C=C4)cc1)=C2
REMARK SMILES IDX 29 1 28 2 27 3 26 4 25 5 24 6 23 7 22 8 20 9 21 10 19 11
REMARK SMILES IDX 1 12 2 13 3 14 12 15 4 16 11 17 13 18 10 19 100 20 14 21
REMARK SMILES IDX 5 22 6 23 7 24 8 25 9 26 15 27 16 28 17 29 18 30 30 31 31 32
REMARK SMILES IDX 32 33 33 34 34 35 35 36 36 37 37 38 38 39 99 40 39 41 98 42
REMARK SMILES IDX 40 43 41 44 42 45 92 46 43 47 97 48 91 49 93 50 44 51 96 52
REMARK SMILES IDX 90 53 89 54 45 56 77 57 57 58 76 59 58 60 61 61 75 62 94 63
REMARK SMILES IDX 59 64 60 65 74 67 95 68 62 69 46 70 47 71 55 72 48 73 54 74
REMARK SMILES IDX 56 75 53 76 49 77 50 78 51 79 52 80 78 81 79 82 87 83 80 84
REMARK SMILES IDX 86 85 88 86 85 87 81 88 82 89 83 90 84 91 63 92 64 93 72 94
REMARK SMILES IDX 65 95 71 96 73 97 70 98 66 99 67 100 68 101 69 102
REMARK H PARENT 93 55 61 66
REMARK Flexibility Score: inf
ROOT
ATOM      1  C   UNL     1      -3.532   1.004   7.581  1.00  0.00     0.188 C 
ENDROOT
BRANCH   1   2
ATOM      2  O   UNL     1      -3.343   1.172   6.176  1.00  0.00    -0.377 OA
BRANCH   2   3
ATOM      3  C   UNL     1      -2.610   2.304   5.743  1.00  0.00     0.188 C 
BRANCH   3   4
ATOM      4  C   UNL     1      -3.494   3.556   5.595  1.00  0.00     0.188 C 
BRANCH   4   5
ATOM      5  O   UNL     1      -4.717   3.473   6.306  1.00  0.00    -0.376 OA
BRANCH   5   6
ATOM      6  C   UNL     1      -5.887   2.944   5.700  1.00  0.00     0.202 C 
BRANCH   6   7
ATOM      7  C   UNL     1      -5.908   1.745   4.731  1.00  0.00     0.261 C 
BRANCH   7   8
ATOM      8  O   UNL     1      -4.763   1.541   3.904  1.00  0.00    -0.460 OA
BRANCH   8   9
ATOM      9  C   UNL     1      -4.607   2.326   2.826  1.00  0.00     0.338 C 
ATOM     10  O   UNL     1      -5.353   3.213   2.450  1.00  0.00    -0.246 OA
BRANCH   9  11
ATOM     11  C   UNL     1      -3.261   2.053   2.273  1.00  0.00     0.087 C 
ATOM     12  C   UNL     1       0.935  -0.047   0.209  1.00  0.00     0.048 C 
ATOM     13  C   UNL     1       0.482   1.346   0.556  1.00  0.00    -0.005 A 
ATOM     14  C   UNL     1       1.252   2.445   0.131  1.00  0.00     0.054 A 
ATOM     15  C   UNL     1      -0.743   1.573   1.203  1.00  0.00     0.131 A 
ATOM     16  C   UNL     1       0.830   3.751   0.384  1.00  0.00     0.130 A 
ATOM     17  C   UNL     1      -1.185   2.878   1.423  1.00  0.00     0.021 A 
ATOM     18  O   UNL     1      -1.458   0.473   1.577  1.00  0.00    -0.475 OA
ATOM     19  C   UNL     1      -0.380   3.959   1.049  1.00  0.00     0.058 A 
ATOM     20  C   UNL     1      -2.510   3.117   1.968  1.00  0.00     0.027 C 
ATOM     21  C   UNL     1      -2.782   0.627   2.158  1.00  0.00     0.316 C 
BRANCH  16  22
ATOM     22  O   UNL     1       1.483   4.897   0.032  1.00  0.00    -0.406 OA
BRANCH  22  23
ATOM     23  C   UNL     1       2.540   4.788  -0.904  1.00  0.00     0.573 C 
ATOM     24  F   UNL     1       3.587   4.116  -0.381  1.00  0.00    -0.132 F 
ATOM     25  F   UNL     1       2.133   4.181  -2.039  1.00  0.00    -0.132 F 
ATOM     26  F   UNL     1       2.961   6.033  -1.225  1.00  0.00    -0.132 F 
ENDBRANCH  22  23
ENDBRANCH  16  22
BRANCH  21  27
ATOM     27  C   UNL     1      -3.754  -0.242   1.349  1.00  0.00     0.430 C 
ATOM     28  F   UNL     1      -3.268  -1.491   1.169  1.00  0.00    -0.167 F 
ATOM     29  F   UNL     1      -4.955  -0.362   1.957  1.00  0.00    -0.167 F 
ATOM     30  F   UNL     1      -3.977   0.287   0.121  1.00  0.00    -0.167 F 
ENDBRANCH  21  27
ENDBRANCH   9  11
ENDBRANCH   8   9
ENDBRANCH   7   8
ENDBRANCH   6   7
ENDBRANCH   5   6
ENDBRANCH   4   5
ENDBRANCH   3   4
ENDBRANCH   2   3
ENDBRANCH   1   2
BRANCH   1  31
ATOM     31  C   UNL     1      -3.527   2.216   8.544  1.00  0.00     0.188 C 
BRANCH  31  32
ATOM     32  O   UNL     1      -2.464   3.137   8.316  1.00  0.00    -0.376 OA
BRANCH  32  33
ATOM     33  C   UNL     1      -1.395   3.143   9.251  1.00  0.00     0.202 C 
BRANCH  33  34
ATOM     34  C   UNL     1      -0.454   1.933   9.187  1.00  0.00     0.261 C 
BRANCH  34  35
ATOM     35  O   UNL     1      -1.066   0.654   9.403  1.00  0.00    -0.460 OA
BRANCH  35  36
ATOM     36  C   UNL     1      -1.662   0.435  10.594  1.00  0.00     0.338 C 
ATOM     37  O   UNL     1      -1.716   1.197  11.544  1.00  0.00    -0.246 OA
BRANCH  36  38
ATOM     38  C   UNL     1      -2.411  -0.831  10.475  1.00  0.00     0.060 A 
ATOM     39  C   UNL     1      -3.810  -0.813  10.561  1.00  0.00     0.016 A 
ATOM     40  C   UNL     1      -1.726  -2.028  10.253  1.00  0.00     0.016 A 
ATOM     41  C   UNL     1      -4.528  -2.002  10.446  1.00  0.00     0.010 A 
ATOM     42  C   UNL     1      -2.444  -3.222  10.176  1.00  0.00     0.010 A 
ATOM     43  C   UNL     1      -3.843  -3.216  10.306  1.00  0.00    -0.014 A 
BRANCH  43  44
ATOM     44  C   UNL     1      -4.558  -4.486  10.562  1.00  0.00     0.031 A 
ATOM     45  C   UNL     1      -4.605  -4.984  11.979  1.00  0.00     0.074 A 
ATOM     46  C   UNL     1      -5.148  -5.181   9.575  1.00  0.00     0.049 A 
ATOM     47  N   UNL     1      -5.152  -6.068  12.457  1.00  0.00    -0.248 NA
ATOM     48  C   UNL     1      -3.947  -4.141  12.993  1.00  0.00     0.031 C 
ATOM     49  C   UNL     1      -5.194  -4.781   8.172  1.00  0.00     0.029 A 
ATOM     50  N   UNL     1      -5.813  -6.382   9.608  1.00  0.00    -0.354 N 
ATOM     51  C   UNL     1      -4.907  -6.038  13.823  1.00  0.00     0.074 A 
ATOM     52  C   UNL     1      -4.139  -4.846  14.097  1.00  0.00     0.031 C 
ATOM     53  C   UNL     1      -5.840  -5.730   7.472  1.00  0.00     0.029 A 
ATOM     54  C   UNL     1      -6.228  -6.818   8.373  1.00  0.00     0.049 A 
ATOM     55  H   UNL     1      -5.977  -6.884  10.440  1.00  0.00     0.167 HD
ATOM     56  C   UNL     1      -5.295  -6.923  14.768  1.00  0.00     0.034 A 
ATOM     57  C   UNL     1      -6.837  -7.967   8.011  1.00  0.00     0.034 A 
ATOM     58  C   UNL     1      -6.042  -8.118  14.485  1.00  0.00     0.049 A 
ATOM     59  C   UNL     1      -7.207  -8.975   9.072  1.00  0.00     0.074 A 
ATOM     60  C   UNL     1      -6.495  -9.069  15.379  1.00  0.00     0.029 A 
ATOM     61  N   UNL     1      -6.432  -8.532  13.221  1.00  0.00    -0.354 N 
ATOM     62  N   UNL     1      -7.026  -8.909  10.371  1.00  0.00    -0.248 NA
ATOM     63  C   UNL     1      -7.872 -10.210   8.628  1.00  0.00     0.031 C 
ATOM     64  C   UNL     1      -7.104 -10.091  14.651  1.00  0.00     0.029 A 
ATOM     65  C   UNL     1      -7.099  -9.740  13.309  1.00  0.00     0.049 A 
ATOM     66  H   UNL     1      -6.260  -8.040  12.386  1.00  0.00     0.167 HD
ATOM     67  C   UNL     1      -7.585 -10.070  10.900  1.00  0.00     0.074 A 
ATOM     68  C   UNL     1      -8.116 -10.821   9.782  1.00  0.00     0.031 C 
ATOM     69  C   UNL     1      -7.655 -10.470  12.194  1.00  0.00     0.034 A 
BRANCH  56  70
ATOM     70  C   UNL     1      -4.918  -6.651  16.197  1.00  0.00     0.023 A 
ATOM     71  C   UNL     1      -4.037  -7.520  16.863  1.00  0.00     0.031 A 
ATOM     72  C   UNL     1      -5.508  -5.604  16.926  1.00  0.00     0.131 A 
ATOM     73  C   UNL     1      -3.798  -7.350  18.230  1.00  0.00     0.055 A 
ATOM     74  C   UNL     1      -5.236  -5.415  18.281  1.00  0.00     0.041 A 
ATOM     75  F   UNL     1      -6.346  -4.743  16.326  1.00  0.00    -0.206 F 
ATOM     76  C   UNL     1      -4.387  -6.298  18.942  1.00  0.00     0.022 A 
BRANCH  73  77
ATOM     77  S   UNL     1      -2.751  -8.511  19.145  1.00  0.00     0.124 S 
ATOM     78  O   UNL     1      -1.771  -7.616  19.758  1.00  0.00    -0.237 OA
ATOM     79  O   UNL     1      -3.705  -9.118  20.068  1.00  0.00    -0.237 OA
ATOM     80  O   UNL     1      -2.219  -9.393  18.112  1.00  0.00    -0.744 OA
ENDBRANCH  73  77
ENDBRANCH  56  70
BRANCH  57  81
ATOM     81  C   UNL     1      -7.166  -8.190   6.574  1.00  0.00     0.023 A 
ATOM     82  C   UNL     1      -6.147  -8.310   5.613  1.00  0.00     0.031 A 
ATOM     83  C   UNL     1      -8.499  -8.191   6.132  1.00  0.00     0.131 A 
ATOM     84  C   UNL     1      -6.476  -8.363   4.253  1.00  0.00     0.055 A 
ATOM     85  C   UNL     1      -8.825  -8.305   4.779  1.00  0.00     0.041 A 
ATOM     86  F   UNL     1      -9.503  -8.075   7.014  1.00  0.00    -0.206 F 
ATOM     87  C   UNL     1      -7.809  -8.377   3.830  1.00  0.00     0.022 A 
BRANCH  84  88
ATOM     88  S   UNL     1      -5.182  -8.326   2.982  1.00  0.00     0.124 S 
ATOM     89  O   UNL     1      -5.535  -9.471   2.148  1.00  0.00    -0.237 OA
ATOM     90  O   UNL     1      -5.403  -7.014   2.379  1.00  0.00    -0.237 OA
ATOM     91  O   UNL     1      -3.947  -8.463   3.746  1.00  0.00    -0.744 OA
ENDBRANCH  84  88
ENDBRANCH  57  81
BRANCH  69  92
ATOM     92  C   UNL     1      -8.355 -11.764  12.529  1.00  0.00     0.023 A 
ATOM     93  C   UNL     1      -9.508 -11.738  13.339  1.00  0.00     0.031 A 
ATOM     94  C   UNL     1      -7.785 -13.010  12.221  1.00  0.00     0.131 A 
ATOM     95  C   UNL     1     -10.023 -12.931  13.859  1.00  0.00     0.055 A 
ATOM     96  C   UNL     1      -8.331 -14.201  12.703  1.00  0.00     0.041 A 
ATOM     97  F   UNL     1      -6.679 -13.085  11.464  1.00  0.00    -0.206 F 
ATOM     98  C   UNL     1      -9.445 -14.164  13.539  1.00  0.00     0.022 A 
BRANCH  95  99
ATOM     99  S   UNL     1     -11.405 -12.918  15.034  1.00  0.00     0.124 S 
ATOM    100  O   UNL     1     -12.368 -13.802  14.380  1.00  0.00    -0.237 OA
ATOM    101  O   UNL     1     -10.784 -13.457  16.241  1.00  0.00    -0.237 OA
ATOM    102  O   UNL     1     -11.799 -11.515  15.101  1.00  0.00    -0.744 OA
ENDBRANCH  95  99
ENDBRANCH  69  92
ENDBRANCH  43  44
ENDBRANCH  36  38
ENDBRANCH  35  36
ENDBRANCH  34  35
ENDBRANCH  33  34
ENDBRANCH  32  33
ENDBRANCH  31  32
ENDBRANCH   1  31
TORSDOF 26
