REMARK SMILES CCCc1sc(C(=O)NCCC(=O)OCCOCCOCCOCCOC(=O)c2ccc(-c3c4nc(c(-c5cc(S(=O)(=O)[O-])ccc5F)c5ccc([nH]5)c(-c5cc(S(=O)(=O)[O-])ccc5F)c5nc(c(-c6cc(S(=O)(=O)[O-])ccc6F)c6ccc3[nH]6)C=C5)C=C4)cc2)cc1CC
REMARK SMILES IDX 19 1 18 2 17 3 16 4 15 5 14 6 12 7 13 8 11 9 10 10 9 11 7 12
REMARK SMILES IDX 8 13 6 15 4 16 5 17 93 18 92 19 3 20 2 21 1 22 94 23 95 24
REMARK SMILES IDX 20 25 21 26 22 27 23 28 24 29 25 30 26 31 27 32 28 33 29 34
REMARK SMILES IDX 30 35 91 36 31 37 90 38 32 39 33 40 34 41 84 42 35 43 89 44
REMARK SMILES IDX 83 45 85 46 36 47 88 48 82 49 81 50 37 52 69 53 49 54 68 55
REMARK SMILES IDX 50 56 53 57 67 58 86 59 51 60 52 61 66 63 87 64 54 65 38 66
REMARK SMILES IDX 39 67 47 68 40 69 46 70 48 71 45 72 41 73 42 74 43 75 44 76
REMARK SMILES IDX 70 77 71 78 79 79 72 80 78 81 80 82 77 83 73 84 74 85 75 86
REMARK SMILES IDX 76 87 55 88 56 89 64 90 57 91 63 92 65 93 62 94 58 95 59 96
REMARK SMILES IDX 60 97 61 98
REMARK H PARENT 9 14 85 51 53 62
REMARK Flexibility Score: inf
ROOT
ATOM      1  C   UNL     1      -3.567   7.381   3.847  1.00  0.00     0.188 C 
ENDROOT
BRANCH   1   2
ATOM      2  C   UNL     1      -4.246   7.830   5.150  1.00  0.00     0.188 C 
BRANCH   2   3
ATOM      3  O   UNL     1      -4.088   9.148   5.652  1.00  0.00    -0.376 OA
BRANCH   3   4
ATOM      4  C   UNL     1      -2.822   9.791   5.683  1.00  0.00     0.202 C 
BRANCH   4   5
ATOM      5  C   UNL     1      -1.535   9.095   6.159  1.00  0.00     0.261 C 
BRANCH   5   6
ATOM      6  O   UNL     1      -1.368   7.710   5.814  1.00  0.00    -0.463 OA
BRANCH   6   7
ATOM      7  C   UNL     1      -1.621   6.843   6.813  1.00  0.00     0.307 C 
ATOM      8  O   UNL     1      -2.000   7.165   7.936  1.00  0.00    -0.252 OA
BRANCH   7   9
ATOM      9  C   UNL     1      -1.371   5.399   6.480  1.00  0.00     0.144 C 
BRANCH   9  10
ATOM     10  C   UNL     1      -1.279   4.848   5.070  1.00  0.00     0.128 C 
BRANCH  10  11
ATOM     11  N   UNL     1      -0.372   5.451   4.117  1.00  0.00    -0.351 N 
ATOM     12  C   UNL     1       0.322   4.811   3.096  1.00  0.00     0.261 C 
ATOM     13  O   UNL     1       1.054   5.491   2.380  1.00  0.00    -0.268 OA
ATOM     14  H   UNL     1      -0.232   6.422   4.200  1.00  0.00     0.163 HD
BRANCH  12  15
ATOM     15  C   UNL     1       0.157   3.370   2.945  1.00  0.00     0.092 A 
ATOM     16  C   UNL     1       0.590   0.939   2.748  1.00  0.00     0.009 A 
ATOM     17  S   UNL     1       1.504   2.385   2.578  1.00  0.00    -0.135 S 
ATOM     18  C   UNL     1      -0.706   1.200   3.163  1.00  0.00    -0.034 A 
ATOM     19  C   UNL     1      -0.984   2.598   3.053  1.00  0.00     0.029 A 
BRANCH  16  20
ATOM     20  C   UNL     1       1.230  -0.387   2.447  1.00  0.00     0.047 C 
BRANCH  20  21
ATOM     21  C   UNL     1       0.712  -0.974   1.126  1.00  0.00     0.002 C 
ATOM     22  C   UNL     1       1.092  -0.143  -0.094  1.00  0.00     0.004 C 
ENDBRANCH  20  21
ENDBRANCH  16  20
BRANCH  18  23
ATOM     23  C   UNL     1      -1.724   0.201   3.633  1.00  0.00     0.033 C 
ATOM     24  C   UNL     1      -2.000   0.361   5.128  1.00  0.00     0.009 C 
ENDBRANCH  18  23
ENDBRANCH  12  15
ENDBRANCH  10  11
ENDBRANCH   9  10
ENDBRANCH   7   9
ENDBRANCH   6   7
ENDBRANCH   5   6
ENDBRANCH   4   5
ENDBRANCH   3   4
ENDBRANCH   2   3
ENDBRANCH   1   2
BRANCH   1  25
ATOM     25  O   UNL     1      -2.478   8.183   3.446  1.00  0.00    -0.377 OA
BRANCH  25  26
ATOM     26  C   UNL     1      -2.730   9.121   2.404  1.00  0.00     0.188 C 
BRANCH  26  27
ATOM     27  C   UNL     1      -4.099   9.839   2.389  1.00  0.00     0.188 C 
BRANCH  27  28
ATOM     28  O   UNL     1      -5.217   8.958   2.445  1.00  0.00    -0.376 OA
BRANCH  28  29
ATOM     29  C   UNL     1      -5.868   8.632   1.225  1.00  0.00     0.202 C 
BRANCH  29  30
ATOM     30  C   UNL     1      -5.073   7.799   0.205  1.00  0.00     0.261 C 
BRANCH  30  31
ATOM     31  O   UNL     1      -3.856   8.379  -0.292  1.00  0.00    -0.460 OA
BRANCH  31  32
ATOM     32  C   UNL     1      -3.925   9.593  -0.876  1.00  0.00     0.338 C 
ATOM     33  O   UNL     1      -4.938  10.239  -1.095  1.00  0.00    -0.246 OA
BRANCH  32  34
ATOM     34  C   UNL     1      -2.547  10.111  -1.015  1.00  0.00     0.060 A 
ATOM     35  C   UNL     1      -2.210  11.323  -0.399  1.00  0.00     0.016 A 
ATOM     36  C   UNL     1      -1.593   9.406  -1.753  1.00  0.00     0.016 A 
ATOM     37  C   UNL     1      -0.930  11.857  -0.554  1.00  0.00     0.010 A 
ATOM     38  C   UNL     1      -0.319   9.954  -1.928  1.00  0.00     0.010 A 
ATOM     39  C   UNL     1       0.007  11.200  -1.362  1.00  0.00    -0.014 A 
BRANCH  39  40
ATOM     40  C   UNL     1       1.236  11.912  -1.799  1.00  0.00     0.031 A 
ATOM     41  C   UNL     1       1.231  12.554  -3.162  1.00  0.00     0.074 A 
ATOM     42  C   UNL     1       2.320  12.008  -1.009  1.00  0.00     0.049 A 
ATOM     43  N   UNL     1       2.199  13.148  -3.807  1.00  0.00    -0.248 NA
ATOM     44  C   UNL     1      -0.046  12.513  -3.894  1.00  0.00     0.031 C 
ATOM     45  C   UNL     1       2.423  11.484   0.351  1.00  0.00     0.029 A 
ATOM     46  N   UNL     1       3.549  12.574  -1.246  1.00  0.00    -0.354 N 
ATOM     47  C   UNL     1       1.655  13.543  -5.025  1.00  0.00     0.074 A 
ATOM     48  C   UNL     1       0.281  13.089  -5.040  1.00  0.00     0.031 C 
ATOM     49  C   UNL     1       3.656  11.742   0.824  1.00  0.00     0.029 A 
ATOM     50  C   UNL     1       4.444  12.403  -0.215  1.00  0.00     0.049 A 
ATOM     51  H   UNL     1       3.768  13.057  -2.075  1.00  0.00     0.167 HD
ATOM     52  C   UNL     1       2.245  14.228  -6.035  1.00  0.00     0.034 A 
ATOM     53  C   UNL     1       5.757  12.712  -0.138  1.00  0.00     0.034 A 
ATOM     54  C   UNL     1       3.620  14.661  -6.010  1.00  0.00     0.049 A 
ATOM     55  C   UNL     1       6.425  13.375  -1.323  1.00  0.00     0.074 A 
ATOM     56  C   UNL     1       4.319  15.361  -6.978  1.00  0.00     0.029 A 
ATOM     57  N   UNL     1       4.510  14.425  -4.970  1.00  0.00    -0.354 N 
ATOM     58  N   UNL     1       5.903  13.738  -2.474  1.00  0.00    -0.248 NA
ATOM     59  C   UNL     1       7.858  13.675  -1.198  1.00  0.00     0.031 C 
ATOM     60  C   UNL     1       5.648  15.474  -6.561  1.00  0.00     0.029 A 
ATOM     61  C   UNL     1       5.759  14.934  -5.289  1.00  0.00     0.049 A 
ATOM     62  H   UNL     1       4.286  13.963  -4.130  1.00  0.00     0.167 HD
ATOM     63  C   UNL     1       6.936  14.347  -3.186  1.00  0.00     0.074 A 
ATOM     64  C   UNL     1       8.105  14.309  -2.334  1.00  0.00     0.031 C 
ATOM     65  C   UNL     1       6.918  14.895  -4.428  1.00  0.00     0.034 A 
BRANCH  52  66
ATOM     66  C   UNL     1       1.420  14.496  -7.270  1.00  0.00     0.023 A 
ATOM     67  C   UNL     1       0.272  15.306  -7.235  1.00  0.00     0.031 A 
ATOM     68  C   UNL     1       1.779  13.917  -8.501  1.00  0.00     0.131 A 
ATOM     69  C   UNL     1      -0.511  15.462  -8.389  1.00  0.00     0.055 A 
ATOM     70  C   UNL     1       1.043  14.144  -9.665  1.00  0.00     0.041 A 
ATOM     71  F   UNL     1       2.849  13.111  -8.590  1.00  0.00    -0.206 F 
ATOM     72  C   UNL     1      -0.117  14.910  -9.611  1.00  0.00     0.022 A 
BRANCH  69  73
ATOM     73  S   UNL     1      -2.123  16.278  -8.241  1.00  0.00     0.124 S 
ATOM     74  O   UNL     1      -2.795  15.428  -7.260  1.00  0.00    -0.237 OA
ATOM     75  O   UNL     1      -1.761  17.615  -7.785  1.00  0.00    -0.237 OA
ATOM     76  O   UNL     1      -2.670  16.206  -9.594  1.00  0.00    -0.744 OA
ENDBRANCH  69  73
ENDBRANCH  52  66
BRANCH  53  77
ATOM     77  C   UNL     1       6.555  12.358   1.074  1.00  0.00     0.023 A 
ATOM     78  C   UNL     1       7.201  13.347   1.834  1.00  0.00     0.031 A 
ATOM     79  C   UNL     1       6.754  11.014   1.442  1.00  0.00     0.131 A 
ATOM     80  C   UNL     1       8.059  12.977   2.882  1.00  0.00     0.055 A 
ATOM     81  C   UNL     1       7.554  10.655   2.528  1.00  0.00     0.041 A 
ATOM     82  F   UNL     1       6.173  10.025   0.745  1.00  0.00    -0.206 F 
ATOM     83  C   UNL     1       8.227  11.639   3.245  1.00  0.00     0.022 A 
BRANCH  80  84
ATOM     84  S   UNL     1       9.049  14.266   3.689  1.00  0.00     0.124 S 
ATOM     85  O   UNL     1       9.779  14.829   2.559  1.00  0.00    -0.237 OA
ATOM     86  O   UNL     1       8.019  15.116   4.277  1.00  0.00    -0.237 OA
ATOM     87  O   UNL     1       9.862  13.521   4.648  1.00  0.00    -0.744 OA
ENDBRANCH  80  84
ENDBRANCH  53  77
BRANCH  65  88
ATOM     88  C   UNL     1       8.182  15.566  -4.914  1.00  0.00     0.023 A 
ATOM     89  C   UNL     1       9.363  14.848  -5.167  1.00  0.00     0.031 A 
ATOM     90  C   UNL     1       8.195  16.956  -5.138  1.00  0.00     0.131 A 
ATOM     91  C   UNL     1      10.521  15.528  -5.577  1.00  0.00     0.055 A 
ATOM     92  C   UNL     1       9.328  17.617  -5.611  1.00  0.00     0.041 A 
ATOM     93  F   UNL     1       7.097  17.695  -4.910  1.00  0.00    -0.206 F 
ATOM     94  C   UNL     1      10.505  16.904  -5.822  1.00  0.00     0.022 A 
BRANCH  91  95
ATOM     95  S   UNL     1      12.079  14.607  -5.699  1.00  0.00     0.124 S 
ATOM     96  O   UNL     1      12.230  14.086  -4.345  1.00  0.00    -0.237 OA
ATOM     97  O   UNL     1      11.779  13.622  -6.733  1.00  0.00    -0.237 OA
ATOM     98  O   UNL     1      13.052  15.629  -6.083  1.00  0.00    -0.744 OA
ENDBRANCH  91  95
ENDBRANCH  65  88
ENDBRANCH  39  40
ENDBRANCH  32  34
ENDBRANCH  31  32
ENDBRANCH  30  31
ENDBRANCH  29  30
ENDBRANCH  28  29
ENDBRANCH  27  28
ENDBRANCH  26  27
ENDBRANCH  25  26
ENDBRANCH   1  25
TORSDOF 29
