REMARK SMILES CC(C)(C)OC(=O)N1CCC[C@H]1C(=O)N[C@@H](Cc1ccccc1)C(=O)OCCOCCOCCOCCOC(=O)c1ccc(-c2c3nc(c(-c4cc(S(=O)(=O)[O-])ccc4F)c4ccc([nH]4)c(-c4cc(S(=O)(=O)[O-])ccc4F)c4nc(c(-c5cc(S(=O)(=O)[O-])ccc5F)c5ccc2[nH]5)C=C4)C=C3)cc1
REMARK SMILES IDX 31 1 30 2 29 3 28 4 27 5 26 6 24 7 25 8 16 9 15 10 13 11
REMARK SMILES IDX 14 12 12 14 8 15 9 16 10 17 11 18 6 19 7 20 5 21 2 22 1 23
REMARK SMILES IDX 3 24 4 25 17 26 18 27 19 28 23 29 20 30 22 31 21 32 32 33
REMARK SMILES IDX 33 34 34 35 35 36 36 37 37 38 38 39 39 40 40 41 41 42 42 43
REMARK SMILES IDX 103 44 43 45 102 46 44 47 45 48 46 49 96 50 47 51 101 52
REMARK SMILES IDX 95 53 97 54 48 55 100 56 94 57 93 58 49 60 81 61 61 62 80 63
REMARK SMILES IDX 62 64 65 65 79 66 98 67 63 68 64 69 78 71 99 72 66 73 50 74
REMARK SMILES IDX 51 75 59 76 52 77 58 78 60 79 57 80 53 81 54 82 55 83 56 84
REMARK SMILES IDX 82 85 83 86 91 87 84 88 90 89 92 90 89 91 85 92 86 93 87 94
REMARK SMILES IDX 88 95 67 96 68 97 76 98 69 99 75 100 77 101 74 102 70 103
REMARK SMILES IDX 71 104 72 105 73 106
REMARK H PARENT 15 13 97 59 65 70
REMARK Flexibility Score: inf
ROOT
ATOM      1  C   UNL     1      -2.327   2.425  -5.171  1.00  0.00     0.188 C 
ENDROOT
BRANCH   1   2
ATOM      2  C   UNL     1      -3.195   2.184  -3.914  1.00  0.00     0.188 C 
BRANCH   2   3
ATOM      3  O   UNL     1      -4.550   1.768  -4.027  1.00  0.00    -0.376 OA
BRANCH   3   4
ATOM      4  C   UNL     1      -5.379   2.404  -4.985  1.00  0.00     0.202 C 
BRANCH   4   5
ATOM      5  C   UNL     1      -5.377   3.938  -5.061  1.00  0.00     0.261 C 
BRANCH   5   6
ATOM      6  O   UNL     1      -4.064   4.538  -5.097  1.00  0.00    -0.462 OA
BRANCH   6   7
ATOM      7  C   UNL     1      -3.752   5.497  -4.196  1.00  0.00     0.329 C 
ATOM      8  O   UNL     1      -4.521   5.893  -3.323  1.00  0.00    -0.250 OA
BRANCH   7   9
ATOM      9  C   UNL     1      -2.394   6.215  -4.479  1.00  0.00     0.196 C 
BRANCH   9  10
ATOM     10  N   UNL     1      -1.205   5.572  -5.089  1.00  0.00    -0.341 N 
ATOM     11  C   UNL     1      -0.025   5.090  -4.583  1.00  0.00     0.243 C 
ATOM     12  O   UNL     1       0.788   4.631  -5.393  1.00  0.00    -0.273 OA
ATOM     13  H   UNL     1      -1.278   5.469  -6.066  1.00  0.00     0.164 HD
BRANCH  11  14
ATOM     14  C   UNL     1       0.331   5.194  -3.083  1.00  0.00     0.178 C 
ATOM     15  N   UNL     1       1.097   4.039  -2.576  1.00  0.00    -0.296 N 
ATOM     16  C   UNL     1       2.462   4.382  -2.257  1.00  0.00     0.124 C 
ATOM     17  C   UNL     1       2.364   5.853  -1.908  1.00  0.00     0.024 C 
ATOM     18  C   UNL     1       1.291   6.378  -2.865  1.00  0.00     0.037 C 
BRANCH  15  19
ATOM     19  C   UNL     1       0.484   2.833  -2.339  1.00  0.00     0.410 C 
ATOM     20  O   UNL     1      -0.631   2.606  -2.753  1.00  0.00    -0.224 OA
BRANCH  19  21
ATOM     21  O   UNL     1       1.220   1.990  -1.558  1.00  0.00    -0.444 OA
BRANCH  21  22
ATOM     22  C   UNL     1       0.756   0.641  -1.236  1.00  0.00     0.106 C 
ATOM     23  C   UNL     1       1.365   0.285   0.129  1.00  0.00     0.056 C 
ATOM     24  C   UNL     1       1.322  -0.307  -2.295  1.00  0.00     0.056 C 
ATOM     25  C   UNL     1      -0.765   0.475  -1.101  1.00  0.00     0.056 C 
ENDBRANCH  21  22
ENDBRANCH  19  21
ENDBRANCH  15  19
ENDBRANCH  11  14
ENDBRANCH   9  10
BRANCH   9  26
ATOM     26  C   UNL     1      -2.765   7.474  -5.303  1.00  0.00     0.072 C 
BRANCH  26  27
ATOM     27  C   UNL     1      -3.265   7.347  -6.739  1.00  0.00    -0.045 A 
ATOM     28  C   UNL     1      -3.679   8.530  -7.375  1.00  0.00     0.004 A 
ATOM     29  C   UNL     1      -3.368   6.153  -7.470  1.00  0.00     0.004 A 
ATOM     30  C   UNL     1      -4.210   8.513  -8.668  1.00  0.00     0.000 A 
ATOM     31  C   UNL     1      -3.917   6.132  -8.756  1.00  0.00     0.000 A 
ATOM     32  C   UNL     1      -4.343   7.311  -9.354  1.00  0.00     0.000 A 
ENDBRANCH  26  27
ENDBRANCH   9  26
ENDBRANCH   7   9
ENDBRANCH   6   7
ENDBRANCH   5   6
ENDBRANCH   4   5
ENDBRANCH   3   4
ENDBRANCH   2   3
ENDBRANCH   1   2
BRANCH   1  33
ATOM     33  O   UNL     1      -3.012   2.421  -6.410  1.00  0.00    -0.377 OA
BRANCH  33  34
ATOM     34  C   UNL     1      -2.930   1.210  -7.152  1.00  0.00     0.188 C 
BRANCH  34  35
ATOM     35  C   UNL     1      -3.047  -0.108  -6.362  1.00  0.00     0.188 C 
BRANCH  35  36
ATOM     36  O   UNL     1      -2.230  -0.190  -5.203  1.00  0.00    -0.376 OA
BRANCH  36  37
ATOM     37  C   UNL     1      -0.977  -0.851  -5.275  1.00  0.00     0.202 C 
BRANCH  37  38
ATOM     38  C   UNL     1       0.128  -0.220  -6.140  1.00  0.00     0.261 C 
BRANCH  38  39
ATOM     39  O   UNL     1      -0.191  -0.108  -7.531  1.00  0.00    -0.460 OA
BRANCH  39  40
ATOM     40  C   UNL     1      -0.458  -1.264  -8.176  1.00  0.00     0.338 C 
ATOM     41  O   UNL     1      -0.363  -2.393  -7.734  1.00  0.00    -0.246 OA
BRANCH  40  42
ATOM     42  C   UNL     1      -1.112  -0.906  -9.445  1.00  0.00     0.060 A 
ATOM     43  C   UNL     1      -2.427  -1.337  -9.657  1.00  0.00     0.016 A 
ATOM     44  C   UNL     1      -0.445  -0.135 -10.400  1.00  0.00     0.016 A 
ATOM     45  C   UNL     1      -3.081  -1.009 -10.838  1.00  0.00     0.010 A 
ATOM     46  C   UNL     1      -1.086   0.156 -11.603  1.00  0.00     0.010 A 
ATOM     47  C   UNL     1      -2.394  -0.308 -11.834  1.00  0.00    -0.014 A 
BRANCH  47  48
ATOM     48  C   UNL     1      -2.963  -0.288 -13.198  1.00  0.00     0.031 A 
ATOM     49  C   UNL     1      -2.508  -1.354 -14.155  1.00  0.00     0.074 A 
ATOM     50  C   UNL     1      -3.895   0.615 -13.549  1.00  0.00     0.049 A 
ATOM     51  N   UNL     1      -2.826  -1.535 -15.407  1.00  0.00    -0.248 NA
ATOM     52  C   UNL     1      -1.564  -2.353 -13.622  1.00  0.00     0.031 C 
ATOM     53  C   UNL     1      -4.447   1.644 -12.669  1.00  0.00     0.029 A 
ATOM     54  N   UNL     1      -4.537   0.812 -14.744  1.00  0.00    -0.354 N 
ATOM     55  C   UNL     1      -2.111  -2.655 -15.818  1.00  0.00     0.074 A 
ATOM     56  C   UNL     1      -1.329  -3.102 -14.688  1.00  0.00     0.031 C 
ATOM     57  C   UNL     1      -5.332   2.381 -13.364  1.00  0.00     0.029 A 
ATOM     58  C   UNL     1      -5.374   1.903 -14.746  1.00  0.00     0.049 A 
ATOM     59  H   UNL     1      -4.411   0.229 -15.527  1.00  0.00     0.167 HD
ATOM     60  C   UNL     1      -2.110  -3.249 -17.034  1.00  0.00     0.034 A 
ATOM     61  C   UNL     1      -6.061   2.467 -15.761  1.00  0.00     0.034 A 
ATOM     62  C   UNL     1      -2.897  -2.780 -18.144  1.00  0.00     0.049 A 
ATOM     63  C   UNL     1      -5.979   1.828 -17.130  1.00  0.00     0.074 A 
ATOM     64  C   UNL     1      -2.997  -3.318 -19.414  1.00  0.00     0.029 A 
ATOM     65  N   UNL     1      -3.704  -1.649 -18.125  1.00  0.00    -0.354 N 
ATOM     66  N   UNL     1      -5.316   0.755 -17.504  1.00  0.00    -0.248 NA
ATOM     67  C   UNL     1      -6.743   2.465 -18.209  1.00  0.00     0.031 C 
ATOM     68  C   UNL     1      -3.789  -2.464 -20.186  1.00  0.00     0.029 A 
ATOM     69  C   UNL     1      -4.268  -1.449 -19.373  1.00  0.00     0.049 A 
ATOM     70  H   UNL     1      -3.853  -1.075 -17.339  1.00  0.00     0.167 HD
ATOM     71  C   UNL     1      -5.615   0.574 -18.853  1.00  0.00     0.074 A 
ATOM     72  C   UNL     1      -6.531   1.634 -19.218  1.00  0.00     0.031 C 
ATOM     73  C   UNL     1      -5.179  -0.381 -19.715  1.00  0.00     0.034 A 
BRANCH  60  74
ATOM     74  C   UNL     1      -1.179  -4.416 -17.246  1.00  0.00     0.023 A 
ATOM     75  C   UNL     1      -1.341  -5.640 -16.575  1.00  0.00     0.031 A 
ATOM     76  C   UNL     1      -0.108  -4.294 -18.150  1.00  0.00     0.131 A 
ATOM     77  C   UNL     1      -0.420  -6.678 -16.787  1.00  0.00     0.055 A 
ATOM     78  C   UNL     1       0.760  -5.354 -18.411  1.00  0.00     0.041 A 
ATOM     79  F   UNL     1       0.114  -3.137 -18.793  1.00  0.00    -0.206 F 
ATOM     80  C   UNL     1       0.611  -6.553 -17.722  1.00  0.00     0.022 A 
BRANCH  77  81
ATOM     81  S   UNL     1      -0.521  -8.160 -15.746  1.00  0.00     0.124 S 
ATOM     82  O   UNL     1      -0.337  -7.596 -14.411  1.00  0.00    -0.237 OA
ATOM     83  O   UNL     1      -1.854  -8.668 -16.046  1.00  0.00    -0.237 OA
ATOM     84  O   UNL     1       0.584  -8.990 -16.222  1.00  0.00    -0.744 OA
ENDBRANCH  77  81
ENDBRANCH  60  74
BRANCH  61  85
ATOM     85  C   UNL     1      -6.825   3.734 -15.557  1.00  0.00     0.023 A 
ATOM     86  C   UNL     1      -8.204   3.808 -15.812  1.00  0.00     0.031 A 
ATOM     87  C   UNL     1      -6.163   4.921 -15.190  1.00  0.00     0.131 A 
ATOM     88  C   UNL     1      -8.860   5.049 -15.766  1.00  0.00     0.055 A 
ATOM     89  C   UNL     1      -6.835   6.140 -15.077  1.00  0.00     0.041 A 
ATOM     90  F   UNL     1      -4.844   4.916 -14.941  1.00  0.00    -0.206 F 
ATOM     91  C   UNL     1      -8.188   6.212 -15.385  1.00  0.00     0.022 A 
BRANCH  88  92
ATOM     92  S   UNL     1     -10.577   5.144 -16.344  1.00  0.00     0.124 S 
ATOM     93  O   UNL     1     -10.467   4.591 -17.689  1.00  0.00    -0.237 OA
ATOM     94  O   UNL     1     -11.272   4.316 -15.364  1.00  0.00    -0.237 OA
ATOM     95  O   UNL     1     -10.879   6.572 -16.278  1.00  0.00    -0.744 OA
ENDBRANCH  88  92
ENDBRANCH  61  85
BRANCH  73  96
ATOM     96  C   UNL     1      -5.737  -0.354 -21.118  1.00  0.00     0.023 A 
ATOM     97  C   UNL     1      -5.470   0.703 -22.005  1.00  0.00     0.031 A 
ATOM     98  C   UNL     1      -6.549  -1.409 -21.573  1.00  0.00     0.131 A 
ATOM     99  C   UNL     1      -6.061   0.713 -23.277  1.00  0.00     0.055 A 
ATOM    100  C   UNL     1      -7.073  -1.430 -22.866  1.00  0.00     0.041 A 
ATOM    101  F   UNL     1      -6.840  -2.444 -20.769  1.00  0.00    -0.206 F 
ATOM    102  C   UNL     1      -6.842  -0.357 -23.721  1.00  0.00     0.022 A 
BRANCH  99 103
ATOM    103  S   UNL     1      -5.883   2.195 -24.307  1.00  0.00     0.124 S 
ATOM    104  O   UNL     1      -6.444   3.231 -23.446  1.00  0.00    -0.237 OA
ATOM    105  O   UNL     1      -4.441   2.255 -24.522  1.00  0.00    -0.237 OA
ATOM    106  O   UNL     1      -6.674   1.882 -25.497  1.00  0.00    -0.744 OA
ENDBRANCH  99 103
ENDBRANCH  73  96
ENDBRANCH  47  48
ENDBRANCH  40  42
ENDBRANCH  39  40
ENDBRANCH  38  39
ENDBRANCH  37  38
ENDBRANCH  36  37
ENDBRANCH  35  36
ENDBRANCH  34  35
ENDBRANCH  33  34
ENDBRANCH   1  33
TORSDOF 30
