REMARK SMILES N#CCCn1cc(C(=O)OCCOCCOCCOCCOC(=O)c2ccc(-c3c4nc(c(-c5cc(S(=O)(=O)[O-])ccc5F)c5ccc([nH]5)c(-c5cc(S(=O)(=O)[O-])ccc5F)c5nc(c(-c6cc(S(=O)(=O)[O-])ccc6F)c6ccc3[nH]6)C=C5)C=C4)cc2)c(-c2cccc([N+](=O)[O-])c2)n1
REMARK SMILES IDX 16 1 15 2 14 3 13 4 12 5 11 6 10 7 8 8 9 9 7 10 5 11 6 12
REMARK SMILES IDX 98 13 88 14 4 15 3 16 2 17 1 18 89 19 90 20 97 21 91 22
REMARK SMILES IDX 93 23 92 24 94 25 95 26 96 27 17 28 18 29 19 30 20 31 21 32
REMARK SMILES IDX 22 33 23 34 24 35 25 36 26 37 87 38 27 39 86 40 28 41 29 42
REMARK SMILES IDX 30 43 80 44 31 45 85 46 79 47 81 48 32 49 84 50 78 51 77 52
REMARK SMILES IDX 33 54 65 55 45 56 64 57 46 58 49 59 63 60 82 61 47 62 48 63
REMARK SMILES IDX 62 65 83 66 50 67 34 68 35 69 43 70 36 71 42 72 44 73 41 74
REMARK SMILES IDX 37 75 38 76 39 77 40 78 66 79 67 80 75 81 68 82 74 83 76 84
REMARK SMILES IDX 73 85 69 86 70 87 71 88 72 89 51 90 52 91 60 92 53 93 59 94
REMARK SMILES IDX 61 95 58 96 54 97 55 98 56 99 57 100
REMARK H PARENT 81 53 49 64
REMARK Flexibility Score: inf
ROOT
ATOM      1  O   UNL     1       2.650  -7.529  -0.029  1.00  0.00    -0.377 OA
ENDROOT
BRANCH   1   2
ATOM      2  C   UNL     1       2.128  -6.583  -0.949  1.00  0.00     0.188 C 
BRANCH   2   3
ATOM      3  C   UNL     1       2.375  -6.995  -2.414  1.00  0.00     0.188 C 
BRANCH   3   4
ATOM      4  O   UNL     1       2.872  -8.312  -2.545  1.00  0.00    -0.376 OA
BRANCH   4   5
ATOM      5  C   UNL     1       4.260  -8.565  -2.570  1.00  0.00     0.202 C 
BRANCH   5   6
ATOM      6  C   UNL     1       5.322  -7.747  -1.811  1.00  0.00     0.261 C 
BRANCH   6   7
ATOM      7  O   UNL     1       5.048  -6.387  -1.476  1.00  0.00    -0.460 OA
BRANCH   7   8
ATOM      8  C   UNL     1       5.097  -5.456  -2.466  1.00  0.00     0.342 C 
ATOM      9  O   UNL     1       5.396  -5.677  -3.623  1.00  0.00    -0.246 OA
BRANCH   8  10
ATOM     10  C   UNL     1       4.615  -4.177  -1.974  1.00  0.00     0.106 A 
ATOM     11  N   UNL     1       4.229  -2.433  -0.707  1.00  0.00    -0.270 N 
ATOM     12  C   UNL     1       4.898  -3.616  -0.743  1.00  0.00     0.125 A 
ATOM     13  N   UNL     1       3.483  -2.209  -1.797  1.00  0.00    -0.172 NA
ATOM     14  C   UNL     1       3.673  -3.287  -2.566  1.00  0.00     0.107 A 
BRANCH  11  15
ATOM     15  C   UNL     1       4.306  -1.439   0.347  1.00  0.00     0.159 C 
BRANCH  15  16
ATOM     16  C   UNL     1       3.778  -0.075  -0.066  1.00  0.00     0.144 C 
BRANCH  16  17
ATOM     17  C   UNL     1       2.258  -0.075  -0.066  1.00  0.00     0.064 C 
ATOM     18  N   UNL     1       0.997  -0.075  -0.066  1.00  0.00    -0.198 NA
ENDBRANCH  16  17
ENDBRANCH  15  16
ENDBRANCH  11  15
BRANCH  14  19
ATOM     19  C   UNL     1       2.901  -3.449  -3.787  1.00  0.00     0.010 A 
ATOM     20  C   UNL     1       1.627  -4.036  -3.747  1.00  0.00     0.011 A 
ATOM     21  C   UNL     1       3.426  -3.015  -5.003  1.00  0.00     0.096 A 
ATOM     22  C   UNL     1       0.918  -4.283  -4.926  1.00  0.00     0.008 A 
ATOM     23  C   UNL     1       2.691  -3.225  -6.176  1.00  0.00     0.270 A 
ATOM     24  C   UNL     1       1.453  -3.883  -6.149  1.00  0.00     0.085 A 
BRANCH  23  25
ATOM     25  N   UNL     1       3.222  -2.734  -7.450  1.00  0.00     0.062 N 
ATOM     26  O   UNL     1       2.649  -3.088  -8.491  1.00  0.00    -0.258 OA
ATOM     27  O   UNL     1       4.208  -1.983  -7.414  1.00  0.00    -0.258 OA
ENDBRANCH  23  25
ENDBRANCH  14  19
ENDBRANCH   8  10
ENDBRANCH   7   8
ENDBRANCH   6   7
ENDBRANCH   5   6
ENDBRANCH   4   5
ENDBRANCH   3   4
ENDBRANCH   2   3
ENDBRANCH   1   2
BRANCH   1  28
ATOM     28  C   UNL     1       1.872  -8.707   0.202  1.00  0.00     0.188 C 
BRANCH  28  29
ATOM     29  C   UNL     1       0.839  -9.250  -0.831  1.00  0.00     0.188 C 
BRANCH  29  30
ATOM     30  O   UNL     1       0.166  -8.266  -1.615  1.00  0.00    -0.376 OA
BRANCH  30  31
ATOM     31  C   UNL     1      -1.230  -8.065  -1.482  1.00  0.00     0.202 C 
BRANCH  31  32
ATOM     32  C   UNL     1      -1.604  -7.188  -0.293  1.00  0.00     0.261 C 
BRANCH  32  33
ATOM     33  O   UNL     1      -0.990  -7.621   0.907  1.00  0.00    -0.460 OA
BRANCH  33  34
ATOM     34  C   UNL     1      -1.345  -8.861   1.296  1.00  0.00     0.338 C 
ATOM     35  O   UNL     1      -2.021  -9.667   0.682  1.00  0.00    -0.246 OA
BRANCH  34  36
ATOM     36  C   UNL     1      -0.860  -9.068   2.657  1.00  0.00     0.060 A 
ATOM     37  C   UNL     1      -1.214 -10.291   3.222  1.00  0.00     0.016 A 
ATOM     38  C   UNL     1      -0.505  -7.941   3.415  1.00  0.00     0.016 A 
ATOM     39  C   UNL     1      -1.558 -10.281   4.544  1.00  0.00     0.010 A 
ATOM     40  C   UNL     1      -0.875  -7.927   4.729  1.00  0.00     0.010 A 
ATOM     41  C   UNL     1      -1.501  -9.063   5.229  1.00  0.00    -0.014 A 
BRANCH  41  42
ATOM     42  C   UNL     1      -2.102  -9.025   6.534  1.00  0.00     0.031 A 
ATOM     43  C   UNL     1      -1.242  -9.644   7.548  1.00  0.00     0.074 A 
ATOM     44  C   UNL     1      -3.282  -8.426   6.757  1.00  0.00     0.049 A 
ATOM     45  N   UNL     1      -1.400 -10.784   8.128  1.00  0.00    -0.248 NA
ATOM     46  C   UNL     1       0.082  -9.034   7.750  1.00  0.00     0.031 C 
ATOM     47  C   UNL     1      -4.027  -7.538   5.861  1.00  0.00     0.029 A 
ATOM     48  N   UNL     1      -4.005  -8.393   7.904  1.00  0.00    -0.354 N 
ATOM     49  C   UNL     1      -0.309 -10.900   8.976  1.00  0.00     0.074 A 
ATOM     50  C   UNL     1       0.669  -9.969   8.493  1.00  0.00     0.031 C 
ATOM     51  C   UNL     1      -4.960  -6.874   6.581  1.00  0.00     0.029 A 
ATOM     52  C   UNL     1      -4.953  -7.384   7.944  1.00  0.00     0.049 A 
ATOM     53  H   UNL     1      -3.868  -9.031   8.642  1.00  0.00     0.167 HD
ATOM     54  C   UNL     1      -0.440 -11.503  10.187  1.00  0.00     0.034 A 
ATOM     55  C   UNL     1      -5.587  -6.930   9.056  1.00  0.00     0.034 A 
ATOM     56  C   UNL     1      -1.611 -12.360  10.206  1.00  0.00     0.049 A 
ATOM     57  C   UNL     1      -5.477  -7.996  10.088  1.00  0.00     0.074 A 
ATOM     58  C   UNL     1      -2.028 -13.434   9.442  1.00  0.00     0.029 A 
ATOM     59  N   UNL     1      -2.739 -11.912  10.863  1.00  0.00    -0.354 N 
ATOM     60  N   UNL     1      -6.033  -9.173   9.976  1.00  0.00    -0.248 NA
ATOM     61  C   UNL     1      -4.364  -7.936  11.027  1.00  0.00     0.031 C 
ATOM     62  C   UNL     1      -3.441 -13.288   9.324  1.00  0.00     0.029 A 
ATOM     63  C   UNL     1      -3.830 -12.174  10.071  1.00  0.00     0.049 A 
ATOM     64  H   UNL     1      -2.758 -11.478  11.746  1.00  0.00     0.167 HD
ATOM     65  C   UNL     1      -5.103 -10.069  10.486  1.00  0.00     0.074 A 
ATOM     66  C   UNL     1      -4.148  -9.241  11.217  1.00  0.00     0.031 C 
ATOM     67  C   UNL     1      -5.034 -11.357  10.033  1.00  0.00     0.034 A 
BRANCH  54  68
ATOM     68  C   UNL     1       0.221 -10.977  11.447  1.00  0.00     0.023 A 
ATOM     69  C   UNL     1      -0.127 -11.627  12.643  1.00  0.00     0.031 A 
ATOM     70  C   UNL     1       0.909  -9.748  11.604  1.00  0.00     0.131 A 
ATOM     71  C   UNL     1       0.051 -10.998  13.885  1.00  0.00     0.055 A 
ATOM     72  C   UNL     1       1.141  -9.155  12.848  1.00  0.00     0.041 A 
ATOM     73  F   UNL     1       1.341  -9.003  10.583  1.00  0.00    -0.206 F 
ATOM     74  C   UNL     1       0.672  -9.759  13.997  1.00  0.00     0.022 A 
BRANCH  71  75
ATOM     75  S   UNL     1      -0.729 -11.753  15.328  1.00  0.00     0.124 S 
ATOM     76  O   UNL     1      -2.103 -11.908  14.863  1.00  0.00    -0.237 OA
ATOM     77  O   UNL     1       0.047 -12.980  15.474  1.00  0.00    -0.237 OA
ATOM     78  O   UNL     1      -0.529 -10.757  16.377  1.00  0.00    -0.744 OA
ENDBRANCH  71  75
ENDBRANCH  54  68
BRANCH  55  79
ATOM     79  C   UNL     1      -5.891  -5.503   9.350  1.00  0.00     0.023 A 
ATOM     80  C   UNL     1      -6.876  -5.107  10.276  1.00  0.00     0.031 A 
ATOM     81  C   UNL     1      -5.043  -4.484   8.852  1.00  0.00     0.131 A 
ATOM     82  C   UNL     1      -6.989  -3.748  10.653  1.00  0.00     0.055 A 
ATOM     83  C   UNL     1      -5.171  -3.143   9.214  1.00  0.00     0.041 A 
ATOM     84  F   UNL     1      -4.003  -4.771   8.053  1.00  0.00    -0.206 F 
ATOM     85  C   UNL     1      -6.144  -2.769  10.124  1.00  0.00     0.022 A 
BRANCH  82  86
ATOM     86  S   UNL     1      -8.202  -3.244  11.915  1.00  0.00     0.124 S 
ATOM     87  O   UNL     1      -9.471  -3.558  11.271  1.00  0.00    -0.237 OA
ATOM     88  O   UNL     1      -7.827  -4.075  13.053  1.00  0.00    -0.237 OA
ATOM     89  O   UNL     1      -7.939  -1.815  12.089  1.00  0.00    -0.744 OA
ENDBRANCH  82  86
ENDBRANCH  55  79
BRANCH  67  90
ATOM     90  C   UNL     1      -6.209 -11.913   9.252  1.00  0.00     0.023 A 
ATOM     91  C   UNL     1      -6.706 -11.381   8.041  1.00  0.00     0.031 A 
ATOM     92  C   UNL     1      -6.770 -13.119   9.713  1.00  0.00     0.131 A 
ATOM     93  C   UNL     1      -7.731 -12.055   7.345  1.00  0.00     0.055 A 
ATOM     94  C   UNL     1      -7.770 -13.791   9.013  1.00  0.00     0.041 A 
ATOM     95  F   UNL     1      -6.322 -13.690  10.844  1.00  0.00    -0.206 F 
ATOM     96  C   UNL     1      -8.259 -13.257   7.827  1.00  0.00     0.022 A 
BRANCH  93  97
ATOM     97  S   UNL     1      -8.409 -11.374   5.797  1.00  0.00     0.124 S 
ATOM     98  O   UNL     1      -8.648  -9.971   6.115  1.00  0.00    -0.237 OA
ATOM     99  O   UNL     1      -7.338 -11.641   4.841  1.00  0.00    -0.237 OA
ATOM    100  O   UNL     1      -9.624 -12.164   5.582  1.00  0.00    -0.744 OA
ENDBRANCH  93  97
ENDBRANCH  67  90
ENDBRANCH  41  42
ENDBRANCH  34  36
ENDBRANCH  33  34
ENDBRANCH  32  33
ENDBRANCH  31  32
ENDBRANCH  30  31
ENDBRANCH  29  30
ENDBRANCH  28  29
ENDBRANCH   1  28
TORSDOF 28
