REMARK SMILES CN(C)c1cccc2c(S(=O)(=O)N[C@H](CO)C(=O)OCCOCCOCCOCCOC(=O)c3ccc(-c4c5nc(c(-c6cc(S(=O)(=O)[O-])ccc6F)c6ccc([nH]6)c(-c6cc(S(=O)(=O)[O-])ccc6F)c6nc(c(-c7cc(S(=O)(=O)[O-])ccc7F)c7ccc4[nH]7)C=C6)C=C5)cc3)cccc12
REMARK SMILES IDX 24 1 23 2 22 3 21 4 20 5 19 6 17 7 18 8 14 9 13 10 10 12
REMARK SMILES IDX 11 13 12 14 9 15 4 16 5 17 100 18 6 19 8 20 99 21 7 22 98 23
REMARK SMILES IDX 97 24 2 25 1 26 3 27 15 28 16 29 25 31 26 32 27 33 28 34
REMARK SMILES IDX 29 35 30 36 31 37 32 38 33 39 34 40 35 41 96 42 36 43 95 44
REMARK SMILES IDX 37 45 38 46 39 47 89 48 40 49 94 50 88 51 90 52 41 53 93 54
REMARK SMILES IDX 87 55 86 56 42 58 74 59 54 60 73 61 55 62 58 63 72 64 91 65
REMARK SMILES IDX 56 66 57 67 71 69 92 70 59 71 43 72 44 73 52 74 45 75 51 76
REMARK SMILES IDX 53 77 50 78 46 79 47 80 48 81 49 82 75 83 76 84 84 85 77 86
REMARK SMILES IDX 83 87 85 88 82 89 78 90 79 91 80 92 81 93 60 94 61 95 69 96
REMARK SMILES IDX 62 97 68 98 70 99 67 100 63 101 64 102 65 103 66 104
REMARK H PARENT 13 11 16 30 90 57 58 68
REMARK Flexibility Score: inf
ROOT
ATOM      1  C   UNL     1       3.464   6.197  -2.754  1.00  0.00     0.188 C 
ENDROOT
BRANCH   1   2
ATOM      2  C   UNL     1       4.482   5.055  -2.939  1.00  0.00     0.188 C 
BRANCH   2   3
ATOM      3  O   UNL     1       5.877   5.333  -3.003  1.00  0.00    -0.376 OA
BRANCH   3   4
ATOM      4  C   UNL     1       6.417   6.177  -4.022  1.00  0.00     0.202 C 
BRANCH   4   5
ATOM      5  C   UNL     1       5.904   6.121  -5.470  1.00  0.00     0.261 C 
BRANCH   5   6
ATOM      6  O   UNL     1       4.479   6.137  -5.522  1.00  0.00    -0.462 OA
BRANCH   6   7
ATOM      7  C   UNL     1       3.849   5.392  -6.464  1.00  0.00     0.326 C 
ATOM      8  O   UNL     1       4.400   4.833  -7.401  1.00  0.00    -0.250 OA
BRANCH   7   9
ATOM      9  C   UNL     1       2.368   5.285  -6.108  1.00  0.00     0.205 C 
BRANCH   9  10
ATOM     10  N   UNL     1       1.541   4.542  -7.115  1.00  0.00    -0.194 NA
ATOM     11  H   UNL     1       0.562   4.749  -6.916  1.00  0.00     0.142 HD
BRANCH  10  12
ATOM     12  S   UNL     1       1.695   2.872  -7.180  1.00  0.00     0.242 S 
ATOM     13  O   UNL     1       2.957   2.502  -6.555  1.00  0.00    -0.207 OA
ATOM     14  O   UNL     1       1.399   2.546  -8.548  1.00  0.00    -0.207 OA
BRANCH  12  15
ATOM     15  C   UNL     1       0.436   2.051  -6.207  1.00  0.00     0.090 A 
ATOM     16  C   UNL     1      -2.156   2.260  -3.466  1.00  0.00     0.044 A 
ATOM     17  C   UNL     1      -2.208   3.647  -3.257  1.00  0.00     0.026 A 
ATOM     18  C   UNL     1      -1.281   1.748  -4.479  1.00  0.00     0.006 A 
ATOM     19  C   UNL     1      -1.485   4.516  -4.052  1.00  0.00     0.003 A 
ATOM     20  C   UNL     1      -0.469   2.628  -5.266  1.00  0.00     0.004 A 
ATOM     21  C   UNL     1      -1.223   0.363  -4.750  1.00  0.00     0.011 A 
ATOM     22  C   UNL     1      -0.657   4.009  -5.048  1.00  0.00     0.010 A 
ATOM     23  C   UNL     1      -0.352  -0.185  -5.682  1.00  0.00     0.002 A 
ATOM     24  C   UNL     1       0.482   0.654  -6.394  1.00  0.00     0.022 A 
BRANCH  16  25
ATOM     25  N   UNL     1      -2.965   1.417  -2.678  1.00  0.00    -0.377 N 
ATOM     26  C   UNL     1      -4.321   1.866  -2.383  1.00  0.00     0.143 C 
ATOM     27  C   UNL     1      -2.281   0.649  -1.642  1.00  0.00     0.143 C 
ENDBRANCH  16  25
ENDBRANCH  12  15
ENDBRANCH  10  12
ENDBRANCH   9  10
BRANCH   9  28
ATOM     28  C   UNL     1       1.747   6.688  -5.907  1.00  0.00     0.188 C 
BRANCH  28  29
ATOM     29  O   UNL     1       0.909   7.058  -7.007  1.00  0.00    -0.394 OA
ATOM     30  H   UNL     1       1.436   7.086  -7.821  1.00  0.00     0.210 HD
ENDBRANCH  28  29
ENDBRANCH   9  28
ENDBRANCH   7   9
ENDBRANCH   6   7
ENDBRANCH   5   6
ENDBRANCH   4   5
ENDBRANCH   3   4
ENDBRANCH   2   3
ENDBRANCH   1   2
BRANCH   1  31
ATOM     31  O   UNL     1       3.855   7.414  -3.356  1.00  0.00    -0.377 OA
BRANCH  31  32
ATOM     32  C   UNL     1       4.385   8.432  -2.511  1.00  0.00     0.188 C 
BRANCH  32  33
ATOM     33  C   UNL     1       5.191   8.028  -1.259  1.00  0.00     0.188 C 
BRANCH  33  34
ATOM     34  O   UNL     1       4.474   7.186  -0.361  1.00  0.00    -0.376 OA
BRANCH  34  35
ATOM     35  C   UNL     1       3.899   7.805   0.783  1.00  0.00     0.202 C 
BRANCH  35  36
ATOM     36  C   UNL     1       2.663   8.672   0.503  1.00  0.00     0.261 C 
BRANCH  36  37
ATOM     37  O   UNL     1       2.886   9.866  -0.267  1.00  0.00    -0.460 OA
BRANCH  37  38
ATOM     38  C   UNL     1       3.833  10.730   0.152  1.00  0.00     0.338 C 
ATOM     39  O   UNL     1       4.497  10.655   1.174  1.00  0.00    -0.246 OA
BRANCH  38  40
ATOM     40  C   UNL     1       4.074  11.696  -0.937  1.00  0.00     0.060 A 
ATOM     41  C   UNL     1       5.369  11.841  -1.452  1.00  0.00     0.016 A 
ATOM     42  C   UNL     1       3.020  12.464  -1.438  1.00  0.00     0.016 A 
ATOM     43  C   UNL     1       5.622  12.789  -2.446  1.00  0.00     0.010 A 
ATOM     44  C   UNL     1       3.279  13.423  -2.417  1.00  0.00     0.010 A 
ATOM     45  C   UNL     1       4.586  13.615  -2.900  1.00  0.00    -0.014 A 
BRANCH  45  46
ATOM     46  C   UNL     1       4.880  14.831  -3.698  1.00  0.00     0.031 A 
ATOM     47  C   UNL     1       4.992  16.139  -2.965  1.00  0.00     0.074 A 
ATOM     48  C   UNL     1       5.004  14.788  -5.036  1.00  0.00     0.049 A 
ATOM     49  N   UNL     1       5.069  17.356  -3.434  1.00  0.00    -0.248 NA
ATOM     50  C   UNL     1       5.001  16.055  -1.495  1.00  0.00     0.031 C 
ATOM     51  C   UNL     1       4.971  13.575  -5.850  1.00  0.00     0.029 A 
ATOM     52  N   UNL     1       5.160  15.803  -5.946  1.00  0.00    -0.354 N 
ATOM     53  C   UNL     1       5.127  18.186  -2.319  1.00  0.00     0.074 A 
ATOM     54  C   UNL     1       5.037  17.332  -1.153  1.00  0.00     0.031 C 
ATOM     55  C   UNL     1       5.073  13.921  -7.146  1.00  0.00     0.029 A 
ATOM     56  C   UNL     1       5.129  15.379  -7.254  1.00  0.00     0.049 A 
ATOM     57  H   UNL     1       5.282  16.745  -5.688  1.00  0.00     0.167 HD
ATOM     58  C   UNL     1       5.246  19.535  -2.272  1.00  0.00     0.034 A 
ATOM     59  C   UNL     1       5.105  16.089  -8.401  1.00  0.00     0.034 A 
ATOM     60  C   UNL     1       5.305  20.371  -3.446  1.00  0.00     0.049 A 
ATOM     61  C   UNL     1       5.133  17.600  -8.330  1.00  0.00     0.074 A 
ATOM     62  C   UNL     1       5.413  21.748  -3.520  1.00  0.00     0.029 A 
ATOM     63  N   UNL     1       5.248  19.907  -4.754  1.00  0.00    -0.354 N 
ATOM     64  N   UNL     1       5.171  18.379  -7.273  1.00  0.00    -0.248 NA
ATOM     65  C   UNL     1       5.117  18.326  -9.608  1.00  0.00     0.031 C 
ATOM     66  C   UNL     1       5.350  22.121  -4.867  1.00  0.00     0.029 A 
ATOM     67  C   UNL     1       5.290  20.972  -5.640  1.00  0.00     0.049 A 
ATOM     68  H   UNL     1       5.186  18.959  -5.014  1.00  0.00     0.167 HD
ATOM     69  C   UNL     1       5.223  19.684  -7.762  1.00  0.00     0.074 A 
ATOM     70  C   UNL     1       5.216  19.585  -9.206  1.00  0.00     0.031 C 
ATOM     71  C   UNL     1       5.282  20.857  -7.080  1.00  0.00     0.034 A 
BRANCH  58  72
ATOM     72  C   UNL     1       5.254  20.178  -0.907  1.00  0.00     0.023 A 
ATOM     73  C   UNL     1       6.271  19.913   0.028  1.00  0.00     0.031 A 
ATOM     74  C   UNL     1       4.204  21.025  -0.512  1.00  0.00     0.131 A 
ATOM     75  C   UNL     1       6.174  20.421   1.332  1.00  0.00     0.055 A 
ATOM     76  C   UNL     1       4.158  21.598   0.760  1.00  0.00     0.041 A 
ATOM     77  F   UNL     1       3.190  21.293  -1.351  1.00  0.00    -0.206 F 
ATOM     78  C   UNL     1       5.138  21.284   1.696  1.00  0.00     0.022 A 
BRANCH  75  79
ATOM     79  S   UNL     1       7.330  19.808   2.588  1.00  0.00     0.124 S 
ATOM     80  O   UNL     1       7.072  18.370   2.549  1.00  0.00    -0.237 OA
ATOM     81  O   UNL     1       8.621  20.239   2.066  1.00  0.00    -0.237 OA
ATOM     82  O   UNL     1       6.894  20.478   3.811  1.00  0.00    -0.744 OA
ENDBRANCH  75  79
ENDBRANCH  58  72
BRANCH  59  83
ATOM     83  C   UNL     1       4.992  15.397  -9.718  1.00  0.00     0.023 A 
ATOM     84  C   UNL     1       6.009  15.493 -10.681  1.00  0.00     0.031 A 
ATOM     85  C   UNL     1       3.832  14.675 -10.056  1.00  0.00     0.131 A 
ATOM     86  C   UNL     1       5.829  14.919 -11.950  1.00  0.00     0.055 A 
ATOM     87  C   UNL     1       3.682  14.058 -11.300  1.00  0.00     0.041 A 
ATOM     88  F   UNL     1       2.826  14.556  -9.176  1.00  0.00    -0.206 F 
ATOM     89  C   UNL     1       4.679  14.190 -12.260  1.00  0.00     0.022 A 
BRANCH  86  90
ATOM     90  S   UNL     1       7.087  15.216 -13.223  1.00  0.00     0.124 S 
ATOM     91  O   UNL     1       7.083  16.672 -13.310  1.00  0.00    -0.237 OA
ATOM     92  O   UNL     1       8.272  14.612 -12.624  1.00  0.00    -0.237 OA
ATOM     93  O   UNL     1       6.558  14.518 -14.393  1.00  0.00    -0.744 OA
ENDBRANCH  86  90
ENDBRANCH  59  83
BRANCH  71  94
ATOM     94  C   UNL     1       5.414  22.125  -7.890  1.00  0.00     0.023 A 
ATOM     95  C   UNL     1       4.380  22.598  -8.716  1.00  0.00     0.031 A 
ATOM     96  C   UNL     1       6.601  22.879  -7.821  1.00  0.00     0.131 A 
ATOM     97  C   UNL     1       4.570  23.763  -9.476  1.00  0.00     0.055 A 
ATOM     98  C   UNL     1       6.761  24.068  -8.533  1.00  0.00     0.041 A 
ATOM     99  F   UNL     1       7.622  22.475  -7.049  1.00  0.00    -0.206 F 
ATOM    100  C   UNL     1       5.747  24.510  -9.376  1.00  0.00     0.022 A 
BRANCH  97 101
ATOM    101  S   UNL     1       3.289  24.250 -10.665  1.00  0.00     0.124 S 
ATOM    102  O   UNL     1       3.213  23.076 -11.528  1.00  0.00    -0.237 OA
ATOM    103  O   UNL     1       2.135  24.483  -9.803  1.00  0.00    -0.237 OA
ATOM    104  O   UNL     1       3.842  25.447 -11.295  1.00  0.00    -0.744 OA
ENDBRANCH  97 101
ENDBRANCH  71  94
ENDBRANCH  45  46
ENDBRANCH  38  40
ENDBRANCH  37  38
ENDBRANCH  36  37
ENDBRANCH  35  36
ENDBRANCH  34  35
ENDBRANCH  33  34
ENDBRANCH  32  33
ENDBRANCH  31  32
ENDBRANCH   1  31
TORSDOF 29
