REMARK SMILES O=C(OCCOCCOCCOCCOC(=O)C1CN(C(=O)CC2CC[NH2+]CC2)C1)c1ccc(-c2c3nc(c(-c4cc(S(=O)(=O)[O-])ccc4F)c4ccc([nH]4)c(-c4cc(S(=O)(=O)[O-])ccc4F)c4nc(c(-c5cc(S(=O)(=O)[O-])ccc5F)c5ccc2[nH]5)C=C4)C=C3)cc1
REMARK SMILES IDX 8 1 7 2 6 3 5 4 4 5 3 6 2 7 1 8 31 9 32 10 93 11 33 12 92 13
REMARK SMILES IDX 34 14 35 15 36 16 86 17 37 18 91 19 85 20 87 21 38 22 90 23
REMARK SMILES IDX 84 24 83 25 39 27 71 28 51 29 70 30 52 31 55 32 69 33 88 34
REMARK SMILES IDX 53 35 54 36 68 38 89 39 56 40 40 41 41 42 49 43 42 44 48 45
REMARK SMILES IDX 50 46 47 47 43 48 44 49 45 50 46 51 72 52 73 53 81 54 74 55
REMARK SMILES IDX 80 56 82 57 79 58 75 59 76 60 77 61 78 62 57 63 58 64 66 65
REMARK SMILES IDX 59 66 65 67 67 68 64 69 60 70 61 71 62 72 63 73 9 74 10 75
REMARK SMILES IDX 11 76 12 77 13 78 14 79 15 80 16 81 17 82 18 83 19 84 30 85
REMARK SMILES IDX 20 86 21 87 22 88 23 89 24 90 25 91 29 92 26 93 28 94 27 95
REMARK H PARENT 87 26 55 37 27 96 27 97
REMARK Flexibility Score: inf
ROOT
ATOM      1  C   UNL     1       1.869  -0.116  -2.602  1.00  0.00     0.188 C 
ENDROOT
BRANCH   1   2
ATOM      2  C   UNL     1       2.275  -0.604  -1.214  1.00  0.00     0.188 C 
BRANCH   2   3
ATOM      3  O   UNL     1       3.627  -0.242  -0.928  1.00  0.00    -0.376 OA
BRANCH   3   4
ATOM      4  C   UNL     1       4.412  -1.262  -0.305  1.00  0.00     0.202 C 
BRANCH   4   5
ATOM      5  C   UNL     1       4.277  -1.310   1.217  1.00  0.00     0.261 C 
BRANCH   5   6
ATOM      6  O   UNL     1       2.927  -1.071   1.642  1.00  0.00    -0.460 OA
BRANCH   6   7
ATOM      7  C   UNL     1       2.339   0.122   1.912  1.00  0.00     0.338 C 
ATOM      8  O   UNL     1       1.152   0.110   2.243  1.00  0.00    -0.246 OA
BRANCH   7   9
ATOM      9  C   UNL     1       3.023   1.458   1.825  1.00  0.00     0.060 A 
ATOM     10  C   UNL     1       4.203   1.738   1.131  1.00  0.00     0.016 A 
ATOM     11  C   UNL     1       2.389   2.530   2.482  1.00  0.00     0.016 A 
ATOM     12  C   UNL     1       4.784   2.997   1.150  1.00  0.00     0.010 A 
ATOM     13  C   UNL     1       2.960   3.806   2.505  1.00  0.00     0.010 A 
ATOM     14  C   UNL     1       4.190   4.021   1.877  1.00  0.00    -0.014 A 
BRANCH  14  15
ATOM     15  C   UNL     1       5.033   5.188   2.188  1.00  0.00     0.031 A 
ATOM     16  C   UNL     1       5.742   5.178   3.510  1.00  0.00     0.074 A 
ATOM     17  C   UNL     1       5.299   6.105   1.244  1.00  0.00     0.049 A 
ATOM     18  N   UNL     1       6.533   6.067   4.043  1.00  0.00    -0.248 NA
ATOM     19  C   UNL     1       5.541   3.976   4.339  1.00  0.00     0.031 C 
ATOM     20  C   UNL     1       4.785   6.074  -0.127  1.00  0.00     0.029 A 
ATOM     21  N   UNL     1       6.098   7.213   1.278  1.00  0.00    -0.354 N 
ATOM     22  C   UNL     1       6.900   5.546   5.280  1.00  0.00     0.074 A 
ATOM     23  C   UNL     1       6.236   4.271   5.422  1.00  0.00     0.031 C 
ATOM     24  C   UNL     1       5.302   7.109  -0.809  1.00  0.00     0.029 A 
ATOM     25  C   UNL     1       6.122   7.911   0.093  1.00  0.00     0.049 A 
ATOM     26  H   UNL     1       6.609   7.486   2.075  1.00  0.00     0.167 HD
ATOM     27  C   UNL     1       7.712   6.098   6.213  1.00  0.00     0.034 A 
ATOM     28  C   UNL     1       6.718   9.083  -0.199  1.00  0.00     0.034 A 
ATOM     29  C   UNL     1       8.328   7.387   6.028  1.00  0.00     0.049 A 
ATOM     30  C   UNL     1       7.504   9.753   0.902  1.00  0.00     0.074 A 
ATOM     31  C   UNL     1       9.083   8.130   6.915  1.00  0.00     0.029 A 
ATOM     32  N   UNL     1       8.242   8.133   4.853  1.00  0.00    -0.354 N 
ATOM     33  N   UNL     1       7.758   9.318   2.118  1.00  0.00    -0.248 NA
ATOM     34  C   UNL     1       8.072  11.069   0.600  1.00  0.00     0.031 C 
ATOM     35  C   UNL     1       9.395   9.350   6.301  1.00  0.00     0.029 A 
ATOM     36  C   UNL     1       8.907   9.337   5.000  1.00  0.00     0.049 A 
ATOM     37  H   UNL     1       7.776   7.844   4.036  1.00  0.00     0.167 HD
ATOM     38  C   UNL     1       8.537  10.300   2.720  1.00  0.00     0.074 A 
ATOM     39  C   UNL     1       8.722  11.340   1.724  1.00  0.00     0.031 C 
ATOM     40  C   UNL     1       9.057  10.347   3.976  1.00  0.00     0.034 A 
BRANCH  27  41
ATOM     41  C   UNL     1       7.834   5.357   7.524  1.00  0.00     0.023 A 
ATOM     42  C   UNL     1       8.375   4.058   7.601  1.00  0.00     0.031 A 
ATOM     43  C   UNL     1       7.255   5.895   8.687  1.00  0.00     0.131 A 
ATOM     44  C   UNL     1       8.220   3.305   8.777  1.00  0.00     0.055 A 
ATOM     45  C   UNL     1       7.191   5.174   9.881  1.00  0.00     0.041 A 
ATOM     46  F   UNL     1       6.693   7.113   8.669  1.00  0.00    -0.206 F 
ATOM     47  C   UNL     1       7.652   3.862   9.925  1.00  0.00     0.022 A 
BRANCH  44  48
ATOM     48  S   UNL     1       8.577   1.524   8.717  1.00  0.00     0.124 S 
ATOM     49  O   UNL     1       7.671   1.078   7.657  1.00  0.00    -0.237 OA
ATOM     50  O   UNL     1       9.992   1.492   8.405  1.00  0.00    -0.237 OA
ATOM     51  O   UNL     1       8.218   1.058  10.061  1.00  0.00    -0.744 OA
ENDBRANCH  44  48
ENDBRANCH  27  41
BRANCH  28  52
ATOM     52  C   UNL     1       6.540   9.719  -1.539  1.00  0.00     0.023 A 
ATOM     53  C   UNL     1       7.634   9.988  -2.377  1.00  0.00     0.031 A 
ATOM     54  C   UNL     1       5.261  10.099  -1.991  1.00  0.00     0.131 A 
ATOM     55  C   UNL     1       7.433  10.641  -3.606  1.00  0.00     0.055 A 
ATOM     56  C   UNL     1       5.061  10.701  -3.234  1.00  0.00     0.041 A 
ATOM     57  F   UNL     1       4.177   9.877  -1.230  1.00  0.00    -0.206 F 
ATOM     58  C   UNL     1       6.152  10.985  -4.046  1.00  0.00     0.022 A 
BRANCH  55  59
ATOM     59  S   UNL     1       8.880  11.101  -4.600  1.00  0.00     0.124 S 
ATOM     60  O   UNL     1       9.618  11.954  -3.675  1.00  0.00    -0.237 OA
ATOM     61  O   UNL     1       9.475   9.801  -4.890  1.00  0.00    -0.237 OA
ATOM     62  O   UNL     1       8.298  11.788  -5.751  1.00  0.00    -0.744 OA
ENDBRANCH  55  59
ENDBRANCH  28  52
BRANCH  40  63
ATOM     63  C   UNL     1       9.912  11.543   4.304  1.00  0.00     0.023 A 
ATOM     64  C   UNL     1       9.369  12.834   4.406  1.00  0.00     0.031 A 
ATOM     65  C   UNL     1      11.293  11.380   4.513  1.00  0.00     0.131 A 
ATOM     66  C   UNL     1      10.214  13.924   4.651  1.00  0.00     0.055 A 
ATOM     67  C   UNL     1      12.118  12.460   4.822  1.00  0.00     0.041 A 
ATOM     68  F   UNL     1      11.859  10.166   4.426  1.00  0.00    -0.206 F 
ATOM     69  C   UNL     1      11.581  13.744   4.878  1.00  0.00     0.022 A 
BRANCH  66  70
ATOM     70  S   UNL     1       9.518  15.596   4.569  1.00  0.00     0.124 S 
ATOM     71  O   UNL     1       8.981  15.634   3.212  1.00  0.00    -0.237 OA
ATOM     72  O   UNL     1       8.532  15.577   5.644  1.00  0.00    -0.237 OA
ATOM     73  O   UNL     1      10.674  16.460   4.802  1.00  0.00    -0.744 OA
ENDBRANCH  66  70
ENDBRANCH  40  63
ENDBRANCH  14  15
ENDBRANCH   7   9
ENDBRANCH   6   7
ENDBRANCH   5   6
ENDBRANCH   4   5
ENDBRANCH   3   4
ENDBRANCH   2   3
ENDBRANCH   1   2
BRANCH   1  74
ATOM     74  O   UNL     1       2.555  -0.756  -3.675  1.00  0.00    -0.377 OA
BRANCH  74  75
ATOM     75  C   UNL     1       3.978  -0.709  -3.631  1.00  0.00     0.188 C 
BRANCH  75  76
ATOM     76  C   UNL     1       4.686   0.657  -3.546  1.00  0.00     0.188 C 
BRANCH  76  77
ATOM     77  O   UNL     1       3.826   1.775  -3.709  1.00  0.00    -0.376 OA
BRANCH  77  78
ATOM     78  C   UNL     1       3.818   2.353  -5.010  1.00  0.00     0.202 C 
BRANCH  78  79
ATOM     79  C   UNL     1       3.092   1.509  -6.066  1.00  0.00     0.261 C 
BRANCH  79  80
ATOM     80  O   UNL     1       3.704   0.233  -6.368  1.00  0.00    -0.463 OA
BRANCH  80  81
ATOM     81  C   UNL     1       4.933   0.228  -6.958  1.00  0.00     0.312 C 
ATOM     82  O   UNL     1       5.492   1.261  -7.322  1.00  0.00    -0.252 OA
BRANCH  81  83
ATOM     83  C   UNL     1       5.542  -1.188  -7.112  1.00  0.00     0.138 C 
ATOM     84  C   UNL     1       6.527  -1.647  -6.020  1.00  0.00     0.136 C 
ATOM     85  C   UNL     1       4.723  -2.466  -6.844  1.00  0.00     0.136 C 
ATOM     86  N   UNL     1       5.784  -2.891  -5.956  1.00  0.00    -0.341 N 
ATOM     87  C   UNL     1       6.032  -3.997  -5.193  1.00  0.00     0.222 C 
ATOM     88  O   UNL     1       6.897  -4.006  -4.318  1.00  0.00    -0.275 OA
BRANCH  87  89
ATOM     89  C   UNL     1       5.243  -5.252  -5.518  1.00  0.00     0.104 C 
BRANCH  89  90
ATOM     90  C   UNL     1       4.194  -5.643  -4.461  1.00  0.00     0.009 C 
ATOM     91  C   UNL     1       3.696  -7.082  -4.694  1.00  0.00     0.065 C 
ATOM     92  C   UNL     1       2.970  -4.717  -4.459  1.00  0.00     0.065 C 
ATOM     93  C   UNL     1       2.837  -7.197  -5.955  1.00  0.00     0.260 C 
ATOM     94  C   UNL     1       2.119  -4.883  -5.720  1.00  0.00     0.260 C 
ATOM     95  N   UNL     1       1.706  -6.271  -5.927  1.00  0.00    -0.346 N 
ATOM     96  H   UNL     1       1.081  -6.542  -5.168  1.00  0.00     0.346 HD
ATOM     97  H   UNL     1       1.243  -6.322  -6.834  1.00  0.00     0.346 HD
ENDBRANCH  89  90
ENDBRANCH  87  89
ENDBRANCH  81  83
ENDBRANCH  80  81
ENDBRANCH  79  80
ENDBRANCH  78  79
ENDBRANCH  77  78
ENDBRANCH  76  77
ENDBRANCH  75  76
ENDBRANCH  74  75
ENDBRANCH   1  74
TORSDOF 25
