REMARK SMILES CC(C)=CC[N@H+]1CCCC[C@H]1C(=O)OCCOCCOCCOCCOC(=O)c1ccc(-c2c3nc(c(-c4cc(S(=O)(=O)[O-])ccc4F)c4ccc([nH]4)c(-c4cc(S(=O)(=O)[O-])ccc4F)c4nc(c(-c5cc(S(=O)(=O)[O-])ccc5F)c5ccc2[nH]5)C=C4)C=C3)cc1
REMARK SMILES IDX 21 1 20 2 19 3 18 4 17 5 16 6 15 7 14 8 12 9 13 10 11 11
REMARK SMILES IDX 6 12 7 13 8 15 10 16 9 17 5 18 4 19 1 20 2 21 3 22 22 23
REMARK SMILES IDX 23 24 24 25 25 26 26 27 27 28 28 29 29 30 30 31 91 32 31 33
REMARK SMILES IDX 90 34 32 35 33 36 34 37 84 38 35 39 89 40 83 41 85 42 36 43
REMARK SMILES IDX 88 44 82 45 81 46 37 48 69 49 49 50 68 51 50 52 53 53 67 54
REMARK SMILES IDX 86 55 51 56 52 57 66 59 87 60 54 61 38 62 39 63 47 64 40 65
REMARK SMILES IDX 46 66 48 67 45 68 41 69 42 70 43 71 44 72 70 73 71 74 79 75
REMARK SMILES IDX 72 76 78 77 80 78 77 79 73 80 74 81 75 82 76 83 55 84 56 85
REMARK SMILES IDX 64 86 57 87 63 88 65 89 62 90 58 91 59 92 60 93 61 94
REMARK H PARENT 6 14 85 47 53 58
REMARK Flexibility Score: inf
ROOT
ATOM      1  C   UNL     1       4.174   6.002  -1.341  1.00  0.00     0.188 C 
ENDROOT
BRANCH   1   2
ATOM      2  O   UNL     1       3.675   5.040  -0.429  1.00  0.00    -0.377 OA
BRANCH   2   3
ATOM      3  C   UNL     1       4.633   4.349   0.343  1.00  0.00     0.188 C 
BRANCH   3   4
ATOM      4  C   UNL     1       5.127   3.028  -0.277  1.00  0.00     0.188 C 
BRANCH   4   5
ATOM      5  O   UNL     1       4.513   2.470  -1.428  1.00  0.00    -0.376 OA
BRANCH   5   6
ATOM      6  C   UNL     1       3.181   2.779  -1.794  1.00  0.00     0.202 C 
BRANCH   6   7
ATOM      7  C   UNL     1       2.000   2.712  -0.807  1.00  0.00     0.261 C 
BRANCH   7   8
ATOM      8  O   UNL     1       2.209   2.949   0.592  1.00  0.00    -0.459 OA
BRANCH   8   9
ATOM      9  C   UNL     1       2.743   1.902   1.275  1.00  0.00     0.364 C 
ATOM     10  O   UNL     1       3.193   0.903   0.725  1.00  0.00    -0.245 OA
BRANCH   9  11
ATOM     11  C   UNL     1       2.621   2.101   2.815  1.00  0.00     0.295 C 
ATOM     12  N   UNL     1       2.509   0.786   3.510  1.00  0.00    -0.320 N 
ATOM     13  C   UNL     1       3.790   0.042   3.442  1.00  0.00     0.263 C 
ATOM     14  H   UNL     1       2.297   0.998   4.485  1.00  0.00     0.349 HD
ATOM     15  C   UNL     1       5.019   0.825   3.932  1.00  0.00     0.062 C 
ATOM     16  C   UNL     1       3.704   2.919   3.533  1.00  0.00     0.078 C 
ATOM     17  C   UNL     1       5.076   2.274   3.471  1.00  0.00     0.013 C 
BRANCH  12  18
ATOM     18  C   UNL     1       1.386  -0.053   3.013  1.00  0.00     0.291 C 
BRANCH  18  19
ATOM     19  C   UNL     1       0.257   0.700   2.336  1.00  0.00     0.032 C 
ATOM     20  C   UNL     1       0.281  -0.563   0.152  1.00  0.00     0.039 C 
ATOM     21  C   UNL     1      -0.192   0.533   1.072  1.00  0.00    -0.075 C 
ATOM     22  C   UNL     1      -1.133   1.546   0.465  1.00  0.00     0.039 C 
ENDBRANCH  18  19
ENDBRANCH  12  18
ENDBRANCH   9  11
ENDBRANCH   8   9
ENDBRANCH   7   8
ENDBRANCH   6   7
ENDBRANCH   5   6
ENDBRANCH   4   5
ENDBRANCH   3   4
ENDBRANCH   2   3
ENDBRANCH   1   2
BRANCH   1  23
ATOM     23  C   UNL     1       5.479   5.665  -2.085  1.00  0.00     0.188 C 
BRANCH  23  24
ATOM     24  O   UNL     1       6.538   5.246  -1.232  1.00  0.00    -0.376 OA
BRANCH  24  25
ATOM     25  C   UNL     1       7.526   6.171  -0.818  1.00  0.00     0.202 C 
BRANCH  25  26
ATOM     26  C   UNL     1       7.106   7.277   0.163  1.00  0.00     0.261 C 
BRANCH  26  27
ATOM     27  O   UNL     1       6.034   8.132  -0.249  1.00  0.00    -0.460 OA
BRANCH  27  28
ATOM     28  C   UNL     1       6.171   8.779  -1.434  1.00  0.00     0.338 C 
ATOM     29  O   UNL     1       7.139   8.776  -2.153  1.00  0.00    -0.246 OA
BRANCH  28  30
ATOM     30  C   UNL     1       4.830   9.296  -1.803  1.00  0.00     0.060 A 
ATOM     31  C   UNL     1       4.277   8.910  -3.032  1.00  0.00     0.016 A 
ATOM     32  C   UNL     1       4.106  10.106  -0.924  1.00  0.00     0.016 A 
ATOM     33  C   UNL     1       3.010   9.360  -3.400  1.00  0.00     0.010 A 
ATOM     34  C   UNL     1       2.854  10.589  -1.311  1.00  0.00     0.010 A 
ATOM     35  C   UNL     1       2.319  10.247  -2.566  1.00  0.00    -0.014 A 
BRANCH  35  36
ATOM     36  C   UNL     1       1.192  11.029  -3.127  1.00  0.00     0.031 A 
ATOM     37  C   UNL     1       1.515  12.375  -3.719  1.00  0.00     0.074 A 
ATOM     38  C   UNL     1      -0.064  10.552  -3.154  1.00  0.00     0.049 A 
ATOM     39  N   UNL     1       0.719  13.276  -4.227  1.00  0.00    -0.248 NA
ATOM     40  C   UNL     1       2.939  12.751  -3.733  1.00  0.00     0.031 C 
ATOM     41  C   UNL     1      -0.480   9.236  -2.675  1.00  0.00     0.029 A 
ATOM     42  N   UNL     1      -1.224  11.129  -3.606  1.00  0.00    -0.354 N 
ATOM     43  C   UNL     1       1.543  14.324  -4.623  1.00  0.00     0.074 A 
ATOM     44  C   UNL     1       2.894  13.964  -4.255  1.00  0.00     0.031 C 
ATOM     45  C   UNL     1      -1.808   9.110  -2.851  1.00  0.00     0.029 A 
ATOM     46  C   UNL     1      -2.340  10.350  -3.415  1.00  0.00     0.049 A 
ATOM     47  H   UNL     1      -1.253  12.018  -4.028  1.00  0.00     0.167 HD
ATOM     48  C   UNL     1       1.204  15.479  -5.245  1.00  0.00     0.034 A 
ATOM     49  C   UNL     1      -3.641  10.624  -3.646  1.00  0.00     0.034 A 
ATOM     50  C   UNL     1      -0.152  15.832  -5.581  1.00  0.00     0.049 A 
ATOM     51  C   UNL     1      -4.010  11.970  -4.231  1.00  0.00     0.074 A 
ATOM     52  C   UNL     1      -0.616  16.979  -6.198  1.00  0.00     0.029 A 
ATOM     53  N   UNL     1      -1.266  15.046  -5.311  1.00  0.00    -0.354 N 
ATOM     54  N   UNL     1      -3.226  12.961  -4.593  1.00  0.00    -0.248 NA
ATOM     55  C   UNL     1      -5.440  12.231  -4.443  1.00  0.00     0.031 C 
ATOM     56  C   UNL     1      -2.013  16.923  -6.230  1.00  0.00     0.029 A 
ATOM     57  C   UNL     1      -2.418  15.699  -5.718  1.00  0.00     0.049 A 
ATOM     58  H   UNL     1      -1.240  14.155  -4.893  1.00  0.00     0.167 HD
ATOM     59  C   UNL     1      -4.067  13.944  -5.110  1.00  0.00     0.074 A 
ATOM     60  C   UNL     1      -5.415  13.421  -5.024  1.00  0.00     0.031 C 
ATOM     61  C   UNL     1      -3.757  15.165  -5.619  1.00  0.00     0.034 A 
BRANCH  48  62
ATOM     62  C   UNL     1       2.316  16.457  -5.537  1.00  0.00     0.023 A 
ATOM     63  C   UNL     1       3.371  16.140  -6.411  1.00  0.00     0.031 A 
ATOM     64  C   UNL     1       2.344  17.708  -4.897  1.00  0.00     0.131 A 
ATOM     65  C   UNL     1       4.445  17.031  -6.562  1.00  0.00     0.055 A 
ATOM     66  C   UNL     1       3.372  18.625  -5.119  1.00  0.00     0.041 A 
ATOM     67  F   UNL     1       1.381  18.054  -4.028  1.00  0.00    -0.206 F 
ATOM     68  C   UNL     1       4.439  18.283  -5.944  1.00  0.00     0.022 A 
BRANCH  65  69
ATOM     69  S   UNL     1       5.920  16.465  -7.454  1.00  0.00     0.124 S 
ATOM     70  O   UNL     1       6.308  15.295  -6.670  1.00  0.00    -0.237 OA
ATOM     71  O   UNL     1       5.399  16.197  -8.789  1.00  0.00    -0.237 OA
ATOM     72  O   UNL     1       6.835  17.601  -7.357  1.00  0.00    -0.744 OA
ENDBRANCH  65  69
ENDBRANCH  48  62
BRANCH  49  73
ATOM     73  C   UNL     1      -4.703   9.637  -3.289  1.00  0.00     0.023 A 
ATOM     74  C   UNL     1      -5.554   9.098  -4.267  1.00  0.00     0.031 A 
ATOM     75  C   UNL     1      -4.929   9.273  -1.949  1.00  0.00     0.131 A 
ATOM     76  C   UNL     1      -6.620   8.266  -3.887  1.00  0.00     0.055 A 
ATOM     77  C   UNL     1      -5.953   8.398  -1.583  1.00  0.00     0.041 A 
ATOM     78  F   UNL     1      -4.152   9.764  -0.971  1.00  0.00    -0.206 F 
ATOM     79  C   UNL     1      -6.816   7.900  -2.554  1.00  0.00     0.022 A 
BRANCH  76  80
ATOM     80  S   UNL     1      -7.811   7.746  -5.154  1.00  0.00     0.124 S 
ATOM     81  O   UNL     1      -8.297   9.030  -5.647  1.00  0.00    -0.237 OA
ATOM     82  O   UNL     1      -6.967   6.985  -6.068  1.00  0.00    -0.237 OA
ATOM     83  O   UNL     1      -8.783   6.956  -4.402  1.00  0.00    -0.744 OA
ENDBRANCH  76  80
ENDBRANCH  49  73
BRANCH  61  84
ATOM     84  C   UNL     1      -4.892  15.995  -6.173  1.00  0.00     0.023 A 
ATOM     85  C   UNL     1      -5.917  16.497  -5.353  1.00  0.00     0.031 A 
ATOM     86  C   UNL     1      -4.945  16.285  -7.548  1.00  0.00     0.131 A 
ATOM     87  C   UNL     1      -6.982  17.211  -5.924  1.00  0.00     0.055 A 
ATOM     88  C   UNL     1      -5.970  17.055  -8.100  1.00  0.00     0.041 A 
ATOM     89  F   UNL     1      -3.995  15.831  -8.381  1.00  0.00    -0.206 F 
ATOM     90  C   UNL     1      -7.004  17.511  -7.288  1.00  0.00     0.022 A 
BRANCH  87  91
ATOM     91  S   UNL     1      -8.394  17.656  -4.876  1.00  0.00     0.124 S 
ATOM     92  O   UNL     1      -8.826  16.353  -4.381  1.00  0.00    -0.237 OA
ATOM     93  O   UNL     1      -7.784  18.541  -3.889  1.00  0.00    -0.237 OA
ATOM     94  O   UNL     1      -9.319  18.305  -5.803  1.00  0.00    -0.744 OA
ENDBRANCH  87  91
ENDBRANCH  61  84
ENDBRANCH  35  36
ENDBRANCH  28  30
ENDBRANCH  27  28
ENDBRANCH  26  27
ENDBRANCH  25  26
ENDBRANCH  24  25
ENDBRANCH  23  24
ENDBRANCH   1  23
TORSDOF 25
