REMARK SMILES O=C(OCCOCCOCCOCCOC(=O)c1nccnc1C(=O)Nc1n[nH]c2ncccc12)c1ccc(-c2c3nc(c(-c4cc(S(=O)(=O)[O-])ccc4F)c4ccc([nH]4)c(-c4cc(S(=O)(=O)[O-])ccc4F)c4nc(c(-c5cc(S(=O)(=O)[O-])ccc5F)c5ccc2[nH]5)C=C4)C=C3)cc1
REMARK SMILES IDX 8 1 7 2 6 3 5 4 4 5 3 6 2 7 1 8 36 9 37 10 98 11 38 12 97 13
REMARK SMILES IDX 39 14 40 15 41 16 91 17 42 18 96 19 90 20 92 21 43 22 95 23
REMARK SMILES IDX 89 24 88 25 44 27 76 28 56 29 75 30 57 31 60 32 74 33 93 34
REMARK SMILES IDX 58 35 59 36 73 38 94 39 61 40 45 41 46 42 54 43 47 44 53 45
REMARK SMILES IDX 55 46 52 47 48 48 49 49 50 50 51 51 77 52 78 53 86 54 79 55
REMARK SMILES IDX 85 56 87 57 84 58 80 59 81 60 82 61 83 62 62 63 63 64 71 65
REMARK SMILES IDX 64 66 70 67 72 68 69 69 65 70 66 71 67 72 68 73 9 74 10 75
REMARK SMILES IDX 11 76 12 77 13 78 14 79 15 80 16 81 17 82 18 83 19 84 23 85
REMARK SMILES IDX 20 86 22 87 21 88 24 89 25 90 26 91 27 93 28 94 35 95 29 96
REMARK SMILES IDX 30 97 34 98 31 100 33 101 32 102
REMARK H PARENT 92 26 60 37 26 92 29 99
REMARK Flexibility Score: inf
ROOT
ATOM      1  C   UNL     1       2.406  -0.538   2.562  1.00  0.00     0.188 C 
ENDROOT
BRANCH   1   2
ATOM      2  C   UNL     1       2.244   0.040   1.167  1.00  0.00     0.188 C 
BRANCH   2   3
ATOM      3  O   UNL     1       3.508   0.308   0.588  1.00  0.00    -0.376 OA
BRANCH   3   4
ATOM      4  C   UNL     1       4.053   1.592   0.853  1.00  0.00     0.202 C 
BRANCH   4   5
ATOM      5  C   UNL     1       4.094   2.373  -0.459  1.00  0.00     0.261 C 
BRANCH   5   6
ATOM      6  O   UNL     1       2.805   2.349  -1.100  1.00  0.00    -0.460 OA
BRANCH   6   7
ATOM      7  C   UNL     1       2.258   1.329  -1.810  1.00  0.00     0.338 C 
ATOM      8  O   UNL     1       1.036   1.330  -1.971  1.00  0.00    -0.246 OA
BRANCH   7   9
ATOM      9  C   UNL     1       3.040   0.235  -2.483  1.00  0.00     0.060 A 
ATOM     10  C   UNL     1       4.204  -0.376  -2.002  1.00  0.00     0.016 A 
ATOM     11  C   UNL     1       2.475  -0.286  -3.660  1.00  0.00     0.016 A 
ATOM     12  C   UNL     1       4.763  -1.490  -2.623  1.00  0.00     0.010 A 
ATOM     13  C   UNL     1       3.056  -1.373  -4.322  1.00  0.00     0.010 A 
ATOM     14  C   UNL     1       4.203  -1.976  -3.797  1.00  0.00    -0.014 A 
BRANCH  14  15
ATOM     15  C   UNL     1       4.974  -2.954  -4.583  1.00  0.00     0.031 A 
ATOM     16  C   UNL     1       5.862  -2.401  -5.654  1.00  0.00     0.074 A 
ATOM     17  C   UNL     1       4.932  -4.266  -4.293  1.00  0.00     0.049 A 
ATOM     18  N   UNL     1       6.505  -3.021  -6.602  1.00  0.00    -0.248 NA
ATOM     19  C   UNL     1       6.055  -0.939  -5.647  1.00  0.00     0.031 C 
ATOM     20  C   UNL     1       4.220  -4.859  -3.160  1.00  0.00     0.029 A 
ATOM     21  N   UNL     1       5.498  -5.338  -4.931  1.00  0.00    -0.354 N 
ATOM     22  C   UNL     1       7.134  -2.022  -7.336  1.00  0.00     0.074 A 
ATOM     23  C   UNL     1       6.822  -0.760  -6.710  1.00  0.00     0.031 C 
ATOM     24  C   UNL     1       4.368  -6.195  -3.203  1.00  0.00     0.029 A 
ATOM     25  C   UNL     1       5.113  -6.552  -4.408  1.00  0.00     0.049 A 
ATOM     26  H   UNL     1       6.119  -5.249  -5.690  1.00  0.00     0.167 HD
ATOM     27  C   UNL     1       7.878  -2.164  -8.456  1.00  0.00     0.034 A 
ATOM     28  C   UNL     1       5.286  -7.795  -4.904  1.00  0.00     0.034 A 
ATOM     29  C   UNL     1       8.146  -3.448  -9.045  1.00  0.00     0.049 A 
ATOM     30  C   UNL     1       6.018  -7.919  -6.225  1.00  0.00     0.074 A 
ATOM     31  C   UNL     1       8.853  -3.742 -10.193  1.00  0.00     0.029 A 
ATOM     32  N   UNL     1       7.694  -4.657  -8.526  1.00  0.00    -0.354 N 
ATOM     33  N   UNL     1       6.575  -6.973  -6.952  1.00  0.00    -0.248 NA
ATOM     34  C   UNL     1       6.128  -9.262  -6.806  1.00  0.00     0.031 C 
ATOM     35  C   UNL     1       8.760  -5.120 -10.411  1.00  0.00     0.029 A 
ATOM     36  C   UNL     1       8.066  -5.696  -9.356  1.00  0.00     0.049 A 
ATOM     37  H   UNL     1       7.183  -4.756  -7.691  1.00  0.00     0.167 HD
ATOM     38  C   UNL     1       7.111  -7.612  -8.066  1.00  0.00     0.074 A 
ATOM     39  C   UNL     1       6.836  -9.025  -7.900  1.00  0.00     0.031 C 
ATOM     40  C   UNL     1       7.763  -7.091  -9.138  1.00  0.00     0.034 A 
BRANCH  27  41
ATOM     41  C   UNL     1       8.319  -0.907  -9.158  1.00  0.00     0.023 A 
ATOM     42  C   UNL     1       9.239  -0.008  -8.591  1.00  0.00     0.031 A 
ATOM     43  C   UNL     1       7.747  -0.573 -10.399  1.00  0.00     0.131 A 
ATOM     44  C   UNL     1       9.514   1.208  -9.238  1.00  0.00     0.055 A 
ATOM     45  C   UNL     1       8.081   0.603 -11.072  1.00  0.00     0.041 A 
ATOM     46  F   UNL     1       6.832  -1.374 -10.967  1.00  0.00    -0.206 F 
ATOM     47  C   UNL     1       8.961   1.507 -10.486  1.00  0.00     0.022 A 
BRANCH  44  48
ATOM     48  S   UNL     1      10.505   2.454  -8.368  1.00  0.00     0.124 S 
ATOM     49  O   UNL     1       9.668   2.738  -7.205  1.00  0.00    -0.237 OA
ATOM     50  O   UNL     1      11.748   1.739  -8.099  1.00  0.00    -0.237 OA
ATOM     51  O   UNL     1      10.610   3.545  -9.334  1.00  0.00    -0.744 OA
ENDBRANCH  44  48
ENDBRANCH  27  41
BRANCH  28  52
ATOM     52  C   UNL     1       4.669  -8.992  -4.250  1.00  0.00     0.023 A 
ATOM     53  C   UNL     1       5.443 -10.101  -3.871  1.00  0.00     0.031 A 
ATOM     54  C   UNL     1       3.273  -9.087  -4.081  1.00  0.00     0.131 A 
ATOM     55  C   UNL     1       4.817 -11.271  -3.405  1.00  0.00     0.055 A 
ATOM     56  C   UNL     1       2.662 -10.226  -3.552  1.00  0.00     0.041 A 
ATOM     57  F   UNL     1       2.472  -8.071  -4.439  1.00  0.00    -0.206 F 
ATOM     58  C   UNL     1       3.434 -11.335  -3.228  1.00  0.00     0.022 A 
BRANCH  55  59
ATOM     59  S   UNL     1       5.827 -12.760  -3.158  1.00  0.00     0.124 S 
ATOM     60  O   UNL     1       6.476 -12.896  -4.457  1.00  0.00    -0.237 OA
ATOM     61  O   UNL     1       6.685 -12.358  -2.049  1.00  0.00    -0.237 OA
ATOM     62  O   UNL     1       4.841 -13.790  -2.841  1.00  0.00    -0.744 OA
ENDBRANCH  55  59
ENDBRANCH  28  52
BRANCH  40  63
ATOM     63  C   UNL     1       8.241  -8.064 -10.182  1.00  0.00     0.023 A 
ATOM     64  C   UNL     1       7.339  -8.745 -11.014  1.00  0.00     0.031 A 
ATOM     65  C   UNL     1       9.618  -8.278 -10.369  1.00  0.00     0.131 A 
ATOM     66  C   UNL     1       7.824  -9.641 -11.976  1.00  0.00     0.055 A 
ATOM     67  C   UNL     1      10.096  -9.122 -11.369  1.00  0.00     0.041 A 
ATOM     68  F   UNL     1      10.518  -7.647  -9.598  1.00  0.00    -0.206 F 
ATOM     69  C   UNL     1       9.197  -9.817 -12.174  1.00  0.00     0.022 A 
BRANCH  66  70
ATOM     70  S   UNL     1       6.633 -10.624 -12.924  1.00  0.00     0.124 S 
ATOM     71  O   UNL     1       5.969 -11.389 -11.874  1.00  0.00    -0.237 OA
ATOM     72  O   UNL     1       5.825  -9.597 -13.574  1.00  0.00    -0.237 OA
ATOM     73  O   UNL     1       7.477 -11.408 -13.824  1.00  0.00    -0.744 OA
ENDBRANCH  66  70
ENDBRANCH  40  63
ENDBRANCH  14  15
ENDBRANCH   7   9
ENDBRANCH   6   7
ENDBRANCH   5   6
ENDBRANCH   4   5
ENDBRANCH   3   4
ENDBRANCH   2   3
ENDBRANCH   1   2
BRANCH   1  74
ATOM     74  O   UNL     1       3.751  -0.642   3.024  1.00  0.00    -0.377 OA
BRANCH  74  75
ATOM     75  C   UNL     1       4.705  -1.434   2.297  1.00  0.00     0.188 C 
BRANCH  75  76
ATOM     76  C   UNL     1       4.274  -2.547   1.314  1.00  0.00     0.188 C 
BRANCH  76  77
ATOM     77  O   UNL     1       2.974  -3.063   1.571  1.00  0.00    -0.376 OA
BRANCH  77  78
ATOM     78  C   UNL     1       2.862  -4.449   1.888  1.00  0.00     0.202 C 
BRANCH  78  79
ATOM     79  C   UNL     1       2.272  -4.686   3.436  1.00  0.00     0.261 C 
BRANCH  79  80
ATOM     80  O   UNL     1       3.283  -4.983   5.180  1.00  0.00    -0.458 OA
BRANCH  80  81
ATOM     81  C   UNL     1       4.208  -4.855   6.278  1.00  0.00     0.359 C 
ATOM     82  O   UNL     1       4.474  -5.825   6.987  1.00  0.00    -0.244 OA
BRANCH  81  83
ATOM     83  C   UNL     1       4.822  -3.523   6.672  1.00  0.00     0.179 A 
ATOM     84  N   UNL     1       4.100  -2.985   7.726  1.00  0.00    -0.245 NA
ATOM     85  C   UNL     1       5.912  -2.825   6.115  1.00  0.00     0.161 A 
ATOM     86  C   UNL     1       4.473  -1.776   8.192  1.00  0.00     0.132 A 
ATOM     87  N   UNL     1       6.222  -1.571   6.612  1.00  0.00    -0.247 NA
ATOM     88  C   UNL     1       5.511  -1.074   7.637  1.00  0.00     0.132 A 
BRANCH  85  89
ATOM     89  C   UNL     1       6.937  -3.156   5.043  1.00  0.00     0.278 C 
ATOM     90  O   UNL     1       8.017  -2.547   5.072  1.00  0.00    -0.267 OA
ATOM     91  N   UNL     1       6.837  -4.072   4.035  1.00  0.00    -0.303 N 
ATOM     92  H   UNL     1       7.674  -4.242   3.546  1.00  0.00     0.172 HD
BRANCH  91  93
ATOM     93  C   UNL     1       5.772  -4.783   3.601  1.00  0.00     0.164 A 
ATOM     94  N   UNL     1       5.994  -5.982   3.046  1.00  0.00    -0.155 NA
ATOM     95  C   UNL     1       4.423  -4.468   3.786  1.00  0.00     0.063 A 
ATOM     96  N   UNL     1       4.910  -6.778   3.284  1.00  0.00    -0.259 N 
ATOM     97  C   UNL     1       3.842  -6.124   3.815  1.00  0.00     0.157 A 
ATOM     98  C   UNL     1       3.357  -3.180   4.516  1.00  0.00     0.017 A 
ATOM     99  H   UNL     1       4.903  -7.742   3.088  1.00  0.00     0.192 HD
ATOM    100  N   UNL     1       2.404  -6.632   4.582  1.00  0.00    -0.237 NA
ATOM    101  C   UNL     1       1.864  -3.664   5.377  1.00  0.00     0.021 A 
ATOM    102  C   UNL     1       1.452  -5.362   5.347  1.00  0.00     0.113 A 
ENDBRANCH  91  93
ENDBRANCH  85  89
ENDBRANCH  81  83
ENDBRANCH  80  81
ENDBRANCH  79  80
ENDBRANCH  78  79
ENDBRANCH  77  78
ENDBRANCH  76  77
ENDBRANCH  75  76
ENDBRANCH  74  75
ENDBRANCH   1  74
TORSDOF 25
