REMARK SMILES O=C(OCCOCCOCCOCCOC(=O)c1ccccc1C(=O)Nc1ccc(N2C(=O)[C@H]3[C@@H]4CC[C@@H](C4)[C@@H]3C2=O)cc1)c1ccc(-c2c3nc(c(-c4cc(S(=O)(=O)[O-])ccc4F)c4ccc([nH]4)c(-c4cc(S(=O)(=O)[O-])ccc4F)c4nc(c(-c5cc(S(=O)(=O)[O-])ccc5F)c5ccc2[nH]5)C=C4)C=C3)cc1
REMARK SMILES IDX 9 1 8 2 7 3 6 4 5 5 4 6 3 7 2 8 1 9 45 10 46 11 107 12 47 13
REMARK SMILES IDX 106 14 48 15 49 16 50 17 100 18 51 19 105 20 99 21 101 22
REMARK SMILES IDX 52 23 104 24 98 25 97 26 53 28 85 29 65 30 84 31 66 32 69 33
REMARK SMILES IDX 83 34 102 35 67 36 68 37 82 39 103 40 70 41 54 42 55 43
REMARK SMILES IDX 63 44 56 45 62 46 64 47 61 48 57 49 58 50 59 51 60 52 86 53
REMARK SMILES IDX 87 54 95 55 88 56 94 57 96 58 93 59 89 60 90 61 91 62 92 63
REMARK SMILES IDX 71 64 72 65 80 66 73 67 79 68 81 69 78 70 74 71 75 72 76 73
REMARK SMILES IDX 77 74 10 75 11 76 12 77 13 78 14 79 15 80 16 81 17 82 18 83
REMARK SMILES IDX 19 84 23 85 20 86 22 87 21 88 24 89 25 90 26 91 27 93 28 94
REMARK SMILES IDX 44 95 29 96 43 97 30 98 31 99 32 100 41 101 33 102 34 103
REMARK SMILES IDX 40 104 42 105 35 106 38 107 36 108 39 109 37 110
REMARK H PARENT 101 27 69 38 26 92
REMARK Flexibility Score: inf
ROOT
ATOM      1  O   UNL     1       2.173   2.720   1.261  1.00  0.00    -0.377 OA
ENDROOT
BRANCH   1   2
ATOM      2  C   UNL     1       1.168   1.828   0.790  1.00  0.00     0.188 C 
BRANCH   2   3
ATOM      3  C   UNL     1       1.427   1.368  -0.647  1.00  0.00     0.188 C 
BRANCH   3   4
ATOM      4  O   UNL     1       2.623   0.590  -0.687  1.00  0.00    -0.376 OA
BRANCH   4   5
ATOM      5  C   UNL     1       3.538   0.874  -1.739  1.00  0.00     0.202 C 
BRANCH   5   6
ATOM      6  C   UNL     1       3.468  -0.190  -2.828  1.00  0.00     0.261 C 
BRANCH   6   7
ATOM      7  O   UNL     1       2.123  -0.673  -2.986  1.00  0.00    -0.460 OA
BRANCH   7   8
ATOM      8  C   UNL     1       1.520  -1.635  -2.238  1.00  0.00     0.338 C 
ATOM      9  O   UNL     1       0.297  -1.759  -2.305  1.00  0.00    -0.246 OA
BRANCH   8  10
ATOM     10  C   UNL     1       2.269  -2.638  -1.418  1.00  0.00     0.060 A 
ATOM     11  C   UNL     1       3.284  -2.339  -0.509  1.00  0.00     0.016 A 
ATOM     12  C   UNL     1       1.836  -3.972  -1.494  1.00  0.00     0.016 A 
ATOM     13  C   UNL     1       3.882  -3.334   0.266  1.00  0.00     0.010 A 
ATOM     14  C   UNL     1       2.453  -4.983  -0.738  1.00  0.00     0.010 A 
ATOM     15  C   UNL     1       3.514  -4.672   0.124  1.00  0.00    -0.014 A 
BRANCH  15  16
ATOM     16  C   UNL     1       4.443  -5.712   0.649  1.00  0.00     0.031 A 
ATOM     17  C   UNL     1       5.384  -6.356  -0.338  1.00  0.00     0.074 A 
ATOM     18  C   UNL     1       4.636  -5.921   1.967  1.00  0.00     0.049 A 
ATOM     19  N   UNL     1       6.266  -7.302  -0.158  1.00  0.00    -0.248 NA
ATOM     20  C   UNL     1       5.347  -5.822  -1.711  1.00  0.00     0.031 C 
ATOM     21  C   UNL     1       3.983  -5.180   3.046  1.00  0.00     0.029 A 
ATOM     22  N   UNL     1       5.508  -6.761   2.623  1.00  0.00    -0.354 N 
ATOM     23  C   UNL     1       6.856  -7.508  -1.401  1.00  0.00     0.074 A 
ATOM     24  C   UNL     1       6.248  -6.574  -2.321  1.00  0.00     0.031 C 
ATOM     25  C   UNL     1       4.530  -5.547   4.219  1.00  0.00     0.029 A 
ATOM     26  C   UNL     1       5.494  -6.625   3.995  1.00  0.00     0.049 A 
ATOM     27  H   UNL     1       6.090  -7.401   2.153  1.00  0.00     0.167 HD
ATOM     28  C   UNL     1       7.805  -8.408  -1.752  1.00  0.00     0.034 A 
ATOM     29  C   UNL     1       6.158  -7.314   4.951  1.00  0.00     0.034 A 
ATOM     30  C   UNL     1       8.406  -9.336  -0.833  1.00  0.00     0.049 A 
ATOM     31  C   UNL     1       7.069  -8.449   4.521  1.00  0.00     0.074 A 
ATOM     32  C   UNL     1       9.267 -10.384  -1.104  1.00  0.00     0.029 A 
ATOM     33  N   UNL     1       8.214  -9.322   0.541  1.00  0.00    -0.354 N 
ATOM     34  N   UNL     1       7.488  -8.767   3.317  1.00  0.00    -0.248 NA
ATOM     35  C   UNL     1       7.568  -9.340   5.580  1.00  0.00     0.031 C 
ATOM     36  C   UNL     1       9.541 -11.045   0.099  1.00  0.00     0.029 A 
ATOM     37  C   UNL     1       8.913 -10.363   1.128  1.00  0.00     0.049 A 
ATOM     38  H   UNL     1       7.662  -8.668   1.027  1.00  0.00     0.167 HD
ATOM     39  C   UNL     1       8.306  -9.886   3.482  1.00  0.00     0.074 A 
ATOM     40  C   UNL     1       8.356 -10.160   4.902  1.00  0.00     0.031 C 
ATOM     41  C   UNL     1       8.946 -10.633   2.545  1.00  0.00     0.034 A 
BRANCH  28  42
ATOM     42  C   UNL     1       8.131  -8.508  -3.218  1.00  0.00     0.023 A 
ATOM     43  C   UNL     1       8.823  -7.497  -3.904  1.00  0.00     0.031 A 
ATOM     44  C   UNL     1       7.665  -9.614  -3.952  1.00  0.00     0.131 A 
ATOM     45  C   UNL     1       8.978  -7.587  -5.297  1.00  0.00     0.055 A 
ATOM     46  C   UNL     1       7.884  -9.730  -5.323  1.00  0.00     0.041 A 
ATOM     47  F   UNL     1       6.964 -10.587  -3.348  1.00  0.00    -0.206 F 
ATOM     48  C   UNL     1       8.533  -8.707  -6.006  1.00  0.00     0.022 A 
BRANCH  45  49
ATOM     49  S   UNL     1       9.634  -6.152  -6.192  1.00  0.00     0.124 S 
ATOM     50  O   UNL     1       8.689  -5.105  -5.809  1.00  0.00    -0.237 OA
ATOM     51  O   UNL     1      10.980  -6.028  -5.644  1.00  0.00    -0.237 OA
ATOM     52  O   UNL     1       9.565  -6.561  -7.593  1.00  0.00    -0.744 OA
ENDBRANCH  45  49
ENDBRANCH  28  42
BRANCH  29  53
ATOM     53  C   UNL     1       5.933  -7.057   6.413  1.00  0.00     0.023 A 
ATOM     54  C   UNL     1       7.010  -6.839   7.292  1.00  0.00     0.031 A 
ATOM     55  C   UNL     1       4.649  -7.166   6.980  1.00  0.00     0.131 A 
ATOM     56  C   UNL     1       6.792  -6.801   8.681  1.00  0.00     0.055 A 
ATOM     57  C   UNL     1       4.427  -7.045   8.354  1.00  0.00     0.041 A 
ATOM     58  F   UNL     1       3.580  -7.416   6.207  1.00  0.00    -0.206 F 
ATOM     59  C   UNL     1       5.505  -6.881   9.215  1.00  0.00     0.022 A 
BRANCH  56  60
ATOM     60  S   UNL     1       8.227  -6.820   9.795  1.00  0.00     0.124 S 
ATOM     61  O   UNL     1       8.933  -8.015   9.346  1.00  0.00    -0.237 OA
ATOM     62  O   UNL     1       8.867  -5.545   9.494  1.00  0.00    -0.237 OA
ATOM     63  O   UNL     1       7.625  -6.916  11.123  1.00  0.00    -0.744 OA
ENDBRANCH  56  60
ENDBRANCH  29  53
BRANCH  41  64
ATOM     64  C   UNL     1       9.762 -11.809   3.027  1.00  0.00     0.023 A 
ATOM     65  C   UNL     1       9.156 -12.926   3.630  1.00  0.00     0.031 A 
ATOM     66  C   UNL     1      11.159 -11.823   2.865  1.00  0.00     0.131 A 
ATOM     67  C   UNL     1       9.948 -13.988   4.092  1.00  0.00     0.055 A 
ATOM     68  C   UNL     1      11.936 -12.908   3.275  1.00  0.00     0.041 A 
ATOM     69  F   UNL     1      11.791 -10.786   2.293  1.00  0.00    -0.206 F 
ATOM     70  C   UNL     1      11.332 -13.994   3.903  1.00  0.00     0.022 A 
BRANCH  67  71
ATOM     71  S   UNL     1       9.151 -15.333   5.012  1.00  0.00     0.124 S 
ATOM     72  O   UNL     1       8.539 -14.619   6.128  1.00  0.00    -0.237 OA
ATOM     73  O   UNL     1       8.229 -15.883   4.024  1.00  0.00    -0.237 OA
ATOM     74  O   UNL     1      10.265 -16.209   5.373  1.00  0.00    -0.744 OA
ENDBRANCH  67  71
ENDBRANCH  41  64
ENDBRANCH  15  16
ENDBRANCH   8  10
ENDBRANCH   7   8
ENDBRANCH   6   7
ENDBRANCH   5   6
ENDBRANCH   4   5
ENDBRANCH   3   4
ENDBRANCH   2   3
ENDBRANCH   1   2
BRANCH   1  75
ATOM     75  C   UNL     1       3.470   2.137   1.391  1.00  0.00     0.188 C 
BRANCH  75  76
ATOM     76  C   UNL     1       3.517   0.713   2.009  1.00  0.00     0.188 C 
BRANCH  76  77
ATOM     77  O   UNL     1       2.772   0.655   3.232  1.00  0.00    -0.376 OA
BRANCH  77  78
ATOM     78  C   UNL     1       3.326  -0.228   4.213  1.00  0.00     0.202 C 
BRANCH  78  79
ATOM     79  C   UNL     1       3.661   0.483   5.651  1.00  0.00     0.261 C 
BRANCH  79  80
ATOM     80  O   UNL     1       5.000   1.920   6.089  1.00  0.00    -0.460 OA
BRANCH  80  81
ATOM     81  C   UNL     1       5.983   2.848   6.442  1.00  0.00     0.339 C 
ATOM     82  O   UNL     1       7.001   2.642   7.083  1.00  0.00    -0.246 OA
BRANCH  81  83
ATOM     83  C   UNL     1       5.701   4.191   5.839  1.00  0.00     0.072 A 
ATOM     84  C   UNL     1       6.499   4.498   4.716  1.00  0.00     0.016 A 
ATOM     85  C   UNL     1       4.630   5.045   6.194  1.00  0.00     0.054 A 
ATOM     86  C   UNL     1       6.246   5.632   3.945  1.00  0.00     0.001 A 
ATOM     87  C   UNL     1       4.426   6.213   5.426  1.00  0.00     0.015 A 
ATOM     88  C   UNL     1       5.219   6.497   4.308  1.00  0.00     0.001 A 
BRANCH  85  89
ATOM     89  C   UNL     1       3.627   4.825   7.296  1.00  0.00     0.256 C 
ATOM     90  O   UNL     1       3.241   5.805   7.937  1.00  0.00    -0.269 OA
ATOM     91  N   UNL     1       3.138   3.574   7.624  1.00  0.00    -0.322 N 
ATOM     92  H   UNL     1       2.602   3.491   8.446  1.00  0.00     0.170 HD
BRANCH  91  93
ATOM     93  C   UNL     1       3.352   2.417   6.867  1.00  0.00     0.041 A 
ATOM     94  C   UNL     1       3.557   2.659   5.082  1.00  0.00     0.028 A 
ATOM     95  C   UNL     1       4.323   1.149   7.720  1.00  0.00     0.028 A 
ATOM     96  C   UNL     1       4.879   1.767   4.221  1.00  0.00     0.029 A 
ATOM     97  C   UNL     1       5.578   0.204   6.810  1.00  0.00     0.029 A 
ATOM     98  C   UNL     1       5.849   0.503   5.059  1.00  0.00     0.052 A 
BRANCH  98  99
ATOM     99  N   UNL     1       6.674  -0.337   4.271  1.00  0.00    -0.250 N 
ATOM    100  C   UNL     1       7.207  -1.566   4.691  1.00  0.00     0.237 C 
ATOM    101  C   UNL     1       6.836  -0.216   2.877  1.00  0.00     0.237 C 
ATOM    102  O   UNL     1       6.974  -2.220   5.687  1.00  0.00    -0.274 OA
ATOM    103  C   UNL     1       8.061  -1.960   3.514  1.00  0.00     0.095 C 
ATOM    104  C   UNL     1       7.001  -1.645   2.460  1.00  0.00     0.095 C 
ATOM    105  O   UNL     1       6.819   0.755   2.143  1.00  0.00    -0.274 OA
ATOM    106  C   UNL     1       8.703  -3.222   2.953  1.00  0.00     0.002 C 
ATOM    107  C   UNL     1       7.459  -2.429   1.246  1.00  0.00     0.002 C 
ATOM    108  C   UNL     1       9.751  -2.706   1.918  1.00  0.00     0.005 C 
ATOM    109  C   UNL     1       7.678  -3.785   1.963  1.00  0.00     0.009 C 
ATOM    110  C   UNL     1       8.877  -2.089   0.802  1.00  0.00     0.005 C 
ENDBRANCH  98  99
ENDBRANCH  91  93
ENDBRANCH  85  89
ENDBRANCH  81  83
ENDBRANCH  80  81
ENDBRANCH  79  80
ENDBRANCH  78  79
ENDBRANCH  77  78
ENDBRANCH  76  77
ENDBRANCH  75  76
ENDBRANCH   1  75
TORSDOF 26
