REMARK SMILES C[C@@H]1[C@@H](C(=O)OCCOCCOCCOCCOC(=O)c2ccc(-c3c4nc(c(-c5cc(S(=O)(=O)[O-])ccc5F)c5ccc([nH]5)c(-c5cc(S(=O)(=O)[O-])ccc5F)c5nc(c(-c6cc(S(=O)(=O)[O-])ccc6F)c6ccc3[nH]6)C=C5)C=C4)cc2)CCN1C(=O)C[NH2+]C1CCCC1
REMARK SMILES IDX 11 1 10 2 9 3 8 4 7 5 6 6 4 7 5 8 3 9 1 10 2 11 86 12 84 13
REMARK SMILES IDX 85 14 87 15 88 16 89 17 90 18 91 21 92 22 95 23 93 24 94 25
REMARK SMILES IDX 12 26 13 27 14 28 15 29 16 30 17 31 18 32 19 33 20 34 21 35
REMARK SMILES IDX 22 36 83 37 23 38 82 39 24 40 25 41 26 42 76 43 27 44 81 45
REMARK SMILES IDX 75 46 77 47 28 48 80 49 74 50 73 51 29 53 61 54 41 55 60 56
REMARK SMILES IDX 42 57 45 58 59 59 78 60 43 61 44 62 58 64 79 65 46 66 30 67
REMARK SMILES IDX 31 68 39 69 32 70 38 71 40 72 37 73 33 74 34 75 35 76 36 77
REMARK SMILES IDX 62 78 63 79 71 80 64 81 70 82 72 83 69 84 65 85 66 86 67 87
REMARK SMILES IDX 68 88 47 89 48 90 56 91 49 92 55 93 57 94 54 95 50 96 51 97
REMARK SMILES IDX 52 98 53 99
REMARK H PARENT 90 19 90 20 77 52 45 63
REMARK Flexibility Score: inf
ROOT
ATOM      1  C   UNL     1       0.236   3.345  -2.277  1.00  0.00     0.188 C 
ENDROOT
BRANCH   1   2
ATOM      2  C   UNL     1       0.660   2.172  -3.177  1.00  0.00     0.188 C 
BRANCH   2   3
ATOM      3  O   UNL     1      -0.018   1.891  -4.390  1.00  0.00    -0.376 OA
BRANCH   3   4
ATOM      4  C   UNL     1      -1.425   1.750  -4.524  1.00  0.00     0.202 C 
BRANCH   4   5
ATOM      5  C   UNL     1      -2.415   1.297  -3.435  1.00  0.00     0.261 C 
BRANCH   5   6
ATOM      6  O   UNL     1      -1.958   1.328  -2.090  1.00  0.00    -0.463 OA
BRANCH   6   7
ATOM      7  C   UNL     1      -1.287   0.219  -1.708  1.00  0.00     0.311 C 
ATOM      8  O   UNL     1      -1.161  -0.786  -2.394  1.00  0.00    -0.252 OA
BRANCH   7   9
ATOM      9  C   UNL     1      -0.654   0.454  -0.343  1.00  0.00     0.123 C 
ATOM     10  C   UNL     1       1.571  -0.013   0.819  1.00  0.00     0.032 C 
ATOM     11  C   UNL     1       0.535  -0.492  -0.194  1.00  0.00     0.096 C 
ATOM     12  N   UNL     1      -0.118  -1.732   0.223  1.00  0.00    -0.334 N 
ATOM     13  C   UNL     1      -1.593   0.045   0.774  1.00  0.00     0.039 C 
ATOM     14  C   UNL     1      -1.448  -1.468   0.771  1.00  0.00     0.121 C 
BRANCH  12  15
ATOM     15  C   UNL     1       0.184  -3.000  -0.239  1.00  0.00     0.277 C 
ATOM     16  O   UNL     1      -0.602  -3.940  -0.084  1.00  0.00    -0.268 OA
BRANCH  15  17
ATOM     17  C   UNL     1       1.561  -3.257  -0.870  1.00  0.00     0.362 C 
BRANCH  17  18
ATOM     18  N   UNL     1       1.754  -2.568  -2.158  1.00  0.00    -0.336 N 
ATOM     19  H   UNL     1       1.771  -1.561  -1.994  1.00  0.00     0.346 HD
ATOM     20  H   UNL     1       0.984  -2.827  -2.774  1.00  0.00     0.346 HD
BRANCH  18  21
ATOM     21  C   UNL     1       2.999  -2.961  -2.801  1.00  0.00     0.182 C 
ATOM     22  C   UNL     1       2.960  -4.327  -3.483  1.00  0.00     0.065 C 
ATOM     23  C   UNL     1       3.378  -2.045  -3.966  1.00  0.00     0.065 C 
ATOM     24  C   UNL     1       4.208  -4.312  -4.357  1.00  0.00     0.006 C 
ATOM     25  C   UNL     1       4.419  -2.849  -4.750  1.00  0.00     0.006 C 
ENDBRANCH  18  21
ENDBRANCH  17  18
ENDBRANCH  15  17
ENDBRANCH  12  15
ENDBRANCH   7   9
ENDBRANCH   6   7
ENDBRANCH   5   6
ENDBRANCH   4   5
ENDBRANCH   3   4
ENDBRANCH   2   3
ENDBRANCH   1   2
BRANCH   1  26
ATOM     26  O   UNL     1      -1.081   3.785  -2.518  1.00  0.00    -0.377 OA
BRANCH  26  27
ATOM     27  C   UNL     1      -1.228   4.900  -3.388  1.00  0.00     0.188 C 
BRANCH  27  28
ATOM     28  C   UNL     1      -0.269   5.049  -4.593  1.00  0.00     0.188 C 
BRANCH  28  29
ATOM     29  O   UNL     1       1.104   4.832  -4.290  1.00  0.00    -0.376 OA
BRANCH  29  30
ATOM     30  C   UNL     1       1.951   5.960  -4.143  1.00  0.00     0.202 C 
BRANCH  30  31
ATOM     31  C   UNL     1       1.716   6.856  -2.916  1.00  0.00     0.261 C 
BRANCH  31  32
ATOM     32  O   UNL     1       0.395   7.399  -2.774  1.00  0.00    -0.460 OA
BRANCH  32  33
ATOM     33  C   UNL     1      -0.044   8.208  -3.767  1.00  0.00     0.338 C 
ATOM     34  O   UNL     1       0.581   8.560  -4.744  1.00  0.00    -0.246 OA
BRANCH  33  35
ATOM     35  C   UNL     1      -1.497   8.419  -3.565  1.00  0.00     0.060 A 
ATOM     36  C   UNL     1      -2.381   8.041  -4.584  1.00  0.00     0.016 A 
ATOM     37  C   UNL     1      -1.981   8.973  -2.378  1.00  0.00     0.016 A 
ATOM     38  C   UNL     1      -3.751   8.254  -4.435  1.00  0.00     0.010 A 
ATOM     39  C   UNL     1      -3.352   9.208  -2.240  1.00  0.00     0.010 A 
ATOM     40  C   UNL     1      -4.239   8.884  -3.283  1.00  0.00    -0.014 A 
BRANCH  40  41
ATOM     41  C   UNL     1      -5.630   9.403  -3.265  1.00  0.00     0.031 A 
ATOM     42  C   UNL     1      -5.844  10.860  -3.580  1.00  0.00     0.074 A 
ATOM     43  C   UNL     1      -6.680   8.603  -3.007  1.00  0.00     0.049 A 
ATOM     44  N   UNL     1      -6.946  11.562  -3.571  1.00  0.00    -0.248 NA
ATOM     45  C   UNL     1      -4.644  11.626  -3.953  1.00  0.00     0.031 C 
ATOM     46  C   UNL     1      -6.604   7.167  -2.747  1.00  0.00     0.029 A 
ATOM     47  N   UNL     1      -8.019   8.891  -2.917  1.00  0.00    -0.354 N 
ATOM     48  C   UNL     1      -6.574  12.853  -3.929  1.00  0.00     0.074 A 
ATOM     49  C   UNL     1      -5.138  12.844  -4.109  1.00  0.00     0.031 C 
ATOM     50  C   UNL     1      -7.844   6.701  -2.517  1.00  0.00     0.029 A 
ATOM     51  C   UNL     1      -8.795   7.811  -2.568  1.00  0.00     0.049 A 
ATOM     52  H   UNL     1      -8.389   9.787  -3.087  1.00  0.00     0.167 HD
ATOM     53  C   UNL     1      -7.359  13.945  -4.101  1.00  0.00     0.034 A 
ATOM     54  C   UNL     1     -10.114   7.736  -2.293  1.00  0.00     0.034 A 
ATOM     55  C   UNL     1      -8.787  13.941  -3.903  1.00  0.00     0.049 A 
ATOM     56  C   UNL     1     -10.955   8.990  -2.386  1.00  0.00     0.074 A 
ATOM     57  C   UNL     1      -9.680  14.986  -4.055  1.00  0.00     0.029 A 
ATOM     58  N   UNL     1      -9.531  12.841  -3.495  1.00  0.00    -0.354 N 
ATOM     59  N   UNL     1     -10.593  10.207  -2.727  1.00  0.00    -0.248 NA
ATOM     60  C   UNL     1     -12.382   8.859  -2.064  1.00  0.00     0.031 C 
ATOM     61  C   UNL     1     -10.945  14.544  -3.657  1.00  0.00     0.029 A 
ATOM     62  C   UNL     1     -10.864  13.194  -3.351  1.00  0.00     0.049 A 
ATOM     63  H   UNL     1      -9.165  11.941  -3.331  1.00  0.00     0.167 HD
ATOM     64  C   UNL     1     -11.758  10.973  -2.697  1.00  0.00     0.074 A 
ATOM     65  C   UNL     1     -12.831  10.079  -2.318  1.00  0.00     0.031 C 
ATOM     66  C   UNL     1     -11.927  12.294  -2.965  1.00  0.00     0.034 A 
BRANCH  53  67
ATOM     67  C   UNL     1      -6.676  15.242  -4.464  1.00  0.00     0.023 A 
ATOM     68  C   UNL     1      -5.969  15.398  -5.669  1.00  0.00     0.031 A 
ATOM     69  C   UNL     1      -6.707  16.331  -3.574  1.00  0.00     0.131 A 
ATOM     70  C   UNL     1      -5.264  16.585  -5.919  1.00  0.00     0.055 A 
ATOM     71  C   UNL     1      -6.077  17.541  -3.868  1.00  0.00     0.041 A 
ATOM     72  F   UNL     1      -7.341  16.232  -2.395  1.00  0.00    -0.206 F 
ATOM     73  C   UNL     1      -5.337  17.669  -5.040  1.00  0.00     0.022 A 
BRANCH  70  74
ATOM     74  S   UNL     1      -4.129  16.639  -7.332  1.00  0.00     0.124 S 
ATOM     75  O   UNL     1      -3.228  15.528  -7.028  1.00  0.00    -0.237 OA
ATOM     76  O   UNL     1      -5.025  16.442  -8.465  1.00  0.00    -0.237 OA
ATOM     77  O   UNL     1      -3.523  17.965  -7.236  1.00  0.00    -0.744 OA
ENDBRANCH  70  74
ENDBRANCH  53  67
BRANCH  54  78
ATOM     78  C   UNL     1     -10.728   6.447  -1.856  1.00  0.00     0.023 A 
ATOM     79  C   UNL     1     -11.752   5.838  -2.600  1.00  0.00     0.031 A 
ATOM     80  C   UNL     1     -10.348   5.839  -0.645  1.00  0.00     0.131 A 
ATOM     81  C   UNL     1     -12.396   4.694  -2.102  1.00  0.00     0.055 A 
ATOM     82  C   UNL     1     -10.947   4.666  -0.185  1.00  0.00     0.041 A 
ATOM     83  F   UNL     1      -9.381   6.381   0.113  1.00  0.00    -0.206 F 
ATOM     84  C   UNL     1     -11.989   4.094  -0.908  1.00  0.00     0.022 A 
BRANCH  81  85
ATOM     85  S   UNL     1     -13.848   4.060  -2.985  1.00  0.00     0.124 S 
ATOM     86  O   UNL     1     -14.733   5.219  -2.969  1.00  0.00    -0.237 OA
ATOM     87  O   UNL     1     -13.281   3.703  -4.282  1.00  0.00    -0.237 OA
ATOM     88  O   UNL     1     -14.280   2.931  -2.164  1.00  0.00    -0.744 OA
ENDBRANCH  81  85
ENDBRANCH  54  78
BRANCH  66  89
ATOM     89  C   UNL     1     -13.336  12.839  -2.915  1.00  0.00     0.023 A 
ATOM     90  C   UNL     1     -14.075  12.889  -1.720  1.00  0.00     0.031 A 
ATOM     91  C   UNL     1     -13.950  13.315  -4.089  1.00  0.00     0.131 A 
ATOM     92  C   UNL     1     -15.402  13.346  -1.737  1.00  0.00     0.055 A 
ATOM     93  C   UNL     1     -15.244  13.835  -4.086  1.00  0.00     0.041 A 
ATOM     94  F   UNL     1     -13.295  13.289  -5.261  1.00  0.00    -0.206 F 
ATOM     95  C   UNL     1     -15.984  13.839  -2.908  1.00  0.00     0.022 A 
BRANCH  92  96
ATOM     96  S   UNL     1     -16.397  13.189  -0.228  1.00  0.00     0.124 S 
ATOM     97  O   UNL     1     -16.325  11.756   0.034  1.00  0.00    -0.237 OA
ATOM     98  O   UNL     1     -15.679  14.046   0.710  1.00  0.00    -0.237 OA
ATOM     99  O   UNL     1     -17.713  13.681  -0.632  1.00  0.00    -0.744 OA
ENDBRANCH  92  96
ENDBRANCH  66  89
ENDBRANCH  40  41
ENDBRANCH  33  35
ENDBRANCH  32  33
ENDBRANCH  31  32
ENDBRANCH  30  31
ENDBRANCH  29  30
ENDBRANCH  28  29
ENDBRANCH  27  28
ENDBRANCH  26  27
ENDBRANCH   1  26
TORSDOF 27
