REMARK SMILES Cc1cc([C@@H](C)NC(=O)N[C@H]2C=C[C@@H](C(=O)OCCOCCOCCOCCOC(=O)c3ccc(-c4c5nc(c(-c6cc(S(=O)(=O)[O-])ccc6F)c6ccc([nH]6)c(-c6cc(S(=O)(=O)[O-])ccc6F)c6nc(c(-c7cc(S(=O)(=O)[O-])ccc7F)c7ccc4[nH]7)C=C6)C=C5)cc3)C2)c(C)s1
REMARK SMILES IDX 23 1 22 2 21 3 20 4 19 5 18 6 17 7 15 8 16 9 14 10 11 11
REMARK SMILES IDX 12 12 95 13 13 14 10 15 7 16 8 17 9 19 5 21 6 22 4 23 1 24
REMARK SMILES IDX 2 25 3 26 98 27 96 28 97 29 24 30 25 31 26 32 27 33 28 34
REMARK SMILES IDX 29 35 30 36 31 37 32 38 33 39 94 40 34 41 93 42 35 43 36 44
REMARK SMILES IDX 37 45 87 46 38 47 92 48 86 49 88 50 39 51 91 52 85 53 84 54
REMARK SMILES IDX 40 56 72 57 52 58 71 59 53 60 56 61 70 62 89 63 54 64 55 65
REMARK SMILES IDX 69 67 90 68 57 69 41 70 42 71 50 72 43 73 49 74 51 75 48 76
REMARK SMILES IDX 44 77 45 78 46 79 47 80 73 81 74 82 82 83 75 84 81 85 83 86
REMARK SMILES IDX 80 87 76 88 77 89 78 90 79 91 58 92 59 93 67 94 60 95 66 96
REMARK SMILES IDX 68 97 65 98 61 99 62 100 63 101 64 102
REMARK H PARENT 7 18 10 20 88 55 56 66
REMARK Flexibility Score: inf
ROOT
ATOM      1  O   UNL     1      -2.466  -1.715   2.482  1.00  0.00    -0.377 OA
ENDROOT
BRANCH   1   2
ATOM      2  C   UNL     1      -3.059  -1.275   1.274  1.00  0.00     0.188 C 
BRANCH   2   3
ATOM      3  C   UNL     1      -4.398  -1.943   0.951  1.00  0.00     0.188 C 
BRANCH   3   4
ATOM      4  O   UNL     1      -5.422  -1.860   1.933  1.00  0.00    -0.376 OA
BRANCH   4   5
ATOM      5  C   UNL     1      -5.176  -2.460   3.207  1.00  0.00     0.202 C 
BRANCH   5   6
ATOM      6  C   UNL     1      -4.764  -3.940   3.237  1.00  0.00     0.261 C 
BRANCH   6   7
ATOM      7  O   UNL     1      -3.515  -4.195   2.564  1.00  0.00    -0.463 OA
BRANCH   7   8
ATOM      8  C   UNL     1      -3.514  -5.176   1.629  1.00  0.00     0.312 C 
ATOM      9  O   UNL     1      -4.474  -5.900   1.379  1.00  0.00    -0.252 OA
BRANCH   8  10
ATOM     10  C   UNL     1      -2.229  -5.243   0.809  1.00  0.00     0.124 C 
ATOM     11  C   UNL     1       0.189  -5.173   0.751  1.00  0.00     0.107 C 
ATOM     12  C   UNL     1      -0.290  -6.577   0.929  1.00  0.00    -0.006 C 
ATOM     13  C   UNL     1      -1.036  -4.371   1.201  1.00  0.00     0.048 C 
ATOM     14  C   UNL     1      -1.629  -6.621   0.904  1.00  0.00    -0.014 C 
BRANCH  11  15
ATOM     15  N   UNL     1       1.365  -4.896   1.526  1.00  0.00    -0.332 N 
ATOM     16  N   UNL     1       2.013  -2.730   0.807  1.00  0.00    -0.332 N 
ATOM     17  C   UNL     1       2.095  -3.776   1.646  1.00  0.00     0.315 C 
ATOM     18  H   UNL     1       2.254  -1.872   1.226  1.00  0.00     0.165 HD
ATOM     19  O   UNL     1       2.872  -3.687   2.598  1.00  0.00    -0.249 OA
ATOM     20  H   UNL     1       1.691  -5.656   2.060  1.00  0.00     0.165 HD
BRANCH  16  21
ATOM     21  C   UNL     1       1.643  -2.606  -0.591  1.00  0.00     0.112 C 
ATOM     22  C   UNL     1       2.829  -2.856  -1.518  1.00  0.00     0.036 C 
BRANCH  21  23
ATOM     23  C   UNL     1       0.973  -1.273  -0.851  1.00  0.00    -0.012 A 
ATOM     24  C   UNL     1      -2.254   0.532  -1.744  1.00  0.00     0.056 C 
ATOM     25  C   UNL     1      -0.859   0.081  -1.465  1.00  0.00     0.002 A 
ATOM     26  C   UNL     1      -0.393  -1.203  -1.306  1.00  0.00     0.021 A 
ATOM     27  S   UNL     1       0.407   1.207  -1.291  1.00  0.00    -0.146 S 
ATOM     28  C   UNL     1       1.502   0.006  -0.730  1.00  0.00     0.007 A 
ATOM     29  C   UNL     1       2.833   0.468  -0.230  1.00  0.00     0.057 C 
ENDBRANCH  21  23
ENDBRANCH  16  21
ENDBRANCH  11  15
ENDBRANCH   8  10
ENDBRANCH   7   8
ENDBRANCH   6   7
ENDBRANCH   5   6
ENDBRANCH   4   5
ENDBRANCH   3   4
ENDBRANCH   2   3
ENDBRANCH   1   2
BRANCH   1  30
ATOM     30  C   UNL     1      -2.148  -0.755   3.495  1.00  0.00     0.188 C 
BRANCH  30  31
ATOM     31  C   UNL     1      -2.872   0.598   3.448  1.00  0.00     0.188 C 
BRANCH  31  32
ATOM     32  O   UNL     1      -2.466   1.571   2.480  1.00  0.00    -0.376 OA
BRANCH  32  33
ATOM     33  C   UNL     1      -1.204   1.442   1.835  1.00  0.00     0.202 C 
BRANCH  33  34
ATOM     34  C   UNL     1      -0.038   2.175   2.485  1.00  0.00     0.261 C 
BRANCH  34  35
ATOM     35  O   UNL     1       0.196   1.694   3.803  1.00  0.00    -0.460 OA
BRANCH  35  36
ATOM     36  C   UNL     1      -0.476   2.379   4.754  1.00  0.00     0.338 C 
ATOM     37  O   UNL     1      -1.164   3.377   4.611  1.00  0.00    -0.246 OA
BRANCH  36  38
ATOM     38  C   UNL     1      -0.388   1.615   6.001  1.00  0.00     0.060 A 
ATOM     39  C   UNL     1      -1.539   1.524   6.791  1.00  0.00     0.016 A 
ATOM     40  C   UNL     1       0.818   1.026   6.395  1.00  0.00     0.016 A 
ATOM     41  C   UNL     1      -1.472   0.893   8.020  1.00  0.00     0.010 A 
ATOM     42  C   UNL     1       0.890   0.405   7.633  1.00  0.00     0.010 A 
ATOM     43  C   UNL     1      -0.243   0.394   8.462  1.00  0.00    -0.014 A 
BRANCH  43  44
ATOM     44  C   UNL     1      -0.087   0.103   9.894  1.00  0.00     0.031 A 
ATOM     45  C   UNL     1       0.504   1.178  10.758  1.00  0.00     0.074 A 
ATOM     46  C   UNL     1      -0.518  -1.067  10.387  1.00  0.00     0.049 A 
ATOM     47  N   UNL     1       0.761   1.166  12.036  1.00  0.00    -0.248 NA
ATOM     48  C   UNL     1       0.859   2.439  10.082  1.00  0.00     0.031 C 
ATOM     49  C   UNL     1      -1.148  -2.129   9.603  1.00  0.00     0.029 A 
ATOM     50  N   UNL     1      -0.492  -1.552  11.663  1.00  0.00    -0.354 N 
ATOM     51  C   UNL     1       1.312   2.412  12.317  1.00  0.00     0.074 A 
ATOM     52  C   UNL     1       1.396   3.136  11.070  1.00  0.00     0.031 C 
ATOM     53  C   UNL     1      -1.450  -3.150  10.422  1.00  0.00     0.029 A 
ATOM     54  C   UNL     1      -0.993  -2.826  11.771  1.00  0.00     0.049 A 
ATOM     55  H   UNL     1      -0.148  -1.040  12.430  1.00  0.00     0.167 HD
ATOM     56  C   UNL     1       1.701   2.901  13.518  1.00  0.00     0.034 A 
ATOM     57  C   UNL     1      -1.045  -3.635  12.844  1.00  0.00     0.034 A 
ATOM     58  C   UNL     1       1.616   2.130  14.733  1.00  0.00     0.049 A 
ATOM     59  C   UNL     1      -0.529  -3.098  14.156  1.00  0.00     0.074 A 
ATOM     60  C   UNL     1       1.976   2.496  16.016  1.00  0.00     0.029 A 
ATOM     61  N   UNL     1       1.144   0.823  14.807  1.00  0.00    -0.354 N 
ATOM     62  N   UNL     1      -0.011  -1.918  14.422  1.00  0.00    -0.248 NA
ATOM     63  C   UNL     1      -0.618  -3.992  15.313  1.00  0.00     0.031 C 
ATOM     64  C   UNL     1       1.800   1.385  16.848  1.00  0.00     0.029 A 
ATOM     65  C   UNL     1       1.237   0.356  16.107  1.00  0.00     0.049 A 
ATOM     66  H   UNL     1       0.795   0.305  14.046  1.00  0.00     0.167 HD
ATOM     67  C   UNL     1       0.257  -1.918  15.787  1.00  0.00     0.074 A 
ATOM     68  C   UNL     1      -0.178  -3.209  16.287  1.00  0.00     0.031 C 
ATOM     69  C   UNL     1       0.805  -0.946  16.564  1.00  0.00     0.034 A 
BRANCH  56  70
ATOM     70  C   UNL     1       2.303   4.285  13.546  1.00  0.00     0.023 A 
ATOM     71  C   UNL     1       1.575   5.424  13.155  1.00  0.00     0.031 A 
ATOM     72  C   UNL     1       3.645   4.464  13.925  1.00  0.00     0.131 A 
ATOM     73  C   UNL     1       2.211   6.673  13.084  1.00  0.00     0.055 A 
ATOM     74  C   UNL     1       4.248   5.724  13.933  1.00  0.00     0.041 A 
ATOM     75  F   UNL     1       4.403   3.413  14.274  1.00  0.00    -0.206 F 
ATOM     76  C   UNL     1       3.534   6.836  13.497  1.00  0.00     0.022 A 
BRANCH  73  77
ATOM     77  S   UNL     1       1.332   8.054  12.299  1.00  0.00     0.124 S 
ATOM     78  O   UNL     1       1.077   7.519  10.963  1.00  0.00    -0.237 OA
ATOM     79  O   UNL     1       0.164   8.214  13.157  1.00  0.00    -0.237 OA
ATOM     80  O   UNL     1       2.299   9.149  12.349  1.00  0.00    -0.744 OA
ENDBRANCH  73  77
ENDBRANCH  56  70
BRANCH  57  81
ATOM     81  C   UNL     1      -1.575  -5.021  12.720  1.00  0.00     0.023 A 
ATOM     82  C   UNL     1      -2.709  -5.430  13.435  1.00  0.00     0.031 A 
ATOM     83  C   UNL     1      -0.931  -5.971  11.905  1.00  0.00     0.131 A 
ATOM     84  C   UNL     1      -3.138  -6.765  13.362  1.00  0.00     0.055 A 
ATOM     85  C   UNL     1      -1.397  -7.281  11.788  1.00  0.00     0.041 A 
ATOM     86  F   UNL     1       0.158  -5.633  11.196  1.00  0.00    -0.206 F 
ATOM     87  C   UNL     1      -2.499  -7.689  12.532  1.00  0.00     0.022 A 
BRANCH  84  88
ATOM     88  S   UNL     1      -4.487  -7.300  14.448  1.00  0.00     0.124 S 
ATOM     89  O   UNL     1      -3.964  -6.952  15.764  1.00  0.00    -0.237 OA
ATOM     90  O   UNL     1      -5.602  -6.492  13.966  1.00  0.00    -0.237 OA
ATOM     91  O   UNL     1      -4.593  -8.732  14.177  1.00  0.00    -0.744 OA
ENDBRANCH  84  88
ENDBRANCH  57  81
BRANCH  69  92
ATOM     92  C   UNL     1       0.913  -1.241  18.040  1.00  0.00     0.023 A 
ATOM     93  C   UNL     1       1.734  -2.269  18.531  1.00  0.00     0.031 A 
ATOM     94  C   UNL     1       0.164  -0.492  18.966  1.00  0.00     0.131 A 
ATOM     95  C   UNL     1       1.727  -2.572  19.899  1.00  0.00     0.055 A 
ATOM     96  C   UNL     1       0.225  -0.745  20.335  1.00  0.00     0.041 A 
ATOM     97  F   UNL     1      -0.640   0.501  18.552  1.00  0.00    -0.206 F 
ATOM     98  C   UNL     1       0.995  -1.803  20.807  1.00  0.00     0.022 A 
BRANCH  95  99
ATOM     99  S   UNL     1       2.582  -4.071  20.457  1.00  0.00     0.124 S 
ATOM    100  O   UNL     1       1.933  -5.104  19.655  1.00  0.00    -0.237 OA
ATOM    101  O   UNL     1       3.971  -3.781  20.120  1.00  0.00    -0.237 OA
ATOM    102  O   UNL     1       2.287  -4.120  21.888  1.00  0.00    -0.744 OA
ENDBRANCH  95  99
ENDBRANCH  69  92
ENDBRANCH  43  44
ENDBRANCH  36  38
ENDBRANCH  35  36
ENDBRANCH  34  35
ENDBRANCH  33  34
ENDBRANCH  32  33
ENDBRANCH  31  32
ENDBRANCH  30  31
ENDBRANCH   1  30
TORSDOF 26
