REMARK SMILES CCc1ccc(-c2cc(Cl)cc3c2O[C@@H](C(F)(F)F)C(C(=O)OCCOCCOCCOCCOC(=O)c2ccc(-c4c5nc(c(-c6cc(S(=O)(=O)[O-])ccc6F)c6ccc([nH]6)c(-c6cc(S(=O)(=O)[O-])ccc6F)c6nc(c(-c7cc(S(=O)(=O)[O-])ccc7F)c7ccc4[nH]7)C=C6)C=C5)cc2)=C3)cc1
REMARK SMILES IDX 30 1 29 2 28 3 27 4 26 5 25 6 24 7 23 8 21 9 22 10 20 11
REMARK SMILES IDX 7 12 8 13 13 14 9 15 12 16 14 17 10 18 11 19 101 20 15 21
REMARK SMILES IDX 6 22 3 23 4 24 103 25 5 26 102 27 2 28 1 29 16 30 17 31
REMARK SMILES IDX 18 32 19 33 31 34 32 35 33 36 34 37 35 38 36 39 37 40 38 41
REMARK SMILES IDX 39 42 100 43 40 44 99 45 41 46 42 47 43 48 93 49 44 50 98 51
REMARK SMILES IDX 92 52 94 53 45 54 97 55 91 56 90 57 46 59 78 60 58 61 77 62
REMARK SMILES IDX 59 63 62 64 76 65 95 66 60 67 61 68 75 70 96 71 63 72 47 73
REMARK SMILES IDX 48 74 56 75 49 76 55 77 57 78 54 79 50 80 51 81 52 82 53 83
REMARK SMILES IDX 79 84 80 85 88 86 81 87 87 88 89 89 86 90 82 91 83 92 84 93
REMARK SMILES IDX 85 94 64 95 65 96 73 97 66 98 72 99 74 100 71 101 67 102
REMARK SMILES IDX 68 103 69 104 70 105
REMARK H PARENT 94 58 62 69
REMARK Flexibility Score: inf
ROOT
ATOM      1  C   UNL     1       0.795   4.781  13.239  1.00  0.00     0.188 C 
ENDROOT
BRANCH   1   2
ATOM      2  O   UNL     1       0.521   5.575  12.090  1.00  0.00    -0.377 OA
BRANCH   2   3
ATOM      3  C   UNL     1       0.257   4.876  10.889  1.00  0.00     0.188 C 
BRANCH   3   4
ATOM      4  C   UNL     1       1.531   4.625  10.071  1.00  0.00     0.188 C 
BRANCH   4   5
ATOM      5  O   UNL     1       2.736   4.940  10.760  1.00  0.00    -0.376 OA
BRANCH   5   6
ATOM      6  C   UNL     1       3.262   6.261  10.639  1.00  0.00     0.202 C 
BRANCH   6   7
ATOM      7  C   UNL     1       2.300   7.457  10.694  1.00  0.00     0.261 C 
BRANCH   7   8
ATOM      8  O   UNL     1       1.391   7.432   9.570  1.00  0.00    -0.460 OA
BRANCH   8   9
ATOM      9  C   UNL     1       1.800   8.072   8.464  1.00  0.00     0.338 C 
ATOM     10  O   UNL     1       2.793   8.785   8.392  1.00  0.00    -0.246 OA
BRANCH   9  11
ATOM     11  C   UNL     1       1.026   7.680   7.259  1.00  0.00     0.087 C 
ATOM     12  C   UNL     1       1.226   3.644   6.313  1.00  0.00     0.026 A 
ATOM     13  C   UNL     1       2.484   3.171   6.758  1.00  0.00     0.033 A 
ATOM     14  C   UNL     1       1.007   5.031   6.444  1.00  0.00     0.135 A 
ATOM     15  C   UNL     1       3.538   4.046   7.018  1.00  0.00     0.042 A 
ATOM     16  C   UNL     1       2.121   5.887   6.470  1.00  0.00     0.019 A 
ATOM     17  O   UNL     1      -0.247   5.539   6.775  1.00  0.00    -0.475 OA
ATOM     18  Cl  UNL     1       5.054   3.427   7.535  1.00  0.00    -0.084 Cl
ATOM     19  C   UNL     1       3.388   5.401   6.773  1.00  0.00     0.032 A 
ATOM     20  C   UNL     1       1.890   7.336   6.287  1.00  0.00     0.027 C 
ATOM     21  C   UNL     1      -0.320   6.983   7.171  1.00  0.00     0.316 C 
BRANCH  12  22
ATOM     22  C   UNL     1       0.558   2.762   5.297  1.00  0.00    -0.015 A 
ATOM     23  C   UNL     1       0.297   0.978   3.057  1.00  0.00    -0.048 A 
ATOM     24  C   UNL     1       0.355   0.494   4.371  1.00  0.00     0.004 A 
ATOM     25  C   UNL     1       0.244   2.363   2.884  1.00  0.00     0.004 A 
ATOM     26  C   UNL     1       0.474   1.368   5.470  1.00  0.00     0.009 A 
ATOM     27  C   UNL     1       0.372   3.237   3.983  1.00  0.00     0.009 A 
BRANCH  23  28
ATOM     28  C   UNL     1       0.255  -0.005   1.904  1.00  0.00     0.032 C 
ATOM     29  C   UNL     1       0.952   0.420   0.613  1.00  0.00     0.009 C 
ENDBRANCH  23  28
ENDBRANCH  12  22
BRANCH  21  30
ATOM     30  C   UNL     1      -1.398   7.340   8.227  1.00  0.00     0.430 C 
ATOM     31  F   UNL     1      -1.877   8.589   7.973  1.00  0.00    -0.167 F 
ATOM     32  F   UNL     1      -2.461   6.503   8.149  1.00  0.00    -0.167 F 
ATOM     33  F   UNL     1      -0.995   7.349   9.503  1.00  0.00    -0.167 F 
ENDBRANCH  21  30
ENDBRANCH   9  11
ENDBRANCH   8   9
ENDBRANCH   7   8
ENDBRANCH   6   7
ENDBRANCH   5   6
ENDBRANCH   4   5
ENDBRANCH   3   4
ENDBRANCH   2   3
ENDBRANCH   1   2
BRANCH   1  34
ATOM     34  C   UNL     1       1.612   3.481  13.088  1.00  0.00     0.188 C 
BRANCH  34  35
ATOM     35  O   UNL     1       1.093   2.579  12.107  1.00  0.00    -0.376 OA
BRANCH  35  36
ATOM     36  C   UNL     1       0.404   1.432  12.587  1.00  0.00     0.202 C 
BRANCH  36  37
ATOM     37  C   UNL     1      -1.050   1.700  13.004  1.00  0.00     0.261 C 
BRANCH  37  38
ATOM     38  O   UNL     1      -1.206   2.586  14.122  1.00  0.00    -0.460 OA
BRANCH  38  39
ATOM     39  C   UNL     1      -0.603   2.220  15.275  1.00  0.00     0.338 C 
ATOM     40  O   UNL     1      -0.022   1.170  15.492  1.00  0.00    -0.246 OA
BRANCH  39  41
ATOM     41  C   UNL     1      -0.573   3.394  16.170  1.00  0.00     0.060 A 
ATOM     42  C   UNL     1       0.651   3.765  16.739  1.00  0.00     0.016 A 
ATOM     43  C   UNL     1      -1.734   4.124  16.439  1.00  0.00     0.016 A 
ATOM     44  C   UNL     1       0.706   4.834  17.631  1.00  0.00     0.010 A 
ATOM     45  C   UNL     1      -1.681   5.186  17.344  1.00  0.00     0.010 A 
ATOM     46  C   UNL     1      -0.469   5.513  17.978  1.00  0.00    -0.014 A 
BRANCH  46  47
ATOM     47  C   UNL     1      -0.469   6.386  19.175  1.00  0.00     0.031 A 
ATOM     48  C   UNL     1      -0.892   5.781  20.486  1.00  0.00     0.074 A 
ATOM     49  C   UNL     1      -0.082   7.671  19.109  1.00  0.00     0.049 A 
ATOM     50  N   UNL     1      -0.956   6.323  21.674  1.00  0.00    -0.248 NA
ATOM     51  C   UNL     1      -1.309   4.371  20.441  1.00  0.00     0.031 C 
ATOM     52  C   UNL     1       0.354   8.361  17.897  1.00  0.00     0.029 A 
ATOM     53  N   UNL     1      -0.004   8.626  20.091  1.00  0.00    -0.354 N 
ATOM     54  C   UNL     1      -1.415   5.319  22.520  1.00  0.00     0.074 A 
ATOM     55  C   UNL     1      -1.666   4.156  21.696  1.00  0.00     0.031 C 
ATOM     56  C   UNL     1       0.636   9.639  18.204  1.00  0.00     0.029 A 
ATOM     57  C   UNL     1       0.381   9.861  19.628  1.00  0.00     0.049 A 
ATOM     58  H   UNL     1      -0.206   8.444  21.037  1.00  0.00     0.167 HD
ATOM     59  C   UNL     1      -1.594   5.357  23.863  1.00  0.00     0.034 A 
ATOM     60  C   UNL     1       0.495  11.037  20.277  1.00  0.00     0.034 A 
ATOM     61  C   UNL     1      -1.369   6.536  24.662  1.00  0.00     0.049 A 
ATOM     62  C   UNL     1       0.228  11.083  21.762  1.00  0.00     0.074 A 
ATOM     63  C   UNL     1      -1.490   6.688  26.031  1.00  0.00     0.029 A 
ATOM     64  N   UNL     1      -1.000   7.777  24.156  1.00  0.00    -0.354 N 
ATOM     65  N   UNL     1      -0.151  10.115  22.566  1.00  0.00    -0.248 NA
ATOM     66  C   UNL     1       0.423  12.376  22.430  1.00  0.00     0.031 C 
ATOM     67  C   UNL     1      -1.272   8.036  26.343  1.00  0.00     0.029 A 
ATOM     68  C   UNL     1      -0.930   8.710  25.180  1.00  0.00     0.049 A 
ATOM     69  H   UNL     1      -0.814   7.967  23.208  1.00  0.00     0.167 HD
ATOM     70  C   UNL     1      -0.217  10.678  23.838  1.00  0.00     0.074 A 
ATOM     71  C   UNL     1       0.173  12.066  23.695  1.00  0.00     0.031 C 
ATOM     72  C   UNL     1      -0.560  10.098  25.019  1.00  0.00     0.034 A 
BRANCH  59  73
ATOM     73  C   UNL     1      -2.115   4.099  24.519  1.00  0.00     0.023 A 
ATOM     74  C   UNL     1      -1.397   2.889  24.472  1.00  0.00     0.031 A 
ATOM     75  C   UNL     1      -3.382   4.086  25.126  1.00  0.00     0.131 A 
ATOM     76  C   UNL     1      -1.991   1.703  24.928  1.00  0.00     0.055 A 
ATOM     77  C   UNL     1      -3.930   2.918  25.663  1.00  0.00     0.041 A 
ATOM     78  F   UNL     1      -4.126   5.201  25.180  1.00  0.00    -0.206 F 
ATOM     79  C   UNL     1      -3.243   1.713  25.546  1.00  0.00     0.022 A 
BRANCH  76  80
ATOM     80  S   UNL     1      -1.189   0.124  24.529  1.00  0.00     0.124 S 
ATOM     81  O   UNL     1      -1.083   0.205  23.074  1.00  0.00    -0.237 OA
ATOM     82  O   UNL     1       0.065   0.213  25.268  1.00  0.00    -0.237 OA
ATOM     83  O   UNL     1      -2.135  -0.875  25.021  1.00  0.00    -0.744 OA
ENDBRANCH  76  80
ENDBRANCH  59  73
BRANCH  60  84
ATOM     84  C   UNL     1       0.838  12.274  19.519  1.00  0.00     0.023 A 
ATOM     85  C   UNL     1       2.054  12.947  19.716  1.00  0.00     0.031 A 
ATOM     86  C   UNL     1      -0.070  12.809  18.587  1.00  0.00     0.131 A 
ATOM     87  C   UNL     1       2.317  14.133  19.011  1.00  0.00     0.055 A 
ATOM     88  C   UNL     1       0.214  13.963  17.857  1.00  0.00     0.041 A 
ATOM     89  F   UNL     1      -1.246  12.201  18.360  1.00  0.00    -0.206 F 
ATOM     90  C   UNL     1       1.411  14.637  18.074  1.00  0.00     0.022 A 
BRANCH  87  91
ATOM     91  S   UNL     1       3.846  15.041  19.370  1.00  0.00     0.124 S 
ATOM     92  O   UNL     1       3.675  15.367  20.782  1.00  0.00    -0.237 OA
ATOM     93  O   UNL     1       4.869  14.049  19.060  1.00  0.00    -0.237 OA
ATOM     94  O   UNL     1       3.789  16.180  18.455  1.00  0.00    -0.744 OA
ENDBRANCH  87  91
ENDBRANCH  60  84
BRANCH  72  95
ATOM     95  C   UNL     1      -0.491  10.961  26.257  1.00  0.00     0.023 A 
ATOM     96  C   UNL     1      -1.364  12.045  26.457  1.00  0.00     0.031 A 
ATOM     97  C   UNL     1       0.463  10.689  27.255  1.00  0.00     0.131 A 
ATOM     98  C   UNL     1      -1.233  12.846  27.603  1.00  0.00     0.055 A 
ATOM     99  C   UNL     1       0.549  11.452  28.420  1.00  0.00     0.041 A 
ATOM    100  F   UNL     1       1.323   9.667  27.116  1.00  0.00    -0.206 F 
ATOM    101  C   UNL     1      -0.294  12.545  28.593  1.00  0.00     0.022 A 
BRANCH  98 102
ATOM    102  S   UNL     1      -2.249  14.342  27.745  1.00  0.00     0.124 S 
ATOM    103  O   UNL     1      -1.871  15.080  26.544  1.00  0.00    -0.237 OA
ATOM    104  O   UNL     1      -3.604  13.800  27.761  1.00  0.00    -0.237 OA
ATOM    105  O   UNL     1      -1.806  14.940  29.003  1.00  0.00    -0.744 OA
ENDBRANCH  98 102
ENDBRANCH  72  95
ENDBRANCH  46  47
ENDBRANCH  39  41
ENDBRANCH  38  39
ENDBRANCH  37  38
ENDBRANCH  36  37
ENDBRANCH  35  36
ENDBRANCH  34  35
ENDBRANCH   1  34
TORSDOF 26
