REMARK SMILES CC(C)C[C@H](C(=O)OCCOCCOCCOCCOC(=O)c1ccc(-c2c3nc(c(-c4cc(S(=O)(=O)[O-])ccc4F)c4ccc([nH]4)c(-c4cc(S(=O)(=O)[O-])ccc4F)c4nc(c(-c5cc(S(=O)(=O)[O-])ccc5F)c5ccc2[nH]5)C=C4)C=C3)cc1)[C@@H]1CCO[C@]2(CCOC2)C1
REMARK SMILES IDX 15 1 14 2 13 3 12 4 11 5 10 6 9 7 8 8 6 9 7 10 5 11 4 12
REMARK SMILES IDX 2 13 1 14 3 15 86 16 87 17 95 18 88 19 90 20 89 21 91 22
REMARK SMILES IDX 94 23 92 24 93 25 16 26 17 27 18 28 19 29 20 30 21 31 22 32
REMARK SMILES IDX 23 33 24 34 85 35 25 36 84 37 26 38 27 39 28 40 78 41 29 42
REMARK SMILES IDX 83 43 77 44 79 45 30 46 82 47 76 48 75 49 31 51 63 52 43 53
REMARK SMILES IDX 62 54 44 55 47 56 61 57 80 58 45 59 46 60 60 62 81 63 48 64
REMARK SMILES IDX 32 65 33 66 41 67 34 68 40 69 42 70 39 71 35 72 36 73 37 74
REMARK SMILES IDX 38 75 64 76 65 77 73 78 66 79 72 80 74 81 71 82 67 83 68 84
REMARK SMILES IDX 69 85 70 86 49 87 50 88 58 89 51 90 57 91 59 92 56 93 52 94
REMARK SMILES IDX 53 95 54 96 55 97
REMARK H PARENT 79 50 47 61
REMARK Flexibility Score: inf
ROOT
ATOM      1  C   UNL     1      -0.016  -5.542  -1.423  1.00  0.00     0.188 C 
ENDROOT
BRANCH   1   2
ATOM      2  O   UNL     1      -0.505  -4.282  -1.017  1.00  0.00    -0.377 OA
BRANCH   2   3
ATOM      3  C   UNL     1       0.013  -3.183  -1.733  1.00  0.00     0.188 C 
BRANCH   3   4
ATOM      4  C   UNL     1       1.080  -2.356  -0.974  1.00  0.00     0.188 C 
BRANCH   4   5
ATOM      5  O   UNL     1       1.308  -2.565   0.413  1.00  0.00    -0.376 OA
BRANCH   5   6
ATOM      6  C   UNL     1       0.248  -3.048   1.221  1.00  0.00     0.202 C 
BRANCH   6   7
ATOM      7  C   UNL     1      -1.096  -2.288   1.242  1.00  0.00     0.261 C 
BRANCH   7   8
ATOM      8  O   UNL     1      -1.554  -1.685   0.008  1.00  0.00    -0.463 OA
BRANCH   8   9
ATOM      9  C   UNL     1      -1.238  -0.381  -0.193  1.00  0.00     0.309 C 
ATOM     10  O   UNL     1      -0.613   0.309   0.606  1.00  0.00    -0.252 OA
BRANCH   9  11
ATOM     11  C   UNL     1      -1.796   0.212  -1.512  1.00  0.00     0.103 C 
BRANCH  11  12
ATOM     12  C   UNL     1      -1.260  -0.410  -2.832  1.00  0.00     0.018 C 
BRANCH  12  13
ATOM     13  C   UNL     1      -1.127   0.443  -4.123  1.00  0.00    -0.017 C 
ATOM     14  C   UNL     1      -0.294   1.717  -3.964  1.00  0.00     0.007 C 
ATOM     15  C   UNL     1      -0.486  -0.392  -5.244  1.00  0.00     0.007 C 
ENDBRANCH  12  13
ENDBRANCH  11  12
BRANCH  11  16
ATOM     16  C   UNL     1      -3.327   0.384  -1.336  1.00  0.00     0.008 C 
ATOM     17  C   UNL     1      -4.141   0.604  -2.612  1.00  0.00     0.033 C 
ATOM     18  C   UNL     1      -3.664   1.528  -0.339  1.00  0.00     0.042 C 
ATOM     19  C   UNL     1      -4.001   2.024  -3.138  1.00  0.00     0.161 C 
ATOM     20  C   UNL     1      -3.615   2.949  -0.954  1.00  0.00     0.094 C 
ATOM     21  O   UNL     1      -4.377   2.986  -2.164  1.00  0.00    -0.372 OA
ATOM     22  C   UNL     1      -2.234   3.587  -1.080  1.00  0.00     0.066 C 
ATOM     23  C   UNL     1      -4.232   3.979   0.000  1.00  0.00     0.195 C 
ATOM     24  C   UNL     1      -1.947   4.133   0.302  1.00  0.00     0.163 C 
ATOM     25  O   UNL     1      -3.210   4.404   0.912  1.00  0.00    -0.378 OA
ENDBRANCH  11  16
ENDBRANCH   9  11
ENDBRANCH   8   9
ENDBRANCH   7   8
ENDBRANCH   6   7
ENDBRANCH   5   6
ENDBRANCH   4   5
ENDBRANCH   3   4
ENDBRANCH   2   3
ENDBRANCH   1   2
BRANCH   1  26
ATOM     26  C   UNL     1       1.516  -5.660  -1.484  1.00  0.00     0.188 C 
BRANCH  26  27
ATOM     27  O   UNL     1       2.136  -4.650  -2.274  1.00  0.00    -0.376 OA
BRANCH  27  28
ATOM     28  C   UNL     1       2.536  -4.944  -3.603  1.00  0.00     0.202 C 
BRANCH  28  29
ATOM     29  C   UNL     1       1.438  -5.092  -4.673  1.00  0.00     0.261 C 
BRANCH  29  30
ATOM     30  O   UNL     1       0.396  -6.037  -4.398  1.00  0.00    -0.460 OA
BRANCH  30  31
ATOM     31  C   UNL     1       0.765  -7.325  -4.220  1.00  0.00     0.338 C 
ATOM     32  O   UNL     1       1.893  -7.776  -4.329  1.00  0.00    -0.246 OA
BRANCH  31  33
ATOM     33  C   UNL     1      -0.385  -8.050  -3.636  1.00  0.00     0.060 A 
ATOM     34  C   UNL     1      -0.217  -8.667  -2.389  1.00  0.00     0.016 A 
ATOM     35  C   UNL     1      -1.628  -8.072  -4.274  1.00  0.00     0.016 A 
ATOM     36  C   UNL     1      -1.285  -9.327  -1.784  1.00  0.00     0.010 A 
ATOM     37  C   UNL     1      -2.687  -8.775  -3.689  1.00  0.00     0.010 A 
ATOM     38  C   UNL     1      -2.507  -9.431  -2.458  1.00  0.00    -0.014 A 
BRANCH  38  39
ATOM     39  C   UNL     1      -3.490 -10.439  -1.994  1.00  0.00     0.031 A 
ATOM     40  C   UNL     1      -3.430 -11.806  -2.620  1.00  0.00     0.074 A 
ATOM     41  C   UNL     1      -4.367 -10.174  -1.010  1.00  0.00     0.049 A 
ATOM     42  N   UNL     1      -4.187 -12.850  -2.414  1.00  0.00    -0.248 NA
ATOM     43  C   UNL     1      -2.365 -12.019  -3.615  1.00  0.00     0.031 C 
ATOM     44  C   UNL     1      -4.462  -8.912  -0.280  1.00  0.00     0.029 A 
ATOM     45  N   UNL     1      -5.343 -10.961  -0.454  1.00  0.00    -0.354 N 
ATOM     46  C   UNL     1      -3.699 -13.840  -3.261  1.00  0.00     0.074 A 
ATOM     47  C   UNL     1      -2.598 -13.264  -3.999  1.00  0.00     0.031 C 
ATOM     48  C   UNL     1      -5.450  -9.010   0.628  1.00  0.00     0.029 A 
ATOM     49  C   UNL     1      -6.083 -10.323   0.513  1.00  0.00     0.049 A 
ATOM     50  H   UNL     1      -5.500 -11.895  -0.723  1.00  0.00     0.167 HD
ATOM     51  C   UNL     1      -4.133 -15.114  -3.406  1.00  0.00     0.034 A 
ATOM     52  C   UNL     1      -7.163 -10.745   1.204  1.00  0.00     0.034 A 
ATOM     53  C   UNL     1      -5.239 -15.667  -2.667  1.00  0.00     0.049 A 
ATOM     54  C   UNL     1      -7.691 -12.139   0.954  1.00  0.00     0.074 A 
ATOM     55  C   UNL     1      -5.755 -16.949  -2.724  1.00  0.00     0.029 A 
ATOM     56  N   UNL     1      -6.013 -14.968  -1.749  1.00  0.00    -0.354 N 
ATOM     57  N   UNL     1      -7.233 -13.065   0.142  1.00  0.00    -0.248 NA
ATOM     58  C   UNL     1      -8.880 -12.544   1.715  1.00  0.00     0.031 C 
ATOM     59  C   UNL     1      -6.892 -16.999  -1.913  1.00  0.00     0.029 A 
ATOM     60  C   UNL     1      -7.028 -15.780  -1.267  1.00  0.00     0.049 A 
ATOM     61  H   UNL     1      -5.862 -14.033  -1.479  1.00  0.00     0.167 HD
ATOM     62  C   UNL     1      -8.058 -14.173   0.323  1.00  0.00     0.074 A 
ATOM     63  C   UNL     1      -9.035 -13.801   1.326  1.00  0.00     0.031 C 
ATOM     64  C   UNL     1      -8.006 -15.391  -0.277  1.00  0.00     0.034 A 
BRANCH  51  65
ATOM     65  C   UNL     1      -3.460 -15.965  -4.455  1.00  0.00     0.023 A 
ATOM     66  C   UNL     1      -2.108 -16.337  -4.364  1.00  0.00     0.031 A 
ATOM     67  C   UNL     1      -4.188 -16.395  -5.579  1.00  0.00     0.131 A 
ATOM     68  C   UNL     1      -1.513 -17.068  -5.404  1.00  0.00     0.055 A 
ATOM     69  C   UNL     1      -3.612 -17.189  -6.570  1.00  0.00     0.041 A 
ATOM     70  F   UNL     1      -5.474 -16.041  -5.736  1.00  0.00    -0.206 F 
ATOM     71  C   UNL     1      -2.263 -17.521  -6.492  1.00  0.00     0.022 A 
BRANCH  68  72
ATOM     72  S   UNL     1       0.285 -17.307  -5.382  1.00  0.00     0.124 S 
ATOM     73  O   UNL     1       0.766 -15.928  -5.375  1.00  0.00    -0.237 OA
ATOM     74  O   UNL     1       0.488 -18.061  -4.151  1.00  0.00    -0.237 OA
ATOM     75  O   UNL     1       0.547 -18.044  -6.617  1.00  0.00    -0.744 OA
ENDBRANCH  68  72
ENDBRANCH  51  65
BRANCH  52  76
ATOM     76  C   UNL     1      -7.846  -9.833   2.166  1.00  0.00     0.023 A 
ATOM     77  C   UNL     1      -7.904 -10.130   3.537  1.00  0.00     0.031 A 
ATOM     78  C   UNL     1      -8.489  -8.664   1.718  1.00  0.00     0.131 A 
ATOM     79  C   UNL     1      -8.616  -9.287   4.406  1.00  0.00     0.055 A 
ATOM     80  C   UNL     1      -9.152  -7.803   2.594  1.00  0.00     0.041 A 
ATOM     81  F   UNL     1      -8.472  -8.337   0.416  1.00  0.00    -0.206 F 
ATOM     82  C   UNL     1      -9.226  -8.118   3.946  1.00  0.00     0.022 A 
BRANCH  79  83
ATOM     83  S   UNL     1      -8.795  -9.779   6.143  1.00  0.00     0.124 S 
ATOM     84  O   UNL     1      -9.495 -11.052   6.020  1.00  0.00    -0.237 OA
ATOM     85  O   UNL     1      -7.405  -9.850   6.582  1.00  0.00    -0.237 OA
ATOM     86  O   UNL     1      -9.575  -8.690   6.726  1.00  0.00    -0.744 OA
ENDBRANCH  79  83
ENDBRANCH  52  76
BRANCH  64  87
ATOM     87  C   UNL     1      -9.007 -16.430   0.171  1.00  0.00     0.023 A 
ATOM     88  C   UNL     1     -10.387 -16.281  -0.051  1.00  0.00     0.031 A 
ATOM     89  C   UNL     1      -8.567 -17.596   0.826  1.00  0.00     0.131 A 
ATOM     90  C   UNL     1     -11.281 -17.251   0.428  1.00  0.00     0.055 A 
ATOM     91  C   UNL     1      -9.454 -18.591   1.236  1.00  0.00     0.041 A 
ATOM     92  F   UNL     1      -7.261 -17.792   1.069  1.00  0.00    -0.206 F 
ATOM     93  C   UNL     1     -10.822 -18.415   1.050  1.00  0.00     0.022 A 
BRANCH  90  94
ATOM     94  S   UNL     1     -13.061 -16.924   0.319  1.00  0.00     0.124 S 
ATOM     95  O   UNL     1     -13.183 -15.669   1.054  1.00  0.00    -0.237 OA
ATOM     96  O   UNL     1     -13.277 -16.843  -1.122  1.00  0.00    -0.237 OA
ATOM     97  O   UNL     1     -13.664 -18.085   0.971  1.00  0.00    -0.744 OA
ENDBRANCH  90  94
ENDBRANCH  64  87
ENDBRANCH  38  39
ENDBRANCH  31  33
ENDBRANCH  30  31
ENDBRANCH  29  30
ENDBRANCH  28  29
ENDBRANCH  27  28
ENDBRANCH  26  27
ENDBRANCH   1  26
TORSDOF 26
