REMARK SMILES Cc1occc1C(=O)N[C@@H](C)CC(=O)OCCOCCOCCOCCOC(=O)c1ccc(-c2c3nc(c(-c4cc(S(=O)(=O)[O-])ccc4F)c4ccc([nH]4)c(-c4cc(S(=O)(=O)[O-])ccc4F)c4nc(c(-c5cc(S(=O)(=O)[O-])ccc5F)c5ccc2[nH]5)C=C4)C=C3)cc1
REMARK SMILES IDX 21 1 20 2 19 3 18 4 17 5 16 6 15 7 13 8 14 9 12 10 10 11
REMARK SMILES IDX 11 12 9 13 7 14 8 15 6 17 1 18 2 19 3 20 4 21 5 22 22 23
REMARK SMILES IDX 23 24 24 25 25 26 26 27 27 28 28 29 29 30 30 31 31 32 92 33
REMARK SMILES IDX 32 34 91 35 33 36 34 37 35 38 85 39 36 40 90 41 84 42 86 43
REMARK SMILES IDX 37 44 89 45 83 46 82 47 38 49 70 50 50 51 69 52 51 53 54 54
REMARK SMILES IDX 68 55 87 56 52 57 53 58 67 60 88 61 55 62 39 63 40 64 48 65
REMARK SMILES IDX 41 66 47 67 49 68 46 69 42 70 43 71 44 72 45 73 71 74 72 75
REMARK SMILES IDX 80 76 73 77 79 78 81 79 78 80 74 81 75 82 76 83 77 84 56 85
REMARK SMILES IDX 57 86 65 87 58 88 64 89 66 90 63 91 59 92 60 93 61 94 62 95
REMARK H PARENT 9 16 86 48 54 59
REMARK Flexibility Score: inf
ROOT
ATOM      1  O   UNL     1       0.016  -1.418  -2.781  1.00  0.00    -0.377 OA
ENDROOT
BRANCH   1   2
ATOM      2  C   UNL     1       1.169  -0.729  -2.367  1.00  0.00     0.188 C 
BRANCH   2   3
ATOM      3  C   UNL     1       2.107  -0.249  -3.476  1.00  0.00     0.188 C 
BRANCH   3   4
ATOM      4  O   UNL     1       2.177  -0.893  -4.743  1.00  0.00    -0.376 OA
BRANCH   4   5
ATOM      5  C   UNL     1       1.392  -2.045  -4.998  1.00  0.00     0.202 C 
BRANCH   5   6
ATOM      6  C   UNL     1       1.896  -3.360  -4.379  1.00  0.00     0.261 C 
BRANCH   6   7
ATOM      7  O   UNL     1       2.276  -3.342  -2.985  1.00  0.00    -0.463 OA
BRANCH   7   8
ATOM      8  C   UNL     1       3.591  -3.154  -2.715  1.00  0.00     0.307 C 
ATOM      9  O   UNL     1       4.451  -2.921  -3.559  1.00  0.00    -0.252 OA
BRANCH   8  10
ATOM     10  C   UNL     1       3.959  -3.406  -1.262  1.00  0.00     0.147 C 
BRANCH  10  11
ATOM     11  C   UNL     1       3.138  -2.761  -0.129  1.00  0.00     0.090 C 
ATOM     12  C   UNL     1       3.870  -2.983   1.200  1.00  0.00     0.031 C 
BRANCH  11  13
ATOM     13  N   UNL     1       1.802  -3.316  -0.009  1.00  0.00    -0.349 N 
ATOM     14  C   UNL     1       0.613  -2.900   0.524  1.00  0.00     0.255 C 
ATOM     15  O   UNL     1      -0.264  -3.771   0.508  1.00  0.00    -0.269 OA
ATOM     16  H   UNL     1       1.736  -4.213  -0.410  1.00  0.00     0.164 HD
BRANCH  14  17
ATOM     17  C   UNL     1       0.291  -1.581   1.083  1.00  0.00     0.080 A 
ATOM     18  C   UNL     1       2.309   0.197   1.155  1.00  0.00     0.088 C 
ATOM     19  C   UNL     1       0.960  -0.381   1.320  1.00  0.00     0.113 A 
ATOM     20  O   UNL     1       0.098   0.547   1.848  1.00  0.00    -0.469 OA
ATOM     21  C   UNL     1      -1.112  -0.025   1.984  1.00  0.00     0.196 A 
ATOM     22  C   UNL     1      -1.058  -1.314   1.537  1.00  0.00     0.056 A 
ENDBRANCH  14  17
ENDBRANCH  11  13
ENDBRANCH  10  11
ENDBRANCH   8  10
ENDBRANCH   7   8
ENDBRANCH   6   7
ENDBRANCH   5   6
ENDBRANCH   4   5
ENDBRANCH   3   4
ENDBRANCH   2   3
ENDBRANCH   1   2
BRANCH   1  23
ATOM     23  C   UNL     1      -1.201  -0.728  -2.584  1.00  0.00     0.188 C 
BRANCH  23  24
ATOM     24  C   UNL     1      -1.355   0.538  -3.438  1.00  0.00     0.188 C 
BRANCH  24  25
ATOM     25  O   UNL     1      -0.519   1.655  -3.162  1.00  0.00    -0.376 OA
BRANCH  25  26
ATOM     26  C   UNL     1      -0.471   2.275  -1.885  1.00  0.00     0.202 C 
BRANCH  26  27
ATOM     27  C   UNL     1      -1.689   2.416  -0.963  1.00  0.00     0.261 C 
BRANCH  27  28
ATOM     28  O   UNL     1      -2.438   1.214  -0.748  1.00  0.00    -0.460 OA
BRANCH  28  29
ATOM     29  C   UNL     1      -3.701   1.228  -1.231  1.00  0.00     0.338 C 
ATOM     30  O   UNL     1      -4.258   2.170  -1.783  1.00  0.00    -0.246 OA
BRANCH  29  31
ATOM     31  C   UNL     1      -4.278  -0.128  -1.197  1.00  0.00     0.060 A 
ATOM     32  C   UNL     1      -4.674  -0.695  -2.415  1.00  0.00     0.016 A 
ATOM     33  C   UNL     1      -4.506  -0.805   0.003  1.00  0.00     0.016 A 
ATOM     34  C   UNL     1      -5.343  -1.916  -2.436  1.00  0.00     0.010 A 
ATOM     35  C   UNL     1      -5.194  -2.026  -0.018  1.00  0.00     0.010 A 
ATOM     36  C   UNL     1      -5.657  -2.563  -1.235  1.00  0.00    -0.014 A 
BRANCH  36  37
ATOM     37  C   UNL     1      -6.661  -3.660  -1.258  1.00  0.00     0.031 A 
ATOM     38  C   UNL     1      -8.086  -3.332  -0.893  1.00  0.00     0.074 A 
ATOM     39  C   UNL     1      -6.343  -4.897  -1.680  1.00  0.00     0.049 A 
ATOM     40  N   UNL     1      -9.139  -4.108  -0.859  1.00  0.00    -0.248 NA
ATOM     41  C   UNL     1      -8.355  -1.936  -0.514  1.00  0.00     0.031 C 
ATOM     42  C   UNL     1      -5.016  -5.324  -2.121  1.00  0.00     0.029 A 
ATOM     43  N   UNL     1      -7.121  -6.021  -1.816  1.00  0.00    -0.354 N 
ATOM     44  C   UNL     1     -10.195  -3.296  -0.458  1.00  0.00     0.074 A 
ATOM     45  C   UNL     1      -9.642  -1.982  -0.208  1.00  0.00     0.031 C 
ATOM     46  C   UNL     1      -5.075  -6.617  -2.486  1.00  0.00     0.029 A 
ATOM     47  C   UNL     1      -6.431  -7.122  -2.268  1.00  0.00     0.049 A 
ATOM     48  H   UNL     1      -8.083  -6.037  -1.610  1.00  0.00     0.167 HD
ATOM     49  C   UNL     1     -11.508  -3.609  -0.326  1.00  0.00     0.034 A 
ATOM     50  C   UNL     1      -6.842  -8.392  -2.464  1.00  0.00     0.034 A 
ATOM     51  C   UNL     1     -12.046  -4.926  -0.563  1.00  0.00     0.049 A 
ATOM     52  C   UNL     1      -8.287  -8.748  -2.194  1.00  0.00     0.074 A 
ATOM     53  C   UNL     1     -13.359  -5.352  -0.458  1.00  0.00     0.029 A 
ATOM     54  N   UNL     1     -11.300  -6.035  -0.940  1.00  0.00    -0.354 N 
ATOM     55  N   UNL     1      -9.276  -7.971  -1.814  1.00  0.00    -0.248 NA
ATOM     56  C   UNL     1      -8.670 -10.153  -2.386  1.00  0.00     0.031 C 
ATOM     57  C   UNL     1     -13.393  -6.731  -0.687  1.00  0.00     0.029 A 
ATOM     58  C   UNL     1     -12.118  -7.152  -1.031  1.00  0.00     0.049 A 
ATOM     59  H   UNL     1     -10.331  -6.030  -1.117  1.00  0.00     0.167 HD
ATOM     60  C   UNL     1     -10.404  -8.789  -1.761  1.00  0.00     0.074 A 
ATOM     61  C   UNL     1      -9.975 -10.113  -2.159  1.00  0.00     0.031 C 
ATOM     62  C   UNL     1     -11.681  -8.473  -1.421  1.00  0.00     0.034 A 
BRANCH  49  63
ATOM     63  C   UNL     1     -12.435  -2.514   0.150  1.00  0.00     0.023 A 
ATOM     64  C   UNL     1     -12.639  -1.340  -0.597  1.00  0.00     0.031 A 
ATOM     65  C   UNL     1     -13.090  -2.627   1.389  1.00  0.00     0.131 A 
ATOM     66  C   UNL     1     -13.408  -0.295  -0.062  1.00  0.00     0.055 A 
ATOM     67  C   UNL     1     -13.928  -1.621   1.874  1.00  0.00     0.041 A 
ATOM     68  F   UNL     1     -12.915  -3.712   2.159  1.00  0.00    -0.206 F 
ATOM     69  C   UNL     1     -14.076  -0.438   1.155  1.00  0.00     0.022 A 
BRANCH  66  70
ATOM     70  S   UNL     1     -13.383   1.314  -0.900  1.00  0.00     0.124 S 
ATOM     71  O   UNL     1     -11.955   1.623  -0.902  1.00  0.00    -0.237 OA
ATOM     72  O   UNL     1     -13.972   1.003  -2.197  1.00  0.00    -0.237 OA
ATOM     73  O   UNL     1     -14.195   2.164  -0.032  1.00  0.00    -0.744 OA
ENDBRANCH  66  70
ENDBRANCH  49  63
BRANCH  50  74
ATOM     74  C   UNL     1      -5.877  -9.444  -2.903  1.00  0.00     0.023 A 
ATOM     75  C   UNL     1      -6.053 -10.134  -4.114  1.00  0.00     0.031 A 
ATOM     76  C   UNL     1      -4.803  -9.826  -2.080  1.00  0.00     0.131 A 
ATOM     77  C   UNL     1      -5.201 -11.201  -4.443  1.00  0.00     0.055 A 
ATOM     78  C   UNL     1      -3.921 -10.847  -2.440  1.00  0.00     0.041 A 
ATOM     79  F   UNL     1      -4.593  -9.210  -0.906  1.00  0.00    -0.206 F 
ATOM     80  C   UNL     1      -4.127 -11.551  -3.622  1.00  0.00     0.022 A 
BRANCH  77  81
ATOM     81  S   UNL     1      -5.579 -12.194  -5.913  1.00  0.00     0.124 S 
ATOM     82  O   UNL     1      -6.920 -12.678  -5.607  1.00  0.00    -0.237 OA
ATOM     83  O   UNL     1      -5.480 -11.206  -6.981  1.00  0.00    -0.237 OA
ATOM     84  O   UNL     1      -4.532 -13.214  -5.912  1.00  0.00    -0.744 OA
ENDBRANCH  77  81
ENDBRANCH  50  74
BRANCH  62  85
ATOM     85  C   UNL     1     -12.719  -9.568  -1.517  1.00  0.00     0.023 A 
ATOM     86  C   UNL     1     -12.681 -10.707  -0.694  1.00  0.00     0.031 A 
ATOM     87  C   UNL     1     -13.764  -9.470  -2.455  1.00  0.00     0.131 A 
ATOM     88  C   UNL     1     -13.632 -11.726  -0.862  1.00  0.00     0.055 A 
ATOM     89  C   UNL     1     -14.747 -10.454  -2.571  1.00  0.00     0.041 A 
ATOM     90  F   UNL     1     -13.851  -8.408  -3.272  1.00  0.00    -0.206 F 
ATOM     91  C   UNL     1     -14.676 -11.597  -1.781  1.00  0.00     0.022 A 
BRANCH  88  92
ATOM     92  S   UNL     1     -13.429 -13.272   0.065  1.00  0.00     0.124 S 
ATOM     93  O   UNL     1     -12.102 -13.708  -0.357  1.00  0.00    -0.237 OA
ATOM     94  O   UNL     1     -13.542 -12.823   1.449  1.00  0.00    -0.237 OA
ATOM     95  O   UNL     1     -14.535 -14.104  -0.407  1.00  0.00    -0.744 OA
ENDBRANCH  88  92
ENDBRANCH  62  85
ENDBRANCH  36  37
ENDBRANCH  29  31
ENDBRANCH  28  29
ENDBRANCH  27  28
ENDBRANCH  26  27
ENDBRANCH  25  26
ENDBRANCH  24  25
ENDBRANCH  23  24
ENDBRANCH   1  23
TORSDOF 26
