REMARK SMILES CCC[C@H](NC(=O)Cn1cccc1C(=O)OCCOCCOCCOCCOC(=O)c1ccc(-c2c3nc(c(-c4cc(S(=O)(=O)[O-])ccc4F)c4ccc([nH]4)c(-c4cc(S(=O)(=O)[O-])ccc4F)c4nc(c(-c5cc(S(=O)(=O)[O-])ccc5F)c5ccc2[nH]5)C=C4)C=C3)cc1)c1cccs1
REMARK SMILES IDX 21 1 20 2 19 3 18 4 17 5 16 6 14 7 15 8 13 9 9 10 10 11
REMARK SMILES IDX 11 12 12 13 8 14 6 15 5 16 7 18 4 19 3 20 2 21 1 22 94 23
REMARK SMILES IDX 95 24 98 25 96 26 97 27 22 28 23 29 24 30 25 31 26 32 27 33
REMARK SMILES IDX 28 34 29 35 30 36 31 37 32 38 93 39 33 40 92 41 34 42 35 43
REMARK SMILES IDX 36 44 86 45 37 46 91 47 85 48 87 49 38 50 90 51 84 52 83 53
REMARK SMILES IDX 39 55 71 56 51 57 70 58 52 59 55 60 69 61 88 62 53 63 54 64
REMARK SMILES IDX 68 66 89 67 56 68 40 69 41 70 49 71 42 72 48 73 50 74 47 75
REMARK SMILES IDX 43 76 44 77 45 78 46 79 72 80 73 81 81 82 74 83 80 84 82 85
REMARK SMILES IDX 79 86 75 87 76 88 77 89 78 90 57 91 58 92 66 93 59 94 65 95
REMARK SMILES IDX 67 96 64 97 60 98 61 99 62 100 63 101
REMARK H PARENT 5 17 87 54 55 65
REMARK Flexibility Score: inf
ROOT
ATOM      1  C   UNL     1      -4.872  -0.381  -4.735  1.00  0.00     0.188 C 
ENDROOT
BRANCH   1   2
ATOM      2  C   UNL     1      -5.468  -1.811  -4.785  1.00  0.00     0.188 C 
BRANCH   2   3
ATOM      3  O   UNL     1      -6.146  -2.420  -3.685  1.00  0.00    -0.376 OA
BRANCH   3   4
ATOM      4  C   UNL     1      -6.110  -1.838  -2.395  1.00  0.00     0.202 C 
BRANCH   4   5
ATOM      5  C   UNL     1      -4.785  -1.961  -1.637  1.00  0.00     0.261 C 
BRANCH   5   6
ATOM      6  O   UNL     1      -3.627  -1.741  -2.453  1.00  0.00    -0.459 OA
BRANCH   6   7
ATOM      7  C   UNL     1      -3.117  -2.851  -3.056  1.00  0.00     0.355 C 
ATOM      8  O   UNL     1      -3.473  -3.995  -2.820  1.00  0.00    -0.244 OA
BRANCH   7   9
ATOM      9  C   UNL     1      -2.148  -2.484  -4.084  1.00  0.00     0.128 A 
ATOM     10  N   UNL     1      -1.349  -1.356  -4.204  1.00  0.00    -0.333 N 
ATOM     11  C   UNL     1      -0.745  -1.357  -5.444  1.00  0.00     0.087 A 
ATOM     12  C   UNL     1      -1.024  -2.549  -6.064  1.00  0.00     0.020 A 
ATOM     13  C   UNL     1      -1.872  -3.268  -5.200  1.00  0.00     0.035 A 
BRANCH  10  14
ATOM     14  C   UNL     1      -1.196  -0.245  -3.274  1.00  0.00     0.222 C 
BRANCH  14  15
ATOM     15  C   UNL     1       0.232   0.025  -2.838  1.00  0.00     0.240 C 
ATOM     16  N   UNL     1       0.945  -0.799  -2.021  1.00  0.00    -0.347 N 
ATOM     17  H   UNL     1       1.736  -0.363  -1.630  1.00  0.00     0.164 HD
ATOM     18  O   UNL     1       0.789   1.080  -3.165  1.00  0.00    -0.273 OA
BRANCH  16  19
ATOM     19  C   UNL     1       0.792  -2.196  -1.595  1.00  0.00     0.122 C 
BRANCH  19  20
ATOM     20  C   UNL     1      -0.614  -2.533  -1.078  1.00  0.00     0.030 C 
BRANCH  20  21
ATOM     21  C   UNL     1      -0.702  -3.294   0.243  1.00  0.00    -0.001 C 
ATOM     22  C   UNL     1      -0.468  -2.395   1.443  1.00  0.00     0.004 C 
ENDBRANCH  20  21
ENDBRANCH  19  20
BRANCH  19  23
ATOM     23  C   UNL     1       1.291  -3.112  -2.707  1.00  0.00     0.027 A 
ATOM     24  C   UNL     1       1.917  -2.792  -3.904  1.00  0.00     0.017 A 
ATOM     25  S   UNL     1       1.174  -4.825  -2.546  1.00  0.00    -0.147 S 
ATOM     26  C   UNL     1       2.180  -3.929  -4.721  1.00  0.00     0.012 A 
ATOM     27  C   UNL     1       1.800  -5.098  -4.109  1.00  0.00     0.065 A 
ENDBRANCH  19  23
ENDBRANCH  16  19
ENDBRANCH  14  15
ENDBRANCH  10  14
ENDBRANCH   7   9
ENDBRANCH   6   7
ENDBRANCH   5   6
ENDBRANCH   4   5
ENDBRANCH   3   4
ENDBRANCH   2   3
ENDBRANCH   1   2
BRANCH   1  28
ATOM     28  O   UNL     1      -5.360   0.470  -3.707  1.00  0.00    -0.377 OA
BRANCH  28  29
ATOM     29  C   UNL     1      -6.349   1.406  -4.127  1.00  0.00     0.188 C 
BRANCH  29  30
ATOM     30  C   UNL     1      -7.626   0.785  -4.723  1.00  0.00     0.188 C 
BRANCH  30  31
ATOM     31  O   UNL     1      -7.376  -0.110  -5.801  1.00  0.00    -0.376 OA
BRANCH  31  32
ATOM     32  C   UNL     1      -7.649   0.297  -7.133  1.00  0.00     0.202 C 
BRANCH  32  33
ATOM     33  C   UNL     1      -6.549   1.160  -7.765  1.00  0.00     0.261 C 
BRANCH  33  34
ATOM     34  O   UNL     1      -6.255   2.358  -7.054  1.00  0.00    -0.460 OA
BRANCH  34  35
ATOM     35  C   UNL     1      -7.330   3.142  -6.856  1.00  0.00     0.338 C 
ATOM     36  O   UNL     1      -8.493   2.905  -7.132  1.00  0.00    -0.246 OA
BRANCH  35  37
ATOM     37  C   UNL     1      -6.935   4.423  -6.295  1.00  0.00     0.060 A 
ATOM     38  C   UNL     1      -7.935   5.077  -5.570  1.00  0.00     0.016 A 
ATOM     39  C   UNL     1      -5.884   5.083  -6.934  1.00  0.00     0.016 A 
ATOM     40  C   UNL     1      -8.036   6.437  -5.711  1.00  0.00     0.010 A 
ATOM     41  C   UNL     1      -6.012   6.439  -7.108  1.00  0.00     0.010 A 
ATOM     42  C   UNL     1      -7.130   7.082  -6.559  1.00  0.00    -0.014 A 
BRANCH  42  43
ATOM     43  C   UNL     1      -7.343   8.505  -6.810  1.00  0.00     0.031 A 
ATOM     44  C   UNL     1      -6.673   9.336  -5.728  1.00  0.00     0.074 A 
ATOM     45  C   UNL     1      -8.121   8.808  -7.893  1.00  0.00     0.049 A 
ATOM     46  N   UNL     1      -6.997  10.500  -5.269  1.00  0.00    -0.248 NA
ATOM     47  C   UNL     1      -5.552   8.737  -4.943  1.00  0.00     0.031 C 
ATOM     48  C   UNL     1      -8.738   7.812  -8.806  1.00  0.00     0.029 A 
ATOM     49  N   UNL     1      -8.561   9.989  -8.448  1.00  0.00    -0.354 N 
ATOM     50  C   UNL     1      -5.980  10.875  -4.371  1.00  0.00     0.074 A 
ATOM     51  C   UNL     1      -5.245   9.690  -4.065  1.00  0.00     0.031 C 
ATOM     52  C   UNL     1      -9.504   8.418  -9.741  1.00  0.00     0.029 A 
ATOM     53  C   UNL     1      -9.433   9.855  -9.562  1.00  0.00     0.049 A 
ATOM     54  H   UNL     1      -8.289  10.867  -8.097  1.00  0.00     0.167 HD
ATOM     55  C   UNL     1      -5.684  12.174  -4.094  1.00  0.00     0.034 A 
ATOM     56  C   UNL     1     -10.065  10.833 -10.283  1.00  0.00     0.034 A 
ATOM     57  C   UNL     1      -6.580  13.037  -4.794  1.00  0.00     0.049 A 
ATOM     58  C   UNL     1      -9.511  12.100  -9.777  1.00  0.00     0.074 A 
ATOM     59  C   UNL     1      -7.920  13.290  -4.668  1.00  0.00     0.029 A 
ATOM     60  N   UNL     1      -6.144  13.532  -6.003  1.00  0.00    -0.354 N 
ATOM     61  N   UNL     1      -8.305  12.524 -10.007  1.00  0.00    -0.248 NA
ATOM     62  C   UNL     1     -10.333  12.934  -8.893  1.00  0.00     0.031 C 
ATOM     63  C   UNL     1      -8.341  13.542  -5.990  1.00  0.00     0.029 A 
ATOM     64  C   UNL     1      -7.229  13.573  -6.843  1.00  0.00     0.049 A 
ATOM     65  H   UNL     1      -5.225  13.806  -6.224  1.00  0.00     0.167 HD
ATOM     66  C   UNL     1      -8.129  13.483  -9.042  1.00  0.00     0.074 A 
ATOM     67  C   UNL     1      -9.453  13.898  -8.630  1.00  0.00     0.031 C 
ATOM     68  C   UNL     1      -7.009  13.448  -8.273  1.00  0.00     0.034 A 
BRANCH  55  69
ATOM     69  C   UNL     1      -4.486  12.802  -3.442  1.00  0.00     0.023 A 
ATOM     70  C   UNL     1      -4.619  14.170  -3.109  1.00  0.00     0.031 A 
ATOM     71  C   UNL     1      -3.188  12.274  -3.401  1.00  0.00     0.131 A 
ATOM     72  C   UNL     1      -3.502  14.980  -2.888  1.00  0.00     0.055 A 
ATOM     73  C   UNL     1      -2.075  13.071  -3.099  1.00  0.00     0.041 A 
ATOM     74  F   UNL     1      -2.926  11.004  -3.736  1.00  0.00    -0.206 F 
ATOM     75  C   UNL     1      -2.223  14.438  -2.879  1.00  0.00     0.022 A 
BRANCH  72  76
ATOM     76  S   UNL     1      -3.760  16.773  -2.809  1.00  0.00     0.124 S 
ATOM     77  O   UNL     1      -4.509  17.032  -4.034  1.00  0.00    -0.237 OA
ATOM     78  O   UNL     1      -4.507  16.916  -1.563  1.00  0.00    -0.237 OA
ATOM     79  O   UNL     1      -2.401  17.308  -2.785  1.00  0.00    -0.744 OA
ENDBRANCH  72  76
ENDBRANCH  55  69
BRANCH  56  80
ATOM     80  C   UNL     1     -11.125  10.956 -11.363  1.00  0.00     0.023 A 
ATOM     81  C   UNL     1     -11.780   9.895 -12.009  1.00  0.00     0.031 A 
ATOM     82  C   UNL     1     -11.585  12.258 -11.740  1.00  0.00     0.131 A 
ATOM     83  C   UNL     1     -12.851  10.153 -12.910  1.00  0.00     0.055 A 
ATOM     84  C   UNL     1     -12.682  12.503 -12.566  1.00  0.00     0.041 A 
ATOM     85  F   UNL     1     -10.990  13.379 -11.310  1.00  0.00    -0.206 F 
ATOM     86  C   UNL     1     -13.332  11.443 -13.150  1.00  0.00     0.022 A 
BRANCH  83  87
ATOM     87  S   UNL     1     -13.691   8.816 -13.807  1.00  0.00     0.124 S 
ATOM     88  O   UNL     1     -13.064   8.895 -15.123  1.00  0.00    -0.237 OA
ATOM     89  O   UNL     1     -13.375   7.630 -13.020  1.00  0.00    -0.237 OA
ATOM     90  O   UNL     1     -15.094   9.230 -13.762  1.00  0.00    -0.744 OA
ENDBRANCH  83  87
ENDBRANCH  56  80
BRANCH  68  91
ATOM     91  C   UNL     1      -5.799  12.815  -8.960  1.00  0.00     0.023 A 
ATOM     92  C   UNL     1      -5.336  13.314 -10.195  1.00  0.00     0.031 A 
ATOM     93  C   UNL     1      -5.161  11.653  -8.493  1.00  0.00     0.131 A 
ATOM     94  C   UNL     1      -4.320  12.647 -10.913  1.00  0.00     0.055 A 
ATOM     95  C   UNL     1      -4.147  10.992  -9.198  1.00  0.00     0.041 A 
ATOM     96  F   UNL     1      -5.505  11.106  -7.329  1.00  0.00    -0.206 F 
ATOM     97  C   UNL     1      -3.725  11.485 -10.421  1.00  0.00     0.022 A 
BRANCH  94  98
ATOM     98  S   UNL     1      -3.748  13.327 -12.496  1.00  0.00     0.124 S 
ATOM     99  O   UNL     1      -4.860  13.032 -13.392  1.00  0.00    -0.237 OA
ATOM    100  O   UNL     1      -3.538  14.736 -12.179  1.00  0.00    -0.237 OA
ATOM    101  O   UNL     1      -2.522  12.575 -12.766  1.00  0.00    -0.744 OA
ENDBRANCH  94  98
ENDBRANCH  68  91
ENDBRANCH  42  43
ENDBRANCH  35  37
ENDBRANCH  34  35
ENDBRANCH  33  34
ENDBRANCH  32  33
ENDBRANCH  31  32
ENDBRANCH  30  31
ENDBRANCH  29  30
ENDBRANCH  28  29
ENDBRANCH   1  28
TORSDOF 29
