REMARK SMILES CC(C)[C@H]([NH2+]Cc1ccncc1)C(=O)OCCOCCOCCOCCOC(=O)c1ccc(-c2c3nc(c(-c4cc(S(=O)(=O)[O-])ccc4F)c4ccc([nH]4)c(-c4cc(S(=O)(=O)[O-])ccc4F)c4nc(c(-c5cc(S(=O)(=O)[O-])ccc5F)c5ccc2[nH]5)C=C4)C=C3)cc1
REMARK SMILES IDX 21 1 20 2 19 3 18 4 17 5 16 6 15 7 13 8 14 9 4 10 2 11 1 12
REMARK SMILES IDX 3 13 5 14 6 17 7 18 8 19 12 20 9 21 11 22 10 23 22 24 23 25
REMARK SMILES IDX 24 26 25 27 26 28 27 29 28 30 29 31 30 32 31 33 92 34 32 35
REMARK SMILES IDX 91 36 33 37 34 38 35 39 85 40 36 41 90 42 84 43 86 44 37 45
REMARK SMILES IDX 89 46 83 47 82 48 38 50 70 51 50 52 69 53 51 54 54 55 68 56
REMARK SMILES IDX 87 57 52 58 53 59 67 61 88 62 55 63 39 64 40 65 48 66 41 67
REMARK SMILES IDX 47 68 49 69 46 70 42 71 43 72 44 73 45 74 71 75 72 76 80 77
REMARK SMILES IDX 73 78 79 79 81 80 78 81 74 82 75 83 76 84 77 85 56 86 57 87
REMARK SMILES IDX 65 88 58 89 64 90 66 91 63 92 59 93 60 94 61 95 62 96
REMARK H PARENT 5 15 5 16 86 49 54 60
REMARK Flexibility Score: inf
ROOT
ATOM      1  O   UNL     1       0.219   3.204  -3.558  1.00  0.00    -0.377 OA
ENDROOT
BRANCH   1   2
ATOM      2  C   UNL     1       0.061   1.810  -3.712  1.00  0.00     0.188 C 
BRANCH   2   3
ATOM      3  C   UNL     1      -1.340   1.357  -4.152  1.00  0.00     0.188 C 
BRANCH   3   4
ATOM      4  O   UNL     1      -2.342   2.278  -4.573  1.00  0.00    -0.376 OA
BRANCH   4   5
ATOM      5  C   UNL     1      -2.425   3.588  -4.036  1.00  0.00     0.202 C 
BRANCH   5   6
ATOM      6  C   UNL     1      -2.554   3.830  -2.524  1.00  0.00     0.261 C 
BRANCH   6   7
ATOM      7  O   UNL     1      -1.762   3.004  -1.661  1.00  0.00    -0.459 OA
BRANCH   7   8
ATOM      8  C   UNL     1      -2.370   1.867  -1.239  1.00  0.00     0.365 C 
ATOM      9  O   UNL     1      -3.508   1.528  -1.555  1.00  0.00    -0.245 OA
BRANCH   8  10
ATOM     10  C   UNL     1      -1.518   1.055  -0.237  1.00  0.00     0.296 C 
BRANCH  10  11
ATOM     11  C   UNL     1      -1.719   1.569   1.211  1.00  0.00     0.053 C 
ATOM     12  C   UNL     1      -0.732   2.663   1.634  1.00  0.00     0.014 C 
ATOM     13  C   UNL     1      -3.151   2.066   1.456  1.00  0.00     0.014 C 
ENDBRANCH  10  11
BRANCH  10  14
ATOM     14  N   UNL     1      -0.109   0.975  -0.655  1.00  0.00    -0.331 N 
ATOM     15  H   UNL     1       0.390   1.744  -0.208  1.00  0.00     0.347 HD
ATOM     16  H   UNL     1      -0.131   1.013  -1.674  1.00  0.00     0.347 HD
BRANCH  14  17
ATOM     17  C   UNL     1       0.602  -0.250  -0.340  1.00  0.00     0.298 C 
BRANCH  17  18
ATOM     18  C   UNL     1       2.091  -0.178  -0.632  1.00  0.00     0.009 A 
ATOM     19  C   UNL     1       2.731  -1.195  -1.355  1.00  0.00     0.029 A 
ATOM     20  C   UNL     1       2.894   0.845  -0.113  1.00  0.00     0.029 A 
ATOM     21  C   UNL     1       4.112  -1.151  -1.510  1.00  0.00     0.111 A 
ATOM     22  C   UNL     1       4.266   0.807  -0.328  1.00  0.00     0.111 A 
ATOM     23  N   UNL     1       4.894  -0.175  -1.007  1.00  0.00    -0.265 NA
ENDBRANCH  17  18
ENDBRANCH  14  17
ENDBRANCH  10  14
ENDBRANCH   8  10
ENDBRANCH   7   8
ENDBRANCH   6   7
ENDBRANCH   5   6
ENDBRANCH   4   5
ENDBRANCH   3   4
ENDBRANCH   2   3
ENDBRANCH   1   2
BRANCH   1  24
ATOM     24  C   UNL     1       0.925   3.852  -4.607  1.00  0.00     0.188 C 
BRANCH  24  25
ATOM     25  C   UNL     1       0.574   3.432  -6.052  1.00  0.00     0.188 C 
BRANCH  25  26
ATOM     26  O   UNL     1       0.594   2.028  -6.285  1.00  0.00    -0.376 OA
BRANCH  26  27
ATOM     27  C   UNL     1       1.765   1.426  -6.819  1.00  0.00     0.202 C 
BRANCH  27  28
ATOM     28  C   UNL     1       3.066   1.458  -5.995  1.00  0.00     0.261 C 
BRANCH  28  29
ATOM     29  O   UNL     1       3.541   2.748  -5.585  1.00  0.00    -0.460 OA
BRANCH  29  30
ATOM     30  C   UNL     1       3.778   3.660  -6.551  1.00  0.00     0.338 C 
ATOM     31  O   UNL     1       3.695   3.482  -7.755  1.00  0.00    -0.246 OA
BRANCH  30  32
ATOM     32  C   UNL     1       3.933   4.979  -5.901  1.00  0.00     0.060 A 
ATOM     33  C   UNL     1       3.088   6.026  -6.295  1.00  0.00     0.016 A 
ATOM     34  C   UNL     1       4.897   5.185  -4.911  1.00  0.00     0.016 A 
ATOM     35  C   UNL     1       3.240   7.295  -5.740  1.00  0.00     0.010 A 
ATOM     36  C   UNL     1       5.070   6.465  -4.377  1.00  0.00     0.010 A 
ATOM     37  C   UNL     1       4.272   7.535  -4.825  1.00  0.00    -0.014 A 
BRANCH  37  38
ATOM     38  C   UNL     1       4.685   8.934  -4.557  1.00  0.00     0.031 A 
ATOM     39  C   UNL     1       5.837   9.486  -5.356  1.00  0.00     0.074 A 
ATOM     40  C   UNL     1       4.035   9.711  -3.674  1.00  0.00     0.049 A 
ATOM     41  N   UNL     1       6.424  10.651  -5.279  1.00  0.00    -0.248 NA
ATOM     42  C   UNL     1       6.403   8.594  -6.381  1.00  0.00     0.031 C 
ATOM     43  C   UNL     1       2.865   9.310  -2.896  1.00  0.00     0.029 A 
ATOM     44  N   UNL     1       4.272  11.006  -3.283  1.00  0.00    -0.354 N 
ATOM     45  C   UNL     1       7.432  10.629  -6.237  1.00  0.00     0.074 A 
ATOM     46  C   UNL     1       7.402   9.320  -6.852  1.00  0.00     0.031 C 
ATOM     47  C   UNL     1       2.493  10.337  -2.111  1.00  0.00     0.029 A 
ATOM     48  C   UNL     1       3.422  11.451  -2.298  1.00  0.00     0.049 A 
ATOM     49  H   UNL     1       4.984  11.563  -3.672  1.00  0.00     0.167 HD
ATOM     50  C   UNL     1       8.299  11.613  -6.579  1.00  0.00     0.034 A 
ATOM     51  C   UNL     1       3.419  12.611  -1.609  1.00  0.00     0.034 A 
ATOM     52  C   UNL     1       8.322  12.908  -5.946  1.00  0.00     0.049 A 
ATOM     53  C   UNL     1       4.465  13.656  -1.931  1.00  0.00     0.074 A 
ATOM     54  C   UNL     1       9.154  13.980  -6.212  1.00  0.00     0.029 A 
ATOM     55  N   UNL     1       7.484  13.302  -4.911  1.00  0.00    -0.354 N 
ATOM     56  N   UNL     1       5.419  13.624  -2.835  1.00  0.00    -0.248 NA
ATOM     57  C   UNL     1       4.428  14.897  -1.146  1.00  0.00     0.031 C 
ATOM     58  C   UNL     1       8.877  14.989  -5.283  1.00  0.00     0.029 A 
ATOM     59  C   UNL     1       7.805  14.587  -4.502  1.00  0.00     0.049 A 
ATOM     60  H   UNL     1       6.767  12.749  -4.524  1.00  0.00     0.167 HD
ATOM     61  C   UNL     1       6.066  14.856  -2.751  1.00  0.00     0.074 A 
ATOM     62  C   UNL     1       5.387  15.610  -1.718  1.00  0.00     0.031 C 
ATOM     63  C   UNL     1       7.120  15.326  -3.467  1.00  0.00     0.034 A 
BRANCH  50  64
ATOM     64  C   UNL     1       9.325  11.297  -7.640  1.00  0.00     0.023 A 
ATOM     65  C   UNL     1       8.959  10.984  -8.960  1.00  0.00     0.031 A 
ATOM     66  C   UNL     1      10.693  11.275  -7.314  1.00  0.00     0.131 A 
ATOM     67  C   UNL     1       9.939  10.594  -9.885  1.00  0.00     0.055 A 
ATOM     68  C   UNL     1      11.671  10.972  -8.262  1.00  0.00     0.041 A 
ATOM     69  F   UNL     1      11.102  11.536  -6.063  1.00  0.00    -0.206 F 
ATOM     70  C   UNL     1      11.296  10.614  -9.553  1.00  0.00     0.022 A 
BRANCH  67  71
ATOM     71  S   UNL     1       9.405   9.915 -11.480  1.00  0.00     0.124 S 
ATOM     72  O   UNL     1       8.586   8.781 -11.059  1.00  0.00    -0.237 OA
ATOM     73  O   UNL     1       8.687  11.036 -12.076  1.00  0.00    -0.237 OA
ATOM     74  O   UNL     1      10.661   9.557 -12.138  1.00  0.00    -0.744 OA
ENDBRANCH  67  71
ENDBRANCH  50  64
BRANCH  51  75
ATOM     75  C   UNL     1       2.432  12.842  -0.512  1.00  0.00     0.023 A 
ATOM     76  C   UNL     1       1.516  13.905  -0.569  1.00  0.00     0.031 A 
ATOM     77  C   UNL     1       2.443  12.046   0.647  1.00  0.00     0.131 A 
ATOM     78  C   UNL     1       0.688  14.175   0.533  1.00  0.00     0.055 A 
ATOM     79  C   UNL     1       1.573  12.280   1.714  1.00  0.00     0.041 A 
ATOM     80  F   UNL     1       3.304  11.022   0.761  1.00  0.00    -0.206 F 
ATOM     81  C   UNL     1       0.699  13.361   1.667  1.00  0.00     0.022 A 
BRANCH  78  82
ATOM     82  S   UNL     1      -0.331  15.677   0.506  1.00  0.00     0.124 S 
ATOM     83  O   UNL     1       0.678  16.714   0.328  1.00  0.00    -0.237 OA
ATOM     84  O   UNL     1      -1.206  15.428  -0.634  1.00  0.00    -0.237 OA
ATOM     85  O   UNL     1      -0.990  15.663   1.810  1.00  0.00    -0.744 OA
ENDBRANCH  78  82
ENDBRANCH  51  75
BRANCH  63  86
ATOM     86  C   UNL     1       7.563  16.747  -3.201  1.00  0.00     0.023 A 
ATOM     87  C   UNL     1       8.107  17.142  -1.967  1.00  0.00     0.031 A 
ATOM     88  C   UNL     1       7.438  17.723  -4.208  1.00  0.00     0.131 A 
ATOM     89  C   UNL     1       8.448  18.486  -1.751  1.00  0.00     0.055 A 
ATOM     90  C   UNL     1       7.846  19.042  -4.011  1.00  0.00     0.041 A 
ATOM     91  F   UNL     1       6.922  17.406  -5.407  1.00  0.00    -0.206 F 
ATOM     92  C   UNL     1       8.341  19.434  -2.772  1.00  0.00     0.022 A 
BRANCH  89  93
ATOM     93  S   UNL     1       8.936  19.005  -0.082  1.00  0.00     0.124 S 
ATOM     94  O   UNL     1       7.775  18.608   0.709  1.00  0.00    -0.237 OA
ATOM     95  O   UNL     1      10.153  18.232   0.142  1.00  0.00    -0.237 OA
ATOM     96  O   UNL     1       9.133  20.447  -0.215  1.00  0.00    -0.744 OA
ENDBRANCH  89  93
ENDBRANCH  63  86
ENDBRANCH  37  38
ENDBRANCH  30  32
ENDBRANCH  29  30
ENDBRANCH  28  29
ENDBRANCH  27  28
ENDBRANCH  26  27
ENDBRANCH  25  26
ENDBRANCH  24  25
ENDBRANCH   1  24
TORSDOF 27
