REMARK SMILES Cc1c(CC(=O)OCCOCCOCCOCCOC(=O)c2ccc(-c3c4nc(c(-c5cc(S(=O)(=O)[O-])ccc5F)c5ccc([nH]5)c(-c5cc(S(=O)(=O)[O-])ccc5F)c5nc(c(-c6cc(S(=O)(=O)[O-])ccc6F)c6ccc3[nH]6)C=C5)C=C4)cc2)cc(-c2ccc(S(C)(=O)=O)cc2)n1-c1ccccc1
REMARK SMILES IDX 13 1 12 2 11 3 10 4 9 5 8 6 7 7 5 8 6 9 4 10 3 11 1 12 2 13
REMARK SMILES IDX 97 14 85 15 86 16 98 17 99 18 103 19 100 20 102 21 101 22
REMARK SMILES IDX 87 23 88 24 96 25 89 26 95 27 90 28 91 29 92 30 93 31 94 32
REMARK SMILES IDX 14 33 15 34 16 35 17 36 18 37 19 38 20 39 21 40 22 41 23 42
REMARK SMILES IDX 84 43 24 44 83 45 25 46 26 47 27 48 77 49 28 50 82 51 76 52
REMARK SMILES IDX 78 53 29 54 81 55 75 56 74 57 30 59 62 60 42 61 61 62 43 63
REMARK SMILES IDX 46 64 60 65 79 66 44 67 45 68 59 70 80 71 47 72 31 73 32 74
REMARK SMILES IDX 40 75 33 76 39 77 41 78 38 79 34 80 35 81 36 82 37 83 63 84
REMARK SMILES IDX 64 85 72 86 65 87 71 88 73 89 70 90 66 91 67 92 68 93 69 94
REMARK SMILES IDX 48 95 49 96 57 97 50 98 56 99 58 100 55 101 51 102 52 103
REMARK SMILES IDX 53 104 54 105
REMARK H PARENT 78 58 46 69
REMARK Flexibility Score: inf
ROOT
ATOM      1  O   UNL     1       3.125  -1.001  -1.986  1.00  0.00    -0.377 OA
ENDROOT
BRANCH   1   2
ATOM      2  C   UNL     1       2.436  -1.728  -0.987  1.00  0.00     0.188 C 
BRANCH   2   3
ATOM      3  C   UNL     1       1.655  -2.926  -1.566  1.00  0.00     0.188 C 
BRANCH   3   4
ATOM      4  O   UNL     1       2.317  -3.730  -2.541  1.00  0.00    -0.376 OA
BRANCH   4   5
ATOM      5  C   UNL     1       2.799  -3.061  -3.711  1.00  0.00     0.202 C 
BRANCH   5   6
ATOM      6  C   UNL     1       1.794  -2.202  -4.511  1.00  0.00     0.261 C 
BRANCH   6   7
ATOM      7  O   UNL     1       1.146  -1.148  -3.750  1.00  0.00    -0.463 OA
BRANCH   7   8
ATOM      8  C   UNL     1      -0.198  -1.037  -3.890  1.00  0.00     0.310 C 
ATOM      9  O   UNL     1      -0.852  -1.710  -4.689  1.00  0.00    -0.252 OA
BRANCH   8  10
ATOM     10  C   UNL     1      -0.908  -0.164  -2.870  1.00  0.00     0.160 C 
BRANCH  10  11
ATOM     11  C   UNL     1      -0.265   1.061  -2.266  1.00  0.00    -0.015 A 
ATOM     12  C   UNL     1      -0.225   0.485   0.303  1.00  0.00     0.065 C 
ATOM     13  C   UNL     1      -0.015   1.326  -0.914  1.00  0.00     0.024 A 
ATOM     14  N   UNL     1       0.441   2.633  -0.799  1.00  0.00    -0.314 N 
ATOM     15  C   UNL     1      -0.034   2.296  -2.950  1.00  0.00     0.033 A 
ATOM     16  C   UNL     1       0.335   3.260  -2.028  1.00  0.00     0.053 A 
BRANCH  14  17
ATOM     17  C   UNL     1       0.943   3.251   0.375  1.00  0.00     0.046 A 
ATOM     18  C   UNL     1       0.127   4.038   1.186  1.00  0.00     0.026 A 
ATOM     19  C   UNL     1       2.316   3.199   0.602  1.00  0.00     0.026 A 
ATOM     20  C   UNL     1       0.696   4.734   2.260  1.00  0.00     0.002 A 
ATOM     21  C   UNL     1       2.865   3.867   1.695  1.00  0.00     0.002 A 
ATOM     22  C   UNL     1       2.061   4.636   2.523  1.00  0.00     0.000 A 
ENDBRANCH  14  17
BRANCH  16  23
ATOM     23  C   UNL     1       0.522   4.702  -2.186  1.00  0.00    -0.001 A 
ATOM     24  C   UNL     1       1.805   5.264  -2.165  1.00  0.00     0.011 A 
ATOM     25  C   UNL     1      -0.600   5.540  -2.238  1.00  0.00     0.011 A 
ATOM     26  C   UNL     1       1.970   6.651  -2.173  1.00  0.00     0.021 A 
ATOM     27  C   UNL     1      -0.444   6.927  -2.246  1.00  0.00     0.021 A 
ATOM     28  C   UNL     1       0.840   7.475  -2.203  1.00  0.00     0.067 A 
BRANCH  28  29
ATOM     29  S   UNL     1       1.062   9.239  -2.242  1.00  0.00     0.175 S 
ATOM     30  C   UNL     1       1.834   9.627  -0.692  1.00  0.00     0.163 C 
ATOM     31  O   UNL     1       1.968   9.523  -3.314  1.00  0.00    -0.224 OA
ATOM     32  O   UNL     1      -0.280   9.835  -2.215  1.00  0.00    -0.224 OA
ENDBRANCH  28  29
ENDBRANCH  16  23
ENDBRANCH  10  11
ENDBRANCH   8  10
ENDBRANCH   7   8
ENDBRANCH   6   7
ENDBRANCH   5   6
ENDBRANCH   4   5
ENDBRANCH   3   4
ENDBRANCH   2   3
ENDBRANCH   1   2
BRANCH   1  33
ATOM     33  C   UNL     1       4.400  -0.425  -1.730  1.00  0.00     0.188 C 
BRANCH  33  34
ATOM     34  C   UNL     1       5.272  -1.034  -0.624  1.00  0.00     0.188 C 
BRANCH  34  35
ATOM     35  O   UNL     1       4.844  -0.767   0.718  1.00  0.00    -0.376 OA
BRANCH  35  36
ATOM     36  C   UNL     1       4.514   0.599   1.015  1.00  0.00     0.202 C 
BRANCH  36  37
ATOM     37  C   UNL     1       5.723   1.564   1.158  1.00  0.00     0.261 C 
BRANCH  37  38
ATOM     38  O   UNL     1       5.550   2.926   0.605  1.00  0.00    -0.460 OA
BRANCH  38  39
ATOM     39  C   UNL     1       6.564   3.450  -0.157  1.00  0.00     0.338 C 
ATOM     40  O   UNL     1       7.446   2.751  -0.638  1.00  0.00    -0.246 OA
BRANCH  39  41
ATOM     41  C   UNL     1       6.483   4.955  -0.477  1.00  0.00     0.060 A 
ATOM     42  C   UNL     1       6.582   5.349  -1.813  1.00  0.00     0.016 A 
ATOM     43  C   UNL     1       6.583   6.007   0.456  1.00  0.00     0.016 A 
ATOM     44  C   UNL     1       6.769   6.724  -2.197  1.00  0.00     0.010 A 
ATOM     45  C   UNL     1       6.848   7.401   0.063  1.00  0.00     0.010 A 
ATOM     46  C   UNL     1       6.975   7.814  -1.284  1.00  0.00    -0.014 A 
BRANCH  46  47
ATOM     47  C   UNL     1       7.897   9.028  -1.824  1.00  0.00     0.031 A 
ATOM     48  C   UNL     1       9.084   8.303  -2.370  1.00  0.00     0.074 A 
ATOM     49  C   UNL     1       7.994  10.420  -1.904  1.00  0.00     0.049 A 
ATOM     50  N   UNL     1       9.733   7.435  -1.643  1.00  0.00    -0.248 NA
ATOM     51  C   UNL     1       9.351   8.224  -3.807  1.00  0.00     0.031 C 
ATOM     52  C   UNL     1       7.071  11.428  -1.358  1.00  0.00     0.029 A 
ATOM     53  N   UNL     1       8.960  11.292  -2.515  1.00  0.00    -0.354 N 
ATOM     54  C   UNL     1      10.712   6.924  -2.458  1.00  0.00     0.074 A 
ATOM     55  C   UNL     1      10.277   7.261  -3.807  1.00  0.00     0.031 C 
ATOM     56  C   UNL     1       7.410  12.694  -1.746  1.00  0.00     0.029 A 
ATOM     57  C   UNL     1       8.637  12.701  -2.545  1.00  0.00     0.049 A 
ATOM     58  H   UNL     1       9.800  10.947  -2.894  1.00  0.00     0.167 HD
ATOM     59  C   UNL     1      11.985   6.960  -1.968  1.00  0.00     0.034 A 
ATOM     60  C   UNL     1       9.303  13.799  -3.098  1.00  0.00     0.034 A 
ATOM     61  C   UNL     1      12.742   8.042  -2.537  1.00  0.00     0.049 A 
ATOM     62  C   UNL     1      10.718  13.434  -3.208  1.00  0.00     0.074 A 
ATOM     63  C   UNL     1      12.989   8.437  -3.834  1.00  0.00     0.029 A 
ATOM     64  N   UNL     1      12.980   9.137  -1.730  1.00  0.00    -0.354 N 
ATOM     65  N   UNL     1      11.497  13.413  -2.175  1.00  0.00    -0.248 NA
ATOM     66  C   UNL     1      11.364  13.165  -4.488  1.00  0.00     0.031 C 
ATOM     67  C   UNL     1      12.957   9.850  -3.807  1.00  0.00     0.029 A 
ATOM     68  C   UNL     1      12.993  10.291  -2.488  1.00  0.00     0.049 A 
ATOM     69  H   UNL     1      13.119   9.101  -0.756  1.00  0.00     0.167 HD
ATOM     70  C   UNL     1      12.537  12.639  -2.587  1.00  0.00     0.074 A 
ATOM     71  C   UNL     1      12.553  12.767  -4.031  1.00  0.00     0.031 C 
ATOM     72  C   UNL     1      12.843  11.569  -1.810  1.00  0.00     0.034 A 
BRANCH  59  73
ATOM     73  C   UNL     1      12.120   6.476  -0.556  1.00  0.00     0.023 A 
ATOM     74  C   UNL     1      12.659   5.203  -0.329  1.00  0.00     0.031 A 
ATOM     75  C   UNL     1      11.619   7.189   0.552  1.00  0.00     0.131 A 
ATOM     76  C   UNL     1      12.641   4.659   0.965  1.00  0.00     0.055 A 
ATOM     77  C   UNL     1      11.563   6.629   1.827  1.00  0.00     0.041 A 
ATOM     78  F   UNL     1      11.171   8.447   0.409  1.00  0.00    -0.206 F 
ATOM     79  C   UNL     1      12.069   5.351   2.038  1.00  0.00     0.022 A 
BRANCH  76  80
ATOM     80  S   UNL     1      13.391   3.030   1.231  1.00  0.00     0.124 S 
ATOM     81  O   UNL     1      12.569   2.163   0.392  1.00  0.00    -0.237 OA
ATOM     82  O   UNL     1      14.760   3.240   0.770  1.00  0.00    -0.237 OA
ATOM     83  O   UNL     1      13.250   2.814   2.670  1.00  0.00    -0.744 OA
ENDBRANCH  76  80
ENDBRANCH  59  73
BRANCH  60  84
ATOM     84  C   UNL     1       9.121  15.298  -3.471  1.00  0.00     0.023 A 
ATOM     85  C   UNL     1      10.260  16.171  -3.705  1.00  0.00     0.031 A 
ATOM     86  C   UNL     1       7.901  15.821  -3.908  1.00  0.00     0.131 A 
ATOM     87  C   UNL     1      10.159  17.417  -4.383  1.00  0.00     0.055 A 
ATOM     88  C   UNL     1       7.799  17.076  -4.561  1.00  0.00     0.041 A 
ATOM     89  F   UNL     1       6.777  15.099  -3.799  1.00  0.00    -0.206 F 
ATOM     90  C   UNL     1       8.921  17.864  -4.822  1.00  0.00     0.022 A 
BRANCH  87  91
ATOM     91  S   UNL     1      11.647  18.378  -4.900  1.00  0.00     0.124 S 
ATOM     92  O   UNL     1      11.926  19.200  -3.729  1.00  0.00    -0.237 OA
ATOM     93  O   UNL     1      12.622  17.337  -5.211  1.00  0.00    -0.237 OA
ATOM     94  O   UNL     1      11.175  19.123  -6.070  1.00  0.00    -0.744 OA
ENDBRANCH  87  91
ENDBRANCH  60  84
BRANCH  72  95
ATOM     95  C   UNL     1      12.810  11.777  -0.290  1.00  0.00     0.023 A 
ATOM     96  C   UNL     1      11.851  12.532   0.442  1.00  0.00     0.031 A 
ATOM     97  C   UNL     1      13.875  11.250   0.459  1.00  0.00     0.131 A 
ATOM     98  C   UNL     1      12.005  12.774   1.823  1.00  0.00     0.055 A 
ATOM     99  C   UNL     1      14.002  11.448   1.837  1.00  0.00     0.041 A 
ATOM    100  F   UNL     1      14.837  10.534  -0.145  1.00  0.00    -0.206 F 
ATOM    101  C   UNL     1      13.078  12.227   2.522  1.00  0.00     0.022 A 
BRANCH  98 102
ATOM    102  S   UNL     1      10.851  13.883   2.706  1.00  0.00     0.124 S 
ATOM    103  O   UNL     1      10.790  15.061   1.849  1.00  0.00    -0.237 OA
ATOM    104  O   UNL     1       9.632  13.082   2.780  1.00  0.00    -0.237 OA
ATOM    105  O   UNL     1      11.513  14.105   3.994  1.00  0.00    -0.744 OA
ENDBRANCH  98 102
ENDBRANCH  72  95
ENDBRANCH  46  47
ENDBRANCH  39  41
ENDBRANCH  38  39
ENDBRANCH  37  38
ENDBRANCH  36  37
ENDBRANCH  35  36
ENDBRANCH  34  35
ENDBRANCH  33  34
ENDBRANCH   1  33
TORSDOF 27
