REMARK SMILES CCCN(C(=O)NCC(=O)OCCOCCOCCOCCOC(=O)c1ccc(-c2c3nc(c(-c4cc(S(=O)(=O)[O-])ccc4F)c4ccc([nH]4)c(-c4cc(S(=O)(=O)[O-])ccc4F)c4nc(c(-c5cc(S(=O)(=O)[O-])ccc5F)c5ccc2[nH]5)C=C4)C=C3)cc1)C(C)C
REMARK SMILES IDX 16 1 15 2 14 3 13 4 12 5 11 6 9 7 10 8 8 9 7 10 5 11 6 12
REMARK SMILES IDX 4 14 3 15 2 16 1 17 89 18 90 19 91 20 17 21 18 22 19 23
REMARK SMILES IDX 20 24 21 25 22 26 23 27 24 28 25 29 26 30 27 31 88 32 28 33
REMARK SMILES IDX 87 34 29 35 30 36 31 37 81 38 32 39 86 40 80 41 82 42 33 43
REMARK SMILES IDX 85 44 79 45 78 46 34 48 66 49 46 50 65 51 47 52 50 53 64 54
REMARK SMILES IDX 83 55 48 56 49 57 63 59 84 60 51 61 35 62 36 63 44 64 37 65
REMARK SMILES IDX 43 66 45 67 42 68 38 69 39 70 40 71 41 72 67 73 68 74 76 75
REMARK SMILES IDX 69 76 75 77 77 78 74 79 70 80 71 81 72 82 73 83 52 84 53 85
REMARK SMILES IDX 61 86 54 87 60 88 62 89 59 90 55 91 56 92 57 93 58 94
REMARK H PARENT 7 13 82 47 50 58
REMARK Flexibility Score: inf
ROOT
ATOM      1  C   UNL     1      -0.470  -6.218   3.912  1.00  0.00     0.188 C 
ENDROOT
BRANCH   1   2
ATOM      2  C   UNL     1      -0.412  -7.285   2.802  1.00  0.00     0.188 C 
BRANCH   2   3
ATOM      3  O   UNL     1       0.732  -8.107   2.610  1.00  0.00    -0.376 OA
BRANCH   3   4
ATOM      4  C   UNL     1       2.045  -7.601   2.813  1.00  0.00     0.202 C 
BRANCH   4   5
ATOM      5  C   UNL     1       2.506  -6.292   2.144  1.00  0.00     0.261 C 
BRANCH   5   6
ATOM      6  O   UNL     1       1.544  -5.225   2.127  1.00  0.00    -0.462 OA
BRANCH   6   7
ATOM      7  C   UNL     1       0.947  -4.971   0.940  1.00  0.00     0.325 C 
ATOM      8  O   UNL     1       1.230  -5.525  -0.119  1.00  0.00    -0.250 OA
BRANCH   7   9
ATOM      9  C   UNL     1      -0.270  -4.045   1.055  1.00  0.00     0.240 C 
BRANCH   9  10
ATOM     10  N   UNL     1      -0.518  -3.187   2.209  1.00  0.00    -0.327 N 
ATOM     11  C   UNL     1      -0.164  -1.976   2.659  1.00  0.00     0.318 C 
ATOM     12  O   UNL     1      -0.802  -1.613   3.654  1.00  0.00    -0.249 OA
ATOM     13  H   UNL     1      -1.126  -3.628   2.845  1.00  0.00     0.166 HD
BRANCH  11  14
ATOM     14  N   UNL     1       0.800  -1.196   2.076  1.00  0.00    -0.322 N 
BRANCH  14  15
ATOM     15  C   UNL     1       1.534  -1.532   0.857  1.00  0.00     0.121 C 
BRANCH  15  16
ATOM     16  C   UNL     1       0.740  -1.332  -0.440  1.00  0.00     0.018 C 
ATOM     17  C   UNL     1       0.899   0.032  -1.080  1.00  0.00     0.006 C 
ENDBRANCH  15  16
ENDBRANCH  14  15
BRANCH  14  18
ATOM     18  C   UNL     1       1.102   0.086   2.767  1.00  0.00     0.080 C 
ATOM     19  C   UNL     1       2.594   0.352   2.982  1.00  0.00     0.031 C 
ATOM     20  C   UNL     1       0.419   1.274   2.095  1.00  0.00     0.031 C 
ENDBRANCH  14  18
ENDBRANCH  11  14
ENDBRANCH   9  10
ENDBRANCH   7   9
ENDBRANCH   6   7
ENDBRANCH   5   6
ENDBRANCH   4   5
ENDBRANCH   3   4
ENDBRANCH   2   3
ENDBRANCH   1   2
BRANCH   1  21
ATOM     21  O   UNL     1       0.742  -6.013   4.604  1.00  0.00    -0.377 OA
BRANCH  21  22
ATOM     22  C   UNL     1       0.859  -6.648   5.870  1.00  0.00     0.188 C 
BRANCH  22  23
ATOM     23  C   UNL     1       0.305  -8.083   5.984  1.00  0.00     0.188 C 
BRANCH  23  24
ATOM     24  O   UNL     1      -1.049  -8.216   5.560  1.00  0.00    -0.376 OA
BRANCH  24  25
ATOM     25  C   UNL     1      -2.078  -8.172   6.540  1.00  0.00     0.202 C 
BRANCH  25  26
ATOM     26  C   UNL     1      -2.301  -6.850   7.296  1.00  0.00     0.261 C 
BRANCH  26  27
ATOM     27  O   UNL     1      -1.191  -6.344   8.052  1.00  0.00    -0.460 OA
BRANCH  27  28
ATOM     28  C   UNL     1      -0.643  -7.153   8.983  1.00  0.00     0.338 C 
ATOM     29  O   UNL     1      -1.042  -8.258   9.311  1.00  0.00    -0.246 OA
BRANCH  28  30
ATOM     30  C   UNL     1       0.657  -6.573   9.383  1.00  0.00     0.060 A 
ATOM     31  C   UNL     1       1.813  -7.352   9.240  1.00  0.00     0.016 A 
ATOM     32  C   UNL     1       0.738  -5.276   9.895  1.00  0.00     0.016 A 
ATOM     33  C   UNL     1       3.046  -6.856   9.658  1.00  0.00     0.010 A 
ATOM     34  C   UNL     1       1.972  -4.789  10.336  1.00  0.00     0.010 A 
ATOM     35  C   UNL     1       3.123  -5.594  10.259  1.00  0.00    -0.014 A 
BRANCH  35  36
ATOM     36  C   UNL     1       4.347  -5.225  11.015  1.00  0.00     0.031 A 
ATOM     37  C   UNL     1       4.341  -5.423  12.507  1.00  0.00     0.074 A 
ATOM     38  C   UNL     1       5.449  -4.769  10.395  1.00  0.00     0.049 A 
ATOM     39  N   UNL     1       5.265  -5.146  13.390  1.00  0.00    -0.248 NA
ATOM     40  C   UNL     1       3.119  -6.009  13.077  1.00  0.00     0.031 C 
ATOM     41  C   UNL     1       5.592  -4.588   8.952  1.00  0.00     0.029 A 
ATOM     42  N   UNL     1       6.658  -4.370  10.908  1.00  0.00    -0.354 N 
ATOM     43  C   UNL     1       4.732  -5.514  14.621  1.00  0.00     0.074 A 
ATOM     44  C   UNL     1       3.389  -5.992  14.372  1.00  0.00     0.031 C 
ATOM     45  C   UNL     1       6.820  -4.104   8.696  1.00  0.00     0.029 A 
ATOM     46  C   UNL     1       7.533  -3.901   9.957  1.00  0.00     0.049 A 
ATOM     47  H   UNL     1       6.878  -4.416  11.866  1.00  0.00     0.167 HD
ATOM     48  C   UNL     1       5.312  -5.465  15.846  1.00  0.00     0.034 A 
ATOM     49  C   UNL     1       8.754  -3.344  10.093  1.00  0.00     0.034 A 
ATOM     50  C   UNL     1       6.647  -4.967  16.076  1.00  0.00     0.049 A 
ATOM     51  C   UNL     1       9.347  -3.207  11.476  1.00  0.00     0.074 A 
ATOM     52  C   UNL     1       7.341  -4.884  17.270  1.00  0.00     0.029 A 
ATOM     53  N   UNL     1       7.483  -4.449  15.094  1.00  0.00    -0.354 N 
ATOM     54  N   UNL     1       8.840  -3.565  12.635  1.00  0.00    -0.248 NA
ATOM     55  C   UNL     1      10.681  -2.599  11.568  1.00  0.00     0.031 C 
ATOM     56  C   UNL     1       8.556  -4.235  17.025  1.00  0.00     0.029 A 
ATOM     57  C   UNL     1       8.668  -4.004  15.663  1.00  0.00     0.049 A 
ATOM     58  H   UNL     1       7.267  -4.404  14.135  1.00  0.00     0.167 HD
ATOM     59  C   UNL     1       9.810  -3.257  13.588  1.00  0.00     0.074 A 
ATOM     60  C   UNL     1      10.933  -2.695  12.865  1.00  0.00     0.031 C 
ATOM     61  C   UNL     1       9.778  -3.431  14.935  1.00  0.00     0.034 A 
BRANCH  48  62
ATOM     62  C   UNL     1       4.473  -5.896  17.026  1.00  0.00     0.023 A 
ATOM     63  C   UNL     1       3.967  -7.204  17.143  1.00  0.00     0.031 A 
ATOM     64  C   UNL     1       4.126  -4.968  18.024  1.00  0.00     0.131 A 
ATOM     65  C   UNL     1       3.073  -7.519  18.178  1.00  0.00     0.055 A 
ATOM     66  C   UNL     1       3.312  -5.316  19.105  1.00  0.00     0.041 A 
ATOM     67  F   UNL     1       4.554  -3.698  17.956  1.00  0.00    -0.206 F 
ATOM     68  C   UNL     1       2.765  -6.593  19.176  1.00  0.00     0.022 A 
BRANCH  65  69
ATOM     69  S   UNL     1       2.181  -9.098  18.100  1.00  0.00     0.124 S 
ATOM     70  O   UNL     1       1.531  -9.005  16.795  1.00  0.00    -0.237 OA
ATOM     71  O   UNL     1       3.259 -10.075  18.210  1.00  0.00    -0.237 OA
ATOM     72  O   UNL     1       1.275  -9.036  19.245  1.00  0.00    -0.744 OA
ENDBRANCH  65  69
ENDBRANCH  48  62
BRANCH  49  73
ATOM     73  C   UNL     1       9.483  -2.830   8.897  1.00  0.00     0.023 A 
ATOM     74  C   UNL     1      10.712  -3.378   8.496  1.00  0.00     0.031 A 
ATOM     75  C   UNL     1       8.973  -1.746   8.157  1.00  0.00     0.131 A 
ATOM     76  C   UNL     1      11.407  -2.818   7.411  1.00  0.00     0.055 A 
ATOM     77  C   UNL     1       9.641  -1.230   7.046  1.00  0.00     0.041 A 
ATOM     78  F   UNL     1       7.806  -1.179   8.501  1.00  0.00    -0.206 F 
ATOM     79  C   UNL     1      10.871  -1.760   6.673  1.00  0.00     0.022 A 
BRANCH  76  80
ATOM     80  S   UNL     1      13.064  -3.446   7.021  1.00  0.00     0.124 S 
ATOM     81  O   UNL     1      13.781  -3.181   8.263  1.00  0.00    -0.237 OA
ATOM     82  O   UNL     1      12.795  -4.848   6.720  1.00  0.00    -0.237 OA
ATOM     83  O   UNL     1      13.474  -2.634   5.877  1.00  0.00    -0.744 OA
ENDBRANCH  76  80
ENDBRANCH  49  73
BRANCH  61  84
ATOM     84  C   UNL     1      11.021  -3.057  15.713  1.00  0.00     0.023 A 
ATOM     85  C   UNL     1      11.483  -1.732  15.792  1.00  0.00     0.031 A 
ATOM     86  C   UNL     1      11.758  -4.052  16.382  1.00  0.00     0.131 A 
ATOM     87  C   UNL     1      12.679  -1.447  16.469  1.00  0.00     0.055 A 
ATOM     88  C   UNL     1      12.906  -3.751  17.116  1.00  0.00     0.041 A 
ATOM     89  F   UNL     1      11.370  -5.337  16.339  1.00  0.00    -0.206 F 
ATOM     90  C   UNL     1      13.382  -2.444  17.150  1.00  0.00     0.022 A 
BRANCH  87  91
ATOM     91  S   UNL     1      13.368   0.228  16.355  1.00  0.00     0.124 S 
ATOM     92  O   UNL     1      13.501   0.403  14.913  1.00  0.00    -0.237 OA
ATOM     93  O   UNL     1      12.340   1.034  17.004  1.00  0.00    -0.237 OA
ATOM     94  O   UNL     1      14.631   0.130  17.086  1.00  0.00    -0.744 OA
ENDBRANCH  87  91
ENDBRANCH  61  84
ENDBRANCH  35  36
ENDBRANCH  28  30
ENDBRANCH  27  28
ENDBRANCH  26  27
ENDBRANCH  25  26
ENDBRANCH  24  25
ENDBRANCH  23  24
ENDBRANCH  22  23
ENDBRANCH  21  22
ENDBRANCH   1  21
TORSDOF 28
