REMARK SMILES CC[N@@H+]([C@H]1C[C@H]2CC[C@@H](C1)[NH2+]2)[C@@H](C)[C@@H](C)C(=O)OCCOCCOCCOCCOC(=O)c1ccc(-c2c3nc(c(-c4cc(S(=O)(=O)[O-])ccc4F)c4ccc([nH]4)c(-c4cc(S(=O)(=O)[O-])ccc4F)c4nc(c(-c5cc(S(=O)(=O)[O-])ccc5F)c5ccc2[nH]5)C=C4)C=C3)cc1
REMARK SMILES IDX 24 1 23 2 22 3 21 4 20 5 19 6 18 7 16 8 17 9 14 10 15 11
REMARK SMILES IDX 12 12 13 13 3 14 2 16 1 17 4 18 5 19 10 20 6 21 9 22 7 23
REMARK SMILES IDX 11 24 8 25 25 28 26 29 27 30 28 31 29 32 30 33 31 34 32 35
REMARK SMILES IDX 33 36 34 37 95 38 35 39 94 40 36 41 37 42 38 43 88 44 39 45
REMARK SMILES IDX 93 46 87 47 89 48 40 49 92 50 86 51 85 52 41 54 73 55 53 56
REMARK SMILES IDX 72 57 54 58 57 59 71 60 90 61 55 62 56 63 70 65 91 66 58 67
REMARK SMILES IDX 42 68 43 69 51 70 44 71 50 72 52 73 49 74 45 75 46 76 47 77
REMARK SMILES IDX 48 78 74 79 75 80 83 81 76 82 82 83 84 84 81 85 77 86 78 87
REMARK SMILES IDX 79 88 80 89 59 90 60 91 68 92 61 93 67 94 69 95 66 96 62 97
REMARK SMILES IDX 63 98 64 99 65 100
REMARK H PARENT 3 15 11 26 11 27 89 53 57 64
REMARK Flexibility Score: inf
ROOT
ATOM      1  O   UNL     1       5.890  -0.400  -2.413  1.00  0.00    -0.377 OA
ENDROOT
BRANCH   1   2
ATOM      2  C   UNL     1       5.999   0.766  -1.622  1.00  0.00     0.188 C 
BRANCH   2   3
ATOM      3  C   UNL     1       6.533   0.466  -0.223  1.00  0.00     0.188 C 
BRANCH   3   4
ATOM      4  O   UNL     1       7.768  -0.226  -0.138  1.00  0.00    -0.376 OA
BRANCH   4   5
ATOM      5  C   UNL     1       7.864  -1.537  -0.697  1.00  0.00     0.202 C 
BRANCH   5   6
ATOM      6  C   UNL     1       6.811  -2.617  -0.357  1.00  0.00     0.261 C 
BRANCH   6   7
ATOM      7  O   UNL     1       5.485  -2.459  -0.953  1.00  0.00    -0.463 OA
BRANCH   7   8
ATOM      8  C   UNL     1       4.507  -2.181  -0.069  1.00  0.00     0.314 C 
ATOM      9  O   UNL     1       4.734  -2.071   1.142  1.00  0.00    -0.252 OA
BRANCH   8  10
ATOM     10  C   UNL     1       3.065  -1.962  -0.539  1.00  0.00     0.154 C 
ATOM     11  C   UNL     1       2.257  -3.025   0.232  1.00  0.00     0.026 C 
BRANCH  10  12
ATOM     12  C   UNL     1       2.406  -1.767  -1.944  1.00  0.00     0.195 C 
ATOM     13  C   UNL     1       3.142  -0.864  -2.928  1.00  0.00     0.076 C 
BRANCH  12  14
ATOM     14  N   UNL     1       0.963  -1.272  -1.816  1.00  0.00    -0.329 N 
ATOM     15  H   UNL     1       0.527  -1.882  -1.124  1.00  0.00     0.348 HD
BRANCH  14  16
ATOM     16  C   UNL     1       0.820   0.070  -1.213  1.00  0.00     0.259 C 
ATOM     17  C   UNL     1       1.007   0.248   0.296  1.00  0.00     0.071 C 
ENDBRANCH  14  16
BRANCH  14  18
ATOM     18  C   UNL     1       0.186  -1.454  -3.098  1.00  0.00     0.196 C 
ATOM     19  C   UNL     1      -0.802  -2.643  -2.988  1.00  0.00     0.130 C 
ATOM     20  C   UNL     1      -0.504  -0.212  -3.752  1.00  0.00     0.130 C 
ATOM     21  C   UNL     1      -2.271  -2.236  -2.818  1.00  0.00     0.188 C 
ATOM     22  C   UNL     1      -2.029  -0.077  -3.550  1.00  0.00     0.188 C 
ATOM     23  C   UNL     1      -2.509  -1.374  -1.578  1.00  0.00     0.071 C 
ATOM     24  N   UNL     1      -2.659  -1.346  -3.927  1.00  0.00    -0.341 N 
ATOM     25  C   UNL     1      -2.563   0.049  -2.128  1.00  0.00     0.071 C 
ATOM     26  H   UNL     1      -3.673  -1.251  -3.986  1.00  0.00     0.346 HD
ATOM     27  H   UNL     1      -2.370  -1.688  -4.844  1.00  0.00     0.346 HD
ENDBRANCH  14  18
ENDBRANCH  12  14
ENDBRANCH  10  12
ENDBRANCH   8  10
ENDBRANCH   7   8
ENDBRANCH   6   7
ENDBRANCH   5   6
ENDBRANCH   4   5
ENDBRANCH   3   4
ENDBRANCH   2   3
ENDBRANCH   1   2
BRANCH   1  28
ATOM     28  C   UNL     1       6.589  -0.548  -3.643  1.00  0.00     0.188 C 
BRANCH  28  29
ATOM     29  C   UNL     1       7.442   0.620  -4.122  1.00  0.00     0.188 C 
BRANCH  29  30
ATOM     30  O   UNL     1       6.749   1.819  -4.478  1.00  0.00    -0.376 OA
BRANCH  30  31
ATOM     31  C   UNL     1       5.405   1.716  -4.939  1.00  0.00     0.202 C 
BRANCH  31  32
ATOM     32  C   UNL     1       5.212   1.277  -6.395  1.00  0.00     0.261 C 
BRANCH  32  33
ATOM     33  O   UNL     1       5.645  -0.069  -6.651  1.00  0.00    -0.460 OA
BRANCH  33  34
ATOM     34  C   UNL     1       6.872  -0.180  -7.221  1.00  0.00     0.338 C 
ATOM     35  O   UNL     1       7.625   0.724  -7.525  1.00  0.00    -0.246 OA
BRANCH  34  36
ATOM     36  C   UNL     1       7.247  -1.606  -7.287  1.00  0.00     0.060 A 
ATOM     37  C   UNL     1       8.434  -2.017  -6.669  1.00  0.00     0.016 A 
ATOM     38  C   UNL     1       6.473  -2.513  -8.014  1.00  0.00     0.016 A 
ATOM     39  C   UNL     1       8.860  -3.339  -6.785  1.00  0.00     0.010 A 
ATOM     40  C   UNL     1       6.912  -3.833  -8.146  1.00  0.00     0.010 A 
ATOM     41  C   UNL     1       8.117  -4.246  -7.549  1.00  0.00    -0.014 A 
BRANCH  41  42
ATOM     42  C   UNL     1       8.656  -5.598  -7.827  1.00  0.00     0.031 A 
ATOM     43  C   UNL     1       9.310  -5.860  -9.154  1.00  0.00     0.074 A 
ATOM     44  C   UNL     1       8.558  -6.571  -6.903  1.00  0.00     0.049 A 
ATOM     45  N   UNL     1       9.753  -6.984  -9.651  1.00  0.00    -0.248 NA
ATOM     46  C   UNL     1       9.484  -4.698 -10.041  1.00  0.00     0.031 C 
ATOM     47  C   UNL     1       7.994  -6.406  -5.563  1.00  0.00     0.029 A 
ATOM     48  N   UNL     1       8.915  -7.894  -6.957  1.00  0.00    -0.354 N 
ATOM     49  C   UNL     1      10.247  -6.672 -10.913  1.00  0.00     0.074 A 
ATOM     50  C   UNL     1      10.029  -5.255 -11.113  1.00  0.00     0.031 C 
ATOM     51  C   UNL     1       8.024  -7.591  -4.930  1.00  0.00     0.029 A 
ATOM     52  C   UNL     1       8.558  -8.606  -5.835  1.00  0.00     0.049 A 
ATOM     53  H   UNL     1       9.383  -8.296  -7.724  1.00  0.00     0.167 HD
ATOM     54  C   UNL     1      10.827  -7.497 -11.818  1.00  0.00     0.034 A 
ATOM     55  C   UNL     1       8.615  -9.931  -5.589  1.00  0.00     0.034 A 
ATOM     56  C   UNL     1      11.027  -8.909 -11.598  1.00  0.00     0.049 A 
ATOM     57  C   UNL     1       9.175 -10.843  -6.657  1.00  0.00     0.074 A 
ATOM     58  C   UNL     1      11.630  -9.832 -12.434  1.00  0.00     0.029 A 
ATOM     59  N   UNL     1      10.614  -9.605 -10.470  1.00  0.00    -0.354 N 
ATOM     60  N   UNL     1       9.658 -10.533  -7.840  1.00  0.00    -0.248 NA
ATOM     61  C   UNL     1       9.201 -12.281  -6.357  1.00  0.00     0.031 C 
ATOM     62  C   UNL     1      11.502 -11.097 -11.853  1.00  0.00     0.029 A 
ATOM     63  C   UNL     1      10.905 -10.953 -10.611  1.00  0.00     0.049 A 
ATOM     64  H   UNL     1      10.178  -9.201  -9.685  1.00  0.00     0.167 HD
ATOM     65  C   UNL     1      10.071 -11.737  -8.408  1.00  0.00     0.074 A 
ATOM     66  C   UNL     1       9.804 -12.770  -7.430  1.00  0.00     0.031 C 
ATOM     67  C   UNL     1      10.621 -11.971  -9.627  1.00  0.00     0.034 A 
BRANCH  54  68
ATOM     68  C   UNL     1      11.231  -6.913 -13.149  1.00  0.00     0.023 A 
ATOM     69  C   UNL     1      12.254  -5.957 -13.265  1.00  0.00     0.031 A 
ATOM     70  C   UNL     1      10.590  -7.340 -14.326  1.00  0.00     0.131 A 
ATOM     71  C   UNL     1      12.576  -5.428 -14.524  1.00  0.00     0.055 A 
ATOM     72  C   UNL     1      10.964  -6.863 -15.583  1.00  0.00     0.041 A 
ATOM     73  F   UNL     1       9.588  -8.232 -14.273  1.00  0.00    -0.206 F 
ATOM     74  C   UNL     1      11.957  -5.895 -15.687  1.00  0.00     0.022 A 
BRANCH  71  75
ATOM     75  S   UNL     1      13.741  -4.041 -14.614  1.00  0.00     0.124 S 
ATOM     76  O   UNL     1      13.064  -3.034 -13.800  1.00  0.00    -0.237 OA
ATOM     77  O   UNL     1      14.956  -4.611 -14.044  1.00  0.00    -0.237 OA
ATOM     78  O   UNL     1      13.804  -3.737 -16.042  1.00  0.00    -0.744 OA
ENDBRANCH  71  75
ENDBRANCH  54  68
BRANCH  55  79
ATOM     79  C   UNL     1       8.073 -10.498  -4.318  1.00  0.00     0.023 A 
ATOM     80  C   UNL     1       8.891 -11.234  -3.447  1.00  0.00     0.031 A 
ATOM     81  C   UNL     1       6.706 -10.393  -4.002  1.00  0.00     0.131 A 
ATOM     82  C   UNL     1       8.325 -11.892  -2.343  1.00  0.00     0.055 A 
ATOM     83  C   UNL     1       6.161 -10.989  -2.863  1.00  0.00     0.041 A 
ATOM     84  F   UNL     1       5.873  -9.708  -4.802  1.00  0.00    -0.206 F 
ATOM     85  C   UNL     1       6.970 -11.761  -2.036  1.00  0.00     0.022 A 
BRANCH  82  86
ATOM     86  S   UNL     1       9.366 -13.033  -1.391  1.00  0.00     0.124 S 
ATOM     87  O   UNL     1       9.831 -13.944  -2.430  1.00  0.00    -0.237 OA
ATOM     88  O   UNL     1      10.367 -12.132  -0.831  1.00  0.00    -0.237 OA
ATOM     89  O   UNL     1       8.437 -13.611  -0.422  1.00  0.00    -0.744 OA
ENDBRANCH  82  86
ENDBRANCH  55  79
BRANCH  67  90
ATOM     90  C   UNL     1      11.003 -13.397  -9.947  1.00  0.00     0.023 A 
ATOM     91  C   UNL     1      10.037 -14.410 -10.076  1.00  0.00     0.031 A 
ATOM     92  C   UNL     1      12.355 -13.748 -10.118  1.00  0.00     0.131 A 
ATOM     93  C   UNL     1      10.439 -15.734 -10.305  1.00  0.00     0.055 A 
ATOM     94  C   UNL     1      12.743 -15.054 -10.417  1.00  0.00     0.041 A 
ATOM     95  F   UNL     1      13.321 -12.823 -10.003  1.00  0.00    -0.206 F 
ATOM     96  C   UNL     1      11.784 -16.059 -10.498  1.00  0.00     0.022 A 
BRANCH  93  97
ATOM     97  S   UNL     1       9.187 -17.045 -10.247  1.00  0.00     0.124 S 
ATOM     98  O   UNL     1       8.652 -16.892  -8.898  1.00  0.00    -0.237 OA
ATOM     99  O   UNL     1       8.290 -16.669 -11.335  1.00  0.00    -0.237 OA
ATOM    100  O   UNL     1       9.958 -18.266 -10.474  1.00  0.00    -0.744 OA
ENDBRANCH  93  97
ENDBRANCH  67  90
ENDBRANCH  41  42
ENDBRANCH  34  36
ENDBRANCH  33  34
ENDBRANCH  32  33
ENDBRANCH  31  32
ENDBRANCH  30  31
ENDBRANCH  29  30
ENDBRANCH  28  29
ENDBRANCH   1  28
TORSDOF 27
