REMARK SMILES CN(Cc1ncc(C(=O)OCCOCCOCCOCCOC(=O)c2ccc(-c3c4nc(c(-c5cc(S(=O)(=O)[O-])ccc5F)c5ccc([nH]5)c(-c5cc(S(=O)(=O)[O-])ccc5F)c5nc(c(-c6cc(S(=O)(=O)[O-])ccc6F)c6ccc3[nH]6)C=C5)C=C4)cc2)cn1)S(=O)(=O)c1ccc(Cl)cc1
REMARK SMILES IDX 15 1 14 2 13 3 12 4 11 5 10 6 8 7 9 8 7 9 4 10 5 11 89 12
REMARK SMILES IDX 6 13 88 14 3 15 2 16 1 17 90 18 91 19 92 20 93 21 94 22
REMARK SMILES IDX 99 23 95 24 98 25 96 26 97 27 16 28 17 29 18 30 19 31 20 32
REMARK SMILES IDX 21 33 22 34 23 35 24 36 25 37 26 38 87 39 27 40 86 41 28 42
REMARK SMILES IDX 29 43 30 44 80 45 31 46 85 47 79 48 81 49 32 50 84 51 78 52
REMARK SMILES IDX 77 53 33 55 65 56 45 57 64 58 46 59 49 60 63 61 82 62 47 63
REMARK SMILES IDX 48 64 62 66 83 67 50 68 34 69 35 70 43 71 36 72 42 73 44 74
REMARK SMILES IDX 41 75 37 76 38 77 39 78 40 79 66 80 67 81 75 82 68 83 74 84
REMARK SMILES IDX 76 85 73 86 69 87 70 88 71 89 72 90 51 91 52 92 60 93 53 94
REMARK SMILES IDX 59 95 61 96 58 97 54 98 55 99 56 100 57 101
REMARK H PARENT 81 54 49 65
REMARK Flexibility Score: inf
ROOT
ATOM      1  C   UNL     1      -0.760   0.077   5.669  1.00  0.00     0.188 C 
ENDROOT
BRANCH   1   2
ATOM      2  C   UNL     1      -1.840   1.063   6.149  1.00  0.00     0.188 C 
BRANCH   2   3
ATOM      3  O   UNL     1      -2.732   0.747   7.208  1.00  0.00    -0.376 OA
BRANCH   3   4
ATOM      4  C   UNL     1      -3.300  -0.540   7.391  1.00  0.00     0.202 C 
BRANCH   4   5
ATOM      5  C   UNL     1      -3.811  -1.432   6.242  1.00  0.00     0.261 C 
BRANCH   5   6
ATOM      6  O   UNL     1      -3.305  -1.171   4.934  1.00  0.00    -0.460 OA
BRANCH   6   7
ATOM      7  C   UNL     1      -4.019  -0.310   4.178  1.00  0.00     0.341 C 
ATOM      8  O   UNL     1      -5.058   0.243   4.465  1.00  0.00    -0.246 OA
BRANCH   7   9
ATOM      9  C   UNL     1      -3.235  -0.001   2.974  1.00  0.00     0.096 A 
ATOM     10  C   UNL     1      -1.701   0.742   0.860  1.00  0.00     0.143 A 
ATOM     11  N   UNL     1      -1.599  -0.534   1.293  1.00  0.00    -0.239 NA
ATOM     12  N   UNL     1      -2.539   1.662   1.387  1.00  0.00    -0.239 NA
ATOM     13  C   UNL     1      -2.371  -0.876   2.354  1.00  0.00     0.130 A 
ATOM     14  C   UNL     1      -3.276   1.269   2.450  1.00  0.00     0.130 A 
BRANCH  10  15
ATOM     15  C   UNL     1      -0.841   1.172  -0.320  1.00  0.00     0.179 C 
BRANCH  15  16
ATOM     16  N   UNL     1       0.614   1.454  -0.089  1.00  0.00    -0.193 NA
ATOM     17  C   UNL     1       1.382   0.181   0.007  1.00  0.00     0.125 C 
BRANCH  16  18
ATOM     18  S   UNL     1       1.050   2.559   1.142  1.00  0.00     0.243 S 
ATOM     19  O   UNL     1       0.332   2.248   2.356  1.00  0.00    -0.207 OA
ATOM     20  O   UNL     1       2.501   2.592   1.149  1.00  0.00    -0.207 OA
BRANCH  18  21
ATOM     21  C   UNL     1       0.533   4.188   0.609  1.00  0.00     0.082 A 
ATOM     22  C   UNL     1       1.488   5.215   0.550  1.00  0.00     0.023 A 
ATOM     23  C   UNL     1      -0.811   4.489   0.378  1.00  0.00     0.023 A 
ATOM     24  C   UNL     1       1.100   6.524   0.244  1.00  0.00     0.022 A 
ATOM     25  C   UNL     1      -1.193   5.791   0.037  1.00  0.00     0.022 A 
ATOM     26  C   UNL     1      -0.238   6.804  -0.021  1.00  0.00     0.041 A 
ATOM     27  Cl  UNL     1      -0.721   8.413  -0.393  1.00  0.00    -0.084 Cl
ENDBRANCH  18  21
ENDBRANCH  16  18
ENDBRANCH  15  16
ENDBRANCH  10  15
ENDBRANCH   7   9
ENDBRANCH   6   7
ENDBRANCH   5   6
ENDBRANCH   4   5
ENDBRANCH   3   4
ENDBRANCH   2   3
ENDBRANCH   1   2
BRANCH   1  28
ATOM     28  O   UNL     1      -0.848  -1.198   6.280  1.00  0.00    -0.377 OA
BRANCH  28  29
ATOM     29  C   UNL     1       0.096  -1.438   7.320  1.00  0.00     0.188 C 
BRANCH  29  30
ATOM     30  C   UNL     1       0.199  -0.360   8.415  1.00  0.00     0.188 C 
BRANCH  30  31
ATOM     31  O   UNL     1       0.615   0.911   7.912  1.00  0.00    -0.376 OA
BRANCH  31  32
ATOM     32  C   UNL     1       1.958   1.295   8.187  1.00  0.00     0.202 C 
BRANCH  32  33
ATOM     33  C   UNL     1       3.009   0.622   7.293  1.00  0.00     0.261 C 
BRANCH  33  34
ATOM     34  O   UNL     1       3.117  -0.804   7.436  1.00  0.00    -0.460 OA
BRANCH  34  35
ATOM     35  C   UNL     1       3.418  -1.283   8.664  1.00  0.00     0.338 C 
ATOM     36  O   UNL     1       3.672  -0.632   9.660  1.00  0.00    -0.246 OA
BRANCH  35  37
ATOM     37  C   UNL     1       3.189  -2.742   8.647  1.00  0.00     0.060 A 
ATOM     38  C   UNL     1       2.328  -3.300   9.599  1.00  0.00     0.016 A 
ATOM     39  C   UNL     1       3.821  -3.553   7.700  1.00  0.00     0.016 A 
ATOM     40  C   UNL     1       2.124  -4.681   9.629  1.00  0.00     0.010 A 
ATOM     41  C   UNL     1       3.628  -4.936   7.741  1.00  0.00     0.010 A 
ATOM     42  C   UNL     1       2.804  -5.509   8.725  1.00  0.00    -0.014 A 
BRANCH  42  43
ATOM     43  C   UNL     1       2.802  -6.980   8.924  1.00  0.00     0.031 A 
ATOM     44  C   UNL     1       3.966  -7.604   9.646  1.00  0.00     0.074 A 
ATOM     45  C   UNL     1       1.785  -7.744   8.488  1.00  0.00     0.049 A 
ATOM     46  N   UNL     1       4.208  -8.863   9.905  1.00  0.00    -0.248 NA
ATOM     47  C   UNL     1       5.000  -6.678  10.134  1.00  0.00     0.031 C 
ATOM     48  C   UNL     1       0.588  -7.250   7.810  1.00  0.00     0.029 A 
ATOM     49  N   UNL     1       1.602  -9.104   8.547  1.00  0.00    -0.354 N 
ATOM     50  C   UNL     1       5.419  -8.881  10.588  1.00  0.00     0.074 A 
ATOM     51  C   UNL     1       5.881  -7.512  10.662  1.00  0.00     0.031 C 
ATOM     52  C   UNL     1      -0.203  -8.296   7.507  1.00  0.00     0.029 A 
ATOM     53  C   UNL     1       0.447  -9.534   7.936  1.00  0.00     0.049 A 
ATOM     54  H   UNL     1       2.239  -9.714   8.985  1.00  0.00     0.167 HD
ATOM     55  C   UNL     1       6.080  -9.942  11.115  1.00  0.00     0.034 A 
ATOM     56  C   UNL     1      -0.018 -10.783   7.728  1.00  0.00     0.034 A 
ATOM     57  C   UNL     1       5.618 -11.304  11.014  1.00  0.00     0.049 A 
ATOM     58  C   UNL     1       0.782 -11.959   8.243  1.00  0.00     0.074 A 
ATOM     59  C   UNL     1       6.203 -12.453  11.519  1.00  0.00     0.029 A 
ATOM     60  N   UNL     1       4.466 -11.706  10.350  1.00  0.00    -0.354 N 
ATOM     61  N   UNL     1       1.918 -11.963   8.903  1.00  0.00    -0.248 NA
ATOM     62  C   UNL     1       0.230 -13.297   7.992  1.00  0.00     0.031 C 
ATOM     63  C   UNL     1       5.448 -13.552  11.096  1.00  0.00     0.029 A 
ATOM     64  C   UNL     1       4.343 -13.087  10.400  1.00  0.00     0.049 A 
ATOM     65  H   UNL     1       3.829 -11.100   9.907  1.00  0.00     0.167 HD
ATOM     66  C   UNL     1       2.195 -13.302   9.175  1.00  0.00     0.074 A 
ATOM     67  C   UNL     1       1.103 -14.072   8.618  1.00  0.00     0.031 C 
ATOM     68  C   UNL     1       3.252 -13.845   9.832  1.00  0.00     0.034 A 
BRANCH  55  69
ATOM     69  C   UNL     1       7.398  -9.664  11.796  1.00  0.00     0.023 A 
ATOM     70  C   UNL     1       7.481  -8.873  12.956  1.00  0.00     0.031 A 
ATOM     71  C   UNL     1       8.595 -10.167  11.257  1.00  0.00     0.131 A 
ATOM     72  C   UNL     1       8.735  -8.549  13.495  1.00  0.00     0.055 A 
ATOM     73  C   UNL     1       9.834  -9.908  11.845  1.00  0.00     0.041 A 
ATOM     74  F   UNL     1       8.582 -10.906  10.136  1.00  0.00    -0.206 F 
ATOM     75  C   UNL     1       9.911  -9.082  12.962  1.00  0.00     0.022 A 
BRANCH  72  76
ATOM     76  S   UNL     1       8.818  -7.302  14.809  1.00  0.00     0.124 S 
ATOM     77  O   UNL     1       8.197  -6.148  14.161  1.00  0.00    -0.237 OA
ATOM     78  O   UNL     1       8.049  -7.922  15.882  1.00  0.00    -0.237 OA
ATOM     79  O   UNL     1      10.251  -7.167  15.064  1.00  0.00    -0.744 OA
ENDBRANCH  72  76
ENDBRANCH  55  69
BRANCH  56  80
ATOM     80  C   UNL     1      -1.281 -11.005   6.966  1.00  0.00     0.023 A 
ATOM     81  C   UNL     1      -2.398 -11.610   7.565  1.00  0.00     0.031 A 
ATOM     82  C   UNL     1      -1.367 -10.671   5.602  1.00  0.00     0.131 A 
ATOM     83  C   UNL     1      -3.533 -11.905   6.793  1.00  0.00     0.055 A 
ATOM     84  C   UNL     1      -2.518 -10.918   4.852  1.00  0.00     0.041 A 
ATOM     85  F   UNL     1      -0.328 -10.095   4.978  1.00  0.00    -0.206 F 
ATOM     86  C   UNL     1      -3.605 -11.551   5.444  1.00  0.00     0.022 A 
BRANCH  83  87
ATOM     87  S   UNL     1      -4.885 -12.843   7.557  1.00  0.00     0.124 S 
ATOM     88  O   UNL     1      -4.204 -14.065   7.967  1.00  0.00    -0.237 OA
ATOM     89  O   UNL     1      -5.304 -11.949   8.631  1.00  0.00    -0.237 OA
ATOM     90  O   UNL     1      -5.848 -12.999   6.468  1.00  0.00    -0.744 OA
ENDBRANCH  83  87
ENDBRANCH  56  80
BRANCH  68  91
ATOM     91  C   UNL     1       3.248 -15.344  10.030  1.00  0.00     0.023 A 
ATOM     92  C   UNL     1       3.357 -16.238   8.950  1.00  0.00     0.031 A 
ATOM     93  C   UNL     1       3.127 -15.883  11.323  1.00  0.00     0.131 A 
ATOM     94  C   UNL     1       3.286 -17.621   9.178  1.00  0.00     0.055 A 
ATOM     95  C   UNL     1       3.121 -17.260  11.550  1.00  0.00     0.041 A 
ATOM     96  F   UNL     1       3.017 -15.078  12.392  1.00  0.00    -0.206 F 
ATOM     97  C   UNL     1       3.187 -18.138  10.472  1.00  0.00     0.022 A 
BRANCH  94  98
ATOM     98  S   UNL     1       3.228 -18.739   7.750  1.00  0.00     0.124 S 
ATOM     99  O   UNL     1       2.051 -18.256   7.035  1.00  0.00    -0.237 OA
ATOM    100  O   UNL     1       4.513 -18.488   7.105  1.00  0.00    -0.237 OA
ATOM    101  O   UNL     1       3.087 -20.062   8.355  1.00  0.00    -0.744 OA
ENDBRANCH  94  98
ENDBRANCH  68  91
ENDBRANCH  42  43
ENDBRANCH  35  37
ENDBRANCH  34  35
ENDBRANCH  33  34
ENDBRANCH  32  33
ENDBRANCH  31  32
ENDBRANCH  30  31
ENDBRANCH  29  30
ENDBRANCH  28  29
ENDBRANCH   1  28
TORSDOF 27
