REMARK SMILES Cc1cccc2c(C(F)(F)F)cc(C(=O)OCCOCCOCCOCCOC(=O)c3ccc(-c4c5nc(c(-c6cc(S(=O)(=O)[O-])ccc6F)c6ccc([nH]6)c(-c6cc(S(=O)(=O)[O-])ccc6F)c6nc(c(-c7cc(S(=O)(=O)[O-])ccc7F)c7ccc4[nH]7)C=C6)C=C5)cc3)nc12
REMARK SMILES IDX 23 1 22 2 21 3 20 4 19 5 18 6 17 7 16 8 14 9 15 10 13 11
REMARK SMILES IDX 1 12 2 13 3 14 95 15 4 16 6 17 94 18 5 19 7 20 12 21 8 22
REMARK SMILES IDX 9 23 10 24 11 25 24 26 25 27 26 28 27 29 28 30 29 31 30 32
REMARK SMILES IDX 31 33 32 34 93 35 33 36 92 37 34 38 35 39 36 40 86 41 37 42
REMARK SMILES IDX 91 43 85 44 87 45 38 46 90 47 84 48 83 49 39 51 71 52 51 53
REMARK SMILES IDX 70 54 52 55 55 56 69 57 88 58 53 59 54 60 68 62 89 63 56 64
REMARK SMILES IDX 40 65 41 66 49 67 42 68 48 69 50 70 47 71 43 72 44 73 45 74
REMARK SMILES IDX 46 75 72 76 73 77 81 78 74 79 80 80 82 81 79 82 75 83 76 84
REMARK SMILES IDX 77 85 78 86 57 87 58 88 66 89 59 90 65 91 67 92 64 93 60 94
REMARK SMILES IDX 61 95 62 96 63 97
REMARK H PARENT 87 50 55 61
REMARK Flexibility Score: inf
ROOT
ATOM      1  C   UNL     1      -3.772   4.396  -2.771  1.00  0.00     0.188 C 
ENDROOT
BRANCH   1   2
ATOM      2  O   UNL     1      -2.887   3.303  -2.568  1.00  0.00    -0.377 OA
BRANCH   2   3
ATOM      3  C   UNL     1      -3.366   2.077  -2.031  1.00  0.00     0.188 C 
BRANCH   3   4
ATOM      4  C   UNL     1      -4.678   1.976  -1.214  1.00  0.00     0.188 C 
BRANCH   4   5
ATOM      5  O   UNL     1      -5.311   3.208  -0.934  1.00  0.00    -0.376 OA
BRANCH   5   6
ATOM      6  C   UNL     1      -5.285   3.736   0.376  1.00  0.00     0.202 C 
BRANCH   6   7
ATOM      7  C   UNL     1      -3.925   4.045   1.015  1.00  0.00     0.261 C 
BRANCH   7   8
ATOM      8  O   UNL     1      -2.924   3.031   0.875  1.00  0.00    -0.459 OA
BRANCH   8   9
ATOM      9  C   UNL     1      -3.087   1.901   1.599  1.00  0.00     0.357 C 
ATOM     10  O   UNL     1      -4.013   1.651   2.356  1.00  0.00    -0.244 OA
BRANCH   9  11
ATOM     11  C   UNL     1      -2.079   0.896   1.157  1.00  0.00     0.149 A 
ATOM     12  C   UNL     1       1.691   2.358   0.174  1.00  0.00     0.047 C 
ATOM     13  C   UNL     1       1.385   0.881   0.181  1.00  0.00    -0.025 A 
ATOM     14  C   UNL     1       2.409  -0.020  -0.144  1.00  0.00     0.005 A 
ATOM     15  C   UNL     1       0.087   0.429   0.454  1.00  0.00     0.075 A 
ATOM     16  C   UNL     1       2.139  -1.374  -0.239  1.00  0.00     0.001 A 
ATOM     17  C   UNL     1      -0.217  -0.950   0.296  1.00  0.00     0.013 A 
ATOM     18  N   UNL     1      -0.832   1.321   0.864  1.00  0.00    -0.240 NA
ATOM     19  C   UNL     1       0.836  -1.830  -0.055  1.00  0.00     0.011 A 
ATOM     20  C   UNL     1      -1.564  -1.355   0.508  1.00  0.00     0.067 A 
ATOM     21  C   UNL     1      -2.491  -0.407   0.969  1.00  0.00     0.049 A 
BRANCH  20  22
ATOM     22  C   UNL     1      -2.118  -2.722   0.183  1.00  0.00     0.417 C 
ATOM     23  F   UNL     1      -3.067  -3.120   1.081  1.00  0.00    -0.166 F 
ATOM     24  F   UNL     1      -2.741  -2.737  -1.030  1.00  0.00    -0.166 F 
ATOM     25  F   UNL     1      -1.218  -3.740   0.150  1.00  0.00    -0.166 F 
ENDBRANCH  20  22
ENDBRANCH   9  11
ENDBRANCH   8   9
ENDBRANCH   7   8
ENDBRANCH   6   7
ENDBRANCH   5   6
ENDBRANCH   4   5
ENDBRANCH   3   4
ENDBRANCH   2   3
ENDBRANCH   1   2
BRANCH   1  26
ATOM     26  C   UNL     1      -5.099   4.135  -3.511  1.00  0.00     0.188 C 
BRANCH  26  27
ATOM     27  O   UNL     1      -5.306   2.769  -3.840  1.00  0.00    -0.376 OA
BRANCH  27  28
ATOM     28  C   UNL     1      -5.130   2.397  -5.196  1.00  0.00     0.202 C 
BRANCH  28  29
ATOM     29  C   UNL     1      -3.744   2.606  -5.824  1.00  0.00     0.261 C 
BRANCH  29  30
ATOM     30  O   UNL     1      -3.172   3.918  -5.711  1.00  0.00    -0.460 OA
BRANCH  30  31
ATOM     31  C   UNL     1      -3.791   4.930  -6.357  1.00  0.00     0.338 C 
ATOM     32  O   UNL     1      -4.801   4.854  -7.037  1.00  0.00    -0.246 OA
BRANCH  31  33
ATOM     33  C   UNL     1      -3.138   6.188  -5.934  1.00  0.00     0.060 A 
ATOM     34  C   UNL     1      -3.888   7.159  -5.256  1.00  0.00     0.016 A 
ATOM     35  C   UNL     1      -1.779   6.392  -6.183  1.00  0.00     0.016 A 
ATOM     36  C   UNL     1      -3.283   8.349  -4.848  1.00  0.00     0.010 A 
ATOM     37  C   UNL     1      -1.181   7.595  -5.795  1.00  0.00     0.010 A 
ATOM     38  C   UNL     1      -1.937   8.591  -5.152  1.00  0.00    -0.014 A 
BRANCH  38  39
ATOM     39  C   UNL     1      -1.374   9.955  -4.985  1.00  0.00     0.031 A 
ATOM     40  C   UNL     1      -1.307  10.845  -6.197  1.00  0.00     0.074 A 
ATOM     41  C   UNL     1      -0.951  10.404  -3.790  1.00  0.00     0.049 A 
ATOM     42  N   UNL     1      -0.799  12.043  -6.326  1.00  0.00    -0.248 NA
ATOM     43  C   UNL     1      -1.892  10.303  -7.434  1.00  0.00     0.031 C 
ATOM     44  C   UNL     1      -1.015   9.656  -2.535  1.00  0.00     0.029 A 
ATOM     45  N   UNL     1      -0.375  11.600  -3.438  1.00  0.00    -0.354 N 
ATOM     46  C   UNL     1      -0.998  12.396  -7.656  1.00  0.00     0.074 A 
ATOM     47  C   UNL     1      -1.637  11.270  -8.301  1.00  0.00     0.031 C 
ATOM     48  C   UNL     1      -0.488  10.408  -1.553  1.00  0.00     0.029 A 
ATOM     49  C   UNL     1      -0.008  11.671  -2.114  1.00  0.00     0.049 A 
ATOM     50  H   UNL     1      -0.237  12.339  -4.074  1.00  0.00     0.167 HD
ATOM     51  C   UNL     1      -0.683  13.558  -8.280  1.00  0.00     0.034 A 
ATOM     52  C   UNL     1       0.666  12.630  -1.444  1.00  0.00     0.034 A 
ATOM     53  C   UNL     1      -0.032  14.666  -7.626  1.00  0.00     0.049 A 
ATOM     54  C   UNL     1       1.103  13.873  -2.188  1.00  0.00     0.074 A 
ATOM     55  C   UNL     1       0.327  15.890  -8.162  1.00  0.00     0.029 A 
ATOM     56  N   UNL     1       0.372  14.680  -6.297  1.00  0.00    -0.354 N 
ATOM     57  N   UNL     1       0.905  14.200  -3.445  1.00  0.00    -0.248 NA
ATOM     58  C   UNL     1       1.847  14.880  -1.419  1.00  0.00     0.031 C 
ATOM     59  C   UNL     1       1.020  16.610  -7.183  1.00  0.00     0.029 A 
ATOM     60  C   UNL     1       1.010  15.876  -6.008  1.00  0.00     0.049 A 
ATOM     61  H   UNL     1       0.226  13.948  -5.655  1.00  0.00     0.167 HD
ATOM     62  C   UNL     1       1.469  15.465  -3.604  1.00  0.00     0.074 A 
ATOM     63  C   UNL     1       1.998  15.847  -2.312  1.00  0.00     0.031 C 
ATOM     64  C   UNL     1       1.539  16.244  -4.715  1.00  0.00     0.034 A 
BRANCH  51  65
ATOM     65  C   UNL     1      -0.991  13.661  -9.754  1.00  0.00     0.023 A 
ATOM     66  C   UNL     1      -2.309  13.620 -10.242  1.00  0.00     0.031 A 
ATOM     67  C   UNL     1       0.053  13.785 -10.688  1.00  0.00     0.131 A 
ATOM     68  C   UNL     1      -2.544  13.639 -11.625  1.00  0.00     0.055 A 
ATOM     69  C   UNL     1      -0.192  13.886 -12.058  1.00  0.00     0.041 A 
ATOM     70  F   UNL     1       1.333  13.801 -10.284  1.00  0.00    -0.206 F 
ATOM     71  C   UNL     1      -1.497  13.800 -12.535  1.00  0.00     0.022 A 
BRANCH  68  72
ATOM     72  S   UNL     1      -4.224  13.311 -12.224  1.00  0.00     0.124 S 
ATOM     73  O   UNL     1      -4.483  11.986 -11.665  1.00  0.00    -0.237 OA
ATOM     74  O   UNL     1      -4.987  14.410 -11.644  1.00  0.00    -0.237 OA
ATOM     75  O   UNL     1      -4.082  13.348 -13.678  1.00  0.00    -0.744 OA
ENDBRANCH  68  72
ENDBRANCH  51  65
BRANCH  52  76
ATOM     76  C   UNL     1       1.024  12.449  -0.005  1.00  0.00     0.023 A 
ATOM     77  C   UNL     1       0.571  13.345   0.977  1.00  0.00     0.031 A 
ATOM     78  C   UNL     1       1.899  11.423   0.399  1.00  0.00     0.131 A 
ATOM     79  C   UNL     1       1.038  13.235   2.297  1.00  0.00     0.055 A 
ATOM     80  C   UNL     1       2.308  11.278   1.726  1.00  0.00     0.041 A 
ATOM     81  F   UNL     1       2.374  10.543  -0.497  1.00  0.00    -0.206 F 
ATOM     82  C   UNL     1       1.890  12.198   2.681  1.00  0.00     0.022 A 
BRANCH  79  83
ATOM     83  S   UNL     1       0.608  14.540   3.483  1.00  0.00     0.124 S 
ATOM     84  O   UNL     1       1.129  15.727   2.816  1.00  0.00    -0.237 OA
ATOM     85  O   UNL     1      -0.846  14.424   3.546  1.00  0.00    -0.237 OA
ATOM     86  O   UNL     1       1.316  14.143   4.697  1.00  0.00    -0.744 OA
ENDBRANCH  79  83
ENDBRANCH  52  76
BRANCH  64  87
ATOM     87  C   UNL     1       2.163  17.613  -4.565  1.00  0.00     0.023 A 
ATOM     88  C   UNL     1       3.521  17.782  -4.246  1.00  0.00     0.031 A 
ATOM     89  C   UNL     1       1.379  18.768  -4.743  1.00  0.00     0.131 A 
ATOM     90  C   UNL     1       4.040  19.072  -4.057  1.00  0.00     0.055 A 
ATOM     91  C   UNL     1       1.918  20.050  -4.624  1.00  0.00     0.041 A 
ATOM     92  F   UNL     1       0.075  18.670  -5.046  1.00  0.00    -0.206 F 
ATOM     93  C   UNL     1       3.253  20.207  -4.264  1.00  0.00     0.022 A 
BRANCH  90  94
ATOM     94  S   UNL     1       5.736  19.247  -3.435  1.00  0.00     0.124 S 
ATOM     95  O   UNL     1       5.675  18.509  -2.178  1.00  0.00    -0.237 OA
ATOM     96  O   UNL     1       6.524  18.632  -4.498  1.00  0.00    -0.237 OA
ATOM     97  O   UNL     1       5.903  20.693  -3.298  1.00  0.00    -0.744 OA
ENDBRANCH  90  94
ENDBRANCH  64  87
ENDBRANCH  38  39
ENDBRANCH  31  33
ENDBRANCH  30  31
ENDBRANCH  29  30
ENDBRANCH  28  29
ENDBRANCH  27  28
ENDBRANCH  26  27
ENDBRANCH   1  26
TORSDOF 24
