REMARK SMILES C[NH2+][C@@]1(C(=O)OCCOCCOCCOCCOC(=O)c2ccc(-c3c4nc(c(-c5cc(S(=O)(=O)[O-])ccc5F)c5ccc([nH]5)c(-c5cc(S(=O)(=O)[O-])ccc5F)c5nc(c(-c6cc(S(=O)(=O)[O-])ccc6F)c6ccc3[nH]6)C=C5)C=C4)cc2)CC[C@H]([NH+]2CC[NH+](C)CC2)C1
REMARK SMILES IDX 13 1 12 2 11 3 10 4 9 5 8 6 7 7 6 8 4 9 5 10 3 11 84 12
REMARK SMILES IDX 94 13 85 14 86 15 2 16 1 17 87 20 88 21 93 22 89 24 92 25
REMARK SMILES IDX 90 26 91 27 14 29 15 30 16 31 17 32 18 33 19 34 20 35 21 36
REMARK SMILES IDX 22 37 83 38 23 39 82 40 24 41 25 42 26 43 76 44 27 45 81 46
REMARK SMILES IDX 75 47 77 48 28 49 80 50 74 51 73 52 29 54 61 55 41 56 60 57
REMARK SMILES IDX 42 58 45 59 59 60 78 61 43 62 44 63 58 65 79 66 46 67 30 68
REMARK SMILES IDX 31 69 39 70 32 71 38 72 40 73 37 74 33 75 34 76 35 77 36 78
REMARK SMILES IDX 62 79 63 80 71 81 64 82 70 83 72 84 69 85 65 86 66 87 67 88
REMARK SMILES IDX 68 89 47 90 48 91 56 92 49 93 55 94 57 95 54 96 50 97 51 98
REMARK SMILES IDX 52 99 53 100
REMARK H PARENT 2 18 2 19 87 23 90 28 77 53 45 64
REMARK Flexibility Score: inf
ROOT
ATOM      1  C   UNL     1      -2.619  -2.717   2.133  1.00  0.00     0.188 C 
ENDROOT
BRANCH   1   2
ATOM      2  O   UNL     1      -1.636  -2.766   1.130  1.00  0.00    -0.377 OA
BRANCH   2   3
ATOM      3  C   UNL     1      -0.657  -1.755   1.096  1.00  0.00     0.188 C 
BRANCH   3   4
ATOM      4  C   UNL     1      -0.077  -1.063   2.329  1.00  0.00     0.188 C 
BRANCH   4   5
ATOM      5  O   UNL     1      -0.928  -0.578   3.345  1.00  0.00    -0.376 OA
BRANCH   5   6
ATOM      6  C   UNL     1      -1.893   0.446   3.162  1.00  0.00     0.202 C 
BRANCH   6   7
ATOM      7  C   UNL     1      -1.836   1.458   2.011  1.00  0.00     0.261 C 
BRANCH   7   8
ATOM      8  O   UNL     1      -1.811   0.881   0.691  1.00  0.00    -0.459 OA
BRANCH   8   9
ATOM      9  C   UNL     1      -1.225   1.643  -0.270  1.00  0.00     0.368 C 
ATOM     10  O   UNL     1      -0.800   2.777  -0.047  1.00  0.00    -0.245 OA
BRANCH   9  11
ATOM     11  C   UNL     1      -0.998   0.948  -1.665  1.00  0.00     0.200 C 
ATOM     12  C   UNL     1      -1.607   1.877  -2.738  1.00  0.00     0.087 C 
ATOM     13  C   UNL     1      -1.680  -0.385  -2.049  1.00  0.00     0.146 C 
ATOM     14  C   UNL     1      -3.068   1.462  -2.838  1.00  0.00     0.072 C 
ATOM     15  C   UNL     1      -3.082  -0.055  -2.622  1.00  0.00     0.191 C 
BRANCH  11  16
ATOM     16  N   UNL     1       0.476   0.938  -1.938  1.00  0.00    -0.334 N 
ATOM     17  C   UNL     1       1.281   0.185  -0.990  1.00  0.00     0.331 C 
ATOM     18  H   UNL     1       0.622   0.536  -2.863  1.00  0.00     0.347 HD
ATOM     19  H   UNL     1       0.782   1.908  -1.858  1.00  0.00     0.347 HD
ENDBRANCH  11  16
BRANCH  15  20
ATOM     20  N   UNL     1      -4.229  -0.695  -1.963  1.00  0.00    -0.323 N 
ATOM     21  C   UNL     1      -5.549  -0.380  -2.542  1.00  0.00     0.324 C 
ATOM     22  C   UNL     1      -4.346  -0.591  -0.505  1.00  0.00     0.324 C 
ATOM     23  H   UNL     1      -3.970  -1.660  -2.169  1.00  0.00     0.348 HD
ATOM     24  C   UNL     1      -6.198   0.942  -2.055  1.00  0.00     0.324 C 
ATOM     25  C   UNL     1      -4.864   0.766   0.003  1.00  0.00     0.324 C 
ATOM     26  N   UNL     1      -6.136   1.181  -0.601  1.00  0.00    -0.328 N 
ATOM     27  C   UNL     1      -6.409   2.586  -0.294  1.00  0.00     0.333 C 
ATOM     28  H   UNL     1      -6.860   0.595  -0.185  1.00  0.00     0.348 HD
ENDBRANCH  15  20
ENDBRANCH   9  11
ENDBRANCH   8   9
ENDBRANCH   7   8
ENDBRANCH   6   7
ENDBRANCH   5   6
ENDBRANCH   4   5
ENDBRANCH   3   4
ENDBRANCH   2   3
ENDBRANCH   1   2
BRANCH   1  29
ATOM     29  C   UNL     1      -2.171  -3.350   3.455  1.00  0.00     0.188 C 
BRANCH  29  30
ATOM     30  O   UNL     1      -1.079  -4.263   3.508  1.00  0.00    -0.376 OA
BRANCH  30  31
ATOM     31  C   UNL     1      -0.630  -4.952   2.354  1.00  0.00     0.202 C 
BRANCH  31  32
ATOM     32  C   UNL     1      -1.571  -5.884   1.571  1.00  0.00     0.261 C 
BRANCH  32  33
ATOM     33  O   UNL     1      -2.961  -5.553   1.556  1.00  0.00    -0.460 OA
BRANCH  33  34
ATOM     34  C   UNL     1      -3.679  -6.048   2.586  1.00  0.00     0.338 C 
ATOM     35  O   UNL     1      -3.258  -6.724   3.519  1.00  0.00    -0.246 OA
BRANCH  34  36
ATOM     36  C   UNL     1      -5.060  -5.539   2.505  1.00  0.00     0.060 A 
ATOM     37  C   UNL     1      -5.565  -4.790   3.575  1.00  0.00     0.016 A 
ATOM     38  C   UNL     1      -5.874  -5.856   1.415  1.00  0.00     0.016 A 
ATOM     39  C   UNL     1      -6.894  -4.380   3.576  1.00  0.00     0.010 A 
ATOM     40  C   UNL     1      -7.219  -5.473   1.433  1.00  0.00     0.010 A 
ATOM     41  C   UNL     1      -7.740  -4.767   2.532  1.00  0.00    -0.014 A 
BRANCH  41  42
ATOM     42  C   UNL     1      -9.204  -4.633   2.713  1.00  0.00     0.031 A 
ATOM     43  C   UNL     1      -9.971  -5.835   3.193  1.00  0.00     0.074 A 
ATOM     44  C   UNL     1      -9.824  -3.458   2.513  1.00  0.00     0.049 A 
ATOM     45  N   UNL     1     -11.256  -5.985   3.378  1.00  0.00    -0.248 NA
ATOM     46  C   UNL     1      -9.174  -7.033   3.505  1.00  0.00     0.031 C 
ATOM     47  C   UNL     1      -9.166  -2.213   2.119  1.00  0.00     0.029 A 
ATOM     48  N   UNL     1     -11.150  -3.122   2.612  1.00  0.00    -0.354 N 
ATOM     49  C   UNL     1     -11.424  -7.294   3.818  1.00  0.00     0.074 A 
ATOM     50  C   UNL     1     -10.112  -7.905   3.837  1.00  0.00     0.031 C 
ATOM     51  C   UNL     1     -10.095  -1.250   1.998  1.00  0.00     0.029 A 
ATOM     52  C   UNL     1     -11.416  -1.820   2.260  1.00  0.00     0.049 A 
ATOM     53  H   UNL     1     -11.846  -3.753   2.908  1.00  0.00     0.167 HD
ATOM     54  C   UNL     1     -12.569  -7.925   4.176  1.00  0.00     0.034 A 
ATOM     55  C   UNL     1     -12.595  -1.179   2.130  1.00  0.00     0.034 A 
ATOM     56  C   UNL     1     -13.867  -7.298   4.135  1.00  0.00     0.049 A 
ATOM     57  C   UNL     1     -13.870  -1.933   2.431  1.00  0.00     0.074 A 
ATOM     58  C   UNL     1     -15.095  -7.836   4.473  1.00  0.00     0.029 A 
ATOM     59  N   UNL     1     -14.107  -5.995   3.715  1.00  0.00    -0.354 N 
ATOM     60  N   UNL     1     -14.022  -3.175   2.836  1.00  0.00    -0.248 NA
ATOM     61  C   UNL     1     -15.130  -1.199   2.264  1.00  0.00     0.031 C 
ATOM     62  C   UNL     1     -16.083  -6.890   4.179  1.00  0.00     0.029 A 
ATOM     63  C   UNL     1     -15.466  -5.726   3.749  1.00  0.00     0.049 A 
ATOM     64  H   UNL     1     -13.412  -5.356   3.434  1.00  0.00     0.167 HD
ATOM     65  C   UNL     1     -15.393  -3.356   3.005  1.00  0.00     0.074 A 
ATOM     66  C   UNL     1     -16.020  -2.093   2.671  1.00  0.00     0.031 C 
ATOM     67  C   UNL     1     -16.075  -4.461   3.404  1.00  0.00     0.034 A 
BRANCH  54  68
ATOM     68  C   UNL     1     -12.467  -9.378   4.575  1.00  0.00     0.023 A 
ATOM     69  C   UNL     1     -11.736  -9.792   5.703  1.00  0.00     0.031 A 
ATOM     70  C   UNL     1     -13.084 -10.370   3.792  1.00  0.00     0.131 A 
ATOM     71  C   UNL     1     -11.583 -11.161   5.975  1.00  0.00     0.055 A 
ATOM     72  C   UNL     1     -12.998 -11.725   4.116  1.00  0.00     0.041 A 
ATOM     73  F   UNL     1     -13.771 -10.040   2.688  1.00  0.00    -0.206 F 
ATOM     74  C   UNL     1     -12.231 -12.129   5.204  1.00  0.00     0.022 A 
BRANCH  71  75
ATOM     75  S   UNL     1     -10.403 -11.665   7.257  1.00  0.00     0.124 S 
ATOM     76  O   UNL     1      -9.161 -11.072   6.765  1.00  0.00    -0.237 OA
ATOM     77  O   UNL     1     -10.967 -11.063   8.459  1.00  0.00    -0.237 OA
ATOM     78  O   UNL     1     -10.449 -13.125   7.210  1.00  0.00    -0.744 OA
ENDBRANCH  71  75
ENDBRANCH  54  68
BRANCH  55  79
ATOM     79  C   UNL     1     -12.641   0.232   1.646  1.00  0.00     0.023 A 
ATOM     80  C   UNL     1     -13.173   1.259   2.441  1.00  0.00     0.031 A 
ATOM     81  C   UNL     1     -12.203   0.564   0.350  1.00  0.00     0.131 A 
ATOM     82  C   UNL     1     -13.299   2.556   1.917  1.00  0.00     0.055 A 
ATOM     83  C   UNL     1     -12.274   1.867  -0.144  1.00  0.00     0.041 A 
ATOM     84  F   UNL     1     -11.695  -0.380  -0.459  1.00  0.00    -0.206 F 
ATOM     85  C   UNL     1     -12.839   2.870   0.636  1.00  0.00     0.022 A 
BRANCH  82  86
ATOM     86  S   UNL     1     -14.168   3.810   2.899  1.00  0.00     0.124 S 
ATOM     87  O   UNL     1     -15.470   3.184   3.094  1.00  0.00    -0.237 OA
ATOM     88  O   UNL     1     -13.319   3.909   4.082  1.00  0.00    -0.237 OA
ATOM     89  O   UNL     1     -14.163   4.985   2.031  1.00  0.00    -0.744 OA
ENDBRANCH  82  86
ENDBRANCH  55  79
BRANCH  67  90
ATOM     90  C   UNL     1     -17.573  -4.332   3.555  1.00  0.00     0.023 A 
ATOM     91  C   UNL     1     -18.415  -4.097   2.454  1.00  0.00     0.031 A 
ATOM     92  C   UNL     1     -18.165  -4.445   4.827  1.00  0.00     0.131 A 
ATOM     93  C   UNL     1     -19.793  -3.923   2.654  1.00  0.00     0.055 A 
ATOM     94  C   UNL     1     -19.544  -4.341   5.009  1.00  0.00     0.041 A 
ATOM     95  F   UNL     1     -17.411  -4.665   5.915  1.00  0.00    -0.206 F 
ATOM     96  C   UNL     1     -20.366  -4.064   3.920  1.00  0.00     0.022 A 
BRANCH  93  97
ATOM     97  S   UNL     1     -20.817  -3.403   1.250  1.00  0.00     0.124 S 
ATOM     98  O   UNL     1     -20.173  -2.155   0.851  1.00  0.00    -0.237 OA
ATOM     99  O   UNL     1     -20.670  -4.521   0.324  1.00  0.00    -0.237 OA
ATOM    100  O   UNL     1     -22.149  -3.254   1.833  1.00  0.00    -0.744 OA
ENDBRANCH  93  97
ENDBRANCH  67  90
ENDBRANCH  41  42
ENDBRANCH  34  36
ENDBRANCH  33  34
ENDBRANCH  32  33
ENDBRANCH  31  32
ENDBRANCH  30  31
ENDBRANCH  29  30
ENDBRANCH   1  29
TORSDOF 25
