REMARK SMILES Cc1ccc(C)c(-c2cc(C(=O)OCCOCCOCCOCCOC(=O)c3ccc(-c4c5nc(c(-c6cc(S(=O)(=O)[O-])ccc6F)c6ccc([nH]6)c(-c6cc(S(=O)(=O)[O-])ccc6F)c6nc(c(-c7cc(S(=O)(=O)[O-])ccc7F)c7ccc4[nH]7)C=C6)C=C5)cc3)c3cc(C)ccc3n2)c1
REMARK SMILES IDX 20 1 19 2 18 3 17 4 16 5 15 6 14 7 13 8 11 9 12 10 10 11
REMARK SMILES IDX 8 12 9 13 98 14 97 15 91 16 96 17 92 18 95 19 93 20 94 21
REMARK SMILES IDX 7 22 1 23 2 24 3 25 99 26 4 27 5 28 6 29 21 30 22 31 23 32
REMARK SMILES IDX 24 33 25 34 26 35 27 36 28 37 29 38 90 39 30 40 89 41 31 42
REMARK SMILES IDX 32 43 33 44 83 45 34 46 88 47 82 48 84 49 35 50 87 51 81 52
REMARK SMILES IDX 80 53 36 55 68 56 48 57 67 58 49 59 52 60 66 61 85 62 50 63
REMARK SMILES IDX 51 64 65 66 86 67 53 68 37 69 38 70 46 71 39 72 45 73 47 74
REMARK SMILES IDX 44 75 40 76 41 77 42 78 43 79 69 80 70 81 78 82 71 83 77 84
REMARK SMILES IDX 79 85 76 86 72 87 73 88 74 89 75 90 54 91 55 92 63 93 56 94
REMARK SMILES IDX 62 95 64 96 61 97 57 98 58 99 59 100 60 101
REMARK H PARENT 84 54 52 65
REMARK Flexibility Score: inf
ROOT
ATOM      1  C   UNL     1      -0.353  10.032   0.964  1.00  0.00     0.188 C 
ENDROOT
BRANCH   1   2
ATOM      2  O   UNL     1      -0.587   8.715   1.435  1.00  0.00    -0.377 OA
BRANCH   2   3
ATOM      3  C   UNL     1      -0.637   7.710   0.412  1.00  0.00     0.188 C 
BRANCH   3   4
ATOM      4  C   UNL     1      -0.986   8.155  -1.025  1.00  0.00     0.188 C 
BRANCH   4   5
ATOM      5  O   UNL     1      -2.340   8.584  -1.062  1.00  0.00    -0.376 OA
BRANCH   5   6
ATOM      6  C   UNL     1      -3.069   8.171  -2.212  1.00  0.00     0.202 C 
BRANCH   6   7
ATOM      7  C   UNL     1      -3.138   6.659  -2.474  1.00  0.00     0.261 C 
BRANCH   7   8
ATOM      8  O   UNL     1      -3.188   5.852  -1.285  1.00  0.00    -0.460 OA
BRANCH   8   9
ATOM      9  C   UNL     1      -2.061   5.280  -0.814  1.00  0.00     0.338 C 
ATOM     10  O   UNL     1      -0.930   5.367  -1.291  1.00  0.00    -0.246 OA
BRANCH   9  11
ATOM     11  C   UNL     1      -2.212   4.490   0.404  1.00  0.00     0.071 A 
ATOM     12  C   UNL     1      -1.397   2.601   1.616  1.00  0.00     0.072 A 
ATOM     13  C   UNL     1      -1.323   3.426   0.523  1.00  0.00     0.045 A 
ATOM     14  N   UNL     1      -2.289   2.850   2.615  1.00  0.00    -0.248 NA
ATOM     15  C   UNL     1      -3.152   3.910   2.501  1.00  0.00     0.072 A 
ATOM     16  C   UNL     1      -3.105   4.802   1.424  1.00  0.00     0.015 A 
ATOM     17  C   UNL     1      -4.135   4.175   3.460  1.00  0.00     0.029 A 
ATOM     18  C   UNL     1      -3.913   5.962   1.405  1.00  0.00     0.014 A 
ATOM     19  C   UNL     1      -5.008   5.287   3.388  1.00  0.00     0.005 A 
ATOM     20  C   UNL     1      -4.879   6.210   2.363  1.00  0.00    -0.050 A 
ATOM     21  C   UNL     1      -5.755   7.407   2.156  1.00  0.00     0.044 C 
BRANCH  12  22
ATOM     22  C   UNL     1      -0.539   1.388   1.651  1.00  0.00     0.003 A 
ATOM     23  C   UNL     1       3.060   0.460   0.626  1.00  0.00     0.044 C 
ATOM     24  C   UNL     1       1.679   0.360   1.207  1.00  0.00    -0.050 A 
ATOM     25  C   UNL     1       1.147  -0.893   1.497  1.00  0.00     0.004 A 
ATOM     26  C   UNL     1       0.846   1.487   1.332  1.00  0.00     0.014 A 
ATOM     27  C   UNL     1      -0.212  -1.028   1.773  1.00  0.00     0.004 A 
ATOM     28  C   UNL     1      -1.069   0.090   1.798  1.00  0.00    -0.042 A 
ATOM     29  C   UNL     1      -2.550  -0.194   1.745  1.00  0.00     0.045 C 
ENDBRANCH  12  22
ENDBRANCH   9  11
ENDBRANCH   8   9
ENDBRANCH   7   8
ENDBRANCH   6   7
ENDBRANCH   5   6
ENDBRANCH   4   5
ENDBRANCH   3   4
ENDBRANCH   2   3
ENDBRANCH   1   2
BRANCH   1  30
ATOM     30  C   UNL     1       1.092  10.242   0.510  1.00  0.00     0.188 C 
BRANCH  30  31
ATOM     31  O   UNL     1       1.536   9.151  -0.286  1.00  0.00    -0.376 OA
BRANCH  31  32
ATOM     32  C   UNL     1       2.733   8.523   0.137  1.00  0.00     0.202 C 
BRANCH  32  33
ATOM     33  C   UNL     1       3.915   9.273  -0.469  1.00  0.00     0.261 C 
BRANCH  33  34
ATOM     34  O   UNL     1       4.009   9.181  -1.915  1.00  0.00    -0.460 OA
BRANCH  34  35
ATOM     35  C   UNL     1       2.885   9.453  -2.639  1.00  0.00     0.338 C 
ATOM     36  O   UNL     1       2.486  10.579  -2.889  1.00  0.00    -0.246 OA
BRANCH  35  37
ATOM     37  C   UNL     1       2.241   8.176  -3.090  1.00  0.00     0.060 A 
ATOM     38  C   UNL     1       0.992   8.179  -3.711  1.00  0.00     0.016 A 
ATOM     39  C   UNL     1       2.835   6.947  -2.775  1.00  0.00     0.016 A 
ATOM     40  C   UNL     1       0.322   6.956  -3.927  1.00  0.00     0.010 A 
ATOM     41  C   UNL     1       2.139   5.748  -2.920  1.00  0.00     0.010 A 
ATOM     42  C   UNL     1       0.864   5.720  -3.485  1.00  0.00    -0.014 A 
BRANCH  42  43
ATOM     43  C   UNL     1       0.481   4.359  -4.002  1.00  0.00     0.031 A 
ATOM     44  C   UNL     1       0.407   4.570  -5.455  1.00  0.00     0.074 A 
ATOM     45  C   UNL     1      -0.375   3.357  -3.639  1.00  0.00     0.049 A 
ATOM     46  N   UNL     1      -0.665   4.924  -6.088  1.00  0.00    -0.248 NA
ATOM     47  C   UNL     1       1.647   4.736  -6.224  1.00  0.00     0.031 C 
ATOM     48  C   UNL     1      -1.683   3.469  -3.037  1.00  0.00     0.029 A 
ATOM     49  N   UNL     1      -0.100   1.974  -3.494  1.00  0.00    -0.354 N 
ATOM     50  C   UNL     1      -0.293   4.796  -7.402  1.00  0.00     0.074 A 
ATOM     51  C   UNL     1       1.141   4.982  -7.436  1.00  0.00     0.031 C 
ATOM     52  C   UNL     1      -2.013   2.338  -2.399  1.00  0.00     0.029 A 
ATOM     53  C   UNL     1      -1.038   1.297  -2.680  1.00  0.00     0.049 A 
ATOM     54  H   UNL     1       0.669   1.529  -3.917  1.00  0.00     0.167 HD
ATOM     55  C   UNL     1      -1.067   3.951  -8.128  1.00  0.00     0.034 A 
ATOM     56  C   UNL     1      -1.458  -0.006  -2.620  1.00  0.00     0.034 A 
ATOM     57  C   UNL     1      -2.438   3.900  -7.664  1.00  0.00     0.049 A 
ATOM     58  C   UNL     1      -2.524  -0.103  -3.683  1.00  0.00     0.074 A 
ATOM     59  C   UNL     1      -3.501   4.780  -7.635  1.00  0.00     0.029 A 
ATOM     60  N   UNL     1      -2.740   2.896  -6.774  1.00  0.00    -0.354 N 
ATOM     61  N   UNL     1      -3.707   0.453  -3.651  1.00  0.00    -0.248 NA
ATOM     62  C   UNL     1      -2.062  -0.478  -5.025  1.00  0.00     0.031 C 
ATOM     63  C   UNL     1      -4.463   4.254  -6.725  1.00  0.00     0.029 A 
ATOM     64  C   UNL     1      -3.998   3.041  -6.229  1.00  0.00     0.049 A 
ATOM     65  H   UNL     1      -2.128   2.159  -6.550  1.00  0.00     0.167 HD
ATOM     66  C   UNL     1      -3.872   0.943  -4.938  1.00  0.00     0.074 A 
ATOM     67  C   UNL     1      -2.926   0.213  -5.767  1.00  0.00     0.031 C 
ATOM     68  C   UNL     1      -4.473   2.142  -5.187  1.00  0.00     0.034 A 
BRANCH  55  69
ATOM     69  C   UNL     1      -0.423   2.816  -8.866  1.00  0.00     0.023 A 
ATOM     70  C   UNL     1      -1.121   2.240  -9.924  1.00  0.00     0.031 A 
ATOM     71  C   UNL     1       0.736   2.127  -8.421  1.00  0.00     0.131 A 
ATOM     72  C   UNL     1      -0.646   1.056 -10.509  1.00  0.00     0.055 A 
ATOM     73  C   UNL     1       1.261   1.017  -9.072  1.00  0.00     0.041 A 
ATOM     74  F   UNL     1       1.348   2.420  -7.267  1.00  0.00    -0.206 F 
ATOM     75  C   UNL     1       0.559   0.465 -10.123  1.00  0.00     0.022 A 
BRANCH  72  76
ATOM     76  S   UNL     1      -1.710   0.216 -11.699  1.00  0.00     0.124 S 
ATOM     77  O   UNL     1      -2.862  -0.122 -10.872  1.00  0.00    -0.237 OA
ATOM     78  O   UNL     1      -1.917   1.254 -12.704  1.00  0.00    -0.237 OA
ATOM     79  O   UNL     1      -0.895  -0.916 -12.134  1.00  0.00    -0.744 OA
ENDBRANCH  72  76
ENDBRANCH  55  69
BRANCH  56  80
ATOM     80  C   UNL     1      -0.682  -1.211  -2.208  1.00  0.00     0.023 A 
ATOM     81  C   UNL     1      -1.341  -2.386  -1.749  1.00  0.00     0.031 A 
ATOM     82  C   UNL     1       0.717  -1.205  -2.135  1.00  0.00     0.131 A 
ATOM     83  C   UNL     1      -0.596  -3.487  -1.261  1.00  0.00     0.055 A 
ATOM     84  C   UNL     1       1.448  -2.296  -1.653  1.00  0.00     0.041 A 
ATOM     85  F   UNL     1       1.423  -0.134  -2.527  1.00  0.00    -0.206 F 
ATOM     86  C   UNL     1       0.797  -3.439  -1.211  1.00  0.00     0.022 A 
BRANCH  83  87
ATOM     87  S   UNL     1      -1.419  -4.997  -0.641  1.00  0.00     0.124 S 
ATOM     88  O   UNL     1      -2.392  -4.470   0.308  1.00  0.00    -0.237 OA
ATOM     89  O   UNL     1      -1.953  -5.579  -1.867  1.00  0.00    -0.237 OA
ATOM     90  O   UNL     1      -0.325  -5.755  -0.030  1.00  0.00    -0.744 OA
ENDBRANCH  83  87
ENDBRANCH  56  80
BRANCH  68  91
ATOM     91  C   UNL     1      -5.662   2.534  -4.351  1.00  0.00     0.023 A 
ATOM     92  C   UNL     1      -5.641   2.870  -2.987  1.00  0.00     0.031 A 
ATOM     93  C   UNL     1      -6.902   2.601  -5.011  1.00  0.00     0.131 A 
ATOM     94  C   UNL     1      -6.825   3.263  -2.334  1.00  0.00     0.055 A 
ATOM     95  C   UNL     1      -8.075   2.994  -4.365  1.00  0.00     0.041 A 
ATOM     96  F   UNL     1      -6.991   2.304  -6.318  1.00  0.00    -0.206 F 
ATOM     97  C   UNL     1      -8.042   3.321  -3.017  1.00  0.00     0.022 A 
BRANCH  94  98
ATOM     98  S   UNL     1      -6.814   3.701  -0.570  1.00  0.00     0.124 S 
ATOM     99  O   UNL     1      -5.718   2.906  -0.030  1.00  0.00    -0.237 OA
ATOM    100  O   UNL     1      -6.593   5.143  -0.633  1.00  0.00    -0.237 OA
ATOM    101  O   UNL     1      -8.150   3.304  -0.124  1.00  0.00    -0.744 OA
ENDBRANCH  94  98
ENDBRANCH  68  91
ENDBRANCH  42  43
ENDBRANCH  35  37
ENDBRANCH  34  35
ENDBRANCH  33  34
ENDBRANCH  32  33
ENDBRANCH  31  32
ENDBRANCH  30  31
ENDBRANCH   1  30
TORSDOF 24
