REMARK SMILES Cc1cc([N+](=O)[O-])ccc1NC(=O)[C@@H]1[C@@H](C(=O)OCCOCCOCCOCCOC(=O)c2ccc(-c3c4nc(c(-c5cc(S(=O)(=O)[O-])ccc5F)c5ccc([nH]5)c(-c5cc(S(=O)(=O)[O-])ccc5F)c5nc(c(-c6cc(S(=O)(=O)[O-])ccc6F)c6ccc3[nH]6)C=C5)C=C4)cc2)[C@H]2C=C[C@@H]1C2
REMARK SMILES IDX 24 1 23 2 22 3 21 4 20 5 19 6 18 7 16 8 17 9 15 10 14 11
REMARK SMILES IDX 99 12 96 13 98 14 100 15 97 16 12 17 11 18 13 20 10 21 1 22
REMARK SMILES IDX 2 23 3 24 4 25 9 26 8 27 5 28 6 29 7 30 25 31 26 32 27 33
REMARK SMILES IDX 28 34 29 35 30 36 31 37 32 38 33 39 34 40 95 41 35 42 94 43
REMARK SMILES IDX 36 44 37 45 38 46 88 47 39 48 93 49 87 50 89 51 40 52 92 53
REMARK SMILES IDX 86 54 85 55 41 57 73 58 53 59 72 60 54 61 57 62 71 63 90 64
REMARK SMILES IDX 55 65 56 66 70 68 91 69 58 70 42 71 43 72 51 73 44 74 50 75
REMARK SMILES IDX 52 76 49 77 45 78 46 79 47 80 48 81 74 82 75 83 83 84 76 85
REMARK SMILES IDX 82 86 84 87 81 88 77 89 78 90 79 91 80 92 59 93 60 94 68 95
REMARK SMILES IDX 61 96 67 97 69 98 66 99 62 100 63 101 64 102 65 103
REMARK H PARENT 11 19 89 56 57 67
REMARK Flexibility Score: inf
ROOT
ATOM      1  O   UNL     1      -0.230   7.798  -0.603  1.00  0.00    -0.377 OA
ENDROOT
BRANCH   1   2
ATOM      2  C   UNL     1       0.583   6.783  -1.175  1.00  0.00     0.188 C 
BRANCH   2   3
ATOM      3  C   UNL     1      -0.239   5.626  -1.713  1.00  0.00     0.188 C 
BRANCH   3   4
ATOM      4  O   UNL     1      -1.070   5.791  -2.858  1.00  0.00    -0.376 OA
BRANCH   4   5
ATOM      5  C   UNL     1      -1.772   4.586  -3.227  1.00  0.00     0.202 C 
BRANCH   5   6
ATOM      6  C   UNL     1      -2.909   3.961  -2.339  1.00  0.00     0.261 C 
BRANCH   6   7
ATOM      7  O   UNL     1      -2.912   4.066  -0.903  1.00  0.00    -0.463 OA
BRANCH   7   8
ATOM      8  C   UNL     1      -1.801   3.581  -0.400  1.00  0.00     0.310 C 
ATOM      9  O   UNL     1      -0.963   3.057  -1.132  1.00  0.00    -0.252 OA
BRANCH   8  10
ATOM     10  C   UNL     1      -1.477   3.904   1.024  1.00  0.00     0.119 C 
ATOM     11  C   UNL     1      -0.820   2.570   1.451  1.00  0.00     0.100 C 
ATOM     12  C   UNL     1      -1.267   2.411   2.897  1.00  0.00     0.025 C 
ATOM     13  C   UNL     1      -2.422   4.211   2.195  1.00  0.00     0.027 C 
ATOM     14  C   UNL     1      -2.746   2.024   2.794  1.00  0.00    -0.027 C 
ATOM     15  C   UNL     1      -1.466   3.851   3.360  1.00  0.00     0.017 C 
ATOM     16  C   UNL     1      -3.423   3.110   2.384  1.00  0.00    -0.027 C 
BRANCH  11  17
ATOM     17  C   UNL     1       0.628   2.620   0.994  1.00  0.00     0.228 C 
ATOM     18  N   UNL     1       1.098   1.678   0.102  1.00  0.00    -0.326 N 
ATOM     19  H   UNL     1       1.931   1.909  -0.368  1.00  0.00     0.169 HD
ATOM     20  O   UNL     1       1.387   3.531   1.338  1.00  0.00    -0.274 OA
BRANCH  18  21
ATOM     21  C   UNL     1       0.534   0.422  -0.222  1.00  0.00     0.044 A 
ATOM     22  C   UNL     1       2.809  -0.670   0.131  1.00  0.00     0.047 C 
ATOM     23  C   UNL     1       1.317  -0.717  -0.022  1.00  0.00    -0.021 A 
ATOM     24  C   UNL     1       0.666  -1.963   0.072  1.00  0.00     0.091 A 
ATOM     25  C   UNL     1      -0.728  -2.057  -0.077  1.00  0.00     0.269 A 
ATOM     26  C   UNL     1      -0.807   0.250  -0.604  1.00  0.00     0.033 A 
ATOM     27  C   UNL     1      -1.465  -0.960  -0.467  1.00  0.00     0.088 A 
BRANCH  25  28
ATOM     28  N   UNL     1      -1.423  -3.292   0.259  1.00  0.00     0.062 N 
ATOM     29  O   UNL     1      -0.791  -4.352   0.123  1.00  0.00    -0.258 OA
ATOM     30  O   UNL     1      -2.536  -3.195   0.797  1.00  0.00    -0.258 OA
ENDBRANCH  25  28
ENDBRANCH  18  21
ENDBRANCH  11  17
ENDBRANCH   8  10
ENDBRANCH   7   8
ENDBRANCH   6   7
ENDBRANCH   5   6
ENDBRANCH   4   5
ENDBRANCH   3   4
ENDBRANCH   2   3
ENDBRANCH   1   2
BRANCH   1  31
ATOM     31  C   UNL     1      -0.945   8.582  -1.552  1.00  0.00     0.188 C 
BRANCH  31  32
ATOM     32  C   UNL     1      -0.023   9.367  -2.460  1.00  0.00     0.188 C 
BRANCH  32  33
ATOM     33  O   UNL     1       0.393   8.523  -3.546  1.00  0.00    -0.376 OA
BRANCH  33  34
ATOM     34  C   UNL     1       1.612   8.920  -4.158  1.00  0.00     0.202 C 
BRANCH  34  35
ATOM     35  C   UNL     1       1.585  10.360  -4.682  1.00  0.00     0.261 C 
BRANCH  35  36
ATOM     36  O   UNL     1       0.676  10.452  -5.801  1.00  0.00    -0.460 OA
BRANCH  36  37
ATOM     37  C   UNL     1      -0.450  11.176  -5.577  1.00  0.00     0.338 C 
ATOM     38  O   UNL     1      -0.472  12.397  -5.416  1.00  0.00    -0.246 OA
BRANCH  37  39
ATOM     39  C   UNL     1      -1.647  10.297  -5.496  1.00  0.00     0.060 A 
ATOM     40  C   UNL     1      -2.867  10.783  -4.992  1.00  0.00     0.016 A 
ATOM     41  C   UNL     1      -1.484   8.931  -5.695  1.00  0.00     0.016 A 
ATOM     42  C   UNL     1      -3.865   9.891  -4.570  1.00  0.00     0.010 A 
ATOM     43  C   UNL     1      -2.409   8.062  -5.158  1.00  0.00     0.010 A 
ATOM     44  C   UNL     1      -3.604   8.520  -4.583  1.00  0.00    -0.014 A 
BRANCH  44  45
ATOM     45  C   UNL     1      -4.358   7.498  -3.824  1.00  0.00     0.031 A 
ATOM     46  C   UNL     1      -4.705   6.180  -4.494  1.00  0.00     0.074 A 
ATOM     47  C   UNL     1      -4.247   7.661  -2.483  1.00  0.00     0.049 A 
ATOM     48  N   UNL     1      -5.330   5.163  -3.988  1.00  0.00    -0.248 NA
ATOM     49  C   UNL     1      -4.406   5.937  -5.909  1.00  0.00     0.031 C 
ATOM     50  C   UNL     1      -3.848   6.679  -1.508  1.00  0.00     0.029 A 
ATOM     51  N   UNL     1      -4.245   8.794  -1.701  1.00  0.00    -0.354 N 
ATOM     52  C   UNL     1      -5.148   4.050  -4.827  1.00  0.00     0.074 A 
ATOM     53  C   UNL     1      -4.689   4.639  -6.057  1.00  0.00     0.031 C 
ATOM     54  C   UNL     1      -3.927   7.100  -0.246  1.00  0.00     0.029 A 
ATOM     55  C   UNL     1      -4.390   8.439  -0.343  1.00  0.00     0.049 A 
ATOM     56  H   UNL     1      -4.157   9.715  -2.039  1.00  0.00     0.167 HD
ATOM     57  C   UNL     1      -5.245   2.759  -4.337  1.00  0.00     0.034 A 
ATOM     58  C   UNL     1      -5.417   8.923   0.384  1.00  0.00     0.034 A 
ATOM     59  C   UNL     1      -5.726   2.752  -2.927  1.00  0.00     0.049 A 
ATOM     60  C   UNL     1      -6.511   7.831   0.405  1.00  0.00     0.074 A 
ATOM     61  C   UNL     1      -5.325   2.117  -1.758  1.00  0.00     0.029 A 
ATOM     62  N   UNL     1      -6.683   3.688  -2.512  1.00  0.00    -0.354 N 
ATOM     63  N   UNL     1      -6.519   6.756  -0.374  1.00  0.00    -0.248 NA
ATOM     64  C   UNL     1      -7.541   7.738   1.438  1.00  0.00     0.031 C 
ATOM     65  C   UNL     1      -5.872   2.835  -0.656  1.00  0.00     0.029 A 
ATOM     66  C   UNL     1      -6.697   3.837  -1.141  1.00  0.00     0.049 A 
ATOM     67  H   UNL     1      -7.275   4.179  -3.126  1.00  0.00     0.167 HD
ATOM     68  C   UNL     1      -7.475   5.861   0.041  1.00  0.00     0.074 A 
ATOM     69  C   UNL     1      -8.083   6.532   1.184  1.00  0.00     0.031 C 
ATOM     70  C   UNL     1      -7.738   4.620  -0.495  1.00  0.00     0.034 A 
BRANCH  57  71
ATOM     71  C   UNL     1      -4.664   1.455  -4.998  1.00  0.00     0.023 A 
ATOM     72  C   UNL     1      -4.699   0.215  -4.296  1.00  0.00     0.031 A 
ATOM     73  C   UNL     1      -3.991   1.359  -6.239  1.00  0.00     0.131 A 
ATOM     74  C   UNL     1      -4.047  -0.960  -4.764  1.00  0.00     0.055 A 
ATOM     75  C   UNL     1      -3.395   0.177  -6.733  1.00  0.00     0.041 A 
ATOM     76  F   UNL     1      -3.842   2.394  -7.064  1.00  0.00    -0.206 F 
ATOM     77  C   UNL     1      -3.405  -0.986  -5.991  1.00  0.00     0.022 A 
BRANCH  74  78
ATOM     78  S   UNL     1      -4.027  -2.480  -3.757  1.00  0.00     0.124 S 
ATOM     79  O   UNL     1      -2.994  -2.173  -2.773  1.00  0.00    -0.237 OA
ATOM     80  O   UNL     1      -5.393  -2.553  -3.257  1.00  0.00    -0.237 OA
ATOM     81  O   UNL     1      -3.663  -3.520  -4.718  1.00  0.00    -0.744 OA
ENDBRANCH  74  78
ENDBRANCH  57  71
BRANCH  58  82
ATOM     82  C   UNL     1      -5.259  10.430   0.275  1.00  0.00     0.023 A 
ATOM     83  C   UNL     1      -4.007  10.888   0.831  1.00  0.00     0.031 A 
ATOM     84  C   UNL     1      -5.700  11.101  -0.881  1.00  0.00     0.131 A 
ATOM     85  C   UNL     1      -3.138  11.719   0.086  1.00  0.00     0.055 A 
ATOM     86  C   UNL     1      -4.840  11.967  -1.595  1.00  0.00     0.041 A 
ATOM     87  F   UNL     1      -6.838  10.729  -1.486  1.00  0.00    -0.206 F 
ATOM     88  C   UNL     1      -3.537  12.222  -1.152  1.00  0.00     0.022 A 
BRANCH  85  89
ATOM     89  S   UNL     1      -1.365  11.866   0.555  1.00  0.00     0.124 S 
ATOM     90  O   UNL     1      -1.368  13.063   1.388  1.00  0.00    -0.237 OA
ATOM     91  O   UNL     1      -1.100  10.613   1.251  1.00  0.00    -0.237 OA
ATOM     92  O   UNL     1      -0.691  12.000  -0.737  1.00  0.00    -0.744 OA
ENDBRANCH  85  89
ENDBRANCH  58  82
BRANCH  70  93
ATOM     93  C   UNL     1      -9.095   3.948  -0.403  1.00  0.00     0.023 A 
ATOM     94  C   UNL     1     -10.230   4.684  -0.068  1.00  0.00     0.031 A 
ATOM     95  C   UNL     1      -9.334   2.607  -0.810  1.00  0.00     0.131 A 
ATOM     96  C   UNL     1     -11.492   4.087  -0.010  1.00  0.00     0.055 A 
ATOM     97  C   UNL     1     -10.612   2.045  -0.866  1.00  0.00     0.041 A 
ATOM     98  F   UNL     1      -8.352   1.784  -1.202  1.00  0.00    -0.206 F 
ATOM     99  C   UNL     1     -11.704   2.781  -0.439  1.00  0.00     0.022 A 
BRANCH  96 100
ATOM    100  S   UNL     1     -12.808   5.053   0.752  1.00  0.00     0.124 S 
ATOM    101  O   UNL     1     -12.305   5.201   2.117  1.00  0.00    -0.237 OA
ATOM    102  O   UNL     1     -12.814   6.270  -0.053  1.00  0.00    -0.237 OA
ATOM    103  O   UNL     1     -13.985   4.201   0.610  1.00  0.00    -0.744 OA
ENDBRANCH  96 100
ENDBRANCH  70  93
ENDBRANCH  44  45
ENDBRANCH  37  39
ENDBRANCH  36  37
ENDBRANCH  35  36
ENDBRANCH  34  35
ENDBRANCH  33  34
ENDBRANCH  32  33
ENDBRANCH  31  32
ENDBRANCH   1  31
TORSDOF 26
