REMARK SMILES COc1ccc2c(C)cc(SCC(=O)OCCOCCOCCOCCOC(=O)c3ccc(-c4c5nc(c(-c6cc(S(=O)(=O)[O-])ccc6F)c6ccc([nH]6)c(-c6cc(S(=O)(=O)[O-])ccc6F)c6nc(c(-c7cc(S(=O)(=O)[O-])ccc7F)c7ccc4[nH]7)C=C6)C=C5)cc3)nc2c1
REMARK SMILES IDX 21 1 20 2 19 3 18 4 17 5 16 6 15 7 13 8 14 9 12 10 11 11
REMARK SMILES IDX 10 12 3 13 4 14 95 15 5 16 94 17 6 18 93 19 7 20 8 21 9 22
REMARK SMILES IDX 2 23 1 24 22 25 23 26 24 27 25 28 26 29 27 30 28 31 29 32
REMARK SMILES IDX 30 33 31 34 92 35 32 36 91 37 33 38 34 39 35 40 85 41 36 42
REMARK SMILES IDX 90 43 84 44 86 45 37 46 89 47 83 48 82 49 38 51 70 52 50 53
REMARK SMILES IDX 69 54 51 55 54 56 68 57 87 58 52 59 53 60 67 62 88 63 55 64
REMARK SMILES IDX 39 65 40 66 48 67 41 68 47 69 49 70 46 71 42 72 43 73 44 74
REMARK SMILES IDX 45 75 71 76 72 77 80 78 73 79 79 80 81 81 78 82 74 83 75 84
REMARK SMILES IDX 76 85 77 86 56 87 57 88 65 89 58 90 64 91 66 92 63 93 59 94
REMARK SMILES IDX 60 95 61 96 62 97
REMARK H PARENT 86 50 54 61
REMARK Flexibility Score: inf
ROOT
ATOM      1  O   UNL     1      -0.341   3.692   5.640  1.00  0.00    -0.377 OA
ENDROOT
BRANCH   1   2
ATOM      2  C   UNL     1      -0.350   5.097   5.644  1.00  0.00     0.188 C 
BRANCH   2   3
ATOM      3  C   UNL     1       0.795   5.939   6.243  1.00  0.00     0.188 C 
BRANCH   3   4
ATOM      4  O   UNL     1       0.978   6.026   7.643  1.00  0.00    -0.376 OA
BRANCH   4   5
ATOM      5  C   UNL     1      -0.110   6.207   8.524  1.00  0.00     0.202 C 
BRANCH   5   6
ATOM      6  C   UNL     1      -1.333   7.089   8.198  1.00  0.00     0.261 C 
BRANCH   6   7
ATOM      7  O   UNL     1      -1.657   7.334   6.811  1.00  0.00    -0.463 OA
BRANCH   7   8
ATOM      8  C   UNL     1      -1.204   8.487   6.266  1.00  0.00     0.316 C 
ATOM      9  O   UNL     1      -0.571   9.323   6.908  1.00  0.00    -0.251 OA
BRANCH   8  10
ATOM     10  C   UNL     1      -1.572   8.751   4.811  1.00  0.00     0.199 C 
BRANCH  10  11
ATOM     11  S   UNL     1      -2.095   7.398   3.708  1.00  0.00    -0.095 SA
BRANCH  11  12
ATOM     12  C   UNL     1      -0.659   6.828   2.769  1.00  0.00     0.098 A 
ATOM     13  C   UNL     1       0.767   2.958   0.295  1.00  0.00     0.121 A 
ATOM     14  C   UNL     1       2.100   3.249   0.534  1.00  0.00     0.047 A 
ATOM     15  C   UNL     1      -0.221   3.864   0.710  1.00  0.00     0.075 A 
ATOM     16  C   UNL     1       2.429   4.416   1.227  1.00  0.00     0.014 A 
ATOM     17  C   UNL     1       0.074   5.019   1.445  1.00  0.00     0.075 A 
ATOM     18  C   UNL     1       1.429   5.301   1.713  1.00  0.00     0.003 A 
ATOM     19  N   UNL     1      -0.929   5.778   1.947  1.00  0.00    -0.241 NA
ATOM     20  C   UNL     1       1.707   6.434   2.518  1.00  0.00    -0.039 A 
ATOM     21  C   UNL     1       3.114   6.755   2.956  1.00  0.00     0.045 C 
ATOM     22  C   UNL     1       0.648   7.218   3.015  1.00  0.00     0.039 A 
BRANCH  13  23
ATOM     23  O   UNL     1       0.347   1.840  -0.376  1.00  0.00    -0.497 OA
ATOM     24  C   UNL     1       0.973   0.622   0.037  1.00  0.00     0.278 C 
ENDBRANCH  13  23
ENDBRANCH  11  12
ENDBRANCH  10  11
ENDBRANCH   8  10
ENDBRANCH   7   8
ENDBRANCH   6   7
ENDBRANCH   5   6
ENDBRANCH   4   5
ENDBRANCH   3   4
ENDBRANCH   2   3
ENDBRANCH   1   2
BRANCH   1  25
ATOM     25  C   UNL     1      -0.158   3.069   6.882  1.00  0.00     0.188 C 
BRANCH  25  26
ATOM     26  C   UNL     1       1.300   2.659   7.062  1.00  0.00     0.188 C 
BRANCH  26  27
ATOM     27  O   UNL     1       2.210   3.377   6.249  1.00  0.00    -0.376 OA
BRANCH  27  28
ATOM     28  C   UNL     1       2.412   3.044   4.879  1.00  0.00     0.202 C 
BRANCH  28  29
ATOM     29  C   UNL     1       1.419   2.358   3.918  1.00  0.00     0.261 C 
BRANCH  29  30
ATOM     30  O   UNL     1       0.434   1.487   4.436  1.00  0.00    -0.460 OA
BRANCH  30  31
ATOM     31  C   UNL     1       0.826   0.268   4.834  1.00  0.00     0.338 C 
ATOM     32  O   UNL     1       1.939  -0.202   4.806  1.00  0.00    -0.246 OA
BRANCH  31  33
ATOM     33  C   UNL     1      -0.361  -0.265   5.522  1.00  0.00     0.060 A 
ATOM     34  C   UNL     1      -0.237  -0.578   6.877  1.00  0.00     0.016 A 
ATOM     35  C   UNL     1      -1.596  -0.347   4.862  1.00  0.00     0.016 A 
ATOM     36  C   UNL     1      -1.346  -1.024   7.574  1.00  0.00     0.010 A 
ATOM     37  C   UNL     1      -2.701  -0.833   5.550  1.00  0.00     0.010 A 
ATOM     38  C   UNL     1      -2.554  -1.221   6.890  1.00  0.00    -0.014 A 
BRANCH  38  39
ATOM     39  C   UNL     1      -3.516  -2.154   7.500  1.00  0.00     0.031 A 
ATOM     40  C   UNL     1      -3.361  -3.604   7.135  1.00  0.00     0.074 A 
ATOM     41  C   UNL     1      -4.384  -1.732   8.431  1.00  0.00     0.049 A 
ATOM     42  N   UNL     1      -4.027  -4.643   7.556  1.00  0.00    -0.248 NA
ATOM     43  C   UNL     1      -2.294  -3.926   6.168  1.00  0.00     0.031 C 
ATOM     44  C   UNL     1      -4.523  -0.351   8.893  1.00  0.00     0.029 A 
ATOM     45  N   UNL     1      -5.296  -2.431   9.171  1.00  0.00    -0.354 N 
ATOM     46  C   UNL     1      -3.447  -5.737   6.922  1.00  0.00     0.074 A 
ATOM     47  C   UNL     1      -2.417  -5.236   6.046  1.00  0.00     0.031 C 
ATOM     48  C   UNL     1      -5.469  -0.307   9.848  1.00  0.00     0.029 A 
ATOM     49  C   UNL     1      -6.024  -1.646  10.032  1.00  0.00     0.049 A 
ATOM     50  H   UNL     1      -5.420  -3.405   9.094  1.00  0.00     0.167 HD
ATOM     51  C   UNL     1      -3.740  -7.048   7.080  1.00  0.00     0.034 A 
ATOM     52  C   UNL     1      -7.034  -1.988  10.854  1.00  0.00     0.034 A 
ATOM     53  C   UNL     1      -4.798  -7.507   7.940  1.00  0.00     0.049 A 
ATOM     54  C   UNL     1      -7.431  -3.447  10.910  1.00  0.00     0.074 A 
ATOM     55  C   UNL     1      -5.253  -8.796   8.142  1.00  0.00     0.029 A 
ATOM     56  N   UNL     1      -5.571  -6.677   8.744  1.00  0.00    -0.354 N 
ATOM     57  N   UNL     1      -6.905  -4.475  10.279  1.00  0.00    -0.248 NA
ATOM     58  C   UNL     1      -8.544  -3.795  11.799  1.00  0.00     0.031 C 
ATOM     59  C   UNL     1      -6.341  -8.737   9.018  1.00  0.00     0.029 A 
ATOM     60  C   UNL     1      -6.508  -7.424   9.433  1.00  0.00     0.049 A 
ATOM     61  H   UNL     1      -5.467  -5.700   8.812  1.00  0.00     0.167 HD
ATOM     62  C   UNL     1      -7.592  -5.596  10.739  1.00  0.00     0.074 A 
ATOM     63  C   UNL     1      -8.557  -5.115  11.707  1.00  0.00     0.031 C 
ATOM     64  C   UNL     1      -7.444  -6.904  10.402  1.00  0.00     0.034 A 
BRANCH  51  65
ATOM     65  C   UNL     1      -2.945  -8.038   6.268  1.00  0.00     0.023 A 
ATOM     66  C   UNL     1      -1.559  -8.201   6.452  1.00  0.00     0.031 A 
ATOM     67  C   UNL     1      -3.568  -8.796   5.262  1.00  0.00     0.131 A 
ATOM     68  C   UNL     1      -0.835  -9.054   5.605  1.00  0.00     0.055 A 
ATOM     69  C   UNL     1      -2.855  -9.702   4.474  1.00  0.00     0.041 A 
ATOM     70  F   UNL     1      -4.880  -8.655   5.013  1.00  0.00    -0.206 F 
ATOM     71  C   UNL     1      -1.478  -9.827   4.636  1.00  0.00     0.022 A 
BRANCH  68  72
ATOM     72  S   UNL     1       0.977  -9.039   5.697  1.00  0.00     0.124 S 
ATOM     73  O   UNL     1       1.278  -7.653   5.347  1.00  0.00    -0.237 OA
ATOM     74  O   UNL     1       1.227  -9.417   7.083  1.00  0.00    -0.237 OA
ATOM     75  O   UNL     1       1.379 -10.028   4.699  1.00  0.00    -0.744 OA
ENDBRANCH  68  72
ENDBRANCH  51  65
BRANCH  52  76
ATOM     76  C   UNL     1      -7.758  -0.962  11.659  1.00  0.00     0.023 A 
ATOM     77  C   UNL     1      -7.833  -1.056  13.057  1.00  0.00     0.031 A 
ATOM     78  C   UNL     1      -8.469   0.080  11.034  1.00  0.00     0.131 A 
ATOM     79  C   UNL     1      -8.663  -0.182  13.775  1.00  0.00     0.055 A 
ATOM     80  C   UNL     1      -9.235   0.993  11.761  1.00  0.00     0.041 A 
ATOM     81  F   UNL     1      -8.438   0.222   9.699  1.00  0.00    -0.206 F 
ATOM     82  C   UNL     1      -9.354   0.851  13.139  1.00  0.00     0.022 A 
BRANCH  79  83
ATOM     83  S   UNL     1      -8.942  -0.509  15.538  1.00  0.00     0.124 S 
ATOM     84  O   UNL     1      -9.399  -1.894  15.511  1.00  0.00    -0.237 OA
ATOM     85  O   UNL     1      -7.615  -0.282  16.100  1.00  0.00    -0.237 OA
ATOM     86  O   UNL     1      -9.954   0.477  15.910  1.00  0.00    -0.744 OA
ENDBRANCH  79  83
ENDBRANCH  52  76
BRANCH  64  87
ATOM     87  C   UNL     1      -8.291  -7.900  11.153  1.00  0.00     0.023 A 
ATOM     88  C   UNL     1      -9.690  -7.923  11.037  1.00  0.00     0.031 A 
ATOM     89  C   UNL     1      -7.679  -8.834  12.009  1.00  0.00     0.131 A 
ATOM     90  C   UNL     1     -10.438  -8.809  11.824  1.00  0.00     0.055 A 
ATOM     91  C   UNL     1      -8.424  -9.766  12.730  1.00  0.00     0.041 A 
ATOM     92  F   UNL     1      -6.345  -8.856  12.156  1.00  0.00    -0.206 F 
ATOM     93  C   UNL     1      -9.814  -9.745  12.653  1.00  0.00     0.022 A 
BRANCH  90  94
ATOM     94  S   UNL     1     -12.243  -8.640  11.839  1.00  0.00     0.124 S 
ATOM     95  O   UNL     1     -12.413  -7.251  12.253  1.00  0.00    -0.237 OA
ATOM     96  O   UNL     1     -12.596  -8.941  10.456  1.00  0.00    -0.237 OA
ATOM     97  O   UNL     1     -12.671  -9.636  12.819  1.00  0.00    -0.744 OA
ENDBRANCH  90  94
ENDBRANCH  64  87
ENDBRANCH  38  39
ENDBRANCH  31  33
ENDBRANCH  30  31
ENDBRANCH  29  30
ENDBRANCH  28  29
ENDBRANCH  27  28
ENDBRANCH  26  27
ENDBRANCH  25  26
ENDBRANCH   1  25
TORSDOF 26
