REMARK SMILES CS(=O)(=O)c1ccc(-n2nc(C(F)(F)F)cc2-c2ccc(CC(=O)OCCOCCOCCOCCOC(=O)c3ccc(-c4c5nc(c(-c6cc(S(=O)(=O)[O-])ccc6F)c6ccc([nH]6)c(-c6cc(S(=O)(=O)[O-])ccc6F)c6nc(c(-c7cc(S(=O)(=O)[O-])ccc7F)c7ccc4[nH]7)C=C6)C=C5)cc3)cc2)cc1
REMARK SMILES IDX 30 1 29 2 28 3 27 4 26 5 25 6 23 7 24 8 22 9 21 10 18 11
REMARK SMILES IDX 19 12 104 13 20 14 103 15 17 16 9 17 10 18 11 19 16 20 8 21
REMARK SMILES IDX 5 22 6 23 106 24 7 25 105 26 2 27 1 28 3 29 4 30 12 31 13 32
REMARK SMILES IDX 14 33 15 34 31 35 32 36 33 37 34 38 35 39 36 40 37 41 38 42
REMARK SMILES IDX 39 43 40 44 41 45 102 46 42 47 101 48 43 49 44 50 45 51
REMARK SMILES IDX 95 52 46 53 100 54 94 55 96 56 47 57 99 58 93 59 92 60 48 62
REMARK SMILES IDX 80 63 60 64 79 65 61 66 64 67 78 68 97 69 62 70 63 71 77 73
REMARK SMILES IDX 98 74 65 75 49 76 50 77 58 78 51 79 57 80 59 81 56 82 52 83
REMARK SMILES IDX 53 84 54 85 55 86 81 87 82 88 90 89 83 90 89 91 91 92 88 93
REMARK SMILES IDX 84 94 85 95 86 96 87 97 66 98 67 99 75 100 68 101 74 102
REMARK SMILES IDX 76 103 73 104 69 105 70 106 71 107 72 108
REMARK H PARENT 96 61 64 72
REMARK Flexibility Score: inf
ROOT
ATOM      1  C   UNL     1       4.998  -2.738  -0.082  1.00  0.00     0.188 C 
ENDROOT
BRANCH   1   2
ATOM      2  C   UNL     1       6.157  -2.748  -1.075  1.00  0.00     0.188 C 
BRANCH   2   3
ATOM      3  O   UNL     1       5.795  -2.345  -2.378  1.00  0.00    -0.376 OA
BRANCH   3   4
ATOM      4  C   UNL     1       5.268  -3.345  -3.240  1.00  0.00     0.202 C 
BRANCH   4   5
ATOM      5  C   UNL     1       4.065  -4.211  -2.790  1.00  0.00     0.261 C 
BRANCH   5   6
ATOM      6  O   UNL     1       4.184  -4.955  -1.549  1.00  0.00    -0.463 OA
BRANCH   6   7
ATOM      7  C   UNL     1       5.101  -5.937  -1.471  1.00  0.00     0.310 C 
ATOM      8  O   UNL     1       5.786  -6.281  -2.433  1.00  0.00    -0.252 OA
BRANCH   7   9
ATOM      9  C   UNL     1       5.287  -6.580  -0.100  1.00  0.00     0.158 C 
BRANCH   9  10
ATOM     10  C   UNL     1       4.554  -6.161   1.179  1.00  0.00    -0.037 A 
ATOM     11  C   UNL     1       3.373  -5.713   3.787  1.00  0.00     0.000 A 
ATOM     12  C   UNL     1       4.619  -5.174   3.451  1.00  0.00     0.010 A 
ATOM     13  C   UNL     1       2.721  -6.460   2.787  1.00  0.00     0.010 A 
ATOM     14  C   UNL     1       5.202  -5.405   2.179  1.00  0.00     0.005 A 
ATOM     15  C   UNL     1       3.290  -6.668   1.504  1.00  0.00     0.005 A 
BRANCH  11  16
ATOM     16  C   UNL     1       2.823  -5.637   5.170  1.00  0.00     0.075 A 
ATOM     17  N   UNL     1       2.639  -4.514   6.008  1.00  0.00    -0.233 N 
ATOM     18  N   UNL     1       2.342  -4.883   7.278  1.00  0.00    -0.163 NA
ATOM     19  C   UNL     1       2.054  -6.189   7.220  1.00  0.00     0.167 A 
ATOM     20  C   UNL     1       2.404  -6.708   5.951  1.00  0.00     0.064 A 
BRANCH  17  21
ATOM     21  C   UNL     1       2.595  -3.125   5.710  1.00  0.00     0.065 A 
ATOM     22  C   UNL     1       2.399  -0.326   5.097  1.00  0.00     0.067 A 
ATOM     23  C   UNL     1       2.204  -1.348   4.187  1.00  0.00     0.022 A 
ATOM     24  C   UNL     1       2.637  -0.752   6.393  1.00  0.00     0.022 A 
ATOM     25  C   UNL     1       2.340  -2.718   4.429  1.00  0.00     0.030 A 
ATOM     26  C   UNL     1       2.681  -2.132   6.709  1.00  0.00     0.030 A 
BRANCH  22  27
ATOM     27  S   UNL     1       2.417   1.464   4.774  1.00  0.00     0.175 S 
ATOM     28  C   UNL     1       2.175   2.072   3.132  1.00  0.00     0.163 C 
ATOM     29  O   UNL     1       3.829   1.811   5.035  1.00  0.00    -0.224 OA
ATOM     30  O   UNL     1       1.359   2.001   5.546  1.00  0.00    -0.224 OA
ENDBRANCH  22  27
ENDBRANCH  17  21
BRANCH  19  31
ATOM     31  C   UNL     1       1.455  -6.940   8.380  1.00  0.00     0.435 C 
ATOM     32  F   UNL     1       1.705  -6.376   9.589  1.00  0.00    -0.164 F 
ATOM     33  F   UNL     1       0.104  -7.047   8.257  1.00  0.00    -0.164 F 
ATOM     34  F   UNL     1       1.931  -8.215   8.442  1.00  0.00    -0.164 F 
ENDBRANCH  19  31
ENDBRANCH  11  16
ENDBRANCH   9  10
ENDBRANCH   7   9
ENDBRANCH   6   7
ENDBRANCH   5   6
ENDBRANCH   4   5
ENDBRANCH   3   4
ENDBRANCH   2   3
ENDBRANCH   1   2
BRANCH   1  35
ATOM     35  O   UNL     1       3.740  -2.187  -0.463  1.00  0.00    -0.377 OA
BRANCH  35  36
ATOM     36  C   UNL     1       3.671  -0.994  -1.242  1.00  0.00     0.188 C 
BRANCH  36  37
ATOM     37  C   UNL     1       4.444   0.242  -0.780  1.00  0.00     0.188 C 
BRANCH  37  38
ATOM     38  O   UNL     1       5.400  -0.055   0.215  1.00  0.00    -0.376 OA
BRANCH  38  39
ATOM     39  C   UNL     1       4.854   0.029   1.515  1.00  0.00     0.202 C 
BRANCH  39  40
ATOM     40  C   UNL     1       3.434  -0.549   1.768  1.00  0.00     0.261 C 
BRANCH  40  41
ATOM     41  O   UNL     1       2.208   0.052   1.154  1.00  0.00    -0.460 OA
BRANCH  41  42
ATOM     42  C   UNL     1       0.951  -0.540   0.959  1.00  0.00     0.338 C 
ATOM     43  O   UNL     1       0.520  -0.778  -0.164  1.00  0.00    -0.246 OA
BRANCH  42  44
ATOM     44  C   UNL     1      -0.065  -0.468   2.094  1.00  0.00     0.060 A 
ATOM     45  C   UNL     1      -0.684   0.739   2.413  1.00  0.00     0.016 A 
ATOM     46  C   UNL     1      -0.342  -1.555   2.933  1.00  0.00     0.016 A 
ATOM     47  C   UNL     1      -1.177   0.960   3.715  1.00  0.00     0.010 A 
ATOM     48  C   UNL     1      -0.800  -1.326   4.256  1.00  0.00     0.010 A 
ATOM     49  C   UNL     1      -1.128  -0.038   4.706  1.00  0.00    -0.014 A 
BRANCH  49  50
ATOM     50  C   UNL     1      -1.924   0.177   5.957  1.00  0.00     0.031 A 
ATOM     51  C   UNL     1      -3.339   0.041   5.556  1.00  0.00     0.074 A 
ATOM     52  C   UNL     1      -1.655   0.353   7.279  1.00  0.00     0.049 A 
ATOM     53  N   UNL     1      -4.143   0.998   5.220  1.00  0.00    -0.248 NA
ATOM     54  C   UNL     1      -3.765  -1.300   5.112  1.00  0.00     0.031 C 
ATOM     55  C   UNL     1      -0.364   0.292   7.951  1.00  0.00     0.029 A 
ATOM     56  N   UNL     1      -2.515   0.574   8.348  1.00  0.00    -0.354 N 
ATOM     57  C   UNL     1      -5.273   0.324   4.788  1.00  0.00     0.074 A 
ATOM     58  C   UNL     1      -4.817  -0.965   4.368  1.00  0.00     0.031 C 
ATOM     59  C   UNL     1      -0.525   0.248   9.296  1.00  0.00     0.029 A 
ATOM     60  C   UNL     1      -1.934   0.420   9.618  1.00  0.00     0.049 A 
ATOM     61  H   UNL     1      -3.460   0.820   8.224  1.00  0.00     0.167 HD
ATOM     62  C   UNL     1      -6.490   0.664   5.284  1.00  0.00     0.034 A 
ATOM     63  C   UNL     1      -2.532   0.445  10.850  1.00  0.00     0.034 A 
ATOM     64  C   UNL     1      -6.462   2.013   5.814  1.00  0.00     0.049 A 
ATOM     65  C   UNL     1      -3.798   1.197  10.720  1.00  0.00     0.074 A 
ATOM     66  C   UNL     1      -6.344   3.284   5.292  1.00  0.00     0.029 A 
ATOM     67  N   UNL     1      -6.167   2.102   7.153  1.00  0.00    -0.354 N 
ATOM     68  N   UNL     1      -3.849   2.479  10.501  1.00  0.00    -0.248 NA
ATOM     69  C   UNL     1      -5.051   0.477  10.526  1.00  0.00     0.031 C 
ATOM     70  C   UNL     1      -5.849   4.114   6.340  1.00  0.00     0.029 A 
ATOM     71  C   UNL     1      -5.709   3.352   7.496  1.00  0.00     0.049 A 
ATOM     72  H   UNL     1      -6.272   1.359   7.790  1.00  0.00     0.167 HD
ATOM     73  C   UNL     1      -4.991   2.652   9.751  1.00  0.00     0.074 A 
ATOM     74  C   UNL     1      -5.769   1.437   9.938  1.00  0.00     0.031 C 
ATOM     75  C   UNL     1      -5.033   3.589   8.763  1.00  0.00     0.034 A 
BRANCH  62  76
ATOM     76  C   UNL     1      -7.510  -0.370   5.755  1.00  0.00     0.023 A 
ATOM     77  C   UNL     1      -8.692   0.137   6.318  1.00  0.00     0.031 A 
ATOM     78  C   UNL     1      -7.316  -1.768   5.928  1.00  0.00     0.131 A 
ATOM     79  C   UNL     1      -9.544  -0.685   7.077  1.00  0.00     0.055 A 
ATOM     80  C   UNL     1      -8.176  -2.582   6.665  1.00  0.00     0.041 A 
ATOM     81  F   UNL     1      -6.270  -2.449   5.453  1.00  0.00    -0.206 F 
ATOM     82  C   UNL     1      -9.286  -2.038   7.270  1.00  0.00     0.022 A 
BRANCH  79  83
ATOM     83  S   UNL     1     -10.958   0.075   7.902  1.00  0.00     0.124 S 
ATOM     84  O   UNL     1     -10.306   1.077   8.737  1.00  0.00    -0.237 OA
ATOM     85  O   UNL     1     -11.727   0.575   6.767  1.00  0.00    -0.237 OA
ATOM     86  O   UNL     1     -11.567  -1.042   8.620  1.00  0.00    -0.744 OA
ENDBRANCH  79  83
ENDBRANCH  62  76
BRANCH  63  87
ATOM     87  C   UNL     1      -2.177  -0.238  12.140  1.00  0.00     0.023 A 
ATOM     88  C   UNL     1      -2.740   0.126  13.395  1.00  0.00     0.031 A 
ATOM     89  C   UNL     1      -1.482  -1.463  12.107  1.00  0.00     0.131 A 
ATOM     90  C   UNL     1      -2.615  -0.727  14.523  1.00  0.00     0.055 A 
ATOM     91  C   UNL     1      -1.361  -2.300  13.223  1.00  0.00     0.041 A 
ATOM     92  F   UNL     1      -0.973  -1.938  10.961  1.00  0.00    -0.206 F 
ATOM     93  C   UNL     1      -1.939  -1.943  14.431  1.00  0.00     0.022 A 
BRANCH  90  94
ATOM     94  S   UNL     1      -3.434  -0.331  16.111  1.00  0.00     0.124 S 
ATOM     95  O   UNL     1      -2.627   0.775  16.613  1.00  0.00    -0.237 OA
ATOM     96  O   UNL     1      -4.794  -0.009  15.696  1.00  0.00    -0.237 OA
ATOM     97  O   UNL     1      -3.312  -1.573  16.878  1.00  0.00    -0.744 OA
ENDBRANCH  90  94
ENDBRANCH  63  87
BRANCH  75  98
ATOM     98  C   UNL     1      -4.270   4.875   8.979  1.00  0.00     0.023 A 
ATOM     99  C   UNL     1      -2.884   4.994   9.224  1.00  0.00     0.031 A 
ATOM    100  C   UNL     1      -5.024   6.063   8.932  1.00  0.00     0.131 A 
ATOM    101  C   UNL     1      -2.309   6.270   9.405  1.00  0.00     0.055 A 
ATOM    102  C   UNL     1      -4.450   7.322   9.087  1.00  0.00     0.041 A 
ATOM    103  F   UNL     1      -6.351   6.021   8.722  1.00  0.00    -0.206 F 
ATOM    104  C   UNL     1      -3.088   7.430   9.329  1.00  0.00     0.022 A 
BRANCH 101 105
ATOM    105  S   UNL     1      -0.535   6.454   9.783  1.00  0.00     0.124 S 
ATOM    106  O   UNL     1      -0.303   5.464  10.827  1.00  0.00    -0.237 OA
ATOM    107  O   UNL     1       0.088   6.187   8.491  1.00  0.00    -0.237 OA
ATOM    108  O   UNL     1      -0.426   7.845  10.230  1.00  0.00    -0.744 OA
ENDBRANCH 101 105
ENDBRANCH  75  98
ENDBRANCH  49  50
ENDBRANCH  42  44
ENDBRANCH  41  42
ENDBRANCH  40  41
ENDBRANCH  39  40
ENDBRANCH  38  39
ENDBRANCH  37  38
ENDBRANCH  36  37
ENDBRANCH  35  36
ENDBRANCH   1  35
TORSDOF 28
