REMARK SMILES COc1cc([C@@H]2CC(=O)Nc3c(C(=O)OCCOCCOCCOCCOC(=O)c4ccc(-c5c6nc(c(-c7cc(S(=O)(=O)[O-])ccc7F)c7ccc([nH]7)c(-c7cc(S(=O)(=O)[O-])ccc7F)c7nc(c(-c8cc(S(=O)(=O)[O-])ccc8F)c8ccc5[nH]8)C=C7)C=C6)cc4)cn(-c4ccc(F)cc4)c32)c(OC)c2c1OCO2
REMARK SMILES IDX 22 1 21 2 20 3 19 4 18 5 17 6 16 7 15 8 13 9 14 10 12 11
REMARK SMILES IDX 6 12 7 13 102 14 8 15 11 16 94 17 9 18 10 19 93 20 5 22 3 23
REMARK SMILES IDX 4 24 107 25 106 26 108 27 103 28 110 29 109 30 2 31 1 32
REMARK SMILES IDX 104 33 105 34 95 35 96 36 101 37 97 38 100 39 98 40 99 41
REMARK SMILES IDX 23 42 24 43 25 44 26 45 27 46 28 47 29 48 30 49 31 50 92 51
REMARK SMILES IDX 32 52 91 53 33 54 34 55 35 56 85 57 36 58 90 59 84 60 86 61
REMARK SMILES IDX 37 62 89 63 83 64 82 65 38 67 70 68 50 69 69 70 51 71 54 72
REMARK SMILES IDX 68 73 87 74 52 75 53 76 67 78 88 79 55 80 39 81 40 82 48 83
REMARK SMILES IDX 41 84 47 85 49 86 46 87 42 88 43 89 44 90 45 91 71 92 72 93
REMARK SMILES IDX 80 94 73 95 79 96 81 97 78 98 74 99 75 100 76 101 77 102
REMARK SMILES IDX 56 103 57 104 65 105 58 106 64 107 66 108 63 109 59 110
REMARK SMILES IDX 60 111 61 112 62 113
REMARK H PARENT 10 21 86 66 54 77
REMARK Flexibility Score: inf
ROOT
ATOM      1  C   UNL     1      -2.633  -5.103 -11.698  1.00  0.00     0.188 C 
ENDROOT
BRANCH   1   2
ATOM      2  O   UNL     1      -1.892  -4.375 -10.716  1.00  0.00    -0.377 OA
BRANCH   2   3
ATOM      3  C   UNL     1      -2.628  -3.388 -10.016  1.00  0.00     0.188 C 
BRANCH   3   4
ATOM      4  C   UNL     1      -2.455  -1.948 -10.558  1.00  0.00     0.188 C 
BRANCH   4   5
ATOM      5  O   UNL     1      -1.673  -1.639 -11.710  1.00  0.00    -0.376 OA
BRANCH   5   6
ATOM      6  C   UNL     1      -0.569  -2.423 -12.125  1.00  0.00     0.202 C 
BRANCH   6   7
ATOM      7  C   UNL     1       0.622  -2.678 -11.189  1.00  0.00     0.261 C 
BRANCH   7   8
ATOM      8  O   UNL     1       0.309  -2.824  -9.806  1.00  0.00    -0.460 OA
BRANCH   8   9
ATOM      9  C   UNL     1       0.211  -1.655  -9.118  1.00  0.00     0.341 C 
ATOM     10  O   UNL     1       0.521  -0.553  -9.556  1.00  0.00    -0.246 OA
BRANCH   9  11
ATOM     11  C   UNL     1      -0.408  -1.844  -7.818  1.00  0.00     0.102 A 
ATOM     12  C   UNL     1      -0.770  -3.402  -4.508  1.00  0.00     0.082 C 
ATOM     13  C   UNL     1      -0.646  -4.890  -4.882  1.00  0.00     0.115 C 
ATOM     14  C   UNL     1      -0.909  -2.588  -5.755  1.00  0.00     0.055 A 
ATOM     15  C   UNL     1       0.129  -5.182  -6.163  1.00  0.00     0.225 C 
ATOM     16  C   UNL     1      -0.413  -2.977  -6.976  1.00  0.00     0.078 A 
ATOM     17  N   UNL     1      -1.498  -1.354  -5.912  1.00  0.00    -0.317 N 
ATOM     18  O   UNL     1       0.697  -6.261  -6.336  1.00  0.00    -0.275 OA
ATOM     19  N   UNL     1       0.097  -4.241  -7.164  1.00  0.00    -0.324 N 
ATOM     20  C   UNL     1      -1.186  -0.893  -7.168  1.00  0.00     0.109 A 
ATOM     21  H   UNL     1       0.454  -4.480  -8.050  1.00  0.00     0.170 HD
BRANCH  12  22
ATOM     22  C   UNL     1       0.388  -2.909  -3.621  1.00  0.00     0.012 A 
ATOM     23  C   UNL     1       1.016  -1.893  -1.476  1.00  0.00     0.165 A 
ATOM     24  C   UNL     1       0.073  -2.518  -2.294  1.00  0.00     0.059 A 
ATOM     25  C   UNL     1       2.305  -1.765  -1.955  1.00  0.00     0.211 A 
ATOM     26  C   UNL     1       2.649  -2.188  -3.223  1.00  0.00     0.211 A 
ATOM     27  O   UNL     1       3.368  -1.237  -1.284  1.00  0.00    -0.449 OA
ATOM     28  C   UNL     1       1.720  -2.751  -4.084  1.00  0.00     0.168 A 
ATOM     29  O   UNL     1       3.967  -1.953  -3.486  1.00  0.00    -0.449 OA
ATOM     30  C   UNL     1       4.429  -1.459  -2.223  1.00  0.00     0.468 C 
BRANCH  23  31
ATOM     31  O   UNL     1       0.585  -1.469  -0.253  1.00  0.00    -0.493 OA
ATOM     32  C   UNL     1       0.936  -0.113   0.020  1.00  0.00     0.278 C 
ENDBRANCH  23  31
BRANCH  28  33
ATOM     33  O   UNL     1       1.973  -3.155  -5.356  1.00  0.00    -0.492 OA
ATOM     34  C   UNL     1       3.282  -3.082  -5.893  1.00  0.00     0.278 C 
ENDBRANCH  28  33
ENDBRANCH  12  22
BRANCH  17  35
ATOM     35  C   UNL     1      -2.235  -0.632  -4.956  1.00  0.00     0.046 A 
ATOM     36  C   UNL     1      -1.579  -0.150  -3.822  1.00  0.00     0.029 A 
ATOM     37  C   UNL     1      -3.609  -0.440  -5.134  1.00  0.00     0.029 A 
ATOM     38  C   UNL     1      -2.315   0.457  -2.810  1.00  0.00     0.041 A 
ATOM     39  C   UNL     1      -4.340   0.176  -4.115  1.00  0.00     0.041 A 
ATOM     40  C   UNL     1      -3.689   0.604  -2.959  1.00  0.00     0.123 A 
ATOM     41  F   UNL     1      -4.397   1.167  -1.972  1.00  0.00    -0.207 F 
ENDBRANCH  17  35
ENDBRANCH   9  11
ENDBRANCH   8   9
ENDBRANCH   7   8
ENDBRANCH   6   7
ENDBRANCH   5   6
ENDBRANCH   4   5
ENDBRANCH   3   4
ENDBRANCH   2   3
ENDBRANCH   1   2
BRANCH   1  42
ATOM     42  C   UNL     1      -3.491  -4.285 -12.699  1.00  0.00     0.188 C 
BRANCH  42  43
ATOM     43  O   UNL     1      -4.231  -3.221 -12.110  1.00  0.00    -0.376 OA
BRANCH  43  44
ATOM     44  C   UNL     1      -5.638  -3.282 -11.947  1.00  0.00     0.202 C 
BRANCH  44  45
ATOM     45  C   UNL     1      -6.167  -4.263 -10.909  1.00  0.00     0.261 C 
BRANCH  45  46
ATOM     46  O   UNL     1      -5.549  -5.530 -10.978  1.00  0.00    -0.460 OA
BRANCH  46  47
ATOM     47  C   UNL     1      -5.795  -6.221 -12.103  1.00  0.00     0.338 C 
ATOM     48  O   UNL     1      -6.315  -5.803 -13.134  1.00  0.00    -0.246 OA
BRANCH  47  49
ATOM     49  C   UNL     1      -5.440  -7.611 -11.861  1.00  0.00     0.060 A 
ATOM     50  C   UNL     1      -5.555  -8.476 -12.949  1.00  0.00     0.016 A 
ATOM     51  C   UNL     1      -5.430  -8.049 -10.529  1.00  0.00     0.016 A 
ATOM     52  C   UNL     1      -5.966  -9.757 -12.691  1.00  0.00     0.010 A 
ATOM     53  C   UNL     1      -5.891  -9.306 -10.278  1.00  0.00     0.010 A 
ATOM     54  C   UNL     1      -6.240 -10.102 -11.366  1.00  0.00    -0.014 A 
BRANCH  54  55
ATOM     55  C   UNL     1      -6.821 -11.393 -11.096  1.00  0.00     0.031 A 
ATOM     56  C   UNL     1      -5.794 -12.453 -11.139  1.00  0.00     0.074 A 
ATOM     57  C   UNL     1      -8.104 -11.503 -10.703  1.00  0.00     0.049 A 
ATOM     58  N   UNL     1      -5.672 -13.402 -12.004  1.00  0.00    -0.248 NA
ATOM     59  C   UNL     1      -4.611 -12.285 -10.270  1.00  0.00     0.031 C 
ATOM     60  C   UNL     1      -9.043 -10.419 -10.393  1.00  0.00     0.029 A 
ATOM     61  N   UNL     1      -8.809 -12.613 -10.370  1.00  0.00    -0.354 N 
ATOM     62  C   UNL     1      -4.554 -14.115 -11.587  1.00  0.00     0.074 A 
ATOM     63  C   UNL     1      -3.803 -13.224 -10.756  1.00  0.00     0.031 C 
ATOM     64  C   UNL     1     -10.085 -10.921  -9.690  1.00  0.00     0.029 A 
ATOM     65  C   UNL     1      -9.940 -12.366  -9.596  1.00  0.00     0.049 A 
ATOM     66  H   UNL     1      -8.543 -13.518 -10.652  1.00  0.00     0.167 HD
ATOM     67  C   UNL     1      -4.549 -15.473 -11.644  1.00  0.00     0.034 A 
ATOM     68  C   UNL     1     -10.632 -13.276  -8.856  1.00  0.00     0.034 A 
ATOM     69  C   UNL     1      -5.524 -15.940 -12.611  1.00  0.00     0.049 A 
ATOM     70  C   UNL     1     -10.254 -14.620  -9.373  1.00  0.00     0.074 A 
ATOM     71  C   UNL     1      -5.736 -15.686 -13.954  1.00  0.00     0.029 A 
ATOM     72  N   UNL     1      -6.709 -16.468 -12.143  1.00  0.00    -0.354 N 
ATOM     73  N   UNL     1     -10.544 -15.033 -10.578  1.00  0.00    -0.248 NA
ATOM     74  C   UNL     1      -9.119 -15.292  -8.753  1.00  0.00     0.031 C 
ATOM     75  C   UNL     1      -7.152 -15.617 -14.101  1.00  0.00     0.029 A 
ATOM     76  C   UNL     1      -7.739 -15.924 -12.871  1.00  0.00     0.049 A 
ATOM     77  H   UNL     1      -6.801 -17.123 -11.413  1.00  0.00     0.167 HD
ATOM     78  C   UNL     1      -9.401 -15.679 -11.027  1.00  0.00     0.074 A 
ATOM     79  C   UNL     1      -8.591 -15.889  -9.827  1.00  0.00     0.031 C 
ATOM     80  C   UNL     1      -9.082 -15.712 -12.356  1.00  0.00     0.034 A 
BRANCH  67  81
ATOM     81  C   UNL     1      -4.011 -16.346 -10.524  1.00  0.00     0.023 A 
ATOM     82  C   UNL     1      -4.186 -17.730 -10.683  1.00  0.00     0.031 A 
ATOM     83  C   UNL     1      -3.621 -15.931  -9.225  1.00  0.00     0.131 A 
ATOM     84  C   UNL     1      -4.133 -18.597  -9.580  1.00  0.00     0.055 A 
ATOM     85  C   UNL     1      -3.508 -16.807  -8.143  1.00  0.00     0.041 A 
ATOM     86  F   UNL     1      -3.392 -14.658  -8.889  1.00  0.00    -0.206 F 
ATOM     87  C   UNL     1      -3.806 -18.145  -8.306  1.00  0.00     0.022 A 
BRANCH  84  88
ATOM     88  S   UNL     1      -4.695 -20.297  -9.818  1.00  0.00     0.124 S 
ATOM     89  O   UNL     1      -6.015 -20.083 -10.402  1.00  0.00    -0.237 OA
ATOM     90  O   UNL     1      -3.670 -20.823 -10.713  1.00  0.00    -0.237 OA
ATOM     91  O   UNL     1      -4.687 -20.846  -8.465  1.00  0.00    -0.744 OA
ENDBRANCH  84  88
ENDBRANCH  67  81
BRANCH  68  92
ATOM     92  C   UNL     1     -11.271 -13.055  -7.522  1.00  0.00     0.023 A 
ATOM     93  C   UNL     1     -12.249 -13.919  -6.981  1.00  0.00     0.031 A 
ATOM     94  C   UNL     1     -10.742 -12.080  -6.644  1.00  0.00     0.131 A 
ATOM     95  C   UNL     1     -12.659 -13.781  -5.630  1.00  0.00     0.055 A 
ATOM     96  C   UNL     1     -11.154 -11.944  -5.316  1.00  0.00     0.041 A 
ATOM     97  F   UNL     1      -9.739 -11.273  -7.021  1.00  0.00    -0.206 F 
ATOM     98  C   UNL     1     -12.110 -12.801  -4.800  1.00  0.00     0.022 A 
BRANCH  95  99
ATOM     99  S   UNL     1     -13.867 -14.935  -4.895  1.00  0.00     0.124 S 
ATOM    100  O   UNL     1     -15.088 -14.612  -5.624  1.00  0.00    -0.237 OA
ATOM    101  O   UNL     1     -13.269 -16.235  -5.172  1.00  0.00    -0.237 OA
ATOM    102  O   UNL     1     -13.883 -14.559  -3.480  1.00  0.00    -0.744 OA
ENDBRANCH  95  99
ENDBRANCH  68  92
BRANCH  80 103
ATOM    103  C   UNL     1     -10.147 -15.316 -13.364  1.00  0.00     0.023 A 
ATOM    104  C   UNL     1     -10.803 -14.063 -13.415  1.00  0.00     0.031 A 
ATOM    105  C   UNL     1     -10.415 -16.232 -14.397  1.00  0.00     0.131 A 
ATOM    106  C   UNL     1     -11.694 -13.777 -14.471  1.00  0.00     0.055 A 
ATOM    107  C   UNL     1     -11.278 -15.937 -15.450  1.00  0.00     0.041 A 
ATOM    108  F   UNL     1      -9.805 -17.429 -14.421  1.00  0.00    -0.206 F 
ATOM    109  C   UNL     1     -11.926 -14.709 -15.488  1.00  0.00     0.022 A 
BRANCH 106 110
ATOM    110  S   UNL     1     -12.589 -12.189 -14.539  1.00  0.00     0.124 S 
ATOM    111  O   UNL     1     -13.104 -12.028 -13.185  1.00  0.00    -0.237 OA
ATOM    112  O   UNL     1     -11.542 -11.254 -14.942  1.00  0.00    -0.237 OA
ATOM    113  O   UNL     1     -13.617 -12.422 -15.557  1.00  0.00    -0.744 OA
ENDBRANCH 106 110
ENDBRANCH  80 103
ENDBRANCH  54  55
ENDBRANCH  47  49
ENDBRANCH  46  47
ENDBRANCH  45  46
ENDBRANCH  44  45
ENDBRANCH  43  44
ENDBRANCH  42  43
ENDBRANCH   1  42
TORSDOF 27
