REMARK SMILES Cc1cc(C)nc(SCC(=O)N2CCC[C@H](C(=O)OCCOCCOCCOCCOC(=O)c3ccc(-c4c5nc(c(-c6cc(S(=O)(=O)[O-])ccc6F)c6ccc([nH]6)c(-c6cc(S(=O)(=O)[O-])ccc6F)c6nc(c(-c7cc(S(=O)(=O)[O-])ccc7F)c7ccc4[nH]7)C=C6)C=C5)cc3)C2)n1
REMARK SMILES IDX 24 1 23 2 22 3 21 4 20 5 19 6 17 7 18 8 16 9 12 10 13 11
REMARK SMILES IDX 97 12 14 13 15 14 10 15 11 16 9 17 8 18 7 19 1 20 2 21 3 22
REMARK SMILES IDX 98 23 4 24 5 25 6 26 25 27 26 28 27 29 28 30 29 31 30 32
REMARK SMILES IDX 31 33 32 34 33 35 34 36 35 37 96 38 36 39 95 40 37 41 38 42
REMARK SMILES IDX 39 43 89 44 40 45 94 46 88 47 90 48 41 49 93 50 87 51 86 52
REMARK SMILES IDX 42 54 74 55 54 56 73 57 55 58 58 59 72 60 91 61 56 62 57 63
REMARK SMILES IDX 71 65 92 66 59 67 43 68 44 69 52 70 45 71 51 72 53 73 50 74
REMARK SMILES IDX 46 75 47 76 48 77 49 78 75 79 76 80 84 81 77 82 83 83 85 84
REMARK SMILES IDX 82 85 78 86 79 87 80 88 81 89 60 90 61 91 69 92 62 93 68 94
REMARK SMILES IDX 70 95 67 96 63 97 64 98 65 99 66 100
REMARK H PARENT 90 53 58 64
REMARK Flexibility Score: inf
ROOT
ATOM      1  C   UNL     1       0.633  -0.338  -5.945  1.00  0.00     0.188 C 
ENDROOT
BRANCH   1   2
ATOM      2  C   UNL     1      -0.180   0.514  -4.957  1.00  0.00     0.188 C 
BRANCH   2   3
ATOM      3  O   UNL     1       0.486   1.492  -4.198  1.00  0.00    -0.376 OA
BRANCH   3   4
ATOM      4  C   UNL     1       1.298   1.141  -3.095  1.00  0.00     0.202 C 
BRANCH   4   5
ATOM      5  C   UNL     1       1.520  -0.281  -2.561  1.00  0.00     0.261 C 
BRANCH   5   6
ATOM      6  O   UNL     1       1.361  -1.414  -3.410  1.00  0.00    -0.463 OA
BRANCH   6   7
ATOM      7  C   UNL     1       0.247  -2.156  -3.216  1.00  0.00     0.310 C 
ATOM      8  O   UNL     1      -0.737  -1.784  -2.584  1.00  0.00    -0.252 OA
BRANCH   7   9
ATOM      9  C   UNL     1       0.327  -3.555  -3.794  1.00  0.00     0.119 C 
ATOM     10  N   UNL     1       1.958  -4.387  -2.167  1.00  0.00    -0.341 N 
ATOM     11  C   UNL     1       2.961  -4.689  -3.192  1.00  0.00     0.119 C 
ATOM     12  C   UNL     1       0.578  -4.516  -2.626  1.00  0.00     0.134 C 
ATOM     13  C   UNL     1       2.790  -3.842  -4.448  1.00  0.00     0.022 C 
ATOM     14  C   UNL     1       1.337  -3.820  -4.920  1.00  0.00     0.019 C 
BRANCH  10  15
ATOM     15  C   UNL     1       2.328  -3.588  -1.080  1.00  0.00     0.233 C 
ATOM     16  O   UNL     1       3.289  -2.819  -1.167  1.00  0.00    -0.274 OA
BRANCH  15  17
ATOM     17  C   UNL     1       1.719  -3.894   0.285  1.00  0.00     0.178 C 
BRANCH  17  18
ATOM     18  S   UNL     1       0.008  -3.415   0.607  1.00  0.00    -0.076 SA
BRANCH  18  19
ATOM     19  C   UNL     1       0.074  -1.647   0.652  1.00  0.00     0.188 A 
ATOM     20  C   UNL     1       2.539   1.054   0.739  1.00  0.00     0.067 C 
ATOM     21  C   UNL     1       1.221   0.336   0.749  1.00  0.00     0.042 A 
ATOM     22  C   UNL     1       0.048   1.052   0.585  1.00  0.00     0.047 A 
ATOM     23  N   UNL     1       1.247  -1.016   0.795  1.00  0.00    -0.228 NA
ATOM     24  C   UNL     1      -1.110   0.315   0.449  1.00  0.00     0.042 A 
ATOM     25  C   UNL     1      -2.412   0.991   0.141  1.00  0.00     0.067 C 
ATOM     26  N   UNL     1      -1.113  -1.029   0.508  1.00  0.00    -0.228 NA
ENDBRANCH  18  19
ENDBRANCH  17  18
ENDBRANCH  15  17
ENDBRANCH  10  15
ENDBRANCH   7   9
ENDBRANCH   6   7
ENDBRANCH   5   6
ENDBRANCH   4   5
ENDBRANCH   3   4
ENDBRANCH   2   3
ENDBRANCH   1   2
BRANCH   1  27
ATOM     27  O   UNL     1       2.029  -0.487  -5.766  1.00  0.00    -0.377 OA
BRANCH  27  28
ATOM     28  C   UNL     1       2.900   0.636  -5.831  1.00  0.00     0.188 C 
BRANCH  28  29
ATOM     29  C   UNL     1       2.400   1.996  -6.355  1.00  0.00     0.188 C 
BRANCH  29  30
ATOM     30  O   UNL     1       1.264   1.927  -7.198  1.00  0.00    -0.376 OA
BRANCH  30  31
ATOM     31  C   UNL     1       1.475   1.843  -8.599  1.00  0.00     0.202 C 
BRANCH  31  32
ATOM     32  C   UNL     1       2.342   0.694  -9.142  1.00  0.00     0.261 C 
BRANCH  32  33
ATOM     33  O   UNL     1       3.706   0.637  -8.691  1.00  0.00    -0.460 OA
BRANCH  33  34
ATOM     34  C   UNL     1       4.479   1.734  -8.861  1.00  0.00     0.338 C 
ATOM     35  O   UNL     1       4.170   2.766  -9.416  1.00  0.00    -0.246 OA
BRANCH  34  36
ATOM     36  C   UNL     1       5.718   1.534  -8.075  1.00  0.00     0.060 A 
ATOM     37  C   UNL     1       6.019   2.427  -7.037  1.00  0.00     0.016 A 
ATOM     38  C   UNL     1       6.582   0.478  -8.369  1.00  0.00     0.016 A 
ATOM     39  C   UNL     1       7.209   2.292  -6.320  1.00  0.00     0.010 A 
ATOM     40  C   UNL     1       7.785   0.358  -7.666  1.00  0.00     0.010 A 
ATOM     41  C   UNL     1       8.122   1.288  -6.664  1.00  0.00    -0.014 A 
BRANCH  41  42
ATOM     42  C   UNL     1       9.509   1.341  -6.135  1.00  0.00     0.031 A 
ATOM     43  C   UNL     1      10.577   1.942  -7.014  1.00  0.00     0.074 A 
ATOM     44  C   UNL     1       9.815   0.896  -4.902  1.00  0.00     0.049 A 
ATOM     45  N   UNL     1      11.865   2.035  -6.812  1.00  0.00    -0.248 NA
ATOM     46  C   UNL     1      10.127   2.511  -8.295  1.00  0.00     0.031 C 
ATOM     47  C   UNL     1       8.858   0.352  -3.939  1.00  0.00     0.029 A 
ATOM     48  N   UNL     1      11.023   0.822  -4.252  1.00  0.00    -0.354 N 
ATOM     49  C   UNL     1      12.381   2.657  -7.945  1.00  0.00     0.074 A 
ATOM     50  C   UNL     1      11.271   2.898  -8.839  1.00  0.00     0.031 C 
ATOM     51  C   UNL     1       9.521  -0.013  -2.826  1.00  0.00     0.029 A 
ATOM     52  C   UNL     1      10.951   0.225  -3.014  1.00  0.00     0.049 A 
ATOM     53  H   UNL     1      11.862   1.165  -4.636  1.00  0.00     0.167 HD
ATOM     54  C   UNL     1      13.665   2.995  -8.212  1.00  0.00     0.034 A 
ATOM     55  C   UNL     1      11.932  -0.122  -2.152  1.00  0.00     0.034 A 
ATOM     56  C   UNL     1      14.762   2.750  -7.309  1.00  0.00     0.049 A 
ATOM     57  C   UNL     1      13.370   0.187  -2.519  1.00  0.00     0.074 A 
ATOM     58  C   UNL     1      16.096   3.078  -7.472  1.00  0.00     0.029 A 
ATOM     59  N   UNL     1      14.657   2.105  -6.085  1.00  0.00    -0.354 N 
ATOM     60  N   UNL     1      13.842   0.791  -3.587  1.00  0.00    -0.248 NA
ATOM     61  C   UNL     1      14.405  -0.226  -1.561  1.00  0.00     0.031 C 
ATOM     62  C   UNL     1      16.810   2.553  -6.392  1.00  0.00     0.029 A 
ATOM     63  C   UNL     1      15.909   1.988  -5.503  1.00  0.00     0.049 A 
ATOM     64  H   UNL     1      13.817   1.779  -5.688  1.00  0.00     0.167 HD
ATOM     65  C   UNL     1      15.222   0.866  -3.402  1.00  0.00     0.074 A 
ATOM     66  C   UNL     1      15.503   0.264  -2.117  1.00  0.00     0.031 C 
ATOM     67  C   UNL     1      16.174   1.389  -4.217  1.00  0.00     0.034 A 
BRANCH  54  68
ATOM     68  C   UNL     1      13.970   3.609  -9.556  1.00  0.00     0.023 A 
ATOM     69  C   UNL     1      13.498   4.881  -9.922  1.00  0.00     0.031 A 
ATOM     70  C   UNL     1      14.772   2.911 -10.477  1.00  0.00     0.131 A 
ATOM     71  C   UNL     1      13.802   5.398 -11.191  1.00  0.00     0.055 A 
ATOM     72  C   UNL     1      15.130   3.461 -11.708  1.00  0.00     0.041 A 
ATOM     73  F   UNL     1      15.226   1.680 -10.191  1.00  0.00    -0.206 F 
ATOM     74  C   UNL     1      14.638   4.710 -12.074  1.00  0.00     0.022 A 
BRANCH  71  75
ATOM     75  S   UNL     1      13.006   6.940 -11.718  1.00  0.00     0.124 S 
ATOM     76  O   UNL     1      11.592   6.579 -11.657  1.00  0.00    -0.237 OA
ATOM     77  O   UNL     1      13.465   7.892 -10.713  1.00  0.00    -0.237 OA
ATOM     78  O   UNL     1      13.530   7.154 -13.065  1.00  0.00    -0.744 OA
ENDBRANCH  71  75
ENDBRANCH  54  68
BRANCH  55  79
ATOM     79  C   UNL     1      11.624  -0.854  -0.885  1.00  0.00     0.023 A 
ATOM     80  C   UNL     1      11.999  -0.336   0.365  1.00  0.00     0.031 A 
ATOM     81  C   UNL     1      11.054  -2.140  -0.914  1.00  0.00     0.131 A 
ATOM     82  C   UNL     1      11.874  -1.126   1.520  1.00  0.00     0.055 A 
ATOM     83  C   UNL     1      10.860  -2.891   0.247  1.00  0.00     0.041 A 
ATOM     84  F   UNL     1      10.688  -2.696  -2.080  1.00  0.00    -0.206 F 
ATOM     85  C   UNL     1      11.292  -2.393   1.472  1.00  0.00     0.022 A 
BRANCH  82  86
ATOM     86  S   UNL     1      12.627  -0.532   3.061  1.00  0.00     0.124 S 
ATOM     87  O   UNL     1      14.008  -0.310   2.648  1.00  0.00    -0.237 OA
ATOM     88  O   UNL     1      11.840   0.664   3.341  1.00  0.00    -0.237 OA
ATOM     89  O   UNL     1      12.423  -1.643   3.989  1.00  0.00    -0.744 OA
ENDBRANCH  82  86
ENDBRANCH  55  79
BRANCH  67  90
ATOM     90  C   UNL     1      17.598   1.396  -3.711  1.00  0.00     0.023 A 
ATOM     91  C   UNL     1      18.315   0.209  -3.482  1.00  0.00     0.031 A 
ATOM     92  C   UNL     1      18.247   2.618  -3.454  1.00  0.00     0.131 A 
ATOM     93  C   UNL     1      19.614   0.268  -2.955  1.00  0.00     0.055 A 
ATOM     94  C   UNL     1      19.564   2.671  -2.998  1.00  0.00     0.041 A 
ATOM     95  F   UNL     1      17.612   3.785  -3.651  1.00  0.00    -0.206 F 
ATOM     96  C   UNL     1      20.251   1.491  -2.731  1.00  0.00     0.022 A 
BRANCH  93  97
ATOM     97  S   UNL     1      20.427  -1.278  -2.465  1.00  0.00     0.124 S 
ATOM     98  O   UNL     1      19.482  -1.825  -1.497  1.00  0.00    -0.237 OA
ATOM     99  O   UNL     1      20.526  -1.994  -3.733  1.00  0.00    -0.237 OA
ATOM    100  O   UNL     1      21.702  -0.834  -1.905  1.00  0.00    -0.744 OA
ENDBRANCH  93  97
ENDBRANCH  67  90
ENDBRANCH  41  42
ENDBRANCH  34  36
ENDBRANCH  33  34
ENDBRANCH  32  33
ENDBRANCH  31  32
ENDBRANCH  30  31
ENDBRANCH  29  30
ENDBRANCH  28  29
ENDBRANCH  27  28
ENDBRANCH   1  27
TORSDOF 27
