REMARK SMILES COc1cc(NS(=O)(=O)c2cc(C)c(C(=O)OCCOCCOCCOCCOC(=O)c3ccc(-c4c5nc(c(-c6cc(S(=O)(=O)[O-])ccc6F)c6ccc([nH]6)c(-c6cc(S(=O)(=O)[O-])ccc6F)c6nc(c(-c7cc(S(=O)(=O)[O-])ccc7F)c7ccc4[nH]7)C=C6)C=C5)cc3)s2)cc(OC)c1
REMARK SMILES IDX 22 1 21 2 20 3 19 4 18 5 17 6 15 7 16 8 14 9 10 10 11 11
REMARK SMILES IDX 95 12 12 13 13 14 7 15 8 16 9 17 6 18 5 20 3 21 4 22 100 23
REMARK SMILES IDX 97 24 96 25 2 26 1 27 98 28 99 29 23 30 24 31 25 32 26 33
REMARK SMILES IDX 27 34 28 35 29 36 30 37 31 38 32 39 33 40 94 41 34 42 93 43
REMARK SMILES IDX 35 44 36 45 37 46 87 47 38 48 92 49 86 50 88 51 39 52 91 53
REMARK SMILES IDX 85 54 84 55 40 57 72 58 52 59 71 60 53 61 56 62 70 63 89 64
REMARK SMILES IDX 54 65 55 66 69 68 90 69 57 70 41 71 42 72 50 73 43 74 49 75
REMARK SMILES IDX 51 76 48 77 44 78 45 79 46 80 47 81 73 82 74 83 82 84 75 85
REMARK SMILES IDX 81 86 83 87 80 88 76 89 77 90 78 91 79 92 58 93 59 94 67 95
REMARK SMILES IDX 60 96 66 97 68 98 65 99 61 100 62 101 63 102 64 103
REMARK H PARENT 6 19 88 56 56 67
REMARK Flexibility Score: inf
ROOT
ATOM      1  C   UNL     1      -0.817   0.760   1.241  1.00  0.00     0.188 C 
ENDROOT
BRANCH   1   2
ATOM      2  C   UNL     1      -1.068   1.133  -0.234  1.00  0.00     0.188 C 
BRANCH   2   3
ATOM      3  O   UNL     1      -1.327   2.475  -0.619  1.00  0.00    -0.376 OA
BRANCH   3   4
ATOM      4  C   UNL     1      -2.308   3.216   0.090  1.00  0.00     0.202 C 
BRANCH   4   5
ATOM      5  C   UNL     1      -3.702   2.602   0.315  1.00  0.00     0.261 C 
BRANCH   5   6
ATOM      6  O   UNL     1      -3.709   1.255   0.829  1.00  0.00    -0.459 OA
BRANCH   6   7
ATOM      7  C   UNL     1      -4.202   0.264   0.023  1.00  0.00     0.348 C 
ATOM      8  O   UNL     1      -4.725   0.467  -1.066  1.00  0.00    -0.245 OA
BRANCH   7   9
ATOM      9  C   UNL     1      -3.870  -1.055   0.575  1.00  0.00     0.116 A 
ATOM     10  C   UNL     1      -3.068  -3.421   0.672  1.00  0.00     0.141 A 
ATOM     11  C   UNL     1      -3.207  -2.843   1.918  1.00  0.00     0.038 A 
ATOM     12  S   UNL     1      -3.626  -2.361  -0.545  1.00  0.00    -0.115 S 
ATOM     13  C   UNL     1      -3.650  -1.477   1.885  1.00  0.00    -0.024 A 
ATOM     14  C   UNL     1      -3.804  -0.668   3.138  1.00  0.00     0.046 C 
BRANCH  10  15
ATOM     15  S   UNL     1      -2.504  -5.049   0.213  1.00  0.00     0.271 S 
ATOM     16  O   UNL     1      -3.585  -5.625  -0.562  1.00  0.00    -0.200 OA
ATOM     17  O   UNL     1      -2.115  -5.661   1.468  1.00  0.00    -0.200 OA
BRANCH  15  18
ATOM     18  N   UNL     1      -1.137  -5.100  -0.790  1.00  0.00    -0.279 N 
ATOM     19  H   UNL     1      -1.188  -5.622  -1.623  1.00  0.00     0.180 HD
BRANCH  18  20
ATOM     20  C   UNL     1       0.092  -4.418  -0.484  1.00  0.00     0.056 A 
ATOM     21  C   UNL     1       1.312  -2.354  -0.313  1.00  0.00     0.124 A 
ATOM     22  C   UNL     1       0.107  -3.047  -0.271  1.00  0.00     0.073 A 
ATOM     23  C   UNL     1       2.524  -3.010  -0.428  1.00  0.00     0.093 A 
ATOM     24  C   UNL     1       2.539  -4.368  -0.696  1.00  0.00     0.124 A 
ATOM     25  C   UNL     1       1.319  -5.069  -0.734  1.00  0.00     0.073 A 
BRANCH  21  26
ATOM     26  O   UNL     1       1.273  -0.994  -0.293  1.00  0.00    -0.497 OA
ATOM     27  C   UNL     1       1.833  -0.431  -1.489  1.00  0.00     0.278 C 
ENDBRANCH  21  26
BRANCH  24  28
ATOM     28  O   UNL     1       3.681  -5.067  -0.995  1.00  0.00    -0.497 OA
ATOM     29  C   UNL     1       4.864  -4.275  -1.161  1.00  0.00     0.278 C 
ENDBRANCH  24  28
ENDBRANCH  18  20
ENDBRANCH  15  18
ENDBRANCH  10  15
ENDBRANCH   7   9
ENDBRANCH   6   7
ENDBRANCH   5   6
ENDBRANCH   4   5
ENDBRANCH   3   4
ENDBRANCH   2   3
ENDBRANCH   1   2
BRANCH   1  30
ATOM     30  O   UNL     1      -1.096   1.798   2.162  1.00  0.00    -0.377 OA
BRANCH  30  31
ATOM     31  C   UNL     1       0.047   2.469   2.700  1.00  0.00     0.188 C 
BRANCH  31  32
ATOM     32  C   UNL     1       1.175   2.824   1.710  1.00  0.00     0.188 C 
BRANCH  32  33
ATOM     33  O   UNL     1       1.762   1.670   1.125  1.00  0.00    -0.376 OA
BRANCH  33  34
ATOM     34  C   UNL     1       2.962   1.097   1.615  1.00  0.00     0.202 C 
BRANCH  34  35
ATOM     35  C   UNL     1       3.192   0.743   3.091  1.00  0.00     0.261 C 
BRANCH  35  36
ATOM     36  O   UNL     1       2.647   1.626   4.060  1.00  0.00    -0.460 OA
BRANCH  36  37
ATOM     37  C   UNL     1       3.263   2.817   4.185  1.00  0.00     0.338 C 
ATOM     38  O   UNL     1       4.214   3.222   3.535  1.00  0.00    -0.246 OA
BRANCH  37  39
ATOM     39  C   UNL     1       2.445   3.620   5.104  1.00  0.00     0.060 A 
ATOM     40  C   UNL     1       2.062   4.901   4.699  1.00  0.00     0.016 A 
ATOM     41  C   UNL     1       2.049   3.103   6.345  1.00  0.00     0.016 A 
ATOM     42  C   UNL     1       1.340   5.703   5.571  1.00  0.00     0.010 A 
ATOM     43  C   UNL     1       1.327   3.910   7.219  1.00  0.00     0.010 A 
ATOM     44  C   UNL     1       1.021   5.229   6.851  1.00  0.00    -0.014 A 
BRANCH  44  45
ATOM     45  C   UNL     1       0.564   6.202   7.862  1.00  0.00     0.031 A 
ATOM     46  C   UNL     1       1.579   6.746   8.828  1.00  0.00     0.074 A 
ATOM     47  C   UNL     1      -0.702   6.648   7.844  1.00  0.00     0.049 A 
ATOM     48  N   UNL     1       1.438   7.654   9.755  1.00  0.00    -0.248 NA
ATOM     49  C   UNL     1       2.938   6.188   8.732  1.00  0.00     0.031 C 
ATOM     50  C   UNL     1      -1.739   6.201   6.913  1.00  0.00     0.029 A 
ATOM     51  N   UNL     1      -1.325   7.587   8.620  1.00  0.00    -0.354 N 
ATOM     52  C   UNL     1       2.689   7.780  10.351  1.00  0.00     0.074 A 
ATOM     53  C   UNL     1       3.560   6.817   9.716  1.00  0.00     0.031 C 
ATOM     54  C   UNL     1      -2.870   6.880   7.165  1.00  0.00     0.029 A 
ATOM     55  C   UNL     1      -2.645   7.779   8.295  1.00  0.00     0.049 A 
ATOM     56  H   UNL     1      -0.870   8.078   9.342  1.00  0.00     0.167 HD
ATOM     57  C   UNL     1       3.073   8.636  11.328  1.00  0.00     0.034 A 
ATOM     58  C   UNL     1      -3.564   8.585   8.859  1.00  0.00     0.034 A 
ATOM     59  C   UNL     1       2.172   9.572  11.953  1.00  0.00     0.049 A 
ATOM     60  C   UNL     1      -3.129   9.476   9.997  1.00  0.00     0.074 A 
ATOM     61  C   UNL     1       2.435  10.487  12.956  1.00  0.00     0.029 A 
ATOM     62  N   UNL     1       0.822   9.704  11.640  1.00  0.00    -0.354 N 
ATOM     63  N   UNL     1      -1.941   9.597  10.549  1.00  0.00    -0.248 NA
ATOM     64  C   UNL     1      -4.153  10.355  10.570  1.00  0.00     0.031 C 
ATOM     65  C   UNL     1       1.232  11.109  13.306  1.00  0.00     0.029 A 
ATOM     66  C   UNL     1       0.235  10.660  12.453  1.00  0.00     0.049 A 
ATOM     67  H   UNL     1       0.353   9.192  10.942  1.00  0.00     0.167 HD
ATOM     68  C   UNL     1      -2.070  10.594  11.513  1.00  0.00     0.074 A 
ATOM     69  C   UNL     1      -3.444  11.054  11.442  1.00  0.00     0.031 C 
ATOM     70  C   UNL     1      -1.144  11.089  12.377  1.00  0.00     0.034 A 
BRANCH  57  71
ATOM     71  C   UNL     1       4.503   8.545  11.809  1.00  0.00     0.023 A 
ATOM     72  C   UNL     1       5.594   8.799  10.958  1.00  0.00     0.031 A 
ATOM     73  C   UNL     1       4.780   8.156  13.131  1.00  0.00     0.131 A 
ATOM     74  C   UNL     1       6.905   8.591  11.417  1.00  0.00     0.055 A 
ATOM     75  C   UNL     1       6.087   8.036  13.607  1.00  0.00     0.041 A 
ATOM     76  F   UNL     1       3.783   7.867  13.982  1.00  0.00    -0.206 F 
ATOM     77  C   UNL     1       7.159   8.240  12.744  1.00  0.00     0.022 A 
BRANCH  74  78
ATOM     78  S   UNL     1       8.264   8.634  10.215  1.00  0.00     0.124 S 
ATOM     79  O   UNL     1       7.857   7.595   9.273  1.00  0.00    -0.237 OA
ATOM     80  O   UNL     1       8.205  10.005   9.720  1.00  0.00    -0.237 OA
ATOM     81  O   UNL     1       9.442   8.310  11.018  1.00  0.00    -0.744 OA
ENDBRANCH  74  78
ENDBRANCH  57  71
BRANCH  58  82
ATOM     82  C   UNL     1      -4.976   8.576   8.380  1.00  0.00     0.023 A 
ATOM     83  C   UNL     1      -5.572   9.727   7.843  1.00  0.00     0.031 A 
ATOM     84  C   UNL     1      -5.768   7.420   8.499  1.00  0.00     0.131 A 
ATOM     85  C   UNL     1      -6.932   9.714   7.496  1.00  0.00     0.055 A 
ATOM     86  C   UNL     1      -7.104   7.393   8.095  1.00  0.00     0.041 A 
ATOM     87  F   UNL     1      -5.249   6.290   9.006  1.00  0.00    -0.206 F 
ATOM     88  C   UNL     1      -7.697   8.550   7.604  1.00  0.00     0.022 A 
BRANCH  85  89
ATOM     89  S   UNL     1      -7.715  11.271   6.993  1.00  0.00     0.124 S 
ATOM     90  O   UNL     1      -7.452  12.121   8.148  1.00  0.00    -0.237 OA
ATOM     91  O   UNL     1      -6.981  11.598   5.775  1.00  0.00    -0.237 OA
ATOM     92  O   UNL     1      -9.114  10.899   6.795  1.00  0.00    -0.744 OA
ENDBRANCH  85  89
ENDBRANCH  58  82
BRANCH  70  93
ATOM     93  C   UNL     1      -1.590  12.220  13.275  1.00  0.00     0.023 A 
ATOM     94  C   UNL     1      -2.619  12.054  14.218  1.00  0.00     0.031 A 
ATOM     95  C   UNL     1      -1.013  13.496  13.147  1.00  0.00     0.131 A 
ATOM     96  C   UNL     1      -3.107  13.165  14.921  1.00  0.00     0.055 A 
ATOM     97  C   UNL     1      -1.443  14.578  13.916  1.00  0.00     0.041 A 
ATOM     98  F   UNL     1      -0.028  13.717  12.262  1.00  0.00    -0.206 F 
ATOM     99  C   UNL     1      -2.512  14.422  14.792  1.00  0.00     0.022 A 
BRANCH  96 100
ATOM    100  S   UNL     1      -4.636  12.977  15.879  1.00  0.00     0.124 S 
ATOM    101  O   UNL     1      -5.557  12.452  14.875  1.00  0.00    -0.237 OA
ATOM    102  O   UNL     1      -4.235  12.043  16.925  1.00  0.00    -0.237 OA
ATOM    103  O   UNL     1      -4.923  14.335  16.335  1.00  0.00    -0.744 OA
ENDBRANCH  96 100
ENDBRANCH  70  93
ENDBRANCH  44  45
ENDBRANCH  37  39
ENDBRANCH  36  37
ENDBRANCH  35  36
ENDBRANCH  34  35
ENDBRANCH  33  34
ENDBRANCH  32  33
ENDBRANCH  31  32
ENDBRANCH  30  31
ENDBRANCH   1  30
TORSDOF 28
