REMARK SMILES C[C@H]1C[N@@H+]2CCC[C@@H]2CN1C(=O)NCC(=O)OCCOCCOCCOCCOC(=O)c1ccc(-c2c3nc(c(-c4cc(S(=O)(=O)[O-])ccc4F)c4ccc([nH]4)c(-c4cc(S(=O)(=O)[O-])ccc4F)c4nc(c(-c5cc(S(=O)(=O)[O-])ccc5F)c5ccc2[nH]5)C=C4)C=C3)cc1
REMARK SMILES IDX 24 1 23 2 22 3 21 4 20 5 19 6 18 7 17 8 15 9 16 10 14 11
REMARK SMILES IDX 13 12 11 13 12 14 10 16 1 17 2 18 3 19 4 20 9 21 5 22 8 23
REMARK SMILES IDX 6 25 7 26 25 27 26 28 27 29 28 30 29 31 30 32 31 33 32 34
REMARK SMILES IDX 33 35 94 36 34 37 93 38 35 39 36 40 37 41 87 42 38 43 92 44
REMARK SMILES IDX 86 45 88 46 39 47 91 48 85 49 84 50 40 52 72 53 52 54 71 55
REMARK SMILES IDX 53 56 56 57 70 58 89 59 54 60 55 61 69 63 90 64 57 65 41 66
REMARK SMILES IDX 42 67 50 68 43 69 49 70 51 71 48 72 44 73 45 74 46 75 47 76
REMARK SMILES IDX 73 77 74 78 82 79 75 80 81 81 83 82 80 83 76 84 77 85 78 86
REMARK SMILES IDX 79 87 58 88 59 89 67 90 60 91 66 92 68 93 65 94 61 95 62 96
REMARK SMILES IDX 63 97 64 98
REMARK H PARENT 13 15 4 24 88 51 56 62
REMARK Flexibility Score: inf
ROOT
ATOM      1  C   UNL     1      -2.932  -4.218   2.447  1.00  0.00     0.188 C 
ENDROOT
BRANCH   1   2
ATOM      2  O   UNL     1      -1.938  -3.260   2.085  1.00  0.00    -0.377 OA
BRANCH   2   3
ATOM      3  C   UNL     1      -1.052  -2.832   3.091  1.00  0.00     0.188 C 
BRANCH   3   4
ATOM      4  C   UNL     1      -1.518  -1.594   3.880  1.00  0.00     0.188 C 
BRANCH   4   5
ATOM      5  O   UNL     1      -2.887  -1.351   4.155  1.00  0.00    -0.376 OA
BRANCH   5   6
ATOM      6  C   UNL     1      -3.884  -1.145   3.160  1.00  0.00     0.202 C 
BRANCH   6   7
ATOM      7  C   UNL     1      -3.658  -0.475   1.796  1.00  0.00     0.261 C 
BRANCH   7   8
ATOM      8  O   UNL     1      -2.467  -0.874   1.125  1.00  0.00    -0.462 OA
BRANCH   8   9
ATOM      9  C   UNL     1      -1.472   0.043   1.138  1.00  0.00     0.325 C 
ATOM     10  O   UNL     1      -1.583   1.199   1.535  1.00  0.00    -0.250 OA
BRANCH   9  11
ATOM     11  C   UNL     1      -0.116  -0.579   0.870  1.00  0.00     0.240 C 
BRANCH  11  12
ATOM     12  N   UNL     1      -0.046  -1.768   0.038  1.00  0.00    -0.327 N 
ATOM     13  C   UNL     1       0.457  -2.058  -1.178  1.00  0.00     0.318 C 
ATOM     14  O   UNL     1       0.412  -3.244  -1.514  1.00  0.00    -0.249 OA
ATOM     15  H   UNL     1      -0.467  -2.549   0.465  1.00  0.00     0.166 HD
BRANCH  13  16
ATOM     16  N   UNL     1       0.973  -1.093  -2.002  1.00  0.00    -0.310 N 
ATOM     17  C   UNL     1       2.301   0.639  -0.822  1.00  0.00     0.037 C 
ATOM     18  C   UNL     1       1.081   0.348  -1.724  1.00  0.00     0.139 C 
ATOM     19  C   UNL     1       1.153   1.205  -3.000  1.00  0.00     0.287 C 
ATOM     20  N   UNL     1       2.326   0.836  -3.785  1.00  0.00    -0.329 N 
ATOM     21  C   UNL     1       1.291  -1.491  -3.383  1.00  0.00     0.186 C 
ATOM     22  C   UNL     1       2.406   1.556  -5.050  1.00  0.00     0.262 C 
ATOM     23  C   UNL     1       2.393  -0.625  -4.034  1.00  0.00     0.204 C 
ATOM     24  H   UNL     1       3.130   1.109  -3.219  1.00  0.00     0.348 HD
ATOM     25  C   UNL     1       3.059   0.561  -5.987  1.00  0.00     0.068 C 
ATOM     26  C   UNL     1       2.438  -0.754  -5.552  1.00  0.00     0.073 C 
ENDBRANCH  13  16
ENDBRANCH  11  12
ENDBRANCH   9  11
ENDBRANCH   8   9
ENDBRANCH   7   8
ENDBRANCH   6   7
ENDBRANCH   5   6
ENDBRANCH   4   5
ENDBRANCH   3   4
ENDBRANCH   2   3
ENDBRANCH   1   2
BRANCH   1  27
ATOM     27  C   UNL     1      -3.280  -4.466   3.937  1.00  0.00     0.188 C 
BRANCH  27  28
ATOM     28  O   UNL     1      -2.178  -4.490   4.831  1.00  0.00    -0.376 OA
BRANCH  28  29
ATOM     29  C   UNL     1      -1.569  -5.732   5.149  1.00  0.00     0.202 C 
BRANCH  29  30
ATOM     30  C   UNL     1      -1.004  -6.594   4.007  1.00  0.00     0.261 C 
BRANCH  30  31
ATOM     31  O   UNL     1      -1.924  -6.995   2.982  1.00  0.00    -0.460 OA
BRANCH  31  32
ATOM     32  C   UNL     1      -3.047  -7.647   3.350  1.00  0.00     0.338 C 
ATOM     33  O   UNL     1      -3.351  -7.999   4.478  1.00  0.00    -0.246 OA
BRANCH  32  34
ATOM     34  C   UNL     1      -3.952  -7.668   2.182  1.00  0.00     0.060 A 
ATOM     35  C   UNL     1      -5.208  -7.052   2.276  1.00  0.00     0.016 A 
ATOM     36  C   UNL     1      -3.556  -8.286   0.994  1.00  0.00     0.016 A 
ATOM     37  C   UNL     1      -6.089  -7.086   1.195  1.00  0.00     0.010 A 
ATOM     38  C   UNL     1      -4.449  -8.345  -0.078  1.00  0.00     0.010 A 
ATOM     39  C   UNL     1      -5.733  -7.779   0.031  1.00  0.00    -0.014 A 
BRANCH  39  40
ATOM     40  C   UNL     1      -6.772  -8.123  -0.970  1.00  0.00     0.031 A 
ATOM     41  C   UNL     1      -7.386  -9.494  -0.899  1.00  0.00     0.074 A 
ATOM     42  C   UNL     1      -7.170  -7.249  -1.910  1.00  0.00     0.049 A 
ATOM     43  N   UNL     1      -8.218 -10.080  -1.718  1.00  0.00    -0.248 NA
ATOM     44  C   UNL     1      -6.991 -10.318   0.255  1.00  0.00     0.031 C 
ATOM     45  C   UNL     1      -6.695  -5.874  -2.040  1.00  0.00     0.029 A 
ATOM     46  N   UNL     1      -8.057  -7.401  -2.947  1.00  0.00    -0.354 N 
ATOM     47  C   UNL     1      -8.443 -11.344  -1.184  1.00  0.00     0.074 A 
ATOM     48  C   UNL     1      -7.622 -11.453   0.003  1.00  0.00     0.031 C 
ATOM     49  C   UNL     1      -7.276  -5.315  -3.117  1.00  0.00     0.029 A 
ATOM     50  C   UNL     1      -8.124  -6.307  -3.778  1.00  0.00     0.049 A 
ATOM     51  H   UNL     1      -8.594  -8.215  -3.083  1.00  0.00     0.167 HD
ATOM     52  C   UNL     1      -9.267 -12.321  -1.636  1.00  0.00     0.034 A 
ATOM     53  C   UNL     1      -8.760  -6.144  -4.957  1.00  0.00     0.034 A 
ATOM     54  C   UNL     1     -10.056 -12.204  -2.837  1.00  0.00     0.049 A 
ATOM     55  C   UNL     1      -9.582  -7.285  -5.512  1.00  0.00     0.074 A 
ATOM     56  C   UNL     1     -10.918 -13.130  -3.397  1.00  0.00     0.029 A 
ATOM     57  N   UNL     1     -10.066 -11.095  -3.676  1.00  0.00    -0.354 N 
ATOM     58  N   UNL     1      -9.784  -8.482  -5.008  1.00  0.00    -0.248 NA
ATOM     59  C   UNL     1     -10.265  -7.054  -6.792  1.00  0.00     0.031 C 
ATOM     60  C   UNL     1     -11.382 -12.617  -4.612  1.00  0.00     0.029 A 
ATOM     61  C   UNL     1     -10.891 -11.330  -4.765  1.00  0.00     0.049 A 
ATOM     62  H   UNL     1      -9.561 -10.265  -3.519  1.00  0.00     0.167 HD
ATOM     63  C   UNL     1     -10.645  -9.130  -5.892  1.00  0.00     0.074 A 
ATOM     64  C   UNL     1     -10.928  -8.190  -6.956  1.00  0.00     0.031 C 
ATOM     65  C   UNL     1     -11.163 -10.384  -5.824  1.00  0.00     0.034 A 
BRANCH  52  66
ATOM     66  C   UNL     1      -9.296 -13.614  -0.855  1.00  0.00     0.023 A 
ATOM     67  C   UNL     1      -9.710 -13.655   0.488  1.00  0.00     0.031 A 
ATOM     68  C   UNL     1      -8.850 -14.811  -1.441  1.00  0.00     0.131 A 
ATOM     69  C   UNL     1      -9.582 -14.842   1.224  1.00  0.00     0.055 A 
ATOM     70  C   UNL     1      -8.816 -16.012  -0.730  1.00  0.00     0.041 A 
ATOM     71  F   UNL     1      -8.416 -14.832  -2.712  1.00  0.00    -0.206 F 
ATOM     72  C   UNL     1      -9.164 -16.029   0.617  1.00  0.00     0.022 A 
BRANCH  69  73
ATOM     73  S   UNL     1      -9.794 -14.769   3.025  1.00  0.00     0.124 S 
ATOM     74  O   UNL     1      -8.799 -13.766   3.398  1.00  0.00    -0.237 OA
ATOM     75  O   UNL     1     -11.188 -14.367   3.162  1.00  0.00    -0.237 OA
ATOM     76  O   UNL     1      -9.489 -16.130   3.462  1.00  0.00    -0.744 OA
ENDBRANCH  69  73
ENDBRANCH  52  66
BRANCH  53  77
ATOM     77  C   UNL     1      -8.596  -4.877  -5.729  1.00  0.00     0.023 A 
ATOM     78  C   UNL     1      -9.688  -4.039  -6.006  1.00  0.00     0.031 A 
ATOM     79  C   UNL     1      -7.338  -4.509  -6.243  1.00  0.00     0.131 A 
ATOM     80  C   UNL     1      -9.509  -2.899  -6.806  1.00  0.00     0.055 A 
ATOM     81  C   UNL     1      -7.155  -3.343  -6.988  1.00  0.00     0.041 A 
ATOM     82  F   UNL     1      -6.261  -5.278  -6.018  1.00  0.00    -0.206 F 
ATOM     83  C   UNL     1      -8.248  -2.536  -7.284  1.00  0.00     0.022 A 
BRANCH  80  84
ATOM     84  S   UNL     1     -10.970  -1.937  -7.289  1.00  0.00     0.124 S 
ATOM     85  O   UNL     1     -11.766  -2.938  -7.989  1.00  0.00    -0.237 OA
ATOM     86  O   UNL     1     -11.483  -1.496  -5.996  1.00  0.00    -0.237 OA
ATOM     87  O   UNL     1     -10.417  -0.878  -8.131  1.00  0.00    -0.744 OA
ENDBRANCH  80  84
ENDBRANCH  53  77
BRANCH  65  88
ATOM     88  C   UNL     1     -12.143 -10.795  -6.899  1.00  0.00     0.023 A 
ATOM     89  C   UNL     1     -11.759 -10.962  -8.241  1.00  0.00     0.031 A 
ATOM     90  C   UNL     1     -13.486 -11.048  -6.561  1.00  0.00     0.131 A 
ATOM     91  C   UNL     1     -12.716 -11.326  -9.201  1.00  0.00     0.055 A 
ATOM     92  C   UNL     1     -14.418 -11.473  -7.508  1.00  0.00     0.041 A 
ATOM     93  F   UNL     1     -13.912 -10.901  -5.296  1.00  0.00    -0.206 F 
ATOM     94  C   UNL     1     -14.037 -11.604  -8.840  1.00  0.00     0.022 A 
BRANCH  91  95
ATOM     95  S   UNL     1     -12.234 -11.352 -10.950  1.00  0.00     0.124 S 
ATOM     96  O   UNL     1     -11.791  -9.978 -11.163  1.00  0.00    -0.237 OA
ATOM     97  O   UNL     1     -11.189 -12.371 -10.972  1.00  0.00    -0.237 OA
ATOM     98  O   UNL     1     -13.470 -11.719 -11.641  1.00  0.00    -0.744 OA
ENDBRANCH  91  95
ENDBRANCH  65  88
ENDBRANCH  39  40
ENDBRANCH  32  34
ENDBRANCH  31  32
ENDBRANCH  30  31
ENDBRANCH  29  30
ENDBRANCH  28  29
ENDBRANCH  27  28
ENDBRANCH   1  27
TORSDOF 25
