REMARK SMILES COc1ccc(CNC(=O)[C@H]2CC(C)=C(C)C[C@@H]2C(=O)OCCOCCOCCOCCOC(=O)c2ccc(-c3c4nc(c(-c5cc(S(=O)(=O)[O-])ccc5F)c5ccc([nH]5)c(-c5cc(S(=O)(=O)[O-])ccc5F)c5nc(c(-c6cc(S(=O)(=O)[O-])ccc6F)c6ccc3[nH]6)C=C5)C=C4)cc2)cc1OC
REMARK SMILES IDX 26 1 25 2 24 3 23 4 22 5 21 6 19 7 20 8 18 9 11 10 12 11
REMARK SMILES IDX 13 12 17 13 14 14 15 15 16 16 9 17 8 18 10 20 7 21 6 22 3 23
REMARK SMILES IDX 4 24 100 25 5 26 99 27 2 28 1 29 101 30 102 31 27 32 28 33
REMARK SMILES IDX 29 34 30 35 31 36 32 37 33 38 34 39 35 40 36 41 37 42 98 43
REMARK SMILES IDX 38 44 97 45 39 46 40 47 41 48 91 49 42 50 96 51 90 52 92 53
REMARK SMILES IDX 43 54 95 55 89 56 88 57 44 59 76 60 56 61 75 62 57 63 60 64
REMARK SMILES IDX 74 65 93 66 58 67 59 68 73 70 94 71 61 72 45 73 46 74 54 75
REMARK SMILES IDX 47 76 53 77 55 78 52 79 48 80 49 81 50 82 51 83 77 84 78 85
REMARK SMILES IDX 86 86 79 87 85 88 87 89 84 90 80 91 81 92 82 93 83 94 62 95
REMARK SMILES IDX 63 96 71 97 64 98 70 99 72 100 69 101 65 102 66 103 67 104
REMARK SMILES IDX 68 105
REMARK H PARENT 8 19 92 58 60 69
REMARK Flexibility Score: inf
ROOT
ATOM      1  C   UNL     1      -2.839  -9.695  -2.708  1.00  0.00     0.188 C 
ENDROOT
BRANCH   1   2
ATOM      2  C   UNL     1      -3.262  -8.952  -3.998  1.00  0.00     0.188 C 
BRANCH   2   3
ATOM      3  O   UNL     1      -3.892  -9.653  -5.057  1.00  0.00    -0.376 OA
BRANCH   3   4
ATOM      4  C   UNL     1      -3.513 -10.993  -5.318  1.00  0.00     0.202 C 
BRANCH   4   5
ATOM      5  C   UNL     1      -2.032 -11.430  -5.323  1.00  0.00     0.261 C 
BRANCH   5   6
ATOM      6  O   UNL     1      -1.044 -10.540  -4.773  1.00  0.00    -0.463 OA
BRANCH   6   7
ATOM      7  C   UNL     1      -0.515  -9.595  -5.595  1.00  0.00     0.310 C 
ATOM      8  O   UNL     1      -0.873  -9.414  -6.750  1.00  0.00    -0.252 OA
BRANCH   7   9
ATOM      9  C   UNL     1       0.619  -8.832  -4.884  1.00  0.00     0.116 C 
ATOM     10  C   UNL     1       0.135  -7.929  -3.735  1.00  0.00     0.097 C 
ATOM     11  C   UNL     1      -0.364  -6.547  -4.139  1.00  0.00     0.045 C 
ATOM     12  C   UNL     1       0.308  -5.917  -5.324  1.00  0.00    -0.074 C 
ATOM     13  C   UNL     1       1.460  -8.074  -5.918  1.00  0.00     0.046 C 
ATOM     14  C   UNL     1       0.006  -4.445  -5.453  1.00  0.00     0.039 C 
ATOM     15  C   UNL     1       1.096  -6.623  -6.160  1.00  0.00    -0.073 C 
ATOM     16  C   UNL     1       1.677  -6.040  -7.420  1.00  0.00     0.039 C 
BRANCH  10  17
ATOM     17  C   UNL     1       0.915  -8.113  -2.433  1.00  0.00     0.224 C 
ATOM     18  N   UNL     1       1.440  -7.091  -1.717  1.00  0.00    -0.352 N 
ATOM     19  H   UNL     1       1.391  -7.187  -0.738  1.00  0.00     0.163 HD
ATOM     20  O   UNL     1       0.983  -9.235  -1.920  1.00  0.00    -0.275 OA
BRANCH  18  21
ATOM     21  C   UNL     1       2.062  -5.882  -2.195  1.00  0.00     0.151 C 
BRANCH  21  22
ATOM     22  C   UNL     1       1.684  -4.643  -1.421  1.00  0.00    -0.025 A 
ATOM     23  C   UNL     1       1.129  -2.225  -0.065  1.00  0.00     0.160 A 
ATOM     24  C   UNL     1       0.119  -3.176  -0.276  1.00  0.00     0.051 A 
ATOM     25  C   UNL     1       2.426  -2.478  -0.521  1.00  0.00     0.161 A 
ATOM     26  C   UNL     1       0.394  -4.374  -0.951  1.00  0.00     0.009 A 
ATOM     27  C   UNL     1       2.676  -3.674  -1.208  1.00  0.00     0.056 A 
BRANCH  23  28
ATOM     28  O   UNL     1       0.822  -1.133   0.700  1.00  0.00    -0.493 OA
ATOM     29  C   UNL     1       0.206  -0.096  -0.062  1.00  0.00     0.278 C 
ENDBRANCH  23  28
BRANCH  25  30
ATOM     30  O   UNL     1       3.558  -1.725  -0.386  1.00  0.00    -0.493 OA
ATOM     31  C   UNL     1       3.469  -0.438   0.193  1.00  0.00     0.278 C 
ENDBRANCH  25  30
ENDBRANCH  21  22
ENDBRANCH  18  21
ENDBRANCH  10  17
ENDBRANCH   7   9
ENDBRANCH   6   7
ENDBRANCH   5   6
ENDBRANCH   4   5
ENDBRANCH   3   4
ENDBRANCH   2   3
ENDBRANCH   1   2
BRANCH   1  32
ATOM     32  O   UNL     1      -3.393 -10.995  -2.617  1.00  0.00    -0.377 OA
BRANCH  32  33
ATOM     33  C   UNL     1      -4.473 -11.093  -1.711  1.00  0.00     0.188 C 
BRANCH  33  34
ATOM     34  C   UNL     1      -5.663 -10.168  -2.016  1.00  0.00     0.188 C 
BRANCH  34  35
ATOM     35  O   UNL     1      -5.294  -8.792  -2.084  1.00  0.00    -0.376 OA
BRANCH  35  36
ATOM     36  C   UNL     1      -5.656  -7.928  -1.023  1.00  0.00     0.202 C 
BRANCH  36  37
ATOM     37  C   UNL     1      -4.786  -7.991   0.242  1.00  0.00     0.261 C 
BRANCH  37  38
ATOM     38  O   UNL     1      -4.584  -9.290   0.810  1.00  0.00    -0.460 OA
BRANCH  38  39
ATOM     39  C   UNL     1      -5.679  -9.938   1.265  1.00  0.00     0.338 C 
ATOM     40  O   UNL     1      -6.822  -9.513   1.272  1.00  0.00    -0.246 OA
BRANCH  39  41
ATOM     41  C   UNL     1      -5.288 -11.340   1.536  1.00  0.00     0.060 A 
ATOM     42  C   UNL     1      -5.984 -12.365   0.880  1.00  0.00     0.016 A 
ATOM     43  C   UNL     1      -4.202 -11.640   2.364  1.00  0.00     0.016 A 
ATOM     44  C   UNL     1      -5.607 -13.694   1.063  1.00  0.00     0.010 A 
ATOM     45  C   UNL     1      -3.853 -12.976   2.582  1.00  0.00     0.010 A 
ATOM     46  C   UNL     1      -4.575 -14.008   1.957  1.00  0.00    -0.014 A 
BRANCH  46  47
ATOM     47  C   UNL     1      -4.452 -15.403   2.444  1.00  0.00     0.031 A 
ATOM     48  C   UNL     1      -5.211 -15.765   3.692  1.00  0.00     0.074 A 
ATOM     49  C   UNL     1      -3.735 -16.330   1.785  1.00  0.00     0.049 A 
ATOM     50  N   UNL     1      -5.255 -16.895   4.345  1.00  0.00    -0.248 NA
ATOM     51  C   UNL     1      -6.033 -14.694   4.281  1.00  0.00     0.031 C 
ATOM     52  C   UNL     1      -3.011 -16.110   0.535  1.00  0.00     0.029 A 
ATOM     53  N   UNL     1      -3.498 -17.648   2.085  1.00  0.00    -0.354 N 
ATOM     54  C   UNL     1      -6.109 -16.673   5.421  1.00  0.00     0.074 A 
ATOM     55  C   UNL     1      -6.526 -15.290   5.354  1.00  0.00     0.031 C 
ATOM     56  C   UNL     1      -2.400 -17.255   0.180  1.00  0.00     0.029 A 
ATOM     57  C   UNL     1      -2.657 -18.276   1.196  1.00  0.00     0.049 A 
ATOM     58  H   UNL     1      -3.893 -18.103   2.864  1.00  0.00     0.167 HD
ATOM     59  C   UNL     1      -6.513 -17.546   6.374  1.00  0.00     0.034 A 
ATOM     60  C   UNL     1      -2.136 -19.520   1.221  1.00  0.00     0.034 A 
ATOM     61  C   UNL     1      -6.065 -18.914   6.440  1.00  0.00     0.049 A 
ATOM     62  C   UNL     1      -2.513 -20.446   2.357  1.00  0.00     0.074 A 
ATOM     63  C   UNL     1      -6.402 -19.887   7.362  1.00  0.00     0.029 A 
ATOM     64  N   UNL     1      -5.164 -19.497   5.556  1.00  0.00    -0.354 N 
ATOM     65  N   UNL     1      -3.322 -20.229   3.370  1.00  0.00    -0.248 NA
ATOM     66  C   UNL     1      -1.913 -21.787   2.348  1.00  0.00     0.031 C 
ATOM     67  C   UNL     1      -5.646 -21.031   7.086  1.00  0.00     0.029 A 
ATOM     68  C   UNL     1      -4.907 -20.805   5.934  1.00  0.00     0.049 A 
ATOM     69  H   UNL     1      -4.767 -19.047   4.776  1.00  0.00     0.167 HD
ATOM     70  C   UNL     1      -3.355 -21.420   4.095  1.00  0.00     0.074 A 
ATOM     71  C   UNL     1      -2.493 -22.351   3.397  1.00  0.00     0.031 C 
ATOM     72  C   UNL     1      -4.040 -21.721   5.229  1.00  0.00     0.034 A 
BRANCH  59  73
ATOM     73  C   UNL     1      -7.432 -17.017   7.448  1.00  0.00     0.023 A 
ATOM     74  C   UNL     1      -8.720 -16.535   7.153  1.00  0.00     0.031 A 
ATOM     75  C   UNL     1      -6.993 -16.949   8.782  1.00  0.00     0.131 A 
ATOM     76  C   UNL     1      -9.492 -15.940   8.162  1.00  0.00     0.055 A 
ATOM     77  C   UNL     1      -7.801 -16.435   9.797  1.00  0.00     0.041 A 
ATOM     78  F   UNL     1      -5.762 -17.365   9.119  1.00  0.00    -0.206 F 
ATOM     79  C   UNL     1      -9.053 -15.911   9.488  1.00  0.00     0.022 A 
BRANCH  76  80
ATOM     80  S   UNL     1     -11.009 -15.064   7.691  1.00  0.00     0.124 S 
ATOM     81  O   UNL     1     -10.495 -14.068   6.753  1.00  0.00    -0.237 OA
ATOM     82  O   UNL     1     -11.821 -16.127   7.112  1.00  0.00    -0.237 OA
ATOM     83  O   UNL     1     -11.499 -14.521   8.956  1.00  0.00    -0.744 OA
ENDBRANCH  76  80
ENDBRANCH  59  73
BRANCH  60  84
ATOM     84  C   UNL     1      -1.168 -19.962   0.174  1.00  0.00     0.023 A 
ATOM     85  C   UNL     1      -1.451 -21.047  -0.672  1.00  0.00     0.031 A 
ATOM     86  C   UNL     1       0.091 -19.346   0.051  1.00  0.00     0.131 A 
ATOM     87  C   UNL     1      -0.472 -21.513  -1.566  1.00  0.00     0.055 A 
ATOM     88  C   UNL     1       1.038 -19.775  -0.880  1.00  0.00     0.041 A 
ATOM     89  F   UNL     1       0.420 -18.311   0.841  1.00  0.00    -0.206 F 
ATOM     90  C   UNL     1       0.764 -20.875  -1.687  1.00  0.00     0.022 A 
BRANCH  87  91
ATOM     91  S   UNL     1      -0.802 -23.032  -2.503  1.00  0.00     0.124 S 
ATOM     92  O   UNL     1      -1.036 -23.995  -1.433  1.00  0.00    -0.237 OA
ATOM     93  O   UNL     1      -1.969 -22.654  -3.293  1.00  0.00    -0.237 OA
ATOM     94  O   UNL     1       0.427 -23.234  -3.268  1.00  0.00    -0.744 OA
ENDBRANCH  87  91
ENDBRANCH  60  84
BRANCH  72  95
ATOM     95  C   UNL     1      -3.933 -23.135   5.750  1.00  0.00     0.023 A 
ATOM     96  C   UNL     1      -2.725 -23.661   6.241  1.00  0.00     0.031 A 
ATOM     97  C   UNL     1      -5.066 -23.969   5.757  1.00  0.00     0.131 A 
ATOM     98  C   UNL     1      -2.666 -24.998   6.664  1.00  0.00     0.055 A 
ATOM     99  C   UNL     1      -5.017 -25.276   6.243  1.00  0.00     0.041 A 
ATOM    100  F   UNL     1      -6.247 -23.522   5.299  1.00  0.00    -0.206 F 
ATOM    101  C   UNL     1      -3.809 -25.802   6.688  1.00  0.00     0.022 A 
BRANCH  98 102
ATOM    102  S   UNL     1      -1.052 -25.707   7.093  1.00  0.00     0.124 S 
ATOM    103  O   UNL     1      -0.294 -25.502   5.863  1.00  0.00    -0.237 OA
ATOM    104  O   UNL     1      -0.647 -24.893   8.235  1.00  0.00    -0.237 OA
ATOM    105  O   UNL     1      -1.362 -27.101   7.406  1.00  0.00    -0.744 OA
ENDBRANCH  98 102
ENDBRANCH  72  95
ENDBRANCH  46  47
ENDBRANCH  39  41
ENDBRANCH  38  39
ENDBRANCH  37  38
ENDBRANCH  36  37
ENDBRANCH  35  36
ENDBRANCH  34  35
ENDBRANCH  33  34
ENDBRANCH  32  33
ENDBRANCH   1  32
TORSDOF 28
