REMARK SMILES NS(=O)(=O)c1ccc(-n2nc(C(F)(F)F)cc2-c2ccc(CC(=O)OCCOCCOCCOCCOC(=O)c3ccc(-c4c5nc(c(-c6cc(S(=O)(=O)[O-])ccc6F)c6ccc([nH]6)c(-c6cc(S(=O)(=O)[O-])ccc6F)c6nc(c(-c7cc(S(=O)(=O)[O-])ccc7F)c7ccc4[nH]7)C=C6)C=C5)cc3)cc2)cc1
REMARK SMILES IDX 30 1 29 2 28 3 27 4 26 5 25 6 23 7 24 8 22 9 21 10 18 11
REMARK SMILES IDX 19 12 104 13 20 14 103 15 17 16 9 17 10 18 11 19 16 20 8 21
REMARK SMILES IDX 5 22 6 23 106 24 7 25 105 26 2 27 3 28 4 29 1 30 12 33 13 34
REMARK SMILES IDX 14 35 15 36 31 37 32 38 33 39 34 40 35 41 36 42 37 43 38 44
REMARK SMILES IDX 39 45 40 46 41 47 102 48 42 49 101 50 43 51 44 52 45 53
REMARK SMILES IDX 95 54 46 55 100 56 94 57 96 58 47 59 99 60 93 61 92 62 48 64
REMARK SMILES IDX 80 65 60 66 79 67 61 68 64 69 78 70 97 71 62 72 63 73 77 75
REMARK SMILES IDX 98 76 65 77 49 78 50 79 58 80 51 81 57 82 59 83 56 84 52 85
REMARK SMILES IDX 53 86 54 87 55 88 81 89 82 90 90 91 83 92 89 93 91 94 88 95
REMARK SMILES IDX 84 96 85 97 86 98 87 99 66 100 67 101 75 102 68 103 74 104
REMARK SMILES IDX 76 105 73 106 69 107 70 108 71 109 72 110
REMARK H PARENT 1 31 1 32 96 63 64 74
REMARK Flexibility Score: inf
ROOT
ATOM      1  C   UNL     1       4.707  -2.587  -0.107  1.00  0.00     0.188 C 
ENDROOT
BRANCH   1   2
ATOM      2  C   UNL     1       5.952  -2.641  -0.994  1.00  0.00     0.188 C 
BRANCH   2   3
ATOM      3  O   UNL     1       5.704  -2.347  -2.354  1.00  0.00    -0.376 OA
BRANCH   3   4
ATOM      4  C   UNL     1       5.276  -3.427  -3.174  1.00  0.00     0.202 C 
BRANCH   4   5
ATOM      5  C   UNL     1       4.056  -4.268  -2.736  1.00  0.00     0.261 C 
BRANCH   5   6
ATOM      6  O   UNL     1       4.160  -4.970  -1.471  1.00  0.00    -0.463 OA
BRANCH   6   7
ATOM      7  C   UNL     1       5.119  -5.906  -1.339  1.00  0.00     0.310 C 
ATOM      8  O   UNL     1       5.833  -6.266  -2.272  1.00  0.00    -0.252 OA
BRANCH   7   9
ATOM      9  C   UNL     1       5.302  -6.477   0.059  1.00  0.00     0.158 C 
BRANCH   9  10
ATOM     10  C   UNL     1       4.521  -6.012   1.288  1.00  0.00    -0.037 A 
ATOM     11  C   UNL     1       3.252  -5.497   3.834  1.00  0.00     0.000 A 
ATOM     12  C   UNL     1       4.500  -4.948   3.521  1.00  0.00     0.010 A 
ATOM     13  C   UNL     1       2.636  -6.274   2.834  1.00  0.00     0.010 A 
ATOM     14  C   UNL     1       5.125  -5.207   2.276  1.00  0.00     0.005 A 
ATOM     15  C   UNL     1       3.250  -6.518   1.581  1.00  0.00     0.005 A 
BRANCH  11  16
ATOM     16  C   UNL     1       2.679  -5.436   5.207  1.00  0.00     0.075 A 
ATOM     17  N   UNL     1       2.521  -4.339   6.080  1.00  0.00    -0.233 N 
ATOM     18  N   UNL     1       2.208  -4.747   7.334  1.00  0.00    -0.163 NA
ATOM     19  C   UNL     1       1.917  -6.047   7.244  1.00  0.00     0.167 A 
ATOM     20  C   UNL     1       2.251  -6.528   5.958  1.00  0.00     0.064 A 
BRANCH  17  21
ATOM     21  C   UNL     1       2.549  -2.933   5.862  1.00  0.00     0.065 A 
ATOM     22  C   UNL     1       2.518  -0.115   5.497  1.00  0.00     0.082 A 
ATOM     23  C   UNL     1       2.318  -1.022   4.472  1.00  0.00     0.024 A 
ATOM     24  C   UNL     1       2.666  -0.637   6.768  1.00  0.00     0.024 A 
ATOM     25  C   UNL     1       2.371  -2.412   4.604  1.00  0.00     0.030 A 
ATOM     26  C   UNL     1       2.640  -2.034   6.953  1.00  0.00     0.030 A 
BRANCH  22  27
ATOM     27  S   UNL     1       2.593   1.649   5.225  1.00  0.00     0.238 S 
ATOM     28  O   UNL     1       4.007   1.991   5.142  1.00  0.00    -0.207 OA
ATOM     29  O   UNL     1       1.664   2.304   6.080  1.00  0.00    -0.207 OA
BRANCH  27  30
ATOM     30  N   UNL     1       2.028   1.978   3.675  1.00  0.00    -0.225 NA
ATOM     31  H   UNL     1       2.065   2.983   3.506  1.00  0.00     0.137 HD
ATOM     32  H   UNL     1       1.065   1.654   3.588  1.00  0.00     0.137 HD
ENDBRANCH  27  30
ENDBRANCH  22  27
ENDBRANCH  17  21
BRANCH  19  33
ATOM     33  C   UNL     1       1.344  -6.819   8.402  1.00  0.00     0.435 C 
ATOM     34  F   UNL     1       1.593  -6.254   9.612  1.00  0.00    -0.164 F 
ATOM     35  F   UNL     1      -0.005  -6.954   8.294  1.00  0.00    -0.164 F 
ATOM     36  F   UNL     1       1.850  -8.083   8.456  1.00  0.00    -0.164 F 
ENDBRANCH  19  33
ENDBRANCH  11  16
ENDBRANCH   9  10
ENDBRANCH   7   9
ENDBRANCH   6   7
ENDBRANCH   5   6
ENDBRANCH   4   5
ENDBRANCH   3   4
ENDBRANCH   2   3
ENDBRANCH   1   2
BRANCH   1  37
ATOM     37  O   UNL     1       3.484  -2.092  -0.636  1.00  0.00    -0.377 OA
BRANCH  37  38
ATOM     38  C   UNL     1       3.454  -0.922  -1.452  1.00  0.00     0.188 C 
BRANCH  38  39
ATOM     39  C   UNL     1       4.168   0.346  -0.981  1.00  0.00     0.188 C 
BRANCH  39  40
ATOM     40  O   UNL     1       5.187   0.079  -0.040  1.00  0.00    -0.376 OA
BRANCH  40  41
ATOM     41  C   UNL     1       4.783   0.360   1.282  1.00  0.00     0.202 C 
BRANCH  41  42
ATOM     42  C   UNL     1       3.481  -0.245   1.835  1.00  0.00     0.261 C 
BRANCH  42  43
ATOM     43  O   UNL     1       2.265  -0.552   1.092  1.00  0.00    -0.460 OA
BRANCH  43  44
ATOM     44  C   UNL     1       1.215   0.306   0.973  1.00  0.00     0.338 C 
ATOM     45  O   UNL     1       1.161   1.153   0.092  1.00  0.00    -0.246 OA
BRANCH  44  46
ATOM     46  C   UNL     1       0.118   0.161   1.994  1.00  0.00     0.060 A 
ATOM     47  C   UNL     1      -0.545   1.334   2.364  1.00  0.00     0.016 A 
ATOM     48  C   UNL     1      -0.132  -0.996   2.739  1.00  0.00     0.016 A 
ATOM     49  C   UNL     1      -1.154   1.431   3.622  1.00  0.00     0.010 A 
ATOM     50  C   UNL     1      -0.724  -0.888   4.019  1.00  0.00     0.010 A 
ATOM     51  C   UNL     1      -1.148   0.352   4.522  1.00  0.00    -0.014 A 
BRANCH  51  52
ATOM     52  C   UNL     1      -2.001   0.472   5.736  1.00  0.00     0.031 A 
ATOM     53  C   UNL     1      -3.400   0.292   5.310  1.00  0.00     0.074 A 
ATOM     54  C   UNL     1      -1.772   0.632   7.064  1.00  0.00     0.049 A 
ATOM     55  N   UNL     1      -4.248   1.223   5.022  1.00  0.00    -0.248 NA
ATOM     56  C   UNL     1      -3.787  -1.055   4.864  1.00  0.00     0.031 C 
ATOM     57  C   UNL     1      -0.499   0.574   7.765  1.00  0.00     0.029 A 
ATOM     58  N   UNL     1      -2.663   0.838   8.108  1.00  0.00    -0.354 N 
ATOM     59  C   UNL     1      -5.376   0.523   4.632  1.00  0.00     0.074 A 
ATOM     60  C   UNL     1      -4.915  -0.769   4.217  1.00  0.00     0.031 C 
ATOM     61  C   UNL     1      -0.689   0.551   9.104  1.00  0.00     0.029 A 
ATOM     62  C   UNL     1      -2.104   0.725   9.388  1.00  0.00     0.049 A 
ATOM     63  H   UNL     1      -3.614   1.047   7.960  1.00  0.00     0.167 HD
ATOM     64  C   UNL     1      -6.594   0.885   5.108  1.00  0.00     0.034 A 
ATOM     65  C   UNL     1      -2.713   0.788  10.609  1.00  0.00     0.034 A 
ATOM     66  C   UNL     1      -6.577   2.251   5.589  1.00  0.00     0.049 A 
ATOM     67  C   UNL     1      -3.962   1.563  10.461  1.00  0.00     0.074 A 
ATOM     68  C   UNL     1      -6.488   3.507   5.028  1.00  0.00     0.029 A 
ATOM     69  N   UNL     1      -6.304   2.393   6.926  1.00  0.00    -0.354 N 
ATOM     70  N   UNL     1      -3.986   2.842  10.214  1.00  0.00    -0.248 NA
ATOM     71  C   UNL     1      -5.237   0.872  10.312  1.00  0.00     0.031 C 
ATOM     72  C   UNL     1      -6.032   4.387   6.055  1.00  0.00     0.029 A 
ATOM     73  C   UNL     1      -5.872   3.662   7.231  1.00  0.00     0.049 A 
ATOM     74  H   UNL     1      -6.406   1.672   7.589  1.00  0.00     0.167 HD
ATOM     75  C   UNL     1      -5.146   3.031   9.498  1.00  0.00     0.074 A 
ATOM     76  C   UNL     1      -5.949   1.840   9.730  1.00  0.00     0.031 C 
ATOM     77  C   UNL     1      -5.193   3.943   8.487  1.00  0.00     0.034 A 
BRANCH  64  78
ATOM     78  C   UNL     1      -7.633  -0.121   5.584  1.00  0.00     0.023 A 
ATOM     79  C   UNL     1      -8.835   0.409   6.082  1.00  0.00     0.031 A 
ATOM     80  C   UNL     1      -7.441  -1.508   5.821  1.00  0.00     0.131 A 
ATOM     81  C   UNL     1      -9.722  -0.385   6.831  1.00  0.00     0.055 A 
ATOM     82  C   UNL     1      -8.345  -2.301   6.531  1.00  0.00     0.041 A 
ATOM     83  F   UNL     1      -6.347  -2.183   5.459  1.00  0.00    -0.206 F 
ATOM     84  C   UNL     1      -9.482  -1.735   7.065  1.00  0.00     0.022 A 
BRANCH  81  85
ATOM     85  S   UNL     1     -11.150   0.411   7.597  1.00  0.00     0.124 S 
ATOM     86  O   UNL     1     -10.512   1.435   8.416  1.00  0.00    -0.237 OA
ATOM     87  O   UNL     1     -11.888   0.881   6.429  1.00  0.00    -0.237 OA
ATOM     88  O   UNL     1     -11.785  -0.678   8.336  1.00  0.00    -0.744 OA
ENDBRANCH  81  85
ENDBRANCH  64  78
BRANCH  65  89
ATOM     89  C   UNL     1      -2.348   0.160  11.919  1.00  0.00     0.023 A 
ATOM     90  C   UNL     1      -2.911   0.578  13.152  1.00  0.00     0.031 A 
ATOM     91  C   UNL     1      -1.635  -1.056  11.940  1.00  0.00     0.131 A 
ATOM     92  C   UNL     1      -2.768  -0.215  14.317  1.00  0.00     0.055 A 
ATOM     93  C   UNL     1      -1.490  -1.832  13.095  1.00  0.00     0.041 A 
ATOM     94  F   UNL     1      -1.129  -1.582  10.813  1.00  0.00    -0.206 F 
ATOM     95  C   UNL     1      -2.069  -1.422  14.286  1.00  0.00     0.022 A 
BRANCH  92  96
ATOM     96  S   UNL     1      -3.608   0.245  15.873  1.00  0.00     0.124 S 
ATOM     97  O   UNL     1      -2.801   1.363  16.346  1.00  0.00    -0.237 OA
ATOM     98  O   UNL     1      -4.959   0.561  15.424  1.00  0.00    -0.237 OA
ATOM     99  O   UNL     1      -3.508  -0.969  16.686  1.00  0.00    -0.744 OA
ENDBRANCH  92  96
ENDBRANCH  65  89
BRANCH  77 100
ATOM    100  C   UNL     1      -4.415   5.227   8.660  1.00  0.00     0.023 A 
ATOM    101  C   UNL     1      -3.027   5.334   8.894  1.00  0.00     0.031 A 
ATOM    102  C   UNL     1      -5.154   6.424   8.588  1.00  0.00     0.131 A 
ATOM    103  C   UNL     1      -2.433   6.605   9.043  1.00  0.00     0.055 A 
ATOM    104  C   UNL     1      -4.561   7.679   8.717  1.00  0.00     0.041 A 
ATOM    105  F   UNL     1      -6.481   6.396   8.384  1.00  0.00    -0.206 F 
ATOM    106  C   UNL     1      -3.196   7.773   8.950  1.00  0.00     0.022 A 
BRANCH 103 107
ATOM    107  S   UNL     1      -0.653   6.768   9.397  1.00  0.00     0.124 S 
ATOM    108  O   UNL     1      -0.425   5.798  10.460  1.00  0.00    -0.237 OA
ATOM    109  O   UNL     1      -0.051   6.461   8.103  1.00  0.00    -0.237 OA
ATOM    110  O   UNL     1      -0.516   8.167   9.810  1.00  0.00    -0.744 OA
ENDBRANCH 103 107
ENDBRANCH  77 100
ENDBRANCH  51  52
ENDBRANCH  44  46
ENDBRANCH  43  44
ENDBRANCH  42  43
ENDBRANCH  41  42
ENDBRANCH  40  41
ENDBRANCH  39  40
ENDBRANCH  38  39
ENDBRANCH  37  38
ENDBRANCH   1  37
TORSDOF 29
