REMARK SMILES Cc1c(CC(=O)N[C@@H](CCO)C(=O)OCCOCCOCCOCCOC(=O)c2ccc(-c3c4nc(c(-c5cc(S(=O)(=O)[O-])ccc5F)c5ccc([nH]5)c(-c5cc(S(=O)(=O)[O-])ccc5F)c5nc(c(-c6cc(S(=O)(=O)[O-])ccc6F)c6ccc3[nH]6)C=C5)C=C4)cc2)cc(-c2ccc(S(C)(=O)=O)cc2)n1-c1ccc(F)cc1
REMARK SMILES IDX 19 1 18 2 17 3 16 4 15 5 14 6 12 7 13 8 8 9 7 10 5 11 6 12
REMARK SMILES IDX 4 14 3 15 1 16 2 17 104 18 92 19 93 20 105 21 106 22 111 23
REMARK SMILES IDX 107 24 110 25 108 26 109 27 94 28 95 29 103 30 96 31 102 32
REMARK SMILES IDX 97 33 98 34 99 35 100 36 101 37 9 38 10 39 11 40 20 42 21 43
REMARK SMILES IDX 22 44 23 45 24 46 25 47 26 48 27 49 28 50 29 51 30 52 91 53
REMARK SMILES IDX 31 54 90 55 32 56 33 57 34 58 84 59 35 60 89 61 83 62 85 63
REMARK SMILES IDX 36 64 88 65 82 66 81 67 37 69 69 70 49 71 68 72 50 73 53 74
REMARK SMILES IDX 67 75 86 76 51 77 52 78 66 80 87 81 54 82 38 83 39 84 47 85
REMARK SMILES IDX 40 86 46 87 48 88 45 89 41 90 42 91 43 92 44 93 70 94 71 95
REMARK SMILES IDX 79 96 72 97 78 98 80 99 77 100 73 101 74 102 75 103 76 104
REMARK SMILES IDX 55 105 56 106 64 107 57 108 63 109 65 110 62 111 58 112
REMARK SMILES IDX 59 113 60 114 61 115
REMARK H PARENT 7 13 11 41 85 68 53 79
REMARK Flexibility Score: inf
ROOT
ATOM      1  C   UNL     1      -2.697  -5.526   1.287  1.00  0.00     0.188 C 
ENDROOT
BRANCH   1   2
ATOM      2  C   UNL     1      -2.760  -5.391   2.824  1.00  0.00     0.188 C 
BRANCH   2   3
ATOM      3  O   UNL     1      -3.909  -5.796   3.559  1.00  0.00    -0.376 OA
BRANCH   3   4
ATOM      4  C   UNL     1      -5.205  -5.525   3.042  1.00  0.00     0.202 C 
BRANCH   4   5
ATOM      5  C   UNL     1      -5.597  -4.079   2.692  1.00  0.00     0.261 C 
BRANCH   5   6
ATOM      6  O   UNL     1      -4.590  -3.321   2.001  1.00  0.00    -0.462 OA
BRANCH   6   7
ATOM      7  C   UNL     1      -4.044  -2.293   2.697  1.00  0.00     0.328 C 
ATOM      8  O   UNL     1      -4.386  -1.943   3.823  1.00  0.00    -0.250 OA
BRANCH   7   9
ATOM      9  C   UNL     1      -2.976  -1.534   1.894  1.00  0.00     0.194 C 
BRANCH   9  10
ATOM     10  N   UNL     1      -2.320  -2.200   0.760  1.00  0.00    -0.342 N 
ATOM     11  C   UNL     1      -0.996  -2.481   0.551  1.00  0.00     0.225 C 
ATOM     12  O   UNL     1      -0.675  -2.968  -0.536  1.00  0.00    -0.275 OA
ATOM     13  H   UNL     1      -2.925  -2.489   0.039  1.00  0.00     0.164 HD
BRANCH  11  14
ATOM     14  C   UNL     1       0.040  -2.299   1.655  1.00  0.00     0.137 C 
BRANCH  14  15
ATOM     15  C   UNL     1       0.191  -0.876   2.082  1.00  0.00    -0.017 A 
ATOM     16  C   UNL     1       1.107   0.201  -0.090  1.00  0.00     0.065 C 
ATOM     17  C   UNL     1       0.541   0.211   1.296  1.00  0.00     0.024 A 
ATOM     18  N   UNL     1       0.354   1.361   2.053  1.00  0.00    -0.314 N 
ATOM     19  C   UNL     1      -0.010  -0.386   3.398  1.00  0.00     0.033 A 
ATOM     20  C   UNL     1       0.017   0.995   3.357  1.00  0.00     0.053 A 
BRANCH  18  21
ATOM     21  C   UNL     1       0.441   2.692   1.569  1.00  0.00     0.046 A 
ATOM     22  C   UNL     1       1.226   3.629   2.250  1.00  0.00     0.029 A 
ATOM     23  C   UNL     1      -0.328   3.070   0.459  1.00  0.00     0.029 A 
ATOM     24  C   UNL     1       1.254   4.949   1.803  1.00  0.00     0.041 A 
ATOM     25  C   UNL     1      -0.301   4.394   0.026  1.00  0.00     0.041 A 
ATOM     26  C   UNL     1       0.491   5.319   0.700  1.00  0.00     0.123 A 
ATOM     27  F   UNL     1       0.511   6.592   0.286  1.00  0.00    -0.207 F 
ENDBRANCH  18  21
BRANCH  20  28
ATOM     28  C   UNL     1      -0.370   1.918   4.430  1.00  0.00    -0.001 A 
ATOM     29  C   UNL     1      -1.377   2.875   4.228  1.00  0.00     0.011 A 
ATOM     30  C   UNL     1       0.263   1.848   5.678  1.00  0.00     0.011 A 
ATOM     31  C   UNL     1      -1.681   3.808   5.218  1.00  0.00     0.021 A 
ATOM     32  C   UNL     1      -0.039   2.775   6.678  1.00  0.00     0.021 A 
ATOM     33  C   UNL     1      -0.985   3.771   6.428  1.00  0.00     0.067 A 
BRANCH  33  34
ATOM     34  S   UNL     1      -1.304   5.025   7.643  1.00  0.00     0.175 S 
ATOM     35  C   UNL     1      -0.706   6.509   6.873  1.00  0.00     0.163 C 
ATOM     36  O   UNL     1      -2.742   5.132   7.787  1.00  0.00    -0.224 OA
ATOM     37  O   UNL     1      -0.454   4.760   8.790  1.00  0.00    -0.224 OA
ENDBRANCH  33  34
ENDBRANCH  20  28
ENDBRANCH  14  15
ENDBRANCH  11  14
ENDBRANCH   9  10
BRANCH   9  38
ATOM     38  C   UNL     1      -3.543  -0.180   1.446  1.00  0.00     0.065 C 
BRANCH  38  39
ATOM     39  C   UNL     1      -4.554  -0.266   0.303  1.00  0.00     0.159 C 
BRANCH  39  40
ATOM     40  O   UNL     1      -5.701  -1.010   0.677  1.00  0.00    -0.396 OA
ATOM     41  H   UNL     1      -5.439  -1.916   0.906  1.00  0.00     0.210 HD
ENDBRANCH  39  40
ENDBRANCH  38  39
ENDBRANCH   9  38
ENDBRANCH   7   9
ENDBRANCH   6   7
ENDBRANCH   5   6
ENDBRANCH   4   5
ENDBRANCH   3   4
ENDBRANCH   2   3
ENDBRANCH   1   2
BRANCH   1  42
ATOM     42  O   UNL     1      -3.954  -5.548   0.634  1.00  0.00    -0.377 OA
BRANCH  42  43
ATOM     43  C   UNL     1      -4.239  -6.652  -0.230  1.00  0.00     0.188 C 
BRANCH  43  44
ATOM     44  C   UNL     1      -3.970  -8.044   0.347  1.00  0.00     0.188 C 
BRANCH  44  45
ATOM     45  O   UNL     1      -2.579  -8.294   0.432  1.00  0.00    -0.376 OA
BRANCH  45  46
ATOM     46  C   UNL     1      -1.943  -8.974  -0.650  1.00  0.00     0.202 C 
BRANCH  46  47
ATOM     47  C   UNL     1      -2.122  -8.512  -2.127  1.00  0.00     0.261 C 
BRANCH  47  48
ATOM     48  O   UNL     1      -3.064  -9.060  -3.173  1.00  0.00    -0.460 OA
BRANCH  48  49
ATOM     49  C   UNL     1      -4.218  -9.817  -3.172  1.00  0.00     0.338 C 
ATOM     50  O   UNL     1      -4.741 -10.206  -2.129  1.00  0.00    -0.246 OA
BRANCH  49  51
ATOM     51  C   UNL     1      -4.818 -10.090  -4.623  1.00  0.00     0.060 A 
ATOM     52  C   UNL     1      -6.096 -10.566  -5.077  1.00  0.00     0.016 A 
ATOM     53  C   UNL     1      -4.063  -9.778  -5.697  1.00  0.00     0.016 A 
ATOM     54  C   UNL     1      -6.602 -10.726  -6.595  1.00  0.00     0.010 A 
ATOM     55  C   UNL     1      -4.612  -9.916  -7.050  1.00  0.00     0.010 A 
ATOM     56  C   UNL     1      -5.836 -10.444  -7.750  1.00  0.00    -0.014 A 
BRANCH  56  57
ATOM     57  C   UNL     1      -6.315  -9.999  -9.517  1.00  0.00     0.031 A 
ATOM     58  C   UNL     1      -6.535  -8.541  -9.242  1.00  0.00     0.074 A 
ATOM     59  C   UNL     1      -6.136 -10.172 -11.065  1.00  0.00     0.049 A 
ATOM     60  N   UNL     1      -5.670  -8.092  -8.358  1.00  0.00    -0.248 NA
ATOM     61  C   UNL     1      -6.712  -7.520 -10.244  1.00  0.00     0.031 C 
ATOM     62  C   UNL     1      -5.408 -11.217 -11.844  1.00  0.00     0.029 A 
ATOM     63  N   UNL     1      -6.475  -9.272 -12.409  1.00  0.00    -0.354 N 
ATOM     64  C   UNL     1      -4.622  -7.883  -9.227  1.00  0.00     0.074 A 
ATOM     65  C   UNL     1      -5.452  -7.040 -10.165  1.00  0.00     0.031 C 
ATOM     66  C   UNL     1      -5.196 -10.942 -13.180  1.00  0.00     0.029 A 
ATOM     67  C   UNL     1      -5.769  -9.655 -13.738  1.00  0.00     0.049 A 
ATOM     68  H   UNL     1      -7.104  -8.516 -12.369  1.00  0.00     0.167 HD
ATOM     69  C   UNL     1      -3.494  -8.727  -9.526  1.00  0.00     0.034 A 
ATOM     70  C   UNL     1      -5.502  -9.268 -15.191  1.00  0.00     0.034 A 
ATOM     71  C   UNL     1      -2.506  -7.958 -10.237  1.00  0.00     0.049 A 
ATOM     72  C   UNL     1      -4.064  -8.946 -14.930  1.00  0.00     0.074 A 
ATOM     73  C   UNL     1      -2.660  -6.796 -10.957  1.00  0.00     0.029 A 
ATOM     74  N   UNL     1      -1.531  -8.614 -10.974  1.00  0.00    -0.354 N 
ATOM     75  N   UNL     1      -3.031  -9.715 -15.061  1.00  0.00    -0.248 NA
ATOM     76  C   UNL     1      -3.765  -7.497 -14.701  1.00  0.00     0.031 C 
ATOM     77  C   UNL     1      -3.030  -7.559 -12.064  1.00  0.00     0.029 A 
ATOM     78  C   UNL     1      -2.020  -8.517 -12.239  1.00  0.00     0.049 A 
ATOM     79  H   UNL     1      -0.701  -9.041 -10.661  1.00  0.00     0.167 HD
ATOM     80  C   UNL     1      -2.035  -8.933 -14.505  1.00  0.00     0.074 A 
ATOM     81  C   UNL     1      -2.431  -7.539 -14.661  1.00  0.00     0.031 C 
ATOM     82  C   UNL     1      -1.602  -9.384 -13.299  1.00  0.00     0.034 A 
BRANCH  69  83
ATOM     83  C   UNL     1      -2.943 -10.319  -9.102  1.00  0.00     0.023 A 
ATOM     84  C   UNL     1      -3.655 -11.579  -8.984  1.00  0.00     0.031 A 
ATOM     85  C   UNL     1      -1.612 -10.443  -8.642  1.00  0.00     0.131 A 
ATOM     86  C   UNL     1      -3.166 -12.684  -8.215  1.00  0.00     0.055 A 
ATOM     87  C   UNL     1      -1.058 -11.620  -8.097  1.00  0.00     0.041 A 
ATOM     88  F   UNL     1      -0.781  -9.392  -8.676  1.00  0.00    -0.206 F 
ATOM     89  C   UNL     1      -1.846 -12.723  -7.816  1.00  0.00     0.022 A 
BRANCH  86  90
ATOM     90  S   UNL     1      -4.290 -13.972  -7.494  1.00  0.00     0.124 S 
ATOM     91  O   UNL     1      -4.833 -13.303  -6.316  1.00  0.00    -0.237 OA
ATOM     92  O   UNL     1      -5.243 -14.239  -8.565  1.00  0.00    -0.237 OA
ATOM     93  O   UNL     1      -3.385 -15.077  -7.176  1.00  0.00    -0.744 OA
ENDBRANCH  86  90
ENDBRANCH  69  83
BRANCH  70  94
ATOM     94  C   UNL     1      -5.520  -8.454 -16.813  1.00  0.00     0.023 A 
ATOM     95  C   UNL     1      -6.207  -8.776 -18.036  1.00  0.00     0.031 A 
ATOM     96  C   UNL     1      -4.433  -7.546 -17.254  1.00  0.00     0.131 A 
ATOM     97  C   UNL     1      -5.921  -8.061 -19.335  1.00  0.00     0.055 A 
ATOM     98  C   UNL     1      -4.319  -6.682 -18.364  1.00  0.00     0.041 A 
ATOM     99  F   UNL     1      -3.163  -7.798 -16.908  1.00  0.00    -0.206 F 
ATOM    100  C   UNL     1      -5.069  -6.960 -19.450  1.00  0.00     0.022 A 
BRANCH  97 101
ATOM    101  S   UNL     1      -6.475  -8.586 -21.030  1.00  0.00     0.124 S 
ATOM    102  O   UNL     1      -5.337  -9.365 -21.509  1.00  0.00    -0.237 OA
ATOM    103  O   UNL     1      -7.704  -9.318 -20.768  1.00  0.00    -0.237 OA
ATOM    104  O   UNL     1      -6.659  -7.308 -21.729  1.00  0.00    -0.744 OA
ENDBRANCH  97 101
ENDBRANCH  70  94
BRANCH  82 105
ATOM    105  C   UNL     1      -1.267 -10.842 -13.312  1.00  0.00     0.023 A 
ATOM    106  C   UNL     1      -0.376 -11.317 -14.287  1.00  0.00     0.031 A 
ATOM    107  C   UNL     1      -1.904 -11.803 -12.524  1.00  0.00     0.131 A 
ATOM    108  C   UNL     1      -0.182 -12.692 -14.477  1.00  0.00     0.055 A 
ATOM    109  C   UNL     1      -1.751 -13.179 -12.735  1.00  0.00     0.041 A 
ATOM    110  F   UNL     1      -2.722 -11.421 -11.548  1.00  0.00    -0.206 F 
ATOM    111  C   UNL     1      -0.890 -13.632 -13.728  1.00  0.00     0.022 A 
BRANCH 108 112
ATOM    112  S   UNL     1       1.079 -13.209 -15.664  1.00  0.00     0.124 S 
ATOM    113  O   UNL     1       0.565 -12.700 -16.931  1.00  0.00    -0.237 OA
ATOM    114  O   UNL     1       2.268 -12.533 -15.148  1.00  0.00    -0.237 OA
ATOM    115  O   UNL     1       1.099 -14.665 -15.537  1.00  0.00    -0.744 OA
ENDBRANCH 108 112
ENDBRANCH  82 105
ENDBRANCH  56  57
ENDBRANCH  49  51
ENDBRANCH  48  49
ENDBRANCH  47  48
ENDBRANCH  46  47
ENDBRANCH  45  46
ENDBRANCH  44  45
ENDBRANCH  43  44
ENDBRANCH  42  43
ENDBRANCH   1  42
TORSDOF 32
