REMARK SMILES C/C=C/c1cncc(-c2ccc([C@@H](C)C(=O)OCCOCCOCCOCCOC(=O)c3ccc(-c4c5nc(c(-c6cc(S(=O)(=O)[O-])ccc6F)c6ccc([nH]6)c(-c6cc(S(=O)(=O)[O-])ccc6F)c6nc(c(-c7cc(S(=O)(=O)[O-])ccc7F)c7ccc4[nH]7)C=C6)C=C5)cc3)cc2)c1
REMARK SMILES IDX 23 1 22 2 21 3 20 4 19 5 18 6 17 7 15 8 16 9 13 10 14 11
REMARK SMILES IDX 12 12 9 13 10 14 96 15 11 16 95 17 8 18 4 19 5 20 97 21 6 22
REMARK SMILES IDX 7 23 3 24 1 25 2 26 24 27 25 28 26 29 27 30 28 31 29 32
REMARK SMILES IDX 30 33 31 34 32 35 33 36 94 37 34 38 93 39 35 40 36 41 37 42
REMARK SMILES IDX 87 43 38 44 92 45 86 46 88 47 39 48 91 49 85 50 84 51 40 53
REMARK SMILES IDX 72 54 52 55 71 56 53 57 56 58 70 59 89 60 54 61 55 62 69 64
REMARK SMILES IDX 90 65 57 66 41 67 42 68 50 69 43 70 49 71 51 72 48 73 44 74
REMARK SMILES IDX 45 75 46 76 47 77 73 78 74 79 82 80 75 81 81 82 83 83 80 84
REMARK SMILES IDX 76 85 77 86 78 87 79 88 58 89 59 90 67 91 60 92 66 93 68 94
REMARK SMILES IDX 65 95 61 96 62 97 63 98 64 99
REMARK H PARENT 88 52 56 63
REMARK Flexibility Score: inf
ROOT
ATOM      1  O   UNL     1       2.121   3.803   8.572  1.00  0.00    -0.377 OA
ENDROOT
BRANCH   1   2
ATOM      2  C   UNL     1       3.193   4.321   7.815  1.00  0.00     0.188 C 
BRANCH   2   3
ATOM      3  C   UNL     1       4.428   4.742   8.624  1.00  0.00     0.188 C 
BRANCH   3   4
ATOM      4  O   UNL     1       4.535   4.462  10.013  1.00  0.00    -0.376 OA
BRANCH   4   5
ATOM      5  C   UNL     1       3.389   4.497  10.852  1.00  0.00     0.202 C 
BRANCH   5   6
ATOM      6  C   UNL     1       2.470   5.734  10.891  1.00  0.00     0.261 C 
BRANCH   6   7
ATOM      7  O   UNL     1       2.003   6.245   9.624  1.00  0.00    -0.463 OA
BRANCH   7   8
ATOM      8  C   UNL     1       2.592   7.375   9.176  1.00  0.00     0.313 C 
ATOM      9  O   UNL     1       3.466   7.977   9.802  1.00  0.00    -0.252 OA
BRANCH   8  10
ATOM     10  C   UNL     1       2.094   7.910   7.833  1.00  0.00     0.126 C 
ATOM     11  C   UNL     1       1.280   9.172   8.096  1.00  0.00     0.025 C 
BRANCH  10  12
ATOM     12  C   UNL     1       1.401   7.006   6.811  1.00  0.00    -0.034 A 
ATOM     13  C   UNL     1       0.178   5.363   4.792  1.00  0.00    -0.017 A 
ATOM     14  C   UNL     1      -0.364   5.482   6.086  1.00  0.00     0.009 A 
ATOM     15  C   UNL     1       1.363   6.063   4.535  1.00  0.00     0.009 A 
ATOM     16  C   UNL     1       0.229   6.291   7.077  1.00  0.00     0.005 A 
ATOM     17  C   UNL     1       1.954   6.877   5.517  1.00  0.00     0.005 A 
BRANCH  13  18
ATOM     18  C   UNL     1      -0.532   4.630   3.721  1.00  0.00     0.001 A 
ATOM     19  C   UNL     1      -0.669   3.039   1.869  1.00  0.00    -0.007 A 
ATOM     20  C   UNL     1      -1.982   3.467   1.681  1.00  0.00     0.119 A 
ATOM     21  C   UNL     1       0.060   3.642   2.909  1.00  0.00     0.020 A 
ATOM     22  N   UNL     1      -2.596   4.408   2.428  1.00  0.00    -0.263 NA
ATOM     23  C   UNL     1      -1.859   4.955   3.422  1.00  0.00     0.119 A 
BRANCH  19  24
ATOM     24  C   UNL     1      -0.126   2.057   0.919  1.00  0.00     0.005 C 
ATOM     25  C   UNL     1       1.081  -0.011   0.218  1.00  0.00     0.035 C 
ATOM     26  C   UNL     1       0.633   0.997   1.233  1.00  0.00    -0.030 C 
ENDBRANCH  19  24
ENDBRANCH  13  18
ENDBRANCH  10  12
ENDBRANCH   8  10
ENDBRANCH   7   8
ENDBRANCH   6   7
ENDBRANCH   5   6
ENDBRANCH   4   5
ENDBRANCH   3   4
ENDBRANCH   2   3
ENDBRANCH   1   2
BRANCH   1  27
ATOM     27  C   UNL     1       1.958   2.394   8.571  1.00  0.00     0.188 C 
BRANCH  27  28
ATOM     28  C   UNL     1       3.239   1.542   8.620  1.00  0.00     0.188 C 
BRANCH  28  29
ATOM     29  O   UNL     1       4.190   1.871   7.613  1.00  0.00    -0.376 OA
BRANCH  29  30
ATOM     30  C   UNL     1       4.186   1.126   6.403  1.00  0.00     0.202 C 
BRANCH  30  31
ATOM     31  C   UNL     1       2.961   1.231   5.474  1.00  0.00     0.261 C 
BRANCH  31  32
ATOM     32  O   UNL     1       1.687   0.848   6.016  1.00  0.00    -0.460 OA
BRANCH  32  33
ATOM     33  C   UNL     1       1.567  -0.385   6.548  1.00  0.00     0.338 C 
ATOM     34  O   UNL     1       2.418  -1.260   6.551  1.00  0.00    -0.246 OA
BRANCH  33  35
ATOM     35  C   UNL     1       0.304  -0.432   7.320  1.00  0.00     0.060 A 
ATOM     36  C   UNL     1       0.358  -0.737   8.687  1.00  0.00     0.016 A 
ATOM     37  C   UNL     1      -0.924  -0.177   6.705  1.00  0.00     0.016 A 
ATOM     38  C   UNL     1      -0.818  -0.834   9.432  1.00  0.00     0.010 A 
ATOM     39  C   UNL     1      -2.105  -0.301   7.447  1.00  0.00     0.010 A 
ATOM     40  C   UNL     1      -2.059  -0.668   8.805  1.00  0.00    -0.014 A 
BRANCH  40  41
ATOM     41  C   UNL     1      -3.296  -1.103   9.504  1.00  0.00     0.031 A 
ATOM     42  C   UNL     1      -3.844  -2.470   9.184  1.00  0.00     0.074 A 
ATOM     43  C   UNL     1      -3.898  -0.335  10.430  1.00  0.00     0.049 A 
ATOM     44  N   UNL     1      -4.937  -3.051   9.606  1.00  0.00    -0.248 NA
ATOM     45  C   UNL     1      -3.045  -3.289   8.259  1.00  0.00     0.031 C 
ATOM     46  C   UNL     1      -3.431   0.978  10.871  1.00  0.00     0.029 A 
ATOM     47  N   UNL     1      -5.042  -0.547  11.161  1.00  0.00    -0.354 N 
ATOM     48  C   UNL     1      -4.956  -4.303   9.000  1.00  0.00     0.074 A 
ATOM     49  C   UNL     1      -3.791  -4.376   8.145  1.00  0.00     0.031 C 
ATOM     50  C   UNL     1      -4.293   1.463  11.782  1.00  0.00     0.029 A 
ATOM     51  C   UNL     1      -5.395   0.517  11.958  1.00  0.00     0.049 A 
ATOM     52  H   UNL     1      -5.561  -1.383  11.117  1.00  0.00     0.167 HD
ATOM     53  C   UNL     1      -5.854  -5.307   9.154  1.00  0.00     0.034 A 
ATOM     54  C   UNL     1      -6.497   0.717  12.712  1.00  0.00     0.034 A 
ATOM     55  C   UNL     1      -7.023  -5.213   9.992  1.00  0.00     0.049 A 
ATOM     56  C   UNL     1      -7.546  -0.372  12.781  1.00  0.00     0.074 A 
ATOM     57  C   UNL     1      -8.009  -6.160  10.205  1.00  0.00     0.029 A 
ATOM     58  N   UNL     1      -7.371  -4.102  10.750  1.00  0.00    -0.354 N 
ATOM     59  N   UNL     1      -7.561  -1.548  12.194  1.00  0.00    -0.248 NA
ATOM     60  C   UNL     1      -8.722  -0.111  13.623  1.00  0.00     0.031 C 
ATOM     61  C   UNL     1      -8.989  -5.596  11.027  1.00  0.00     0.029 A 
ATOM     62  C   UNL     1      -8.570  -4.331  11.407  1.00  0.00     0.049 A 
ATOM     63  H   UNL     1      -6.844  -3.273  10.811  1.00  0.00     0.167 HD
ATOM     64  C   UNL     1      -8.726  -2.178  12.630  1.00  0.00     0.074 A 
ATOM     65  C   UNL     1      -9.378  -1.259  13.538  1.00  0.00     0.031 C 
ATOM     66  C   UNL     1      -9.212  -3.406  12.312  1.00  0.00     0.034 A 
BRANCH  53  67
ATOM     67  C   UNL     1      -5.622  -6.571   8.361  1.00  0.00     0.023 A 
ATOM     68  C   UNL     1      -4.487  -7.374   8.569  1.00  0.00     0.031 A 
ATOM     69  C   UNL     1      -6.533  -6.965   7.365  1.00  0.00     0.131 A 
ATOM     70  C   UNL     1      -4.257  -8.488   7.748  1.00  0.00     0.055 A 
ATOM     71  C   UNL     1      -6.343  -8.123   6.609  1.00  0.00     0.041 A 
ATOM     72  F   UNL     1      -7.621  -6.224   7.102  1.00  0.00    -0.206 F 
ATOM     73  C   UNL     1      -5.192  -8.885   6.788  1.00  0.00     0.022 A 
BRANCH  70  74
ATOM     74  S   UNL     1      -2.651  -9.324   7.851  1.00  0.00     0.124 S 
ATOM     75  O   UNL     1      -1.731  -8.235   7.530  1.00  0.00    -0.237 OA
ATOM     76  O   UNL     1      -2.627  -9.793   9.232  1.00  0.00    -0.237 OA
ATOM     77  O   UNL     1      -2.744 -10.371   6.836  1.00  0.00    -0.744 OA
ENDBRANCH  70  74
ENDBRANCH  53  67
BRANCH  54  78
ATOM     78  C   UNL     1      -6.711   2.017  13.417  1.00  0.00     0.023 A 
ATOM     79  C   UNL     1      -6.849   2.082  14.812  1.00  0.00     0.031 A 
ATOM     80  C   UNL     1      -6.864   3.212  12.687  1.00  0.00     0.131 A 
ATOM     81  C   UNL     1      -7.190   3.298  15.428  1.00  0.00     0.055 A 
ATOM     82  C   UNL     1      -7.137   4.431  13.310  1.00  0.00     0.041 A 
ATOM     83  F   UNL     1      -6.753   3.210  11.349  1.00  0.00    -0.206 F 
ATOM     84  C   UNL     1      -7.319   4.476  14.688  1.00  0.00     0.022 A 
BRANCH  81  85
ATOM     85  S   UNL     1      -7.584   3.296  17.199  1.00  0.00     0.124 S 
ATOM     86  O   UNL     1      -8.666   2.321  17.261  1.00  0.00    -0.237 OA
ATOM     87  O   UNL     1      -6.314   2.885  17.790  1.00  0.00    -0.237 OA
ATOM     88  O   UNL     1      -7.973   4.680  17.463  1.00  0.00    -0.744 OA
ENDBRANCH  81  85
ENDBRANCH  54  78
BRANCH  66  89
ATOM     89  C   UNL     1     -10.479  -3.854  13.006  1.00  0.00     0.023 A 
ATOM     90  C   UNL     1     -11.711  -3.210  12.801  1.00  0.00     0.031 A 
ATOM     91  C   UNL     1     -10.447  -4.948  13.891  1.00  0.00     0.131 A 
ATOM     92  C   UNL     1     -12.845  -3.624  13.518  1.00  0.00     0.055 A 
ATOM     93  C   UNL     1     -11.592  -5.401  14.546  1.00  0.00     0.041 A 
ATOM     94  F   UNL     1      -9.298  -5.601  14.129  1.00  0.00    -0.206 F 
ATOM     95  C   UNL     1     -12.798  -4.728  14.373  1.00  0.00     0.022 A 
BRANCH  92  96
ATOM     96  S   UNL     1     -14.360  -2.634  13.401  1.00  0.00     0.124 S 
ATOM     97  O   UNL     1     -13.896  -1.319  13.832  1.00  0.00    -0.237 OA
ATOM     98  O   UNL     1     -14.706  -2.757  11.989  1.00  0.00    -0.237 OA
ATOM     99  O   UNL     1     -15.277  -3.300  14.324  1.00  0.00    -0.744 OA
ENDBRANCH  92  96
ENDBRANCH  66  89
ENDBRANCH  40  41
ENDBRANCH  33  35
ENDBRANCH  32  33
ENDBRANCH  31  32
ENDBRANCH  30  31
ENDBRANCH  29  30
ENDBRANCH  28  29
ENDBRANCH  27  28
ENDBRANCH   1  27
TORSDOF 26
