REMARK SMILES CSCc1ccc(C(=O)N[C@H]2C=C[C@@H](C(=O)OCCOCCOCCOCCOC(=O)c3ccc(-c4c5nc(c(-c6cc(S(=O)(=O)[O-])ccc6F)c6ccc([nH]6)c(-c6cc(S(=O)(=O)[O-])ccc6F)c6nc(c(-c7cc(S(=O)(=O)[O-])ccc7F)c7ccc4[nH]7)C=C6)C=C5)cc3)C2)o1
REMARK SMILES IDX 22 1 21 2 20 3 19 4 18 5 17 6 15 7 16 8 14 9 11 10 12 11
REMARK SMILES IDX 95 12 13 13 10 14 8 15 9 16 7 18 4 19 5 20 96 21 6 22 3 23
REMARK SMILES IDX 2 24 1 25 23 26 24 27 25 28 26 29 27 30 28 31 29 32 30 33
REMARK SMILES IDX 31 34 32 35 33 36 94 37 34 38 93 39 35 40 36 41 37 42 87 43
REMARK SMILES IDX 38 44 92 45 86 46 88 47 39 48 91 49 85 50 84 51 40 53 72 54
REMARK SMILES IDX 52 55 71 56 53 57 56 58 70 59 89 60 54 61 55 62 69 64 90 65
REMARK SMILES IDX 57 66 41 67 42 68 50 69 43 70 49 71 51 72 48 73 44 74 45 75
REMARK SMILES IDX 46 76 47 77 73 78 74 79 82 80 75 81 81 82 83 83 80 84 76 85
REMARK SMILES IDX 77 86 78 87 79 88 58 89 59 90 67 91 60 92 66 93 68 94 65 95
REMARK SMILES IDX 61 96 62 97 63 98 64 99
REMARK H PARENT 10 17 88 52 56 63
REMARK Flexibility Score: inf
ROOT
ATOM      1  C   UNL     1      -5.001   1.770  -5.342  1.00  0.00     0.188 C 
ENDROOT
BRANCH   1   2
ATOM      2  C   UNL     1      -5.793   0.503  -5.729  1.00  0.00     0.188 C 
BRANCH   2   3
ATOM      3  O   UNL     1      -6.251  -0.411  -4.739  1.00  0.00    -0.376 OA
BRANCH   3   4
ATOM      4  C   UNL     1      -5.387  -0.813  -3.682  1.00  0.00     0.202 C 
BRANCH   4   5
ATOM      5  C   UNL     1      -3.941  -1.222  -3.992  1.00  0.00     0.261 C 
BRANCH   5   6
ATOM      6  O   UNL     1      -3.286  -0.358  -4.938  1.00  0.00    -0.463 OA
BRANCH   6   7
ATOM      7  C   UNL     1      -2.676  -0.900  -6.015  1.00  0.00     0.312 C 
ATOM      8  O   UNL     1      -2.694  -2.096  -6.284  1.00  0.00    -0.252 OA
BRANCH   7   9
ATOM      9  C   UNL     1      -2.002   0.159  -6.916  1.00  0.00     0.124 C 
ATOM     10  C   UNL     1      -0.239   1.885  -6.600  1.00  0.00     0.106 C 
ATOM     11  C   UNL     1       0.330   0.595  -7.059  1.00  0.00    -0.006 C 
ATOM     12  C   UNL     1      -1.729   1.596  -6.393  1.00  0.00     0.048 C 
ATOM     13  C   UNL     1      -0.621  -0.323  -7.270  1.00  0.00    -0.014 C 
BRANCH  10  14
ATOM     14  N   UNL     1       0.491   2.497  -5.503  1.00  0.00    -0.343 N 
ATOM     15  C   UNL     1       1.013   2.067  -4.300  1.00  0.00     0.287 C 
ATOM     16  O   UNL     1       1.719   2.882  -3.701  1.00  0.00    -0.266 OA
ATOM     17  H   UNL     1       0.653   3.456  -5.655  1.00  0.00     0.164 HD
BRANCH  15  18
ATOM     18  C   UNL     1       0.736   0.742  -3.802  1.00  0.00     0.191 A 
ATOM     19  C   UNL     1       1.077  -1.115  -2.661  1.00  0.00     0.114 A 
ATOM     20  C   UNL     1      -0.139  -1.271  -3.281  1.00  0.00     0.047 A 
ATOM     21  O   UNL     1       1.651   0.078  -3.016  1.00  0.00    -0.455 OA
ATOM     22  C   UNL     1      -0.404  -0.020  -3.845  1.00  0.00     0.056 A 
BRANCH  19  23
ATOM     23  C   UNL     1       1.744  -1.932  -1.623  1.00  0.00     0.144 C 
BRANCH  23  24
ATOM     24  S   UNL     1       0.822  -1.826  -0.046  1.00  0.00    -0.157 SA
ATOM     25  C   UNL     1       1.019  -0.053   0.292  1.00  0.00     0.085 C 
ENDBRANCH  23  24
ENDBRANCH  19  23
ENDBRANCH  15  18
ENDBRANCH  10  14
ENDBRANCH   7   9
ENDBRANCH   6   7
ENDBRANCH   5   6
ENDBRANCH   4   5
ENDBRANCH   3   4
ENDBRANCH   2   3
ENDBRANCH   1   2
BRANCH   1  26
ATOM     26  O   UNL     1      -4.526   1.809  -4.010  1.00  0.00    -0.377 OA
BRANCH  26  27
ATOM     27  C   UNL     1      -5.309   2.547  -3.075  1.00  0.00     0.188 C 
BRANCH  27  28
ATOM     28  C   UNL     1      -6.843   2.493  -3.230  1.00  0.00     0.188 C 
BRANCH  28  29
ATOM     29  O   UNL     1      -7.303   2.771  -4.548  1.00  0.00    -0.376 OA
BRANCH  29  30
ATOM     30  C   UNL     1      -7.696   4.095  -4.879  1.00  0.00     0.202 C 
BRANCH  30  31
ATOM     31  C   UNL     1      -6.635   5.211  -4.830  1.00  0.00     0.261 C 
BRANCH  31  32
ATOM     32  O   UNL     1      -5.993   5.437  -3.567  1.00  0.00    -0.460 OA
BRANCH  32  33
ATOM     33  C   UNL     1      -6.782   5.702  -2.505  1.00  0.00     0.338 C 
ATOM     34  O   UNL     1      -7.995   5.842  -2.518  1.00  0.00    -0.246 OA
BRANCH  33  35
ATOM     35  C   UNL     1      -5.962   5.584  -1.282  1.00  0.00     0.060 A 
ATOM     36  C   UNL     1      -6.351   4.667  -0.298  1.00  0.00     0.016 A 
ATOM     37  C   UNL     1      -4.827   6.379  -1.099  1.00  0.00     0.016 A 
ATOM     38  C   UNL     1      -5.639   4.580   0.897  1.00  0.00     0.010 A 
ATOM     39  C   UNL     1      -4.127   6.307   0.109  1.00  0.00     0.010 A 
ATOM     40  C   UNL     1      -4.556   5.438   1.129  1.00  0.00    -0.014 A 
BRANCH  40  41
ATOM     41  C   UNL     1      -4.031   5.583   2.510  1.00  0.00     0.031 A 
ATOM     42  C   UNL     1      -4.518   6.746   3.335  1.00  0.00     0.074 A 
ATOM     43  C   UNL     1      -3.186   4.681   3.040  1.00  0.00     0.049 A 
ATOM     44  N   UNL     1      -4.189   7.104   4.548  1.00  0.00    -0.248 NA
ATOM     45  C   UNL     1      -5.511   7.625   2.697  1.00  0.00     0.031 C 
ATOM     46  C   UNL     1      -2.693   3.485   2.361  1.00  0.00     0.029 A 
ATOM     47  N   UNL     1      -2.594   4.635   4.278  1.00  0.00    -0.354 N 
ATOM     48  C   UNL     1      -4.928   8.251   4.818  1.00  0.00     0.074 A 
ATOM     49  C   UNL     1      -5.690   8.551   3.624  1.00  0.00     0.031 C 
ATOM     50  C   UNL     1      -1.866   2.824   3.190  1.00  0.00     0.029 A 
ATOM     51  C   UNL     1      -1.737   3.571   4.441  1.00  0.00     0.049 A 
ATOM     52  H   UNL     1      -2.765   5.300   4.982  1.00  0.00     0.167 HD
ATOM     53  C   UNL     1      -4.976   8.982   5.959  1.00  0.00     0.034 A 
ATOM     54  C   UNL     1      -0.925   3.254   5.471  1.00  0.00     0.034 A 
ATOM     55  C   UNL     1      -4.199   8.675   7.135  1.00  0.00     0.049 A 
ATOM     56  C   UNL     1      -0.919   4.140   6.697  1.00  0.00     0.074 A 
ATOM     57  C   UNL     1      -4.174   9.343   8.348  1.00  0.00     0.029 A 
ATOM     58  N   UNL     1      -3.299   7.623   7.244  1.00  0.00    -0.354 N 
ATOM     59  N   UNL     1      -1.624   5.222   6.943  1.00  0.00    -0.248 NA
ATOM     60  C   UNL     1      -0.014   3.756   7.788  1.00  0.00     0.031 C 
ATOM     61  C   UNL     1      -3.199   8.748   9.155  1.00  0.00     0.029 A 
ATOM     62  C   UNL     1      -2.686   7.647   8.488  1.00  0.00     0.049 A 
ATOM     63  H   UNL     1      -3.122   6.957   6.541  1.00  0.00     0.167 HD
ATOM     64  C   UNL     1      -1.274   5.621   8.232  1.00  0.00     0.074 A 
ATOM     65  C   UNL     1      -0.308   4.656   8.714  1.00  0.00     0.031 C 
ATOM     66  C   UNL     1      -1.716   6.683   8.956  1.00  0.00     0.034 A 
BRANCH  53  67
ATOM     67  C   UNL     1      -5.850  10.213   5.960  1.00  0.00     0.023 A 
ATOM     68  C   UNL     1      -7.244  10.138   5.794  1.00  0.00     0.031 A 
ATOM     69  C   UNL     1      -5.274  11.489   6.098  1.00  0.00     0.131 A 
ATOM     70  C   UNL     1      -8.003  11.315   5.697  1.00  0.00     0.055 A 
ATOM     71  C   UNL     1      -6.045  12.652   6.089  1.00  0.00     0.041 A 
ATOM     72  F   UNL     1      -3.945  11.628   6.231  1.00  0.00    -0.206 F 
ATOM     73  C   UNL     1      -7.417  12.570   5.873  1.00  0.00     0.022 A 
BRANCH  70  74
ATOM     74  S   UNL     1      -9.739  11.188   5.184  1.00  0.00     0.124 S 
ATOM     75  O   UNL     1      -9.616  10.513   3.894  1.00  0.00    -0.237 OA
ATOM     76  O   UNL     1     -10.330  10.404   6.262  1.00  0.00    -0.237 OA
ATOM     77  O   UNL     1     -10.177  12.580   5.111  1.00  0.00    -0.744 OA
ENDBRANCH  70  74
ENDBRANCH  53  67
BRANCH  54  78
ATOM     78  C   UNL     1      -0.015   2.074   5.385  1.00  0.00     0.023 A 
ATOM     79  C   UNL     1      -0.116   1.006   6.291  1.00  0.00     0.031 A 
ATOM     80  C   UNL     1       1.019   2.029   4.431  1.00  0.00     0.131 A 
ATOM     81  C   UNL     1       0.830  -0.031   6.261  1.00  0.00     0.055 A 
ATOM     82  C   UNL     1       1.919   0.963   4.365  1.00  0.00     0.041 A 
ATOM     83  F   UNL     1       1.169   3.025   3.543  1.00  0.00    -0.206 F 
ATOM     84  C   UNL     1       1.835  -0.069   5.293  1.00  0.00     0.022 A 
BRANCH  81  85
ATOM     85  S   UNL     1       0.791  -1.280   7.577  1.00  0.00     0.124 S 
ATOM     86  O   UNL     1       0.939  -0.456   8.771  1.00  0.00    -0.237 OA
ATOM     87  O   UNL     1      -0.519  -1.890   7.378  1.00  0.00    -0.237 OA
ATOM     88  O   UNL     1       1.931  -2.139   7.266  1.00  0.00    -0.744 OA
ENDBRANCH  81  85
ENDBRANCH  54  78
BRANCH  66  89
ATOM     89  C   UNL     1      -1.200   6.821  10.371  1.00  0.00     0.023 A 
ATOM     90  C   UNL     1       0.158   7.054  10.652  1.00  0.00     0.031 A 
ATOM     91  C   UNL     1      -2.086   6.705  11.459  1.00  0.00     0.131 A 
ATOM     92  C   UNL     1       0.600   7.095  11.984  1.00  0.00     0.055 A 
ATOM     93  C   UNL     1      -1.652   6.822  12.780  1.00  0.00     0.041 A 
ATOM     94  F   UNL     1      -3.394   6.479  11.255  1.00  0.00    -0.206 F 
ATOM     95  C   UNL     1      -0.299   7.001  13.049  1.00  0.00     0.022 A 
BRANCH  92  96
ATOM     96  S   UNL     1       2.384   7.154  12.308  1.00  0.00     0.124 S 
ATOM     97  O   UNL     1       2.860   5.969  11.603  1.00  0.00    -0.237 OA
ATOM     98  O   UNL     1       2.764   8.438  11.727  1.00  0.00    -0.237 OA
ATOM     99  O   UNL     1       2.470   7.085  13.766  1.00  0.00    -0.744 OA
ENDBRANCH  92  96
ENDBRANCH  66  89
ENDBRANCH  40  41
ENDBRANCH  33  35
ENDBRANCH  32  33
ENDBRANCH  31  32
ENDBRANCH  30  31
ENDBRANCH  29  30
ENDBRANCH  28  29
ENDBRANCH  27  28
ENDBRANCH  26  27
ENDBRANCH   1  26
TORSDOF 27
