REMARK SMILES COCCN1C(=O)CC[C@@H](C(=O)OCCOCCOCCOCCOC(=O)c2ccc(-c3c4nc(c(-c5cc(S(=O)(=O)[O-])ccc5F)c5ccc([nH]5)c(-c5cc(S(=O)(=O)[O-])ccc5F)c5nc(c(-c6cc(S(=O)(=O)[O-])ccc6F)c6ccc3[nH]6)C=C5)C=C4)cc2)[C@H]1c1ccccc1C
REMARK SMILES IDX 19 1 18 2 17 3 16 4 15 5 14 6 13 7 11 8 12 9 10 10 5 11 6 12
REMARK SMILES IDX 91 13 7 14 8 15 9 16 4 17 3 18 2 19 1 20 92 21 93 22 97 23
REMARK SMILES IDX 94 24 96 25 98 26 95 27 20 28 21 29 22 30 23 31 24 32 25 33
REMARK SMILES IDX 26 34 27 35 28 36 29 37 90 38 30 39 89 40 31 41 32 42 33 43
REMARK SMILES IDX 83 44 34 45 88 46 82 47 84 48 35 49 87 50 81 51 80 52 36 54
REMARK SMILES IDX 68 55 48 56 67 57 49 58 52 59 66 60 85 61 50 62 51 63 65 65
REMARK SMILES IDX 86 66 53 67 37 68 38 69 46 70 39 71 45 72 47 73 44 74 40 75
REMARK SMILES IDX 41 76 42 77 43 78 69 79 70 80 78 81 71 82 77 83 79 84 76 85
REMARK SMILES IDX 72 86 73 87 74 88 75 89 54 90 55 91 63 92 56 93 62 94 64 95
REMARK SMILES IDX 61 96 57 97 58 98 59 99 60 100
REMARK H PARENT 84 53 52 64
REMARK Flexibility Score: inf
ROOT
ATOM      1  O   UNL     1       5.506   1.476   4.393  1.00  0.00    -0.377 OA
ENDROOT
BRANCH   1   2
ATOM      2  C   UNL     1       4.821   0.410   5.012  1.00  0.00     0.188 C 
BRANCH   2   3
ATOM      3  C   UNL     1       4.840  -0.904   4.208  1.00  0.00     0.188 C 
BRANCH   3   4
ATOM      4  O   UNL     1       5.838  -1.199   3.242  1.00  0.00    -0.376 OA
BRANCH   4   5
ATOM      5  C   UNL     1       6.221  -0.316   2.197  1.00  0.00     0.202 C 
BRANCH   5   6
ATOM      6  C   UNL     1       5.249   0.560   1.403  1.00  0.00     0.261 C 
BRANCH   6   7
ATOM      7  O   UNL     1       4.223   1.176   2.173  1.00  0.00    -0.463 OA
BRANCH   7   8
ATOM      8  C   UNL     1       3.020   0.564   2.153  1.00  0.00     0.311 C 
ATOM      9  O   UNL     1       2.790  -0.456   1.517  1.00  0.00    -0.252 OA
BRANCH   8  10
ATOM     10  C   UNL     1       2.051   1.227   3.116  1.00  0.00     0.127 C 
ATOM     11  N   UNL     1       0.341   1.814   1.442  1.00  0.00    -0.332 N 
ATOM     12  C   UNL     1      -0.424   0.668   1.685  1.00  0.00     0.223 C 
ATOM     13  C   UNL     1       1.195   2.334   2.509  1.00  0.00     0.130 C 
ATOM     14  O   UNL     1      -1.437   0.385   1.045  1.00  0.00    -0.275 OA
ATOM     15  C   UNL     1       0.104  -0.335   2.708  1.00  0.00     0.101 C 
ATOM     16  C   UNL     1       1.116   0.176   3.721  1.00  0.00     0.028 C 
BRANCH  11  17
ATOM     17  C   UNL     1       0.049   2.605   0.243  1.00  0.00     0.148 C 
BRANCH  17  18
ATOM     18  C   UNL     1       0.916   2.218  -0.970  1.00  0.00     0.181 C 
BRANCH  18  19
ATOM     19  O   UNL     1       0.494   1.003  -1.597  1.00  0.00    -0.383 OA
ATOM     20  C   UNL     1       1.264  -0.125  -1.204  1.00  0.00     0.194 C 
ENDBRANCH  18  19
ENDBRANCH  17  18
ENDBRANCH  11  17
BRANCH  13  21
ATOM     21  C   UNL     1       1.970   3.651   2.353  1.00  0.00    -0.022 A 
ATOM     22  C   UNL     1       3.085   3.719   1.494  1.00  0.00     0.006 A 
ATOM     23  C   UNL     1       1.732   4.770   3.192  1.00  0.00    -0.046 A 
ATOM     24  C   UNL     1       4.013   4.762   1.562  1.00  0.00     0.000 A 
ATOM     25  C   UNL     1       2.680   5.816   3.246  1.00  0.00     0.004 A 
ATOM     26  C   UNL     1       0.525   4.955   4.077  1.00  0.00     0.045 C 
ATOM     27  C   UNL     1       3.827   5.798   2.461  1.00  0.00     0.000 A 
ENDBRANCH  13  21
ENDBRANCH   8  10
ENDBRANCH   7   8
ENDBRANCH   6   7
ENDBRANCH   5   6
ENDBRANCH   4   5
ENDBRANCH   3   4
ENDBRANCH   2   3
ENDBRANCH   1   2
BRANCH   1  28
ATOM     28  C   UNL     1       6.857   1.689   4.791  1.00  0.00     0.188 C 
BRANCH  28  29
ATOM     29  C   UNL     1       7.718   0.469   5.198  1.00  0.00     0.188 C 
BRANCH  29  30
ATOM     30  O   UNL     1       7.067  -0.459   6.053  1.00  0.00    -0.376 OA
BRANCH  30  31
ATOM     31  C   UNL     1       7.316  -0.401   7.447  1.00  0.00     0.202 C 
BRANCH  31  32
ATOM     32  C   UNL     1       6.917   0.879   8.202  1.00  0.00     0.261 C 
BRANCH  32  33
ATOM     33  O   UNL     1       7.484   2.107   7.723  1.00  0.00    -0.460 OA
BRANCH  33  34
ATOM     34  C   UNL     1       8.830   2.202   7.699  1.00  0.00     0.338 C 
ATOM     35  O   UNL     1       9.626   1.364   8.094  1.00  0.00    -0.246 OA
BRANCH  34  36
ATOM     36  C   UNL     1       9.185   3.401   6.913  1.00  0.00     0.060 A 
ATOM     37  C   UNL     1       9.972   3.252   5.763  1.00  0.00     0.016 A 
ATOM     38  C   UNL     1       8.745   4.665   7.311  1.00  0.00     0.016 A 
ATOM     39  C   UNL     1      10.357   4.374   5.030  1.00  0.00     0.010 A 
ATOM     40  C   UNL     1       9.154   5.790   6.591  1.00  0.00     0.010 A 
ATOM     41  C   UNL     1       9.994   5.652   5.472  1.00  0.00    -0.014 A 
BRANCH  41  42
ATOM     42  C   UNL     1      10.676   6.840   4.904  1.00  0.00     0.031 A 
ATOM     43  C   UNL     1      11.841   7.415   5.664  1.00  0.00     0.074 A 
ATOM     44  C   UNL     1      10.296   7.376   3.731  1.00  0.00     0.049 A 
ATOM     45  N   UNL     1      12.561   8.476   5.409  1.00  0.00    -0.248 NA
ATOM     46  C   UNL     1      12.242   6.693   6.883  1.00  0.00     0.031 C 
ATOM     47  C   UNL     1       9.225   6.867   2.877  1.00  0.00     0.029 A 
ATOM     48  N   UNL     1      10.771   8.475   3.059  1.00  0.00    -0.354 N 
ATOM     49  C   UNL     1      13.492   8.556   6.440  1.00  0.00     0.074 A 
ATOM     50  C   UNL     1      13.220   7.458   7.341  1.00  0.00     0.031 C 
ATOM     51  C   UNL     1       9.120   7.658   1.794  1.00  0.00     0.029 A 
ATOM     52  C   UNL     1      10.083   8.754   1.902  1.00  0.00     0.049 A 
ATOM     53  H   UNL     1      11.532   9.012   3.376  1.00  0.00     0.167 HD
ATOM     54  C   UNL     1      14.486   9.461   6.615  1.00  0.00     0.034 A 
ATOM     55  C   UNL     1      10.201   9.791   1.047  1.00  0.00     0.034 A 
ATOM     56  C   UNL     1      14.735  10.556   5.710  1.00  0.00     0.049 A 
ATOM     57  C   UNL     1      11.250  10.847   1.317  1.00  0.00     0.074 A 
ATOM     58  C   UNL     1      15.724  11.522   5.780  1.00  0.00     0.029 A 
ATOM     59  N   UNL     1      13.980  10.843   4.580  1.00  0.00    -0.354 N 
ATOM     60  N   UNL     1      12.130  10.911   2.292  1.00  0.00    -0.248 NA
ATOM     61  C   UNL     1      11.325  11.965   0.368  1.00  0.00     0.031 C 
ATOM     62  C   UNL     1      15.511  12.441   4.748  1.00  0.00     0.029 A 
ATOM     63  C   UNL     1      14.453  11.995   3.971  1.00  0.00     0.049 A 
ATOM     64  H   UNL     1      13.220  10.307   4.258  1.00  0.00     0.167 HD
ATOM     65  C   UNL     1      12.886  12.057   2.047  1.00  0.00     0.074 A 
ATOM     66  C   UNL     1      12.367  12.641   0.828  1.00  0.00     0.031 C 
ATOM     67  C   UNL     1      13.920  12.575   2.759  1.00  0.00     0.034 A 
BRANCH  54  68
ATOM     68  C   UNL     1      15.328   9.339   7.863  1.00  0.00     0.023 A 
ATOM     69  C   UNL     1      16.133   8.214   8.112  1.00  0.00     0.031 A 
ATOM     70  C   UNL     1      15.298  10.355   8.835  1.00  0.00     0.131 A 
ATOM     71  C   UNL     1      16.817   8.100   9.333  1.00  0.00     0.055 A 
ATOM     72  C   UNL     1      16.050  10.276  10.008  1.00  0.00     0.041 A 
ATOM     73  F   UNL     1      14.525  11.440   8.667  1.00  0.00    -0.206 F 
ATOM     74  C   UNL     1      16.804   9.136  10.270  1.00  0.00     0.022 A 
BRANCH  71  75
ATOM     75  S   UNL     1      17.596   6.515   9.745  1.00  0.00     0.124 S 
ATOM     76  O   UNL     1      16.461   5.599   9.665  1.00  0.00    -0.237 OA
ATOM     77  O   UNL     1      18.603   6.377   8.699  1.00  0.00    -0.237 OA
ATOM     78  O   UNL     1      18.119   6.730  11.092  1.00  0.00    -0.744 OA
ENDBRANCH  71  75
ENDBRANCH  54  68
BRANCH  55  79
ATOM     79  C   UNL     1       9.284   9.919  -0.124  1.00  0.00     0.023 A 
ATOM     80  C   UNL     1       9.781   9.923  -1.437  1.00  0.00     0.031 A 
ATOM     81  C   UNL     1       7.902  10.108   0.056  1.00  0.00     0.131 A 
ATOM     82  C   UNL     1       8.913  10.166  -2.514  1.00  0.00     0.055 A 
ATOM     83  C   UNL     1       7.033  10.287  -1.023  1.00  0.00     0.041 A 
ATOM     84  F   UNL     1       7.372  10.119   1.289  1.00  0.00    -0.206 F 
ATOM     85  C   UNL     1       7.540  10.332  -2.317  1.00  0.00     0.022 A 
BRANCH  82  86
ATOM     86  S   UNL     1       9.622  10.363  -4.172  1.00  0.00     0.124 S 
ATOM     87  O   UNL     1      10.539  11.479  -3.969  1.00  0.00    -0.237 OA
ATOM     88  O   UNL     1      10.236   9.059  -4.394  1.00  0.00    -0.237 OA
ATOM     89  O   UNL     1       8.458  10.653  -5.006  1.00  0.00    -0.744 OA
ENDBRANCH  82  86
ENDBRANCH  55  79
BRANCH  67  90
ATOM     90  C   UNL     1      14.594  13.810   2.205  1.00  0.00     0.023 A 
ATOM     91  C   UNL     1      13.921  15.039   2.090  1.00  0.00     0.031 A 
ATOM     92  C   UNL     1      15.934  13.751   1.778  1.00  0.00     0.131 A 
ATOM     93  C   UNL     1      14.567  16.138   1.503  1.00  0.00     0.055 A 
ATOM     94  C   UNL     1      16.594  14.868   1.264  1.00  0.00     0.041 A 
ATOM     95  F   UNL     1      16.628  12.604   1.860  1.00  0.00    -0.206 F 
ATOM     96  C   UNL     1      15.905  16.066   1.109  1.00  0.00     0.022 A 
BRANCH  93  97
ATOM     97  S   UNL     1      13.599  17.633   1.157  1.00  0.00     0.124 S 
ATOM     98  O   UNL     1      12.533  17.113   0.308  1.00  0.00    -0.237 OA
ATOM     99  O   UNL     1      13.199  18.062   2.492  1.00  0.00    -0.237 OA
ATOM    100  O   UNL     1      14.555  18.512   0.484  1.00  0.00    -0.744 OA
ENDBRANCH  93  97
ENDBRANCH  67  90
ENDBRANCH  41  42
ENDBRANCH  34  36
ENDBRANCH  33  34
ENDBRANCH  32  33
ENDBRANCH  31  32
ENDBRANCH  30  31
ENDBRANCH  29  30
ENDBRANCH  28  29
ENDBRANCH   1  28
TORSDOF 27
