REMARK SMILES CC(=O)N[C@@H](C)C(=O)N1CCC[C@H]1C(=O)OCCOCCOCCOCCOC(=O)c1ccc(-c2c3nc(c(-c4cc(S(=O)(=O)[O-])ccc4F)c4ccc([nH]4)c(-c4cc(S(=O)(=O)[O-])ccc4F)c4nc(c(-c5cc(S(=O)(=O)[O-])ccc5F)c5ccc2[nH]5)C=C4)C=C3)cc1
REMARK SMILES IDX 22 1 21 2 20 3 19 4 18 5 17 6 16 7 14 8 15 9 13 10 9 11
REMARK SMILES IDX 10 12 11 13 12 14 7 15 8 16 5 17 6 18 4 19 1 20 2 21 3 22
REMARK SMILES IDX 23 24 24 25 25 26 26 27 27 28 28 29 29 30 30 31 31 32 32 33
REMARK SMILES IDX 93 34 33 35 92 36 34 37 35 38 36 39 86 40 37 41 91 42 85 43
REMARK SMILES IDX 87 44 38 45 90 46 84 47 83 48 39 50 71 51 51 52 70 53 52 54
REMARK SMILES IDX 55 55 69 56 88 57 53 58 54 59 68 61 89 62 56 63 40 64 41 65
REMARK SMILES IDX 49 66 42 67 48 68 50 69 47 70 43 71 44 72 45 73 46 74 72 75
REMARK SMILES IDX 73 76 81 77 74 78 80 79 82 80 79 81 75 82 76 83 77 84 78 85
REMARK SMILES IDX 57 86 58 87 66 88 59 89 65 90 67 91 64 92 60 93 61 94 62 95
REMARK SMILES IDX 63 96
REMARK H PARENT 4 23 87 49 55 60
REMARK Flexibility Score: inf
ROOT
ATOM      1  O   UNL     1      -1.444  -6.720   7.066  1.00  0.00    -0.377 OA
ENDROOT
BRANCH   1   2
ATOM      2  C   UNL     1      -1.767  -5.352   6.962  1.00  0.00     0.188 C 
BRANCH   2   3
ATOM      3  C   UNL     1      -2.273  -4.979   5.565  1.00  0.00     0.188 C 
BRANCH   3   4
ATOM      4  O   UNL     1      -2.914  -6.050   4.892  1.00  0.00    -0.376 OA
BRANCH   4   5
ATOM      5  C   UNL     1      -2.191  -6.923   4.033  1.00  0.00     0.202 C 
BRANCH   5   6
ATOM      6  C   UNL     1      -0.722  -7.332   4.265  1.00  0.00     0.261 C 
BRANCH   6   7
ATOM      7  O   UNL     1       0.206  -6.297   4.610  1.00  0.00    -0.462 OA
BRANCH   7   8
ATOM      8  C   UNL     1       0.373  -5.296   3.709  1.00  0.00     0.328 C 
ATOM      9  O   UNL     1      -0.204  -5.242   2.631  1.00  0.00    -0.250 OA
BRANCH   8  10
ATOM     10  C   UNL     1       1.384  -4.259   4.241  1.00  0.00     0.195 C 
ATOM     11  N   UNL     1       1.121  -2.931   3.687  1.00  0.00    -0.327 N 
ATOM     12  C   UNL     1       0.441  -2.097   4.660  1.00  0.00     0.120 C 
ATOM     13  C   UNL     1       1.052  -2.539   5.972  1.00  0.00     0.024 C 
ATOM     14  C   UNL     1       1.377  -4.019   5.758  1.00  0.00     0.039 C 
BRANCH  11  15
ATOM     15  C   UNL     1       1.667  -2.640   2.459  1.00  0.00     0.245 C 
ATOM     16  O   UNL     1       2.052  -3.548   1.712  1.00  0.00    -0.272 OA
BRANCH  15  17
ATOM     17  C   UNL     1       2.165  -1.215   2.174  1.00  0.00     0.168 C 
ATOM     18  C   UNL     1       3.356  -0.973   3.103  1.00  0.00     0.041 C 
BRANCH  17  19
ATOM     19  N   UNL     1       1.210  -0.119   2.260  1.00  0.00    -0.345 N 
ATOM     20  C   UNL     1       0.849   0.057  -0.172  1.00  0.00     0.114 C 
ATOM     21  C   UNL     1       0.552   0.492   1.236  1.00  0.00     0.217 C 
ATOM     22  O   UNL     1      -0.241   1.396   1.488  1.00  0.00    -0.275 OA
ATOM     23  H   UNL     1       1.018   0.220   3.164  1.00  0.00     0.164 HD
ENDBRANCH  17  19
ENDBRANCH  15  17
ENDBRANCH  11  15
ENDBRANCH   8  10
ENDBRANCH   7   8
ENDBRANCH   6   7
ENDBRANCH   5   6
ENDBRANCH   4   5
ENDBRANCH   3   4
ENDBRANCH   2   3
ENDBRANCH   1   2
BRANCH   1  24
ATOM     24  C   UNL     1      -2.510  -7.599   7.431  1.00  0.00     0.188 C 
BRANCH  24  25
ATOM     25  C   UNL     1      -4.014  -7.227   7.265  1.00  0.00     0.188 C 
BRANCH  25  26
ATOM     26  O   UNL     1      -4.345  -5.844   7.312  1.00  0.00    -0.376 OA
BRANCH  26  27
ATOM     27  C   UNL     1      -4.970  -5.317   8.473  1.00  0.00     0.202 C 
BRANCH  27  28
ATOM     28  C   UNL     1      -4.104  -5.196   9.740  1.00  0.00     0.261 C 
BRANCH  28  29
ATOM     29  O   UNL     1      -3.428  -6.397  10.131  1.00  0.00    -0.460 OA
BRANCH  29  30
ATOM     30  C   UNL     1      -4.230  -7.397  10.559  1.00  0.00     0.338 C 
ATOM     31  O   UNL     1      -5.446  -7.356  10.664  1.00  0.00    -0.246 OA
BRANCH  30  32
ATOM     32  C   UNL     1      -3.420  -8.624  10.676  1.00  0.00     0.060 A 
ATOM     33  C   UNL     1      -3.793  -9.737   9.909  1.00  0.00     0.016 A 
ATOM     34  C   UNL     1      -2.294  -8.674  11.502  1.00  0.00     0.016 A 
ATOM     35  C   UNL     1      -3.064 -10.919   9.997  1.00  0.00     0.010 A 
ATOM     36  C   UNL     1      -1.586  -9.873  11.618  1.00  0.00     0.010 A 
ATOM     37  C   UNL     1      -1.996 -11.010  10.897  1.00  0.00    -0.014 A 
BRANCH  37  38
ATOM     38  C   UNL     1      -1.503 -12.354  11.280  1.00  0.00     0.031 A 
ATOM     39  C   UNL     1      -2.107 -12.991  12.503  1.00  0.00     0.074 A 
ATOM     40  C   UNL     1      -0.598 -13.016  10.541  1.00  0.00     0.049 A 
ATOM     41  N   UNL     1      -1.843 -14.141  13.062  1.00  0.00    -0.248 NA
ATOM     42  C   UNL     1      -3.154 -12.214  13.186  1.00  0.00     0.031 C 
ATOM     43  C   UNL     1      -0.002 -12.529   9.298  1.00  0.00     0.029 A 
ATOM     44  N   UNL     1      -0.025 -14.248  10.731  1.00  0.00    -0.354 N 
ATOM     45  C   UNL     1      -2.681 -14.221  14.170  1.00  0.00     0.074 A 
ATOM     46  C   UNL     1      -3.433 -12.987  14.221  1.00  0.00     0.031 C 
ATOM     47  C   UNL     1       0.857 -13.456   8.837  1.00  0.00     0.029 A 
ATOM     48  C   UNL     1       0.903 -14.580   9.772  1.00  0.00     0.049 A 
ATOM     49  H   UNL     1      -0.257 -14.839  11.483  1.00  0.00     0.167 HD
ATOM     50  C   UNL     1      -2.814 -15.235  15.059  1.00  0.00     0.034 A 
ATOM     51  C   UNL     1       1.709 -15.658   9.680  1.00  0.00     0.034 A 
ATOM     52  C   UNL     1      -2.042 -16.451  14.998  1.00  0.00     0.049 A 
ATOM     53  C   UNL     1       1.624 -16.728  10.745  1.00  0.00     0.074 A 
ATOM     54  C   UNL     1      -2.097 -17.549  15.837  1.00  0.00     0.029 A 
ATOM     55  N   UNL     1      -1.057 -16.721  14.056  1.00  0.00    -0.354 N 
ATOM     56  N   UNL     1       0.829 -16.797  11.790  1.00  0.00    -0.248 NA
ATOM     57  C   UNL     1       2.541 -17.867  10.614  1.00  0.00     0.031 C 
ATOM     58  C   UNL     1      -1.086 -18.438  15.460  1.00  0.00     0.029 A 
ATOM     59  C   UNL     1      -0.467 -17.947  14.320  1.00  0.00     0.049 A 
ATOM     60  H   UNL     1      -0.814 -16.127  13.309  1.00  0.00     0.167 HD
ATOM     61  C   UNL     1       1.124 -18.009  12.413  1.00  0.00     0.074 A 
ATOM     62  C   UNL     1       2.163 -18.636  11.624  1.00  0.00     0.031 C 
ATOM     63  C   UNL     1       0.576 -18.559  13.529  1.00  0.00     0.034 A 
BRANCH  50  64
ATOM     64  C   UNL     1      -3.773 -15.025  16.208  1.00  0.00     0.023 A 
ATOM     65  C   UNL     1      -5.149 -14.821  16.005  1.00  0.00     0.031 A 
ATOM     66  C   UNL     1      -3.289 -14.969  17.527  1.00  0.00     0.131 A 
ATOM     67  C   UNL     1      -5.974 -14.483  17.089  1.00  0.00     0.055 A 
ATOM     68  C   UNL     1      -4.132 -14.726  18.613  1.00  0.00     0.041 A 
ATOM     69  F   UNL     1      -1.980 -15.124  17.783  1.00  0.00    -0.206 F 
ATOM     70  C   UNL     1      -5.480 -14.462  18.395  1.00  0.00     0.022 A 
BRANCH  67  71
ATOM     71  S   UNL     1      -7.656 -13.895  16.748  1.00  0.00     0.124 S 
ATOM     72  O   UNL     1      -7.398 -12.764  15.859  1.00  0.00    -0.237 OA
ATOM     73  O   UNL     1      -8.280 -15.061  16.134  1.00  0.00    -0.237 OA
ATOM     74  O   UNL     1      -8.168 -13.534  18.068  1.00  0.00    -0.744 OA
ENDBRANCH  67  71
ENDBRANCH  50  64
BRANCH  51  75
ATOM     75  C   UNL     1       2.691 -15.776   8.563  1.00  0.00     0.023 A 
ATOM     76  C   UNL     1       2.616 -16.829   7.638  1.00  0.00     0.031 A 
ATOM     77  C   UNL     1       3.757 -14.866   8.437  1.00  0.00     0.131 A 
ATOM     78  C   UNL     1       3.610 -16.973   6.657  1.00  0.00     0.055 A 
ATOM     79  C   UNL     1       4.710 -14.979   7.424  1.00  0.00     0.041 A 
ATOM     80  F   UNL     1       3.883 -13.844   9.299  1.00  0.00    -0.206 F 
ATOM     81  C   UNL     1       4.647 -16.046   6.533  1.00  0.00     0.022 A 
BRANCH  78  82
ATOM     82  S   UNL     1       3.576 -18.443   5.594  1.00  0.00     0.124 S 
ATOM     83  O   UNL     1       3.674 -19.518   6.574  1.00  0.00    -0.237 OA
ATOM     84  O   UNL     1       2.290 -18.301   4.921  1.00  0.00    -0.237 OA
ATOM     85  O   UNL     1       4.748 -18.270   4.738  1.00  0.00    -0.744 OA
ENDBRANCH  78  82
ENDBRANCH  51  75
BRANCH  63  86
ATOM     86  C   UNL     1       1.049 -19.939  13.927  1.00  0.00     0.023 A 
ATOM     87  C   UNL     1       2.370 -20.188  14.337  1.00  0.00     0.031 A 
ATOM     88  C   UNL     1       0.154 -21.024  13.892  1.00  0.00     0.131 A 
ATOM     89  C   UNL     1       2.774 -21.499  14.637  1.00  0.00     0.055 A 
ATOM     90  C   UNL     1       0.542 -22.312  14.262  1.00  0.00     0.041 A 
ATOM     91  F   UNL     1      -1.119 -20.849  13.505  1.00  0.00    -0.206 F 
ATOM     92  C   UNL     1       1.863 -22.558  14.623  1.00  0.00     0.022 A 
BRANCH  89  93
ATOM     93  S   UNL     1       4.533 -21.822  14.942  1.00  0.00     0.124 S 
ATOM     94  O   UNL     1       5.148 -21.331  13.713  1.00  0.00    -0.237 OA
ATOM     95  O   UNL     1       4.792 -21.034  16.142  1.00  0.00    -0.237 OA
ATOM     96  O   UNL     1       4.588 -23.270  15.128  1.00  0.00    -0.744 OA
ENDBRANCH  89  93
ENDBRANCH  63  86
ENDBRANCH  37  38
ENDBRANCH  30  32
ENDBRANCH  29  30
ENDBRANCH  28  29
ENDBRANCH  27  28
ENDBRANCH  26  27
ENDBRANCH  25  26
ENDBRANCH  24  25
ENDBRANCH   1  24
TORSDOF 26
