REMARK SMILES C[C@@H](C(=O)OCCOCCOCCOCCOC(=O)c1ccc(-c2c3nc(c(-c4cc(S(=O)(=O)[O-])ccc4F)c4ccc([nH]4)c(-c4cc(S(=O)(=O)[O-])ccc4F)c4nc(c(-c5cc(S(=O)(=O)[O-])ccc5F)c5ccc2[nH]5)C=C4)C=C3)cc1)c1cccn(C(F)F)c1=O
REMARK SMILES IDX 12 1 11 2 10 3 9 4 8 5 7 6 6 7 5 8 3 9 4 10 2 11 1 12 83 13
REMARK SMILES IDX 84 14 91 15 85 16 87 17 92 18 86 19 88 20 89 21 90 22 13 23
REMARK SMILES IDX 14 24 15 25 16 26 17 27 18 28 19 29 20 30 21 31 82 32 22 33
REMARK SMILES IDX 81 34 23 35 24 36 25 37 75 38 26 39 80 40 74 41 76 42 27 43
REMARK SMILES IDX 79 44 73 45 72 46 28 48 60 49 40 50 59 51 41 52 44 53 58 54
REMARK SMILES IDX 77 55 42 56 43 57 57 59 78 60 45 61 29 62 30 63 38 64 31 65
REMARK SMILES IDX 37 66 39 67 36 68 32 69 33 70 34 71 35 72 61 73 62 74 70 75
REMARK SMILES IDX 63 76 69 77 71 78 68 79 64 80 65 81 66 82 67 83 46 84 47 85
REMARK SMILES IDX 55 86 48 87 54 88 56 89 53 90 49 91 50 92 51 93 52 94
REMARK H PARENT 76 47 44 58
REMARK Flexibility Score: inf
ROOT
ATOM      1  C   UNL     1       2.925  -3.528   1.832  1.00  0.00     0.188 C 
ENDROOT
BRANCH   1   2
ATOM      2  O   UNL     1       2.331  -2.709   0.830  1.00  0.00    -0.377 OA
BRANCH   2   3
ATOM      3  C   UNL     1       0.929  -2.563   0.886  1.00  0.00     0.188 C 
BRANCH   3   4
ATOM      4  C   UNL     1       0.173  -3.631   0.086  1.00  0.00     0.188 C 
BRANCH   4   5
ATOM      5  O   UNL     1       0.826  -4.821  -0.308  1.00  0.00    -0.376 OA
BRANCH   5   6
ATOM      6  C   UNL     1       1.967  -4.781  -1.157  1.00  0.00     0.202 C 
BRANCH   6   7
ATOM      7  C   UNL     1       2.347  -3.613  -2.097  1.00  0.00     0.261 C 
BRANCH   7   8
ATOM      8  O   UNL     1       1.788  -2.323  -1.815  1.00  0.00    -0.463 OA
BRANCH   8   9
ATOM      9  C   UNL     1       0.936  -1.779  -2.718  1.00  0.00     0.313 C 
ATOM     10  O   UNL     1       0.588  -2.335  -3.756  1.00  0.00    -0.252 OA
BRANCH   9  11
ATOM     11  C   UNL     1       0.341  -0.434  -2.256  1.00  0.00     0.132 C 
ATOM     12  C   UNL     1       1.184   0.300  -1.189  1.00  0.00     0.025 C 
BRANCH  11  13
ATOM     13  C   UNL     1      -1.140  -0.556  -1.885  1.00  0.00     0.032 A 
ATOM     14  C   UNL     1      -1.880  -1.682  -1.869  1.00  0.00     0.012 A 
ATOM     15  C   UNL     1      -1.873   0.734  -1.607  1.00  0.00     0.259 A 
ATOM     16  C   UNL     1      -3.247  -1.715  -1.427  1.00  0.00     0.019 A 
ATOM     17  N   UNL     1      -3.221   0.634  -1.299  1.00  0.00    -0.258 N 
ATOM     18  O   UNL     1      -1.284   1.810  -1.689  1.00  0.00    -0.269 OA
ATOM     19  C   UNL     1      -3.882  -0.570  -1.177  1.00  0.00     0.095 A 
BRANCH  17  20
ATOM     20  C   UNL     1      -3.972   1.856  -1.192  1.00  0.00     0.451 C 
ATOM     21  F   UNL     1      -4.852   1.926  -2.229  1.00  0.00    -0.185 F 
ATOM     22  F   UNL     1      -4.729   1.841  -0.061  1.00  0.00    -0.185 F 
ENDBRANCH  17  20
ENDBRANCH  11  13
ENDBRANCH   9  11
ENDBRANCH   8   9
ENDBRANCH   7   8
ENDBRANCH   6   7
ENDBRANCH   5   6
ENDBRANCH   4   5
ENDBRANCH   3   4
ENDBRANCH   2   3
ENDBRANCH   1   2
BRANCH   1  23
ATOM     23  C   UNL     1       2.109  -4.677   2.470  1.00  0.00     0.188 C 
BRANCH  23  24
ATOM     24  O   UNL     1       0.782  -4.329   2.852  1.00  0.00    -0.376 OA
BRANCH  24  25
ATOM     25  C   UNL     1       0.527  -4.000   4.210  1.00  0.00     0.202 C 
BRANCH  25  26
ATOM     26  C   UNL     1       1.171  -2.717   4.761  1.00  0.00     0.261 C 
BRANCH  26  27
ATOM     27  O   UNL     1       2.603  -2.652   4.715  1.00  0.00    -0.460 OA
BRANCH  27  28
ATOM     28  C   UNL     1       3.296  -3.630   5.338  1.00  0.00     0.338 C 
ATOM     29  O   UNL     1       2.831  -4.539   6.007  1.00  0.00    -0.246 OA
BRANCH  28  30
ATOM     30  C   UNL     1       4.702  -3.542   4.891  1.00  0.00     0.060 A 
ATOM     31  C   UNL     1       5.282  -4.648   4.255  1.00  0.00     0.016 A 
ATOM     32  C   UNL     1       5.437  -2.369   5.080  1.00  0.00     0.016 A 
ATOM     33  C   UNL     1       6.612  -4.598   3.840  1.00  0.00     0.010 A 
ATOM     34  C   UNL     1       6.778  -2.330   4.687  1.00  0.00     0.010 A 
ATOM     35  C   UNL     1       7.381  -3.457   4.099  1.00  0.00    -0.014 A 
BRANCH  35  36
ATOM     36  C   UNL     1       8.858  -3.524   3.966  1.00  0.00     0.031 A 
ATOM     37  C   UNL     1       9.666  -3.785   5.209  1.00  0.00     0.074 A 
ATOM     38  C   UNL     1       9.467  -3.390   2.775  1.00  0.00     0.049 A 
ATOM     39  N   UNL     1      10.963  -3.831   5.366  1.00  0.00    -0.248 NA
ATOM     40  C   UNL     1       8.900  -4.021   6.443  1.00  0.00     0.031 C 
ATOM     41  C   UNL     1       8.788  -3.197   1.495  1.00  0.00     0.029 A 
ATOM     42  N   UNL     1      10.802  -3.391   2.451  1.00  0.00    -0.354 N 
ATOM     43  C   UNL     1      11.170  -4.090   6.717  1.00  0.00     0.074 A 
ATOM     44  C   UNL     1       9.864  -4.153   7.339  1.00  0.00     0.031 C 
ATOM     45  C   UNL     1       9.713  -3.091   0.524  1.00  0.00     0.029 A 
ATOM     46  C   UNL     1      11.048  -3.162   1.118  1.00  0.00     0.049 A 
ATOM     47  H   UNL     1      11.515  -3.542   3.112  1.00  0.00     0.167 HD
ATOM     48  C   UNL     1      12.341  -4.265   7.377  1.00  0.00     0.034 A 
ATOM     49  C   UNL     1      12.216  -2.998   0.462  1.00  0.00     0.034 A 
ATOM     50  C   UNL     1      13.633  -4.185   6.742  1.00  0.00     0.049 A 
ATOM     51  C   UNL     1      13.511  -3.091   1.237  1.00  0.00     0.074 A 
ATOM     52  C   UNL     1      14.883  -4.358   7.311  1.00  0.00     0.029 A 
ATOM     53  N   UNL     1      13.845  -3.890   5.401  1.00  0.00    -0.354 N 
ATOM     54  N   UNL     1      13.697  -3.340   2.514  1.00  0.00    -0.248 NA
ATOM     55  C   UNL     1      14.754  -2.886   0.481  1.00  0.00     0.031 C 
ATOM     56  C   UNL     1      15.848  -4.080   6.338  1.00  0.00     0.029 A 
ATOM     57  C   UNL     1      15.205  -3.833   5.135  1.00  0.00     0.049 A 
ATOM     58  H   UNL     1      13.134  -3.743   4.737  1.00  0.00     0.167 HD
ATOM     59  C   UNL     1      15.078  -3.359   2.702  1.00  0.00     0.074 A 
ATOM     60  C   UNL     1      15.675  -3.108   1.407  1.00  0.00     0.031 C 
ATOM     61  C   UNL     1      15.790  -3.573   3.840  1.00  0.00     0.034 A 
BRANCH  48  62
ATOM     62  C   UNL     1      12.270  -4.493   8.868  1.00  0.00     0.023 A 
ATOM     63  C   UNL     1      11.635  -5.619   9.421  1.00  0.00     0.031 A 
ATOM     64  C   UNL     1      12.818  -3.548   9.753  1.00  0.00     0.131 A 
ATOM     65  C   UNL     1      11.497  -5.732  10.812  1.00  0.00     0.055 A 
ATOM     66  C   UNL     1      12.756  -3.711  11.138  1.00  0.00     0.041 A 
ATOM     67  F   UNL     1      13.412  -2.438   9.287  1.00  0.00    -0.206 F 
ATOM     68  C   UNL     1      12.078  -4.801  11.676  1.00  0.00     0.022 A 
BRANCH  65  69
ATOM     69  S   UNL     1      10.411  -7.027  11.473  1.00  0.00     0.124 S 
ATOM     70  O   UNL     1       9.144  -6.711  10.818  1.00  0.00    -0.237 OA
ATOM     71  O   UNL     1      11.072  -8.249  11.031  1.00  0.00    -0.237 OA
ATOM     72  O   UNL     1      10.434  -6.790  12.915  1.00  0.00    -0.744 OA
ENDBRANCH  65  69
ENDBRANCH  48  62
BRANCH  49  73
ATOM     73  C   UNL     1      12.230  -2.687  -0.998  1.00  0.00     0.023 A 
ATOM     74  C   UNL     1      12.842  -3.550  -1.921  1.00  0.00     0.031 A 
ATOM     75  C   UNL     1      11.686  -1.484  -1.486  1.00  0.00     0.131 A 
ATOM     76  C   UNL     1      12.939  -3.178  -3.271  1.00  0.00     0.055 A 
ATOM     77  C   UNL     1      11.732  -1.147  -2.840  1.00  0.00     0.041 A 
ATOM     78  F   UNL     1      11.097  -0.615  -0.648  1.00  0.00    -0.206 F 
ATOM     79  C   UNL     1      12.373  -1.990  -3.740  1.00  0.00     0.022 A 
BRANCH  76  80
ATOM     80  S   UNL     1      13.904  -4.227  -4.394  1.00  0.00     0.124 S 
ATOM     81  O   UNL     1      15.215  -4.217  -3.754  1.00  0.00    -0.237 OA
ATOM     82  O   UNL     1      13.171  -5.487  -4.336  1.00  0.00    -0.237 OA
ATOM     83  O   UNL     1      13.826  -3.520  -5.671  1.00  0.00    -0.744 OA
ENDBRANCH  76  80
ENDBRANCH  49  73
BRANCH  61  84
ATOM     84  C   UNL     1      17.297  -3.602   3.722  1.00  0.00     0.023 A 
ATOM     85  C   UNL     1      18.039  -2.465   3.359  1.00  0.00     0.031 A 
ATOM     86  C   UNL     1      18.000  -4.793   3.978  1.00  0.00     0.131 A 
ATOM     87  C   UNL     1      19.431  -2.558   3.205  1.00  0.00     0.055 A 
ATOM     88  C   UNL     1      19.392  -4.862   3.893  1.00  0.00     0.041 A 
ATOM     89  F   UNL     1      17.346  -5.913   4.324  1.00  0.00    -0.206 F 
ATOM     90  C   UNL     1      20.114  -3.743   3.490  1.00  0.00     0.022 A 
BRANCH  87  91
ATOM     91  S   UNL     1      20.331  -1.138   2.523  1.00  0.00     0.124 S 
ATOM     92  O   UNL     1      19.661  -0.943   1.240  1.00  0.00    -0.237 OA
ATOM     93  O   UNL     1      20.095  -0.107   3.528  1.00  0.00    -0.237 OA
ATOM     94  O   UNL     1      21.710  -1.614   2.436  1.00  0.00    -0.744 OA
ENDBRANCH  87  91
ENDBRANCH  61  84
ENDBRANCH  35  36
ENDBRANCH  28  30
ENDBRANCH  27  28
ENDBRANCH  26  27
ENDBRANCH  25  26
ENDBRANCH  24  25
ENDBRANCH  23  24
ENDBRANCH   1  23
TORSDOF 25
