REMARK SMILES Cn1c(=O)[nH]c(=O)c2c1nc(NC1CCCC1)n2CC(=O)OCCOCCOCCOCCOC(=O)c1ccc(-c2c3nc(c(-c4cc(S(=O)(=O)[O-])ccc4F)c4ccc([nH]4)c(-c4cc(S(=O)(=O)[O-])ccc4F)c4nc(c(-c5cc(S(=O)(=O)[O-])ccc5F)c5ccc2[nH]5)C=C4)C=C3)cc1
REMARK SMILES IDX 28 1 27 2 26 3 25 4 24 5 23 6 22 7 20 8 21 9 19 10 18 11
REMARK SMILES IDX 1 12 2 13 3 14 9 15 4 16 5 17 8 18 10 19 6 20 11 22 7 23
REMARK SMILES IDX 12 24 13 26 14 27 17 28 15 29 16 30 29 31 30 32 31 33 32 34
REMARK SMILES IDX 33 35 34 36 35 37 36 38 37 39 38 40 99 41 39 42 98 43 40 44
REMARK SMILES IDX 41 45 42 46 92 47 43 48 97 49 91 50 93 51 44 52 96 53 90 54
REMARK SMILES IDX 89 55 45 57 77 58 57 59 76 60 58 61 61 62 75 63 94 64 59 65
REMARK SMILES IDX 60 66 74 68 95 69 62 70 46 71 47 72 55 73 48 74 54 75 56 76
REMARK SMILES IDX 53 77 49 78 50 79 51 80 52 81 78 82 79 83 87 84 80 85 86 86
REMARK SMILES IDX 88 87 85 88 81 89 82 90 83 91 84 92 63 93 64 94 72 95 65 96
REMARK SMILES IDX 71 97 73 98 70 99 66 100 67 101 68 102 69 103
REMARK H PARENT 5 21 12 25 93 56 61 67
REMARK Flexibility Score: inf
ROOT
ATOM      1  O   UNL     1      -5.576  -2.091  -0.635  1.00  0.00    -0.377 OA
ENDROOT
BRANCH   1   2
ATOM      2  C   UNL     1      -5.064  -1.678  -1.892  1.00  0.00     0.188 C 
BRANCH   2   3
ATOM      3  C   UNL     1      -5.628  -2.398  -3.148  1.00  0.00     0.188 C 
BRANCH   3   4
ATOM      4  O   UNL     1      -6.536  -3.492  -3.060  1.00  0.00    -0.376 OA
BRANCH   4   5
ATOM      5  C   UNL     1      -6.587  -4.228  -1.850  1.00  0.00     0.202 C 
BRANCH   5   6
ATOM      6  C   UNL     1      -5.288  -4.942  -1.417  1.00  0.00     0.261 C 
BRANCH   6   7
ATOM      7  O   UNL     1      -4.053  -4.249  -1.748  1.00  0.00    -0.462 OA
BRANCH   7   8
ATOM      8  C   UNL     1      -3.321  -4.741  -2.776  1.00  0.00     0.326 C 
ATOM      9  O   UNL     1      -3.575  -5.811  -3.330  1.00  0.00    -0.250 OA
BRANCH   8  10
ATOM     10  C   UNL     1      -2.259  -3.815  -3.354  1.00  0.00     0.248 C 
BRANCH  10  11
ATOM     11  N   UNL     1      -1.687  -2.722  -2.567  1.00  0.00    -0.293 N 
ATOM     12  C   UNL     1       1.055  -0.036   0.027  1.00  0.00     0.157 C 
ATOM     13  N   UNL     1       0.645  -1.388  -0.311  1.00  0.00    -0.279 N 
ATOM     14  C   UNL     1       1.249  -2.473   0.309  1.00  0.00     0.329 A 
ATOM     15  C   UNL     1      -0.339  -1.630  -1.240  1.00  0.00     0.170 A 
ATOM     16  O   UNL     1       2.162  -2.377   1.128  1.00  0.00    -0.248 OA
ATOM     17  N   UNL     1       0.788  -3.732  -0.042  1.00  0.00    -0.272 N 
ATOM     18  C   UNL     1      -0.758  -2.888  -1.563  1.00  0.00     0.154 A 
ATOM     19  N   UNL     1      -0.946  -0.697  -1.995  1.00  0.00    -0.194 NA
ATOM     20  C   UNL     1      -0.201  -4.035  -0.948  1.00  0.00     0.279 A 
ATOM     21  H   UNL     1       1.216  -4.495   0.409  1.00  0.00     0.175 HD
ATOM     22  C   UNL     1      -1.709  -1.346  -2.844  1.00  0.00     0.206 A 
ATOM     23  O   UNL     1      -0.531  -5.196  -1.206  1.00  0.00    -0.267 OA
BRANCH  22  24
ATOM     24  N   UNL     1      -2.422  -0.770  -3.838  1.00  0.00    -0.353 N 
ATOM     25  H   UNL     1      -2.753  -1.344  -4.566  1.00  0.00     0.163 HD
BRANCH  24  26
ATOM     26  C   UNL     1      -2.731   0.665  -3.892  1.00  0.00     0.082 C 
ATOM     27  C   UNL     1      -2.630   1.488  -2.611  1.00  0.00     0.025 C 
ATOM     28  C   UNL     1      -1.871   1.495  -4.838  1.00  0.00     0.025 C 
ATOM     29  C   UNL     1      -2.872   2.912  -3.094  1.00  0.00     0.002 C 
ATOM     30  C   UNL     1      -2.240   2.951  -4.489  1.00  0.00     0.002 C 
ENDBRANCH  24  26
ENDBRANCH  22  24
ENDBRANCH  10  11
ENDBRANCH   8  10
ENDBRANCH   7   8
ENDBRANCH   6   7
ENDBRANCH   5   6
ENDBRANCH   4   5
ENDBRANCH   3   4
ENDBRANCH   2   3
ENDBRANCH   1   2
BRANCH   1  31
ATOM     31  C   UNL     1      -6.374  -1.135   0.048  1.00  0.00     0.188 C 
BRANCH  31  32
ATOM     32  C   UNL     1      -7.657  -0.702  -0.689  1.00  0.00     0.188 C 
BRANCH  32  33
ATOM     33  O   UNL     1      -7.488  -0.609  -2.098  1.00  0.00    -0.376 OA
BRANCH  33  34
ATOM     34  C   UNL     1      -7.507   0.663  -2.724  1.00  0.00     0.202 C 
BRANCH  34  35
ATOM     35  C   UNL     1      -6.344   1.622  -2.471  1.00  0.00     0.261 C 
BRANCH  35  36
ATOM     36  O   UNL     1      -5.769   1.578  -1.177  1.00  0.00    -0.460 OA
BRANCH  36  37
ATOM     37  C   UNL     1      -6.486   2.196  -0.228  1.00  0.00     0.338 C 
ATOM     38  O   UNL     1      -7.655   2.555  -0.331  1.00  0.00    -0.246 OA
BRANCH  37  39
ATOM     39  C   UNL     1      -5.634   2.456   0.935  1.00  0.00     0.060 A 
ATOM     40  C   UNL     1      -6.275   2.984   2.051  1.00  0.00     0.016 A 
ATOM     41  C   UNL     1      -4.234   2.459   0.813  1.00  0.00     0.016 A 
ATOM     42  C   UNL     1      -5.535   3.767   2.901  1.00  0.00     0.010 A 
ATOM     43  C   UNL     1      -3.493   3.242   1.666  1.00  0.00     0.010 A 
ATOM     44  C   UNL     1      -4.176   3.971   2.628  1.00  0.00    -0.014 A 
BRANCH  44  45
ATOM     45  C   UNL     1      -3.478   4.930   3.452  1.00  0.00     0.031 A 
ATOM     46  C   UNL     1      -3.356   4.469   4.849  1.00  0.00     0.074 A 
ATOM     47  C   UNL     1      -2.994   6.092   2.977  1.00  0.00     0.049 A 
ATOM     48  N   UNL     1      -4.005   4.911   5.872  1.00  0.00    -0.248 NA
ATOM     49  C   UNL     1      -2.606   3.227   5.096  1.00  0.00     0.031 C 
ATOM     50  C   UNL     1      -2.885   6.551   1.591  1.00  0.00     0.029 A 
ATOM     51  N   UNL     1      -2.414   7.103   3.672  1.00  0.00    -0.354 N 
ATOM     52  C   UNL     1      -3.556   4.155   6.943  1.00  0.00     0.074 A 
ATOM     53  C   UNL     1      -2.878   3.016   6.384  1.00  0.00     0.031 C 
ATOM     54  C   UNL     1      -2.065   7.628   1.541  1.00  0.00     0.029 A 
ATOM     55  C   UNL     1      -1.701   8.010   2.896  1.00  0.00     0.049 A 
ATOM     56  H   UNL     1      -2.492   7.187   4.650  1.00  0.00     0.167 HD
ATOM     57  C   UNL     1      -3.538   4.670   8.199  1.00  0.00     0.034 A 
ATOM     58  C   UNL     1      -0.824   8.943   3.360  1.00  0.00     0.034 A 
ATOM     59  C   UNL     1      -4.418   5.806   8.323  1.00  0.00     0.049 A 
ATOM     60  C   UNL     1      -1.203   9.197   4.777  1.00  0.00     0.074 A 
ATOM     61  C   UNL     1      -5.777   5.994   8.150  1.00  0.00     0.029 A 
ATOM     62  N   UNL     1      -3.862   7.064   8.263  1.00  0.00    -0.354 N 
ATOM     63  N   UNL     1      -2.345   9.729   5.124  1.00  0.00    -0.248 NA
ATOM     64  C   UNL     1      -0.554   8.398   5.808  1.00  0.00     0.031 C 
ATOM     65  C   UNL     1      -5.895   7.259   7.502  1.00  0.00     0.029 A 
ATOM     66  C   UNL     1      -4.616   7.807   7.384  1.00  0.00     0.049 A 
ATOM     67  H   UNL     1      -3.069   7.375   8.758  1.00  0.00     0.167 HD
ATOM     68  C   UNL     1      -2.761   9.001   6.230  1.00  0.00     0.074 A 
ATOM     69  C   UNL     1      -1.582   8.242   6.649  1.00  0.00     0.031 C 
ATOM     70  C   UNL     1      -4.085   8.854   6.531  1.00  0.00     0.034 A 
BRANCH  57  71
ATOM     71  C   UNL     1      -2.441   4.368   9.182  1.00  0.00     0.023 A 
ATOM     72  C   UNL     1      -2.603   4.795  10.509  1.00  0.00     0.031 A 
ATOM     73  C   UNL     1      -1.143   3.932   8.819  1.00  0.00     0.131 A 
ATOM     74  C   UNL     1      -1.506   4.821  11.387  1.00  0.00     0.055 A 
ATOM     75  C   UNL     1      -0.074   3.898   9.713  1.00  0.00     0.041 A 
ATOM     76  F   UNL     1      -0.813   3.616   7.560  1.00  0.00    -0.206 F 
ATOM     77  C   UNL     1      -0.246   4.368  11.001  1.00  0.00     0.022 A 
BRANCH  74  78
ATOM     78  S   UNL     1      -1.719   5.594  13.010  1.00  0.00     0.124 S 
ATOM     79  O   UNL     1      -2.163   6.935  12.645  1.00  0.00    -0.237 OA
ATOM     80  O   UNL     1      -2.720   4.729  13.625  1.00  0.00    -0.237 OA
ATOM     81  O   UNL     1      -0.384   5.517  13.599  1.00  0.00    -0.744 OA
ENDBRANCH  74  78
ENDBRANCH  57  71
BRANCH  58  82
ATOM     82  C   UNL     1       0.527   9.261   2.802  1.00  0.00     0.023 A 
ATOM     83  C   UNL     1       1.294  10.359   3.260  1.00  0.00     0.031 A 
ATOM     84  C   UNL     1       1.202   8.328   1.982  1.00  0.00     0.131 A 
ATOM     85  C   UNL     1       2.660  10.480   2.905  1.00  0.00     0.055 A 
ATOM     86  C   UNL     1       2.550   8.453   1.635  1.00  0.00     0.041 A 
ATOM     87  F   UNL     1       0.603   7.206   1.559  1.00  0.00    -0.206 F 
ATOM     88  C   UNL     1       3.290   9.525   2.105  1.00  0.00     0.022 A 
BRANCH  85  89
ATOM     89  S   UNL     1       3.683  11.832   3.576  1.00  0.00     0.124 S 
ATOM     90  O   UNL     1       3.256  12.969   2.768  1.00  0.00    -0.237 OA
ATOM     91  O   UNL     1       3.297  11.856   4.982  1.00  0.00    -0.237 OA
ATOM     92  O   UNL     1       5.052  11.379   3.327  1.00  0.00    -0.744 OA
ENDBRANCH  85  89
ENDBRANCH  58  82
BRANCH  70  93
ATOM     93  C   UNL     1      -5.098   9.708   5.793  1.00  0.00     0.023 A 
ATOM     94  C   UNL     1      -5.359   9.645   4.403  1.00  0.00     0.031 A 
ATOM     95  C   UNL     1      -5.940  10.512   6.580  1.00  0.00     0.131 A 
ATOM     96  C   UNL     1      -6.437  10.377   3.857  1.00  0.00     0.055 A 
ATOM     97  C   UNL     1      -7.013  11.216   6.039  1.00  0.00     0.041 A 
ATOM     98  F   UNL     1      -5.758  10.585   7.909  1.00  0.00    -0.206 F 
ATOM     99  C   UNL     1      -7.266  11.152   4.674  1.00  0.00     0.022 A 
BRANCH  96 100
ATOM    100  S   UNL     1      -6.801  10.313   2.069  1.00  0.00     0.124 S 
ATOM    101  O   UNL     1      -5.548  10.742   1.456  1.00  0.00    -0.237 OA
ATOM    102  O   UNL     1      -7.169   8.915   1.865  1.00  0.00    -0.237 OA
ATOM    103  O   UNL     1      -7.909  11.258   1.910  1.00  0.00    -0.744 OA
ENDBRANCH  96 100
ENDBRANCH  70  93
ENDBRANCH  44  45
ENDBRANCH  37  39
ENDBRANCH  36  37
ENDBRANCH  35  36
ENDBRANCH  34  35
ENDBRANCH  33  34
ENDBRANCH  32  33
ENDBRANCH  31  32
ENDBRANCH   1  31
TORSDOF 26
