REMARK SMILES C[C@@](NC(=O)COc1ccccc1C#N)(C(=O)OCCOCCOCCOCCOC(=O)c1ccc(-c2c3nc(c(-c4cc(S(=O)(=O)[O-])ccc4F)c4ccc([nH]4)c(-c4cc(S(=O)(=O)[O-])ccc4F)c4nc(c(-c5cc(S(=O)(=O)[O-])ccc5F)c5ccc2[nH]5)C=C4)C=C3)cc1)C1CC1
REMARK SMILES IDX 23 1 22 2 21 3 20 4 19 5 18 6 16 7 17 8 2 9 1 10 3 11 4 12
REMARK SMILES IDX 5 14 6 15 7 16 8 17 9 18 13 19 10 20 12 21 11 22 14 23 15 24
REMARK SMILES IDX 96 25 97 26 98 27 24 28 25 29 26 30 27 31 28 32 29 33 30 34
REMARK SMILES IDX 31 35 32 36 33 37 34 38 95 39 35 40 94 41 36 42 37 43 38 44
REMARK SMILES IDX 88 45 39 46 93 47 87 48 89 49 40 50 92 51 86 52 85 53 41 55
REMARK SMILES IDX 73 56 53 57 72 58 54 59 57 60 71 61 90 62 55 63 56 64 70 66
REMARK SMILES IDX 91 67 58 68 42 69 43 70 51 71 44 72 50 73 52 74 49 75 45 76
REMARK SMILES IDX 46 77 47 78 48 79 74 80 75 81 83 82 76 83 82 84 84 85 81 86
REMARK SMILES IDX 77 87 78 88 79 89 80 90 59 91 60 92 68 93 61 94 67 95 69 96
REMARK SMILES IDX 66 97 62 98 63 99 64 100 65 101
REMARK H PARENT 3 13 89 54 57 65
REMARK Flexibility Score: inf
ROOT
ATOM      1  C   UNL     1      -1.461  -1.464  -0.692  1.00  0.00     0.188 C 
ENDROOT
BRANCH   1   2
ATOM      2  C   UNL     1      -2.223  -2.341   0.326  1.00  0.00     0.188 C 
BRANCH   2   3
ATOM      3  O   UNL     1      -3.581  -2.075   0.611  1.00  0.00    -0.376 OA
BRANCH   3   4
ATOM      4  C   UNL     1      -4.003  -0.835   1.153  1.00  0.00     0.202 C 
BRANCH   4   5
ATOM      5  C   UNL     1      -3.086   0.185   1.836  1.00  0.00     0.261 C 
BRANCH   5   6
ATOM      6  O   UNL     1      -1.698   0.154   1.502  1.00  0.00    -0.461 OA
BRANCH   6   7
ATOM      7  C   UNL     1      -0.843  -0.380   2.399  1.00  0.00     0.331 C 
ATOM      8  O   UNL     1      -1.204  -0.959   3.420  1.00  0.00    -0.249 OA
BRANCH   7   9
ATOM      9  C   UNL     1       0.650  -0.075   2.054  1.00  0.00     0.138 C 
ATOM     10  C   UNL     1       0.997   0.613   0.723  1.00  0.00     0.048 C 
BRANCH   9  11
ATOM     11  N   UNL     1       1.104   0.800   3.168  1.00  0.00    -0.337 N 
ATOM     12  C   UNL     1       0.577   1.894   3.783  1.00  0.00     0.258 C 
ATOM     13  H   UNL     1       1.973   0.529   3.542  1.00  0.00     0.164 HD
ATOM     14  O   UNL     1       1.212   2.340   4.746  1.00  0.00    -0.271 OA
BRANCH  12  15
ATOM     15  C   UNL     1      -0.792   2.507   3.439  1.00  0.00     0.329 C 
BRANCH  15  16
ATOM     16  O   UNL     1      -1.266   2.596   2.119  1.00  0.00    -0.482 OA
BRANCH  16  17
ATOM     17  C   UNL     1      -1.000   3.633   1.281  1.00  0.00     0.137 A 
ATOM     18  C   UNL     1      -2.048   3.869   0.378  1.00  0.00     0.048 A 
ATOM     19  C   UNL     1       0.202   4.325   1.104  1.00  0.00     0.094 A 
ATOM     20  C   UNL     1      -1.904   4.771  -0.674  1.00  0.00     0.004 A 
ATOM     21  C   UNL     1       0.325   5.248   0.047  1.00  0.00     0.023 A 
ATOM     22  C   UNL     1      -0.720   5.469  -0.842  1.00  0.00     0.002 A 
BRANCH  19  23
ATOM     23  C   UNL     1       1.398   4.073   1.835  1.00  0.00     0.103 C 
ATOM     24  N   UNL     1       2.430   3.879   2.345  1.00  0.00    -0.192 NA
ENDBRANCH  19  23
ENDBRANCH  16  17
ENDBRANCH  15  16
ENDBRANCH  12  15
ENDBRANCH   9  11
BRANCH   9  25
ATOM     25  C   UNL     1       1.455  -1.393   2.248  1.00  0.00     0.026 C 
ATOM     26  C   UNL     1       1.179  -2.696   1.513  1.00  0.00     0.007 C 
ATOM     27  C   UNL     1       2.467  -1.969   1.271  1.00  0.00     0.007 C 
ENDBRANCH   9  25
ENDBRANCH   7   9
ENDBRANCH   6   7
ENDBRANCH   5   6
ENDBRANCH   4   5
ENDBRANCH   3   4
ENDBRANCH   2   3
ENDBRANCH   1   2
BRANCH   1  28
ATOM     28  O   UNL     1      -2.011  -0.190  -0.950  1.00  0.00    -0.377 OA
BRANCH  28  29
ATOM     29  C   UNL     1      -2.970  -0.082  -1.988  1.00  0.00     0.188 C 
BRANCH  29  30
ATOM     30  C   UNL     1      -3.844  -1.309  -2.313  1.00  0.00     0.188 C 
BRANCH  30  31
ATOM     31  O   UNL     1      -3.160  -2.549  -2.311  1.00  0.00    -0.376 OA
BRANCH  31  32
ATOM     32  C   UNL     1      -2.559  -3.064  -3.483  1.00  0.00     0.202 C 
BRANCH  32  33
ATOM     33  C   UNL     1      -1.667  -2.190  -4.383  1.00  0.00     0.261 C 
BRANCH  33  34
ATOM     34  O   UNL     1      -2.135  -0.879  -4.726  1.00  0.00    -0.460 OA
BRANCH  34  35
ATOM     35  C   UNL     1      -3.300  -0.779  -5.404  1.00  0.00     0.338 C 
ATOM     36  O   UNL     1      -3.986  -1.701  -5.801  1.00  0.00    -0.246 OA
BRANCH  35  37
ATOM     37  C   UNL     1      -3.706   0.648  -5.385  1.00  0.00     0.060 A 
ATOM     38  C   UNL     1      -4.888   1.021  -4.727  1.00  0.00     0.016 A 
ATOM     39  C   UNL     1      -2.916   1.618  -6.004  1.00  0.00     0.016 A 
ATOM     40  C   UNL     1      -5.293   2.356  -4.703  1.00  0.00     0.010 A 
ATOM     41  C   UNL     1      -3.342   2.951  -6.010  1.00  0.00     0.010 A 
ATOM     42  C   UNL     1      -4.546   3.323  -5.382  1.00  0.00    -0.014 A 
BRANCH  42  43
ATOM     43  C   UNL     1      -5.104   4.686  -5.577  1.00  0.00     0.031 A 
ATOM     44  C   UNL     1      -5.715   5.026  -6.905  1.00  0.00     0.074 A 
ATOM     45  C   UNL     1      -5.099   5.597  -4.587  1.00  0.00     0.049 A 
ATOM     46  N   UNL     1      -6.174   6.171  -7.333  1.00  0.00    -0.248 NA
ATOM     47  C   UNL     1      -5.835   3.924  -7.873  1.00  0.00     0.031 C 
ATOM     48  C   UNL     1      -4.646   5.344  -3.224  1.00  0.00     0.029 A 
ATOM     49  N   UNL     1      -5.474   6.918  -4.572  1.00  0.00    -0.354 N 
ATOM     50  C   UNL     1      -6.636   5.933  -8.621  1.00  0.00     0.074 A 
ATOM     51  C   UNL     1      -6.371   4.541  -8.916  1.00  0.00     0.031 C 
ATOM     52  C   UNL     1      -4.722   6.484  -2.517  1.00  0.00     0.029 A 
ATOM     53  C   UNL     1      -5.189   7.557  -3.386  1.00  0.00     0.049 A 
ATOM     54  H   UNL     1      -5.904   7.365  -5.336  1.00  0.00     0.167 HD
ATOM     55  C   UNL     1      -7.234   6.800  -9.473  1.00  0.00     0.034 A 
ATOM     56  C   UNL     1      -5.260   8.862  -3.050  1.00  0.00     0.034 A 
ATOM     57  C   UNL     1      -7.482   8.185  -9.160  1.00  0.00     0.049 A 
ATOM     58  C   UNL     1      -5.797   9.838  -4.070  1.00  0.00     0.074 A 
ATOM     59  C   UNL     1      -8.095   9.144  -9.947  1.00  0.00     0.029 A 
ATOM     60  N   UNL     1      -7.115   8.817  -7.979  1.00  0.00    -0.354 N 
ATOM     61  N   UNL     1      -6.237   9.599  -5.285  1.00  0.00    -0.248 NA
ATOM     62  C   UNL     1      -5.868  11.249  -3.672  1.00  0.00     0.031 C 
ATOM     63  C   UNL     1      -8.009  10.372  -9.287  1.00  0.00     0.029 A 
ATOM     64  C   UNL     1      -7.441  10.163  -8.040  1.00  0.00     0.049 A 
ATOM     65  H   UNL     1      -6.687   8.374  -7.211  1.00  0.00     0.167 HD
ATOM     66  C   UNL     1      -6.679  10.825  -5.775  1.00  0.00     0.074 A 
ATOM     67  C   UNL     1      -6.467  11.794  -4.720  1.00  0.00     0.031 C 
ATOM     68  C   UNL     1      -7.217  11.122  -6.985  1.00  0.00     0.034 A 
BRANCH  55  69
ATOM     69  C   UNL     1      -7.602   6.295 -10.844  1.00  0.00     0.023 A 
ATOM     70  C   UNL     1      -8.579   5.303 -11.036  1.00  0.00     0.031 A 
ATOM     71  C   UNL     1      -6.969   6.830 -11.980  1.00  0.00     0.131 A 
ATOM     72  C   UNL     1      -8.861   4.846 -12.332  1.00  0.00     0.055 A 
ATOM     73  C   UNL     1      -7.312   6.428 -13.271  1.00  0.00     0.041 A 
ATOM     74  F   UNL     1      -6.005   7.755 -11.852  1.00  0.00    -0.206 F 
ATOM     75  C   UNL     1      -8.257   5.423 -13.452  1.00  0.00     0.022 A 
BRANCH  72  76
ATOM     76  S   UNL     1      -9.935   3.398 -12.527  1.00  0.00     0.124 S 
ATOM     77  O   UNL     1      -9.210   2.388 -11.760  1.00  0.00    -0.237 OA
ATOM     78  O   UNL     1     -11.192   3.858 -11.948  1.00  0.00    -0.237 OA
ATOM     79  O   UNL     1      -9.955   3.179 -13.972  1.00  0.00    -0.744 OA
ENDBRANCH  72  76
ENDBRANCH  55  69
BRANCH  56  80
ATOM     80  C   UNL     1      -4.770   9.344  -1.724  1.00  0.00     0.023 A 
ATOM     81  C   UNL     1      -5.621  10.022  -0.838  1.00  0.00     0.031 A 
ATOM     82  C   UNL     1      -3.414   9.222  -1.364  1.00  0.00     0.131 A 
ATOM     83  C   UNL     1      -5.098  10.618   0.321  1.00  0.00     0.055 A 
ATOM     84  C   UNL     1      -2.912   9.755  -0.174  1.00  0.00     0.041 A 
ATOM     85  F   UNL     1      -2.549   8.587  -2.172  1.00  0.00    -0.206 F 
ATOM     86  C   UNL     1      -3.753  10.476   0.667  1.00  0.00     0.022 A 
BRANCH  83  87
ATOM     87  S   UNL     1      -6.177  11.703   1.294  1.00  0.00     0.124 S 
ATOM     88  O   UNL     1      -6.607  12.668   0.288  1.00  0.00    -0.237 OA
ATOM     89  O   UNL     1      -7.195  10.770   1.766  1.00  0.00    -0.237 OA
ATOM     90  O   UNL     1      -5.287  12.230   2.326  1.00  0.00    -0.744 OA
ENDBRANCH  83  87
ENDBRANCH  56  80
BRANCH  68  91
ATOM     91  C   UNL     1      -7.660  12.548  -7.213  1.00  0.00     0.023 A 
ATOM     92  C   UNL     1      -6.745  13.614  -7.221  1.00  0.00     0.031 A 
ATOM     93  C   UNL     1      -9.020  12.844  -7.413  1.00  0.00     0.131 A 
ATOM     94  C   UNL     1      -7.209  14.931  -7.358  1.00  0.00     0.055 A 
ATOM     95  C   UNL     1      -9.466  14.148  -7.630  1.00  0.00     0.041 A 
ATOM     96  F   UNL     1      -9.941  11.867  -7.407  1.00  0.00    -0.206 F 
ATOM     97  C   UNL     1      -8.560  15.203  -7.587  1.00  0.00     0.022 A 
BRANCH  94  98
ATOM     98  S   UNL     1      -6.037  16.292  -7.109  1.00  0.00     0.124 S 
ATOM     99  O   UNL     1      -5.556  16.032  -5.756  1.00  0.00    -0.237 OA
ATOM    100  O   UNL     1      -5.071  16.072  -8.181  1.00  0.00    -0.237 OA
ATOM    101  O   UNL     1      -6.864  17.488  -7.256  1.00  0.00    -0.744 OA
ENDBRANCH  94  98
ENDBRANCH  68  91
ENDBRANCH  42  43
ENDBRANCH  35  37
ENDBRANCH  34  35
ENDBRANCH  33  34
ENDBRANCH  32  33
ENDBRANCH  31  32
ENDBRANCH  30  31
ENDBRANCH  29  30
ENDBRANCH  28  29
ENDBRANCH   1  28
TORSDOF 29
