REMARK SMILES Cc1ccccc1/[NH+]=C1\S[C@@H](CC(=O)Nc2ccc(C(=O)OCCOCCOCCOCCOC(=O)c3ccc(-c4c5nc(c(-c6cc(S(=O)(=O)[O-])ccc6F)c6ccc([nH]6)c(-c6cc(S(=O)(=O)[O-])ccc6F)c6nc(c(-c7cc(S(=O)(=O)[O-])ccc7F)c7ccc4[nH]7)C=C6)C=C5)cc3)cc2)C(=O)N1C
REMARK SMILES IDX 27 1 26 2 25 3 24 4 23 5 22 6 20 7 21 8 19 9 16 10 17 11
REMARK SMILES IDX 101 12 18 13 100 14 15 15 13 16 14 17 12 19 11 20 8 21 9 22
REMARK SMILES IDX 10 24 104 25 102 26 105 27 103 28 7 29 1 30 2 31 3 32 4 33
REMARK SMILES IDX 6 34 5 35 28 36 29 37 30 38 31 39 32 40 33 41 34 42 35 43
REMARK SMILES IDX 36 44 37 45 38 46 99 47 39 48 98 49 40 50 41 51 42 52 92 53
REMARK SMILES IDX 43 54 97 55 91 56 93 57 44 58 96 59 90 60 89 61 45 63 77 64
REMARK SMILES IDX 57 65 76 66 58 67 61 68 75 69 94 70 59 71 60 72 74 74 95 75
REMARK SMILES IDX 62 76 46 77 47 78 55 79 48 80 54 81 56 82 53 83 49 84 50 85
REMARK SMILES IDX 51 86 52 87 78 88 79 89 87 90 80 91 86 92 88 93 85 94 81 95
REMARK SMILES IDX 82 96 83 97 84 98 63 99 64 100 72 101 65 102 71 103 73 104
REMARK SMILES IDX 70 105 66 106 67 107 68 108 69 109
REMARK H PARENT 15 18 8 23 93 62 61 73
REMARK Flexibility Score: inf
ROOT
ATOM      1  C   UNL     1       6.689   8.404  -0.605  1.00  0.00     0.188 C 
ENDROOT
BRANCH   1   2
ATOM      2  C   UNL     1       6.614   7.774  -2.021  1.00  0.00     0.188 C 
BRANCH   2   3
ATOM      3  O   UNL     1       6.230   6.403  -1.873  1.00  0.00    -0.376 OA
BRANCH   3   4
ATOM      4  C   UNL     1       5.327   5.901  -2.833  1.00  0.00     0.202 C 
BRANCH   4   5
ATOM      5  C   UNL     1       5.850   5.156  -3.980  1.00  0.00     0.261 C 
BRANCH   5   6
ATOM      6  O   UNL     1       6.685   4.119  -3.610  1.00  0.00    -0.460 OA
BRANCH   6   7
ATOM      7  C   UNL     1       7.900   4.575  -3.298  1.00  0.00     0.338 C 
ATOM      8  O   UNL     1       8.544   5.499  -3.807  1.00  0.00    -0.246 OA
BRANCH   7   9
ATOM      9  C   UNL     1       8.110   4.015  -1.982  1.00  0.00     0.060 A 
ATOM     10  C   UNL     1       8.149   3.285   0.637  1.00  0.00     0.041 A 
ATOM     11  C   UNL     1       7.005   3.264  -0.092  1.00  0.00     0.027 A 
ATOM     12  C   UNL     1       9.222   4.014   0.136  1.00  0.00     0.027 A 
ATOM     13  C   UNL     1       7.054   3.308  -1.431  1.00  0.00     0.018 A 
ATOM     14  C   UNL     1       9.157   4.464  -1.185  1.00  0.00     0.018 A 
BRANCH  10  15
ATOM     15  N   UNL     1       8.122   2.540   1.817  1.00  0.00    -0.326 N 
ATOM     16  C   UNL     1       7.271   1.477   2.113  1.00  0.00     0.226 C 
ATOM     17  O   UNL     1       7.269   1.032   3.267  1.00  0.00    -0.275 OA
ATOM     18  H   UNL     1       8.771   2.792   2.513  1.00  0.00     0.169 HD
BRANCH  16  19
ATOM     19  C   UNL     1       6.445   0.727   1.022  1.00  0.00     0.128 C 
BRANCH  19  20
ATOM     20  C   UNL     1       4.913   0.811   1.149  1.00  0.00     0.183 C 
ATOM     21  N   UNL     1       1.508   1.299  -0.108  1.00  0.00    -0.234 N 
ATOM     22  C   UNL     1       2.790   1.278  -0.158  1.00  0.00     0.319 C 
ATOM     23  H   UNL     1       1.135   2.208  -0.036  1.00  0.00     0.313 HD
ATOM     24  S   UNL     1       4.038   0.086  -0.330  1.00  0.00    -0.022 SA
ATOM     25  N   UNL     1       3.440   2.410   0.176  1.00  0.00    -0.193 N 
ATOM     26  C   UNL     1       4.316   2.217   1.208  1.00  0.00     0.324 C 
ATOM     27  C   UNL     1       3.490   3.518  -0.740  1.00  0.00     0.301 C 
ATOM     28  O   UNL     1       4.596   3.039   2.072  1.00  0.00    -0.245 OA
BRANCH  21  29
ATOM     29  C   UNL     1       0.533   0.301  -0.135  1.00  0.00     0.128 A 
ATOM     30  C   UNL     1       1.858  -1.656   0.871  1.00  0.00     0.049 C 
ATOM     31  C   UNL     1       0.634  -1.036   0.278  1.00  0.00    -0.004 A 
ATOM     32  C   UNL     1      -0.494  -1.878   0.200  1.00  0.00     0.008 A 
ATOM     33  C   UNL     1      -1.750  -1.380  -0.123  1.00  0.00     0.001 A 
ATOM     34  C   UNL     1      -0.761   0.787  -0.423  1.00  0.00     0.052 A 
ATOM     35  C   UNL     1      -1.893  -0.030  -0.397  1.00  0.00     0.004 A 
ENDBRANCH  21  29
ENDBRANCH  19  20
ENDBRANCH  16  19
ENDBRANCH  10  15
ENDBRANCH   7   9
ENDBRANCH   6   7
ENDBRANCH   5   6
ENDBRANCH   4   5
ENDBRANCH   3   4
ENDBRANCH   2   3
ENDBRANCH   1   2
BRANCH   1  36
ATOM     36  O   UNL     1       5.517   8.329   0.211  1.00  0.00    -0.377 OA
BRANCH  36  37
ATOM     37  C   UNL     1       4.505   9.332   0.383  1.00  0.00     0.188 C 
BRANCH  37  38
ATOM     38  C   UNL     1       4.149  10.370  -0.687  1.00  0.00     0.188 C 
BRANCH  38  39
ATOM     39  O   UNL     1       5.281  10.958  -1.303  1.00  0.00    -0.376 OA
BRANCH  39  40
ATOM     40  C   UNL     1       5.902  11.966  -0.523  1.00  0.00     0.202 C 
BRANCH  40  41
ATOM     41  C   UNL     1       5.000  13.187  -0.263  1.00  0.00     0.261 C 
BRANCH  41  42
ATOM     42  O   UNL     1       4.605  13.795  -1.513  1.00  0.00    -0.460 OA
BRANCH  42  43
ATOM     43  C   UNL     1       3.320  13.565  -1.913  1.00  0.00     0.338 C 
ATOM     44  O   UNL     1       2.323  13.852  -1.274  1.00  0.00    -0.246 OA
BRANCH  43  45
ATOM     45  C   UNL     1       3.324  12.737  -3.157  1.00  0.00     0.060 A 
ATOM     46  C   UNL     1       2.185  11.995  -3.486  1.00  0.00     0.016 A 
ATOM     47  C   UNL     1       4.554  12.401  -3.718  1.00  0.00     0.016 A 
ATOM     48  C   UNL     1       2.337  10.786  -4.171  1.00  0.00     0.010 A 
ATOM     49  C   UNL     1       4.717  11.117  -4.216  1.00  0.00     0.010 A 
ATOM     50  C   UNL     1       3.626  10.265  -4.402  1.00  0.00    -0.014 A 
BRANCH  50  51
ATOM     51  C   UNL     1       3.806   8.793  -4.605  1.00  0.00     0.031 A 
ATOM     52  C   UNL     1       4.936   8.213  -5.562  1.00  0.00     0.074 A 
ATOM     53  C   UNL     1       3.173   8.096  -3.620  1.00  0.00     0.049 A 
ATOM     54  N   UNL     1       5.217   6.992  -5.979  1.00  0.00    -0.248 NA
ATOM     55  C   UNL     1       5.825   9.169  -6.232  1.00  0.00     0.031 C 
ATOM     56  C   UNL     1       3.507   7.837  -2.213  1.00  0.00     0.029 A 
ATOM     57  N   UNL     1       1.923   7.513  -3.674  1.00  0.00    -0.354 N 
ATOM     58  C   UNL     1       6.453   7.000  -6.722  1.00  0.00     0.074 A 
ATOM     59  C   UNL     1       6.695   8.407  -6.891  1.00  0.00     0.031 C 
ATOM     60  C   UNL     1       2.780   6.837  -1.710  1.00  0.00     0.029 A 
ATOM     61  C   UNL     1       1.957   6.417  -2.803  1.00  0.00     0.049 A 
ATOM     62  H   UNL     1       1.157   7.810  -4.218  1.00  0.00     0.167 HD
ATOM     63  C   UNL     1       7.247   5.900  -7.082  1.00  0.00     0.034 A 
ATOM     64  C   UNL     1       1.040   5.473  -2.608  1.00  0.00     0.034 A 
ATOM     65  C   UNL     1       6.677   4.558  -6.728  1.00  0.00     0.049 A 
ATOM     66  C   UNL     1       1.490   4.324  -3.522  1.00  0.00     0.074 A 
ATOM     67  C   UNL     1       7.220   3.415  -6.137  1.00  0.00     0.029 A 
ATOM     68  N   UNL     1       5.299   4.276  -6.815  1.00  0.00    -0.354 N 
ATOM     69  N   UNL     1       2.646   4.240  -4.193  1.00  0.00    -0.248 NA
ATOM     70  C   UNL     1       0.729   3.089  -3.608  1.00  0.00     0.031 C 
ATOM     71  C   UNL     1       6.163   2.562  -5.706  1.00  0.00     0.029 A 
ATOM     72  C   UNL     1       4.951   3.163  -6.036  1.00  0.00     0.049 A 
ATOM     73  H   UNL     1       4.661   4.796  -7.355  1.00  0.00     0.167 HD
ATOM     74  C   UNL     1       2.688   3.040  -4.926  1.00  0.00     0.074 A 
ATOM     75  C   UNL     1       1.511   2.340  -4.402  1.00  0.00     0.031 C 
ATOM     76  C   UNL     1       3.588   2.631  -5.919  1.00  0.00     0.034 A 
BRANCH  63  77
ATOM     77  C   UNL     1       8.781   5.964  -7.625  1.00  0.00     0.023 A 
ATOM     78  C   UNL     1       9.621   4.806  -7.603  1.00  0.00     0.031 A 
ATOM     79  C   UNL     1       9.478   7.077  -8.155  1.00  0.00     0.131 A 
ATOM     80  C   UNL     1      11.001   4.796  -7.961  1.00  0.00     0.055 A 
ATOM     81  C   UNL     1      10.845   7.070  -8.543  1.00  0.00     0.041 A 
ATOM     82  F   UNL     1       8.892   8.245  -8.417  1.00  0.00    -0.206 F 
ATOM     83  C   UNL     1      11.621   5.933  -8.439  1.00  0.00     0.022 A 
BRANCH  80  84
ATOM     84  S   UNL     1      11.985   3.265  -7.786  1.00  0.00     0.124 S 
ATOM     85  O   UNL     1      12.010   3.075  -6.340  1.00  0.00    -0.237 OA
ATOM     86  O   UNL     1      11.207   2.298  -8.551  1.00  0.00    -0.237 OA
ATOM     87  O   UNL     1      13.277   3.616  -8.379  1.00  0.00    -0.744 OA
ENDBRANCH  80  84
ENDBRANCH  63  77
BRANCH  64  88
ATOM     88  C   UNL     1      -0.162   6.100  -1.898  1.00  0.00     0.023 A 
ATOM     89  C   UNL     1       0.047   6.486  -0.527  1.00  0.00     0.031 A 
ATOM     90  C   UNL     1      -0.892   7.034  -2.671  1.00  0.00     0.131 A 
ATOM     91  C   UNL     1      -0.137   7.836  -0.111  1.00  0.00     0.055 A 
ATOM     92  C   UNL     1      -1.080   8.369  -2.247  1.00  0.00     0.041 A 
ATOM     93  F   UNL     1      -1.136   6.774  -3.964  1.00  0.00    -0.206 F 
ATOM     94  C   UNL     1      -0.643   8.789  -0.993  1.00  0.00     0.022 A 
BRANCH  91  95
ATOM     95  S   UNL     1       0.592   8.462   1.460  1.00  0.00     0.124 S 
ATOM     96  O   UNL     1      -0.559   8.464   2.355  1.00  0.00    -0.237 OA
ATOM     97  O   UNL     1       1.631   7.483   1.754  1.00  0.00    -0.237 OA
ATOM     98  O   UNL     1       1.096   9.785   1.084  1.00  0.00    -0.744 OA
ENDBRANCH  91  95
ENDBRANCH  64  88
BRANCH  76  99
ATOM     99  C   UNL     1       3.330   1.513  -6.954  1.00  0.00     0.023 A 
ATOM    100  C   UNL     1       2.114   0.847  -7.073  1.00  0.00     0.031 A 
ATOM    101  C   UNL     1       4.286   1.170  -7.965  1.00  0.00     0.131 A 
ATOM    102  C   UNL     1       1.896  -0.122  -8.067  1.00  0.00     0.055 A 
ATOM    103  C   UNL     1       4.048   0.252  -8.989  1.00  0.00     0.041 A 
ATOM    104  F   UNL     1       5.494   1.742  -8.062  1.00  0.00    -0.206 F 
ATOM    105  C   UNL     1       2.841  -0.409  -9.044  1.00  0.00     0.022 A 
BRANCH 102 106
ATOM    106  S   UNL     1       0.329  -1.013  -8.015  1.00  0.00     0.124 S 
ATOM    107  O   UNL     1       0.433  -1.718  -6.741  1.00  0.00    -0.237 OA
ATOM    108  O   UNL     1      -0.645   0.073  -8.059  1.00  0.00    -0.237 OA
ATOM    109  O   UNL     1       0.376  -1.859  -9.204  1.00  0.00    -0.744 OA
ENDBRANCH 102 106
ENDBRANCH  76  99
ENDBRANCH  50  51
ENDBRANCH  43  45
ENDBRANCH  42  43
ENDBRANCH  41  42
ENDBRANCH  40  41
ENDBRANCH  39  40
ENDBRANCH  38  39
ENDBRANCH  37  38
ENDBRANCH  36  37
ENDBRANCH   1  36
TORSDOF 27
