REMARK SMILES O=C(OCCOCCOCCOCCOC(=O)[C@@H](Cc1c[nH]c2ccccc12)Nc1ncnc2ccccc12)c1ccc(-c2c3nc(c(-c4cc(S(=O)(=O)[O-])ccc4F)c4ccc([nH]4)c(-c4cc(S(=O)(=O)[O-])ccc4F)c4nc(c(-c5cc(S(=O)(=O)[O-])ccc5F)c5ccc2[nH]5)C=C4)C=C3)cc1
REMARK SMILES IDX 8 1 7 2 6 3 5 4 4 5 3 6 2 7 1 8 40 9 41 10 102 11 42 12
REMARK SMILES IDX 101 13 43 14 44 15 45 16 95 17 46 18 100 19 94 20 96 21
REMARK SMILES IDX 47 22 99 23 93 24 92 25 48 27 80 28 60 29 79 30 61 31 64 32
REMARK SMILES IDX 78 33 97 34 62 35 63 36 77 38 98 39 65 40 49 41 50 42 58 43
REMARK SMILES IDX 51 44 57 45 59 46 56 47 52 48 53 49 54 50 55 51 81 52 82 53
REMARK SMILES IDX 90 54 83 55 89 56 91 57 88 58 84 59 85 60 86 61 87 62 66 63
REMARK SMILES IDX 67 64 75 65 68 66 74 67 76 68 73 69 69 70 70 71 71 72 72 73
REMARK SMILES IDX 9 74 10 75 11 76 12 77 13 78 14 79 15 80 16 81 17 82 18 83
REMARK SMILES IDX 19 84 20 85 21 86 28 87 22 88 23 89 27 90 24 92 26 93 25 94
REMARK SMILES IDX 29 95 30 97 31 98 39 99 32 100 34 101 38 102 33 103 35 104
REMARK SMILES IDX 37 105 36 106
REMARK H PARENT 96 26 64 37 22 91 29 96
REMARK Flexibility Score: inf
ROOT
ATOM      1  C   UNL     1       2.939   2.708   0.547  1.00  0.00     0.188 C 
ENDROOT
BRANCH   1   2
ATOM      2  C   UNL     1       3.057   1.588  -0.471  1.00  0.00     0.188 C 
BRANCH   2   3
ATOM      3  O   UNL     1       4.244   0.888  -0.148  1.00  0.00    -0.376 OA
BRANCH   3   4
ATOM      4  C   UNL     1       4.790  -0.006  -1.085  1.00  0.00     0.202 C 
BRANCH   4   5
ATOM      5  C   UNL     1       3.923  -1.199  -1.500  1.00  0.00     0.261 C 
BRANCH   5   6
ATOM      6  O   UNL     1       2.535  -1.143  -1.103  1.00  0.00    -0.460 OA
BRANCH   6   7
ATOM      7  C   UNL     1       1.958  -1.825  -0.077  1.00  0.00     0.338 C 
ATOM      8  O   UNL     1       0.761  -2.092  -0.106  1.00  0.00    -0.246 OA
BRANCH   7   9
ATOM      9  C   UNL     1       2.755  -2.213   1.112  1.00  0.00     0.060 A 
ATOM     10  C   UNL     1       3.690  -1.353   1.667  1.00  0.00     0.016 A 
ATOM     11  C   UNL     1       2.495  -3.416   1.773  1.00  0.00     0.016 A 
ATOM     12  C   UNL     1       4.546  -1.760   2.671  1.00  0.00     0.010 A 
ATOM     13  C   UNL     1       3.254  -3.776   2.897  1.00  0.00     0.010 A 
ATOM     14  C   UNL     1       4.335  -2.978   3.307  1.00  0.00    -0.014 A 
BRANCH  14  15
ATOM     15  C   UNL     1       5.350  -3.429   4.289  1.00  0.00     0.031 A 
ATOM     16  C   UNL     1       6.153  -4.655   3.958  1.00  0.00     0.074 A 
ATOM     17  C   UNL     1       5.665  -2.658   5.351  1.00  0.00     0.049 A 
ATOM     18  N   UNL     1       7.027  -5.299   4.682  1.00  0.00    -0.248 NA
ATOM     19  C   UNL     1       5.939  -5.234   2.621  1.00  0.00     0.031 C 
ATOM     20  C   UNL     1       5.042  -1.369   5.674  1.00  0.00     0.029 A 
ATOM     21  N   UNL     1       6.620  -2.808   6.323  1.00  0.00    -0.354 N 
ATOM     22  C   UNL     1       7.437  -6.378   3.905  1.00  0.00     0.074 A 
ATOM     23  C   UNL     1       6.697  -6.316   2.666  1.00  0.00     0.031 C 
ATOM     24  C   UNL     1       5.673  -0.822   6.723  1.00  0.00     0.029 A 
ATOM     25  C   UNL     1       6.660  -1.767   7.226  1.00  0.00     0.049 A 
ATOM     26  H   UNL     1       7.221  -3.586   6.372  1.00  0.00     0.167 HD
ATOM     27  C   UNL     1       8.351  -7.331   4.207  1.00  0.00     0.034 A 
ATOM     28  C   UNL     1       7.376  -1.625   8.360  1.00  0.00     0.034 A 
ATOM     29  C   UNL     1       9.066  -7.349   5.457  1.00  0.00     0.049 A 
ATOM     30  C   UNL     1       8.307  -2.753   8.729  1.00  0.00     0.074 A 
ATOM     31  C   UNL     1       9.908  -8.318   5.968  1.00  0.00     0.029 A 
ATOM     32  N   UNL     1       9.022  -6.322   6.395  1.00  0.00    -0.354 N 
ATOM     33  N   UNL     1       8.575  -3.853   8.059  1.00  0.00    -0.248 NA
ATOM     34  C   UNL     1       9.016  -2.636  10.006  1.00  0.00     0.031 C 
ATOM     35  C   UNL     1      10.336  -7.896   7.234  1.00  0.00     0.029 A 
ATOM     36  C   UNL     1       9.815  -6.635   7.484  1.00  0.00     0.049 A 
ATOM     37  H   UNL     1       8.502  -5.492   6.298  1.00  0.00     0.167 HD
ATOM     38  C   UNL     1       9.487  -4.559   8.835  1.00  0.00     0.074 A 
ATOM     39  C   UNL     1       9.754  -3.736  10.000  1.00  0.00     0.031 C 
ATOM     40  C   UNL     1      10.043  -5.781   8.627  1.00  0.00     0.034 A 
BRANCH  27  41
ATOM     41  C   UNL     1       8.518  -8.448   3.206  1.00  0.00     0.023 A 
ATOM     42  C   UNL     1       9.023  -8.216   1.913  1.00  0.00     0.031 A 
ATOM     43  C   UNL     1       8.043  -9.736   3.506  1.00  0.00     0.131 A 
ATOM     44  C   UNL     1       8.953  -9.230   0.943  1.00  0.00     0.055 A 
ATOM     45  C   UNL     1       8.053 -10.764   2.560  1.00  0.00     0.041 A 
ATOM     46  F   UNL     1       7.517 -10.008   4.710  1.00  0.00    -0.206 F 
ATOM     47  C   UNL     1       8.493 -10.509   1.264  1.00  0.00     0.022 A 
BRANCH  44  48
ATOM     48  S   UNL     1       9.318  -8.801  -0.782  1.00  0.00     0.124 S 
ATOM     49  O   UNL     1       8.263  -7.817  -1.067  1.00  0.00    -0.237 OA
ATOM     50  O   UNL     1      10.665  -8.292  -0.714  1.00  0.00    -0.237 OA
ATOM     51  O   UNL     1       9.157 -10.081  -1.492  1.00  0.00    -0.744 OA
ENDBRANCH  44  48
ENDBRANCH  27  41
BRANCH  28  52
ATOM     52  C   UNL     1       7.168  -0.452   9.267  1.00  0.00     0.023 A 
ATOM     53  C   UNL     1       8.228   0.387   9.651  1.00  0.00     0.031 A 
ATOM     54  C   UNL     1       5.900  -0.191   9.826  1.00  0.00     0.131 A 
ATOM     55  C   UNL     1       8.012   1.407  10.596  1.00  0.00     0.055 A 
ATOM     56  C   UNL     1       5.677   0.866  10.711  1.00  0.00     0.041 A 
ATOM     57  F   UNL     1       4.846  -0.963   9.517  1.00  0.00    -0.206 F 
ATOM     58  C   UNL     1       6.741   1.662  11.114  1.00  0.00     0.022 A 
BRANCH  55  59
ATOM     59  S   UNL     1       9.443   2.324  11.236  1.00  0.00     0.124 S 
ATOM     60  O   UNL     1      10.312   1.243  11.688  1.00  0.00    -0.237 OA
ATOM     61  O   UNL     1       9.887   3.053  10.053  1.00  0.00    -0.237 OA
ATOM     62  O   UNL     1       8.871   3.149  12.297  1.00  0.00    -0.744 OA
ENDBRANCH  55  59
ENDBRANCH  28  52
BRANCH  40  63
ATOM     63  C   UNL     1      11.008  -6.259   9.677  1.00  0.00     0.023 A 
ATOM     64  C   UNL     1      10.574  -6.583  10.974  1.00  0.00     0.031 A 
ATOM     65  C   UNL     1      12.378  -6.365   9.383  1.00  0.00     0.131 A 
ATOM     66  C   UNL     1      11.514  -6.935  11.951  1.00  0.00     0.055 A 
ATOM     67  C   UNL     1      13.300  -6.777  10.344  1.00  0.00     0.041 A 
ATOM     68  F   UNL     1      12.839  -6.066   8.159  1.00  0.00    -0.206 F 
ATOM     69  C   UNL     1      12.871  -7.050  11.641  1.00  0.00     0.022 A 
BRANCH  66  70
ATOM     70  S   UNL     1      10.947  -7.138  13.661  1.00  0.00     0.124 S 
ATOM     71  O   UNL     1      10.352  -5.835  13.940  1.00  0.00    -0.237 OA
ATOM     72  O   UNL     1      10.013  -8.254  13.550  1.00  0.00    -0.237 OA
ATOM     73  O   UNL     1      12.176  -7.429  14.396  1.00  0.00    -0.744 OA
ENDBRANCH  66  70
ENDBRANCH  40  63
ENDBRANCH  14  15
ENDBRANCH   7   9
ENDBRANCH   6   7
ENDBRANCH   5   6
ENDBRANCH   4   5
ENDBRANCH   3   4
ENDBRANCH   2   3
ENDBRANCH   1   2
BRANCH   1  74
ATOM     74  O   UNL     1       3.998   3.656   0.408  1.00  0.00    -0.377 OA
BRANCH  74  75
ATOM     75  C   UNL     1       5.268   3.341   0.976  1.00  0.00     0.188 C 
BRANCH  75  76
ATOM     76  C   UNL     1       5.362   3.414   2.506  1.00  0.00     0.188 C 
BRANCH  76  77
ATOM     77  O   UNL     1       4.212   2.868   3.118  1.00  0.00    -0.376 OA
BRANCH  77  78
ATOM     78  C   UNL     1       3.380   3.750   3.856  1.00  0.00     0.202 C 
BRANCH  78  79
ATOM     79  C   UNL     1       3.030   5.177   3.361  1.00  0.00     0.261 C 
BRANCH  79  80
ATOM     80  O   UNL     1       3.206   5.481   1.958  1.00  0.00    -0.462 OA
BRANCH  80  81
ATOM     81  C   UNL     1       4.128   6.438   1.686  1.00  0.00     0.329 C 
ATOM     82  O   UNL     1       4.746   7.023   2.580  1.00  0.00    -0.250 OA
BRANCH  81  83
ATOM     83  C   UNL     1       4.453   6.769   0.196  1.00  0.00     0.195 C 
BRANCH  83  84
ATOM     84  C   UNL     1       3.805   6.154  -1.062  1.00  0.00     0.074 C 
BRANCH  84  85
ATOM     85  C   UNL     1       2.322   6.056  -1.200  1.00  0.00    -0.020 A 
ATOM     86  C   UNL     1       1.639   4.914  -1.578  1.00  0.00     0.087 A 
ATOM     87  C   UNL     1       1.346   7.098  -1.170  1.00  0.00     0.003 A 
ATOM     88  N   UNL     1       0.300   5.161  -1.510  1.00  0.00    -0.361 N 
ATOM     89  C   UNL     1       0.090   6.497  -1.278  1.00  0.00     0.046 A 
ATOM     90  C   UNL     1       1.405   8.501  -1.077  1.00  0.00     0.010 A 
ATOM     91  H   UNL     1      -0.408   4.485  -1.612  1.00  0.00     0.166 HD
ATOM     92  C   UNL     1      -1.106   7.214  -1.185  1.00  0.00     0.026 A 
ATOM     93  C   UNL     1       0.221   9.239  -1.007  1.00  0.00     0.001 A 
ATOM     94  C   UNL     1      -1.015   8.599  -1.036  1.00  0.00     0.002 A 
ENDBRANCH  84  85
ENDBRANCH  83  84
BRANCH  83  95
ATOM     95  N   UNL     1       4.447   8.244   0.045  1.00  0.00    -0.356 N 
ATOM     96  H   UNL     1       3.592   8.695  -0.138  1.00  0.00     0.163 HD
BRANCH  95  97
ATOM     97  C   UNL     1       5.590   9.010   0.150  1.00  0.00     0.137 A 
ATOM     98  N   UNL     1       5.429  10.023   1.016  1.00  0.00    -0.219 NA
ATOM     99  C   UNL     1       6.776   8.826  -0.590  1.00  0.00     0.043 A 
ATOM    100  C   UNL     1       6.481  10.819   1.209  1.00  0.00     0.224 A 
ATOM    101  C   UNL     1       7.786   9.762  -0.319  1.00  0.00     0.076 A 
ATOM    102  C   UNL     1       7.020   7.839  -1.585  1.00  0.00     0.014 A 
ATOM    103  N   UNL     1       7.654  10.745   0.575  1.00  0.00    -0.236 NA
ATOM    104  C   UNL     1       8.983   9.684  -1.021  1.00  0.00     0.029 A 
ATOM    105  C   UNL     1       8.232   7.773  -2.268  1.00  0.00     0.001 A 
ATOM    106  C   UNL     1       9.218   8.703  -1.987  1.00  0.00     0.002 A 
ENDBRANCH  95  97
ENDBRANCH  83  95
ENDBRANCH  81  83
ENDBRANCH  80  81
ENDBRANCH  79  80
ENDBRANCH  78  79
ENDBRANCH  77  78
ENDBRANCH  76  77
ENDBRANCH  75  76
ENDBRANCH  74  75
ENDBRANCH   1  74
TORSDOF 27
