REMARK SMILES O=C(CC1(NC(=O)c2ccncc2Cl)CCCCC1)OCCOCCOCCOCCOC(=O)c1ccc(-c2c3nc(c(-c4cc(S(=O)(=O)[O-])ccc4F)c4ccc([nH]4)c(-c4cc(S(=O)(=O)[O-])ccc4F)c4nc(c(-c5cc(S(=O)(=O)[O-])ccc5F)c5ccc2[nH]5)C=C4)C=C3)cc1
REMARK SMILES IDX 26 1 25 2 24 3 23 4 22 5 21 6 20 7 2 8 1 9 3 10 4 11 15 12
REMARK SMILES IDX 19 13 16 14 18 15 17 16 5 17 6 18 7 20 8 21 9 22 13 23 10 24
REMARK SMILES IDX 12 25 14 26 11 27 27 28 28 29 29 30 30 31 31 32 32 33 33 34
REMARK SMILES IDX 34 35 35 36 36 37 97 38 37 39 96 40 38 41 39 42 40 43 90 44
REMARK SMILES IDX 41 45 95 46 89 47 91 48 42 49 94 50 88 51 87 52 43 54 75 55
REMARK SMILES IDX 55 56 74 57 56 58 59 59 73 60 92 61 57 62 58 63 72 65 93 66
REMARK SMILES IDX 60 67 44 68 45 69 53 70 46 71 52 72 54 73 51 74 47 75 48 76
REMARK SMILES IDX 49 77 50 78 76 79 77 80 85 81 78 82 84 83 86 84 83 85 79 86
REMARK SMILES IDX 80 87 81 88 82 89 61 90 62 91 70 92 63 93 69 94 71 95 68 96
REMARK SMILES IDX 64 97 65 98 66 99 67 100
REMARK H PARENT 5 19 91 53 59 64
REMARK Flexibility Score: inf
ROOT
ATOM      1  O   UNL     1       3.472   2.102   1.933  1.00  0.00    -0.377 OA
ENDROOT
BRANCH   1   2
ATOM      2  C   UNL     1       2.852   1.056   2.642  1.00  0.00     0.188 C 
BRANCH   2   3
ATOM      3  C   UNL     1       3.770  -0.172   2.832  1.00  0.00     0.188 C 
BRANCH   3   4
ATOM      4  O   UNL     1       4.684  -0.599   1.809  1.00  0.00    -0.376 OA
BRANCH   4   5
ATOM      5  C   UNL     1       5.208   0.326   0.869  1.00  0.00     0.202 C 
BRANCH   5   6
ATOM      6  C   UNL     1       4.238   0.705  -0.246  1.00  0.00     0.261 C 
BRANCH   6   7
ATOM      7  O   UNL     1       2.900   0.184  -0.123  1.00  0.00    -0.463 OA
BRANCH   7   8
ATOM      8  C   UNL     1       2.466  -1.004   0.315  1.00  0.00     0.308 C 
ATOM      9  O   UNL     1       1.445  -1.086   1.006  1.00  0.00    -0.252 OA
BRANCH   8  10
ATOM     10  C   UNL     1       3.136  -2.264  -0.050  1.00  0.00     0.151 C 
BRANCH  10  11
ATOM     11  C   UNL     1       3.632  -2.536  -1.472  1.00  0.00     0.051 C 
ATOM     12  C   UNL     1       5.085  -1.989  -1.631  1.00  0.00     0.029 C 
ATOM     13  C   UNL     1       3.640  -4.112  -1.516  1.00  0.00     0.029 C 
ATOM     14  C   UNL     1       6.114  -2.795  -2.413  1.00  0.00     0.002 C 
ATOM     15  C   UNL     1       4.721  -4.803  -2.335  1.00  0.00     0.002 C 
ATOM     16  C   UNL     1       6.092  -4.248  -2.006  1.00  0.00     0.000 C 
BRANCH  11  17
ATOM     17  N   UNL     1       2.776  -2.029  -2.610  1.00  0.00    -0.346 N 
ATOM     18  C   UNL     1       1.800  -1.095  -2.930  1.00  0.00     0.253 C 
ATOM     19  H   UNL     1       2.986  -2.551  -3.418  1.00  0.00     0.164 HD
ATOM     20  O   UNL     1       1.604  -0.902  -4.133  1.00  0.00    -0.269 OA
BRANCH  18  21
ATOM     21  C   UNL     1       0.876  -0.379  -2.019  1.00  0.00     0.061 A 
ATOM     22  C   UNL     1      -0.171  -1.087  -1.419  1.00  0.00     0.035 A 
ATOM     23  C   UNL     1       0.924   1.014  -1.847  1.00  0.00     0.072 A 
ATOM     24  C   UNL     1      -1.047  -0.399  -0.584  1.00  0.00     0.112 A 
ATOM     25  C   UNL     1       0.028   1.597  -0.952  1.00  0.00     0.132 A 
ATOM     26  Cl  UNL     1       2.070   2.034  -2.636  1.00  0.00    -0.082 Cl
ATOM     27  N   UNL     1      -0.964   0.923  -0.321  1.00  0.00    -0.263 NA
ENDBRANCH  18  21
ENDBRANCH  11  17
ENDBRANCH  10  11
ENDBRANCH   8  10
ENDBRANCH   7   8
ENDBRANCH   6   7
ENDBRANCH   5   6
ENDBRANCH   4   5
ENDBRANCH   3   4
ENDBRANCH   2   3
ENDBRANCH   1   2
BRANCH   1  28
ATOM     28  C   UNL     1       4.228   3.025   2.679  1.00  0.00     0.188 C 
BRANCH  28  29
ATOM     29  C   UNL     1       5.191   2.474   3.741  1.00  0.00     0.188 C 
BRANCH  29  30
ATOM     30  O   UNL     1       4.709   1.766   4.861  1.00  0.00    -0.376 OA
BRANCH  30  31
ATOM     31  C   UNL     1       3.665   2.131   5.731  1.00  0.00     0.202 C 
BRANCH  31  32
ATOM     32  C   UNL     1       2.963   3.491   5.839  1.00  0.00     0.261 C 
BRANCH  32  33
ATOM     33  O   UNL     1       3.369   4.568   5.009  1.00  0.00    -0.460 OA
BRANCH  33  34
ATOM     34  C   UNL     1       4.598   5.091   5.197  1.00  0.00     0.338 C 
ATOM     35  O   UNL     1       5.411   4.755   6.043  1.00  0.00    -0.246 OA
BRANCH  34  36
ATOM     36  C   UNL     1       4.856   5.968   4.030  1.00  0.00     0.060 A 
ATOM     37  C   UNL     1       6.037   5.814   3.287  1.00  0.00     0.016 A 
ATOM     38  C   UNL     1       3.891   6.899   3.638  1.00  0.00     0.016 A 
ATOM     39  C   UNL     1       6.280   6.623   2.178  1.00  0.00     0.010 A 
ATOM     40  C   UNL     1       4.153   7.742   2.562  1.00  0.00     0.010 A 
ATOM     41  C   UNL     1       5.372   7.640   1.868  1.00  0.00    -0.014 A 
BRANCH  41  42
ATOM     42  C   UNL     1       5.830   8.821   1.107  1.00  0.00     0.031 A 
ATOM     43  C   UNL     1       6.370   9.967   1.917  1.00  0.00     0.074 A 
ATOM     44  C   UNL     1       5.718   8.902  -0.227  1.00  0.00     0.049 A 
ATOM     45  N   UNL     1       6.633  11.194   1.560  1.00  0.00    -0.248 NA
ATOM     46  C   UNL     1       6.614   9.686   3.342  1.00  0.00     0.031 C 
ATOM     47  C   UNL     1       5.268   7.826  -1.106  1.00  0.00     0.029 A 
ATOM     48  N   UNL     1       5.945   9.961  -1.067  1.00  0.00    -0.354 N 
ATOM     49  C   UNL     1       7.046  11.838   2.722  1.00  0.00     0.074 A 
ATOM     50  C   UNL     1       6.965  10.876   3.796  1.00  0.00     0.031 C 
ATOM     51  C   UNL     1       5.216   8.294  -2.366  1.00  0.00     0.029 A 
ATOM     52  C   UNL     1       5.574   9.713  -2.366  1.00  0.00     0.049 A 
ATOM     53  H   UNL     1       6.335  10.814  -0.769  1.00  0.00     0.167 HD
ATOM     54  C   UNL     1       7.451  13.121   2.875  1.00  0.00     0.034 A 
ATOM     55  C   UNL     1       5.485  10.555  -3.415  1.00  0.00     0.034 A 
ATOM     56  C   UNL     1       7.489  14.062   1.786  1.00  0.00     0.049 A 
ATOM     57  C   UNL     1       5.851  12.008  -3.214  1.00  0.00     0.074 A 
ATOM     58  C   UNL     1       7.883  15.387   1.803  1.00  0.00     0.029 A 
ATOM     59  N   UNL     1       7.097  13.778   0.482  1.00  0.00    -0.354 N 
ATOM     60  N   UNL     1       6.233  12.622  -2.116  1.00  0.00    -0.248 NA
ATOM     61  C   UNL     1       5.776  12.881  -4.393  1.00  0.00     0.031 C 
ATOM     62  C   UNL     1       7.649  15.925   0.534  1.00  0.00     0.029 A 
ATOM     63  C   UNL     1       7.207  14.912  -0.305  1.00  0.00     0.049 A 
ATOM     64  H   UNL     1       6.787  12.900   0.165  1.00  0.00     0.167 HD
ATOM     65  C   UNL     1       6.483  13.943  -2.482  1.00  0.00     0.074 A 
ATOM     66  C   UNL     1       6.202  14.036  -3.901  1.00  0.00     0.031 C 
ATOM     67  C   UNL     1       6.921  14.980  -1.721  1.00  0.00     0.034 A 
BRANCH  54  68
ATOM     68  C   UNL     1       7.793  13.572   4.275  1.00  0.00     0.023 A 
ATOM     69  C   UNL     1       8.819  12.965   5.021  1.00  0.00     0.031 A 
ATOM     70  C   UNL     1       7.023  14.564   4.907  1.00  0.00     0.131 A 
ATOM     71  C   UNL     1       8.979  13.280   6.379  1.00  0.00     0.055 A 
ATOM     72  C   UNL     1       7.255  14.946   6.230  1.00  0.00     0.041 A 
ATOM     73  F   UNL     1       6.008  15.159   4.260  1.00  0.00    -0.206 F 
ATOM     74  C   UNL     1       8.223  14.287   6.981  1.00  0.00     0.022 A 
BRANCH  71  75
ATOM     75  S   UNL     1      10.049  12.219   7.391  1.00  0.00     0.124 S 
ATOM     76  O   UNL     1       9.447  10.905   7.178  1.00  0.00    -0.237 OA
ATOM     77  O   UNL     1      11.360  12.427   6.789  1.00  0.00    -0.237 OA
ATOM     78  O   UNL     1       9.887  12.758   8.741  1.00  0.00    -0.744 OA
ENDBRANCH  71  75
ENDBRANCH  54  68
BRANCH  55  79
ATOM     79  C   UNL     1       4.986  10.059  -4.729  1.00  0.00     0.023 A 
ATOM     80  C   UNL     1       5.821  10.024  -5.856  1.00  0.00     0.031 A 
ATOM     81  C   UNL     1       3.658   9.618  -4.876  1.00  0.00     0.131 A 
ATOM     82  C   UNL     1       5.312   9.583  -7.088  1.00  0.00     0.055 A 
ATOM     83  C   UNL     1       3.171   9.134  -6.091  1.00  0.00     0.041 A 
ATOM     84  F   UNL     1       2.818   9.633  -3.829  1.00  0.00    -0.206 F 
ATOM     85  C   UNL     1       3.999   9.122  -7.210  1.00  0.00     0.022 A 
BRANCH  82  86
ATOM     86  S   UNL     1       6.380   9.675  -8.551  1.00  0.00     0.124 S 
ATOM     87  O   UNL     1       6.661  11.104  -8.623  1.00  0.00    -0.237 OA
ATOM     88  O   UNL     1       7.498   8.820  -8.165  1.00  0.00    -0.237 OA
ATOM     89  O   UNL     1       5.538   9.148  -9.622  1.00  0.00    -0.744 OA
ENDBRANCH  82  86
ENDBRANCH  55  79
BRANCH  67  90
ATOM     90  C   UNL     1       7.202  16.288  -2.420  1.00  0.00     0.023 A 
ATOM     91  C   UNL     1       6.183  17.081  -2.972  1.00  0.00     0.031 A 
ATOM     92  C   UNL     1       8.525  16.763  -2.495  1.00  0.00     0.131 A 
ATOM     93  C   UNL     1       6.508  18.289  -3.608  1.00  0.00     0.055 A 
ATOM     94  C   UNL     1       8.835  17.994  -3.074  1.00  0.00     0.041 A 
ATOM     95  F   UNL     1       9.539  16.044  -1.986  1.00  0.00    -0.206 F 
ATOM     96  C   UNL     1       7.824  18.760  -3.643  1.00  0.00     0.022 A 
BRANCH  93  97
ATOM     97  S   UNL     1       5.198  19.209  -4.462  1.00  0.00     0.124 S 
ATOM     98  O   UNL     1       4.726  18.230  -5.436  1.00  0.00    -0.237 OA
ATOM     99  O   UNL     1       4.276  19.522  -3.375  1.00  0.00    -0.237 OA
ATOM    100  O   UNL     1       5.899  20.359  -5.029  1.00  0.00    -0.744 OA
ENDBRANCH  93  97
ENDBRANCH  67  90
ENDBRANCH  41  42
ENDBRANCH  34  36
ENDBRANCH  33  34
ENDBRANCH  32  33
ENDBRANCH  31  32
ENDBRANCH  30  31
ENDBRANCH  29  30
ENDBRANCH  28  29
ENDBRANCH   1  28
TORSDOF 26
