REMARK SMILES O=C(OCCOCCOCCOCCOC(=O)c1ccccc1/N=C/c1coc2ccccc2c1=O)c1ccc(-c2c3nc(c(-c4cc(S(=O)(=O)[O-])ccc4F)c4ccc([nH]4)c(-c4cc(S(=O)(=O)[O-])ccc4F)c4nc(c(-c5cc(S(=O)(=O)[O-])ccc5F)c5ccc2[nH]5)C=C4)C=C3)cc1
REMARK SMILES IDX 8 1 7 2 6 3 5 4 4 5 3 6 2 7 1 8 37 9 38 10 99 11 39 12 98 13
REMARK SMILES IDX 40 14 41 15 42 16 92 17 43 18 97 19 91 20 93 21 44 22 96 23
REMARK SMILES IDX 90 24 89 25 45 27 77 28 57 29 76 30 58 31 61 32 75 33 94 34
REMARK SMILES IDX 59 35 60 36 74 38 95 39 62 40 46 41 47 42 55 43 48 44 54 45
REMARK SMILES IDX 56 46 53 47 49 48 50 49 51 50 52 51 78 52 79 53 87 54 80 55
REMARK SMILES IDX 86 56 88 57 85 58 81 59 82 60 83 61 84 62 63 63 64 64 72 65
REMARK SMILES IDX 65 66 71 67 73 68 70 69 66 70 67 71 68 72 69 73 9 74 10 75
REMARK SMILES IDX 11 76 12 77 13 78 14 79 15 80 16 81 17 82 18 83 19 84 23 85
REMARK SMILES IDX 20 86 22 87 21 88 24 89 25 90 26 91 27 92 35 93 28 94 34 95
REMARK SMILES IDX 36 96 29 97 33 98 30 99 32 100 31 101
REMARK H PARENT 93 26 61 37
REMARK Flexibility Score: inf
ROOT
ATOM      1  C   UNL     1       1.876   1.906   1.958  1.00  0.00     0.188 C 
ENDROOT
BRANCH   1   2
ATOM      2  C   UNL     1       2.223   1.355   0.575  1.00  0.00     0.188 C 
BRANCH   2   3
ATOM      3  O   UNL     1       3.584   0.953   0.493  1.00  0.00    -0.376 OA
BRANCH   3   4
ATOM      4  C   UNL     1       4.293   1.325  -0.683  1.00  0.00     0.202 C 
BRANCH   4   5
ATOM      5  C   UNL     1       4.018   0.425  -1.890  1.00  0.00     0.261 C 
BRANCH   5   6
ATOM      6  O   UNL     1       2.660  -0.036  -1.930  1.00  0.00    -0.460 OA
BRANCH   6   7
ATOM      7  C   UNL     1       2.165  -1.198  -1.432  1.00  0.00     0.338 C 
ATOM      8  O   UNL     1       0.979  -1.454  -1.644  1.00  0.00    -0.246 OA
BRANCH   7   9
ATOM      9  C   UNL     1       2.957  -2.188  -0.630  1.00  0.00     0.060 A 
ATOM     10  C   UNL     1       4.098  -1.902   0.121  1.00  0.00     0.016 A 
ATOM     11  C   UNL     1       2.458  -3.501  -0.571  1.00  0.00     0.016 A 
ATOM     12  C   UNL     1       4.756  -2.872   0.862  1.00  0.00     0.010 A 
ATOM     13  C   UNL     1       3.107  -4.489   0.181  1.00  0.00     0.010 A 
ATOM     14  C   UNL     1       4.277  -4.175   0.879  1.00  0.00    -0.014 A 
BRANCH  14  15
ATOM     15  C   UNL     1       5.155  -5.207   1.458  1.00  0.00     0.031 A 
ATOM     16  C   UNL     1       5.947  -6.051   0.503  1.00  0.00     0.074 A 
ATOM     17  C   UNL     1       5.365  -5.249   2.787  1.00  0.00     0.049 A 
ATOM     18  N   UNL     1       6.752  -7.047   0.744  1.00  0.00    -0.248 NA
ATOM     19  C   UNL     1       5.824  -5.707  -0.925  1.00  0.00     0.031 C 
ATOM     20  C   UNL     1       4.759  -4.340   3.764  1.00  0.00     0.029 A 
ATOM     21  N   UNL     1       6.168  -6.060   3.542  1.00  0.00    -0.354 N 
ATOM     22  C   UNL     1       7.215  -7.463  -0.500  1.00  0.00     0.074 A 
ATOM     23  C   UNL     1       6.589  -6.623  -1.494  1.00  0.00     0.031 C 
ATOM     24  C   UNL     1       5.224  -4.640   4.989  1.00  0.00     0.029 A 
ATOM     25  C   UNL     1       6.093  -5.808   4.893  1.00  0.00     0.049 A 
ATOM     26  H   UNL     1       6.745  -6.758   3.155  1.00  0.00     0.167 HD
ATOM     27  C   UNL     1       8.084  -8.462  -0.775  1.00  0.00     0.034 A 
ATOM     28  C   UNL     1       6.633  -6.484   5.926  1.00  0.00     0.034 A 
ATOM     29  C   UNL     1       8.668  -9.283   0.254  1.00  0.00     0.049 A 
ATOM     30  C   UNL     1       7.482  -7.690   5.591  1.00  0.00     0.074 A 
ATOM     31  C   UNL     1       9.478 -10.395   0.124  1.00  0.00     0.029 A 
ATOM     32  N   UNL     1       8.493  -9.071   1.618  1.00  0.00    -0.354 N 
ATOM     33  N   UNL     1       7.837  -8.149   4.409  1.00  0.00    -0.248 NA
ATOM     34  C   UNL     1       7.995  -8.473   6.719  1.00  0.00     0.031 C 
ATOM     35  C   UNL     1       9.738 -10.890   1.407  1.00  0.00     0.029 A 
ATOM     36  C   UNL     1       9.159 -10.043   2.341  1.00  0.00     0.049 A 
ATOM     37  H   UNL     1       7.971  -8.335   2.011  1.00  0.00     0.167 HD
ATOM     38  C   UNL     1       8.632  -9.262   4.655  1.00  0.00     0.074 A 
ATOM     39  C   UNL     1       8.731  -9.382   6.098  1.00  0.00     0.031 C 
ATOM     40  C   UNL     1       9.224 -10.120   3.782  1.00  0.00     0.034 A 
BRANCH  27  41
ATOM     41  C   UNL     1       8.345  -8.761  -2.229  1.00  0.00     0.023 A 
ATOM     42  C   UNL     1       8.993  -7.843  -3.075  1.00  0.00     0.031 A 
ATOM     43  C   UNL     1       7.854  -9.949  -2.800  1.00  0.00     0.131 A 
ATOM     44  C   UNL     1       9.066  -8.094  -4.455  1.00  0.00     0.055 A 
ATOM     45  C   UNL     1       7.999 -10.228  -4.160  1.00  0.00     0.041 A 
ATOM     46  F   UNL     1       7.195 -10.845  -2.049  1.00  0.00    -0.206 F 
ATOM     47  C   UNL     1       8.595  -9.291  -4.999  1.00  0.00     0.022 A 
BRANCH  44  48
ATOM     48  S   UNL     1       9.652  -6.772  -5.553  1.00  0.00     0.124 S 
ATOM     49  O   UNL     1       8.650  -5.733  -5.324  1.00  0.00    -0.237 OA
ATOM     50  O   UNL     1      10.986  -6.496  -5.034  1.00  0.00    -0.237 OA
ATOM     51  O   UNL     1       9.613  -7.384  -6.879  1.00  0.00    -0.744 OA
ENDBRANCH  44  48
ENDBRANCH  27  41
BRANCH  28  52
ATOM     52  C   UNL     1       6.326  -6.120   7.343  1.00  0.00     0.023 A 
ATOM     53  C   UNL     1       7.344  -5.844   8.270  1.00  0.00     0.031 A 
ATOM     54  C   UNL     1       5.000  -6.135   7.821  1.00  0.00     0.131 A 
ATOM     55  C   UNL     1       7.030  -5.658   9.628  1.00  0.00     0.055 A 
ATOM     56  C   UNL     1       4.687  -5.880   9.158  1.00  0.00     0.041 A 
ATOM     57  F   UNL     1       3.979  -6.407   6.992  1.00  0.00    -0.206 F 
ATOM     58  C   UNL     1       5.707  -5.659  10.075  1.00  0.00     0.022 A 
BRANCH  55  59
ATOM     59  S   UNL     1       8.386  -5.549  10.830  1.00  0.00     0.124 S 
ATOM     60  O   UNL     1       9.132  -6.770  10.547  1.00  0.00    -0.237 OA
ATOM     61  O   UNL     1       9.032  -4.299  10.445  1.00  0.00    -0.237 OA
ATOM     62  O   UNL     1       7.697  -5.522  12.119  1.00  0.00    -0.744 OA
ENDBRANCH  55  59
ENDBRANCH  28  52
BRANCH  40  63
ATOM     63  C   UNL     1      10.054 -11.223   4.385  1.00  0.00     0.023 A 
ATOM     64  C   UNL     1       9.470 -12.246   5.150  1.00  0.00     0.031 A 
ATOM     65  C   UNL     1      11.447 -11.238   4.201  1.00  0.00     0.131 A 
ATOM     66  C   UNL     1      10.286 -13.205   5.764  1.00  0.00     0.055 A 
ATOM     67  C   UNL     1      12.246 -12.238   4.754  1.00  0.00     0.041 A 
ATOM     68  F   UNL     1      12.053 -10.282   3.478  1.00  0.00    -0.206 F 
ATOM     69  C   UNL     1      11.668 -13.219   5.555  1.00  0.00     0.022 A 
BRANCH  66  70
ATOM     70  S   UNL     1       9.528 -14.365   6.931  1.00  0.00     0.124 S 
ATOM     71  O   UNL     1       8.935 -13.462   7.913  1.00  0.00    -0.237 OA
ATOM     72  O   UNL     1       8.588 -15.091   6.084  1.00  0.00    -0.237 OA
ATOM     73  O   UNL     1      10.660 -15.151   7.416  1.00  0.00    -0.744 OA
ENDBRANCH  66  70
ENDBRANCH  40  63
ENDBRANCH  14  15
ENDBRANCH   7   9
ENDBRANCH   6   7
ENDBRANCH   5   6
ENDBRANCH   4   5
ENDBRANCH   3   4
ENDBRANCH   2   3
ENDBRANCH   1   2
BRANCH   1  74
ATOM     74  O   UNL     1       2.687   2.978   2.423  1.00  0.00    -0.377 OA
BRANCH  74  75
ATOM     75  C   UNL     1       4.100   2.800   2.425  1.00  0.00     0.188 C 
BRANCH  75  76
ATOM     76  C   UNL     1       4.756   1.488   2.939  1.00  0.00     0.188 C 
BRANCH  76  77
ATOM     77  O   UNL     1       3.874   0.510   3.472  1.00  0.00    -0.376 OA
BRANCH  77  78
ATOM     78  C   UNL     1       3.905   0.381   4.892  1.00  0.00     0.202 C 
BRANCH  78  79
ATOM     79  C   UNL     1       3.311   1.586   5.613  1.00  0.00     0.261 C 
BRANCH  79  80
ATOM     80  O   UNL     1       4.014   2.815   5.354  1.00  0.00    -0.460 OA
BRANCH  80  81
ATOM     81  C   UNL     1       5.269   2.963   5.832  1.00  0.00     0.340 C 
ATOM     82  O   UNL     1       5.923   2.152   6.458  1.00  0.00    -0.246 OA
BRANCH  81  83
ATOM     83  C   UNL     1       5.760   4.282   5.398  1.00  0.00     0.085 A 
ATOM     84  C   UNL     1       6.761   4.297   4.406  1.00  0.00     0.018 A 
ATOM     85  C   UNL     1       5.155   5.475   5.824  1.00  0.00     0.077 A 
ATOM     86  C   UNL     1       7.136   5.495   3.799  1.00  0.00     0.001 A 
ATOM     87  C   UNL     1       5.627   6.675   5.262  1.00  0.00     0.029 A 
ATOM     88  C   UNL     1       6.584   6.690   4.244  1.00  0.00     0.002 A 
BRANCH  85  89
ATOM     89  N   UNL     1       3.910   5.598   6.451  1.00  0.00    -0.255 NA
ATOM     90  C   UNL     1       3.326   4.727   7.202  1.00  0.00     0.127 C 
BRANCH  90  91
ATOM     91  C   UNL     1       1.816   4.645   7.215  1.00  0.00     0.076 A 
ATOM     92  C   UNL     1       1.216   5.592   7.963  1.00  0.00     0.209 A 
ATOM     93  C   UNL     1       1.209   4.804   5.838  1.00  0.00     0.201 A 
ATOM     94  O   UNL     1       1.202   6.949   7.570  1.00  0.00    -0.463 OA
ATOM     95  C   UNL     1       1.424   6.162   5.284  1.00  0.00     0.065 A 
ATOM     96  O   UNL     1       0.605   3.914   5.260  1.00  0.00    -0.288 OA
ATOM     97  C   UNL     1       1.486   7.191   6.236  1.00  0.00     0.137 A 
ATOM     98  C   UNL     1       1.841   6.366   3.970  1.00  0.00     0.016 A 
ATOM     99  C   UNL     1       1.965   8.444   5.880  1.00  0.00     0.048 A 
ATOM    100  C   UNL     1       2.357   7.618   3.625  1.00  0.00     0.001 A 
ATOM    101  C   UNL     1       2.421   8.649   4.575  1.00  0.00     0.004 A 
ENDBRANCH  90  91
ENDBRANCH  85  89
ENDBRANCH  81  83
ENDBRANCH  80  81
ENDBRANCH  79  80
ENDBRANCH  78  79
ENDBRANCH  77  78
ENDBRANCH  76  77
ENDBRANCH  75  76
ENDBRANCH  74  75
ENDBRANCH   1  74
TORSDOF 25
