REMARK SMILES O=C(OCCOCCOCCOCCOC(=O)c1ccc(N2C(=O)/C(=C/C3=c4ccccc4=NC3)SC2=S)cc1O)c1ccc(-c2c3nc(c(-c4cc(S(=O)(=O)[O-])ccc4F)c4ccc([nH]4)c(-c4cc(S(=O)(=O)[O-])ccc4F)c4nc(c(-c5cc(S(=O)(=O)[O-])ccc5F)c5ccc2[nH]5)C=C4)C=C3)cc1
REMARK SMILES IDX 8 1 7 2 6 3 5 4 4 5 3 6 2 7 1 8 42 9 43 10 104 11 44 12
REMARK SMILES IDX 103 13 45 14 46 15 47 16 97 17 48 18 102 19 96 20 98 21
REMARK SMILES IDX 49 22 101 23 95 24 94 25 50 27 82 28 62 29 81 30 63 31 66 32
REMARK SMILES IDX 80 33 99 34 64 35 65 36 79 38 100 39 67 40 51 41 52 42 60 43
REMARK SMILES IDX 53 44 59 45 61 46 58 47 54 48 55 49 56 50 57 51 83 52 84 53
REMARK SMILES IDX 92 54 85 55 91 56 93 57 90 58 86 59 87 60 88 61 89 62 68 63
REMARK SMILES IDX 69 64 77 65 70 66 76 67 78 68 75 69 71 70 72 71 73 72 74 73
REMARK SMILES IDX 9 74 10 75 11 76 12 77 13 78 14 79 15 80 16 81 17 82 18 83
REMARK SMILES IDX 19 84 40 85 20 86 39 87 21 88 41 89 22 91 23 92 37 93 24 94
REMARK SMILES IDX 25 95 36 96 38 97 26 98 27 99 28 100 35 101 29 102 33 103
REMARK SMILES IDX 34 104 30 105 32 106 31 107
REMARK H PARENT 98 26 66 37 41 90
REMARK Flexibility Score: inf
ROOT
ATOM      1  C   UNL     1       2.324   2.035   1.097  1.00  0.00     0.188 C 
ENDROOT
BRANCH   1   2
ATOM      2  C   UNL     1       2.853   0.662   1.486  1.00  0.00     0.188 C 
BRANCH   2   3
ATOM      3  O   UNL     1       4.224   0.363   1.271  1.00  0.00    -0.376 OA
BRANCH   3   4
ATOM      4  C   UNL     1       4.858   0.595   0.023  1.00  0.00     0.202 C 
BRANCH   4   5
ATOM      5  C   UNL     1       4.218   0.133  -1.290  1.00  0.00     0.261 C 
BRANCH   5   6
ATOM      6  O   UNL     1       2.902  -0.440  -1.249  1.00  0.00    -0.460 OA
BRANCH   6   7
ATOM      7  C   UNL     1       2.646  -1.755  -1.003  1.00  0.00     0.338 C 
ATOM      8  O   UNL     1       1.710  -2.330  -1.546  1.00  0.00    -0.246 OA
BRANCH   7   9
ATOM      9  C   UNL     1       3.273  -2.325   0.214  1.00  0.00     0.060 A 
ATOM     10  C   UNL     1       2.418  -2.722   1.256  1.00  0.00     0.016 A 
ATOM     11  C   UNL     1       4.653  -2.354   0.397  1.00  0.00     0.016 A 
ATOM     12  C   UNL     1       2.943  -3.054   2.507  1.00  0.00     0.010 A 
ATOM     13  C   UNL     1       5.173  -2.585   1.669  1.00  0.00     0.010 A 
ATOM     14  C   UNL     1       4.326  -2.968   2.724  1.00  0.00    -0.014 A 
BRANCH  14  15
ATOM     15  C   UNL     1       4.948  -3.666   3.868  1.00  0.00     0.031 A 
ATOM     16  C   UNL     1       5.246  -3.032   5.187  1.00  0.00     0.074 A 
ATOM     17  C   UNL     1       5.337  -4.926   3.595  1.00  0.00     0.049 A 
ATOM     18  N   UNL     1       5.725  -3.602   6.263  1.00  0.00    -0.248 NA
ATOM     19  C   UNL     1       4.992  -1.592   5.329  1.00  0.00     0.031 C 
ATOM     20  C   UNL     1       5.144  -5.583   2.297  1.00  0.00     0.029 A 
ATOM     21  N   UNL     1       6.013  -5.848   4.339  1.00  0.00    -0.354 N 
ATOM     22  C   UNL     1       5.787  -2.610   7.234  1.00  0.00     0.074 A 
ATOM     23  C   UNL     1       5.356  -1.382   6.593  1.00  0.00     0.031 C 
ATOM     24  C   UNL     1       5.751  -6.771   2.312  1.00  0.00     0.029 A 
ATOM     25  C   UNL     1       6.331  -6.980   3.630  1.00  0.00     0.049 A 
ATOM     26  H   UNL     1       6.249  -5.716   5.285  1.00  0.00     0.167 HD
ATOM     27  C   UNL     1       6.152  -2.743   8.536  1.00  0.00     0.034 A 
ATOM     28  C   UNL     1       6.996  -8.087   3.999  1.00  0.00     0.034 A 
ATOM     29  C   UNL     1       6.637  -3.989   9.099  1.00  0.00     0.049 A 
ATOM     30  C   UNL     1       7.359  -8.225   5.443  1.00  0.00     0.074 A 
ATOM     31  C   UNL     1       6.960  -4.269  10.416  1.00  0.00     0.029 A 
ATOM     32  N   UNL     1       6.893  -5.153   8.380  1.00  0.00    -0.354 N 
ATOM     33  N   UNL     1       7.240  -7.339   6.405  1.00  0.00    -0.248 NA
ATOM     34  C   UNL     1       7.881  -9.523   5.872  1.00  0.00     0.031 C 
ATOM     35  C   UNL     1       7.485  -5.564  10.477  1.00  0.00     0.029 A 
ATOM     36  C   UNL     1       7.410  -6.134   9.216  1.00  0.00     0.049 A 
ATOM     37  H   UNL     1       6.731  -5.264   7.415  1.00  0.00     0.167 HD
ATOM     38  C   UNL     1       7.667  -7.975   7.562  1.00  0.00     0.074 A 
ATOM     39  C   UNL     1       7.996  -9.337   7.180  1.00  0.00     0.031 C 
ATOM     40  C   UNL     1       7.784  -7.475   8.819  1.00  0.00     0.034 A 
BRANCH  27  41
ATOM     41  C   UNL     1       6.005  -1.559   9.473  1.00  0.00     0.023 A 
ATOM     42  C   UNL     1       7.103  -1.083  10.219  1.00  0.00     0.031 A 
ATOM     43  C   UNL     1       4.736  -1.022   9.764  1.00  0.00     0.131 A 
ATOM     44  C   UNL     1       6.904  -0.142  11.242  1.00  0.00     0.055 A 
ATOM     45  C   UNL     1       4.550  -0.050  10.751  1.00  0.00     0.041 A 
ATOM     46  F   UNL     1       3.646  -1.447   9.104  1.00  0.00    -0.206 F 
ATOM     47  C   UNL     1       5.635   0.382  11.506  1.00  0.00     0.022 A 
BRANCH  44  48
ATOM     48  S   UNL     1       8.259   0.375  12.335  1.00  0.00     0.124 S 
ATOM     49  O   UNL     1       8.295   1.819  12.108  1.00  0.00    -0.237 OA
ATOM     50  O   UNL     1       7.766  -0.035  13.647  1.00  0.00    -0.237 OA
ATOM     51  O   UNL     1       9.414  -0.362  11.835  1.00  0.00    -0.744 OA
ENDBRANCH  44  48
ENDBRANCH  27  41
BRANCH  28  52
ATOM     52  C   UNL     1       7.166  -9.158   2.982  1.00  0.00     0.023 A 
ATOM     53  C   UNL     1       7.934  -8.921   1.825  1.00  0.00     0.031 A 
ATOM     54  C   UNL     1       6.369 -10.312   3.030  1.00  0.00     0.131 A 
ATOM     55  C   UNL     1       7.815  -9.784   0.728  1.00  0.00     0.055 A 
ATOM     56  C   UNL     1       6.314 -11.208   1.964  1.00  0.00     0.041 A 
ATOM     57  F   UNL     1       5.587 -10.549   4.095  1.00  0.00    -0.206 F 
ATOM     58  C   UNL     1       7.021 -10.934   0.796  1.00  0.00     0.022 A 
BRANCH  55  59
ATOM     59  S   UNL     1       8.525  -9.340  -0.883  1.00  0.00     0.124 S 
ATOM     60  O   UNL     1       9.443 -10.447  -1.126  1.00  0.00    -0.237 OA
ATOM     61  O   UNL     1       7.338  -9.306  -1.735  1.00  0.00    -0.237 OA
ATOM     62  O   UNL     1       9.149  -8.043  -0.642  1.00  0.00    -0.744 OA
ENDBRANCH  55  59
ENDBRANCH  28  52
BRANCH  40  63
ATOM     63  C   UNL     1       8.359  -8.392   9.875  1.00  0.00     0.023 A 
ATOM     64  C   UNL     1       7.609  -8.731  11.017  1.00  0.00     0.031 A 
ATOM     65  C   UNL     1       9.683  -8.861   9.789  1.00  0.00     0.131 A 
ATOM     66  C   UNL     1       8.195  -9.498  12.032  1.00  0.00     0.055 A 
ATOM     67  C   UNL     1      10.241  -9.675  10.774  1.00  0.00     0.041 A 
ATOM     68  F   UNL     1      10.447  -8.556   8.727  1.00  0.00    -0.206 F 
ATOM     69  C   UNL     1       9.500  -9.986  11.909  1.00  0.00     0.022 A 
BRANCH  66  70
ATOM     70  S   UNL     1       7.319  -9.825  13.586  1.00  0.00     0.124 S 
ATOM     71  O   UNL     1       7.208 -11.282  13.568  1.00  0.00    -0.237 OA
ATOM     72  O   UNL     1       8.243  -9.284  14.579  1.00  0.00    -0.237 OA
ATOM     73  O   UNL     1       6.060  -9.103  13.441  1.00  0.00    -0.744 OA
ENDBRANCH  66  70
ENDBRANCH  40  63
ENDBRANCH  14  15
ENDBRANCH   7   9
ENDBRANCH   6   7
ENDBRANCH   5   6
ENDBRANCH   4   5
ENDBRANCH   3   4
ENDBRANCH   2   3
ENDBRANCH   1   2
BRANCH   1  74
ATOM     74  O   UNL     1       3.250   2.787   0.340  1.00  0.00    -0.377 OA
BRANCH  74  75
ATOM     75  C   UNL     1       4.018   3.693   1.127  1.00  0.00     0.188 C 
BRANCH  75  76
ATOM     76  C   UNL     1       4.882   3.136   2.288  1.00  0.00     0.188 C 
BRANCH  76  77
ATOM     77  O   UNL     1       4.212   2.449   3.321  1.00  0.00    -0.376 OA
BRANCH  77  78
ATOM     78  C   UNL     1       3.433   3.075   4.318  1.00  0.00     0.202 C 
BRANCH  78  79
ATOM     79  C   UNL     1       3.229   4.589   4.500  1.00  0.00     0.261 C 
BRANCH  79  80
ATOM     80  O   UNL     1       3.548   5.438   3.400  1.00  0.00    -0.460 OA
BRANCH  80  81
ATOM     81  C   UNL     1       4.735   6.097   3.471  1.00  0.00     0.341 C 
ATOM     82  O   UNL     1       5.569   6.022   4.344  1.00  0.00    -0.246 OA
BRANCH  81  83
ATOM     83  C   UNL     1       4.969   6.756   2.167  1.00  0.00     0.101 A 
ATOM     84  C   UNL     1       6.036   6.310   1.369  1.00  0.00     0.022 A 
ATOM     85  C   UNL     1       4.151   7.789   1.717  1.00  0.00     0.132 A 
ATOM     86  C   UNL     1       6.271   6.881   0.116  1.00  0.00     0.028 A 
ATOM     87  C   UNL     1       4.428   8.411   0.499  1.00  0.00     0.073 A 
ATOM     88  C   UNL     1       5.506   7.976  -0.292  1.00  0.00     0.054 A 
BRANCH  85  89
ATOM     89  O   UNL     1       3.110   8.220   2.487  1.00  0.00    -0.507 OA
ATOM     90  H   UNL     1       2.927   7.801   3.305  1.00  0.00     0.293 HD
ENDBRANCH  85  89
BRANCH  88  91
ATOM     91  N   UNL     1       5.921   8.742  -1.413  1.00  0.00    -0.261 N 
ATOM     92  C   UNL     1       5.967   8.185  -2.686  1.00  0.00     0.270 C 
ATOM     93  C   UNL     1       6.386  10.044  -1.281  1.00  0.00     0.152 C 
ATOM     94  O   UNL     1       5.647   7.051  -3.015  1.00  0.00    -0.268 OA
ATOM     95  C   UNL     1       6.450   9.206  -3.665  1.00  0.00     0.081 C 
ATOM     96  S   UNL     1       6.814  10.679  -2.859  1.00  0.00    -0.054 SA
ATOM     97  S   UNL     1       6.626  10.957   0.100  1.00  0.00    -0.051 S 
ATOM     98  C   UNL     1       6.518   8.983  -4.985  1.00  0.00     0.027 C 
BRANCH  98  99
ATOM     99  C   UNL     1       6.968   9.923  -5.988  1.00  0.00    -0.016 C 
ATOM    100  C   UNL     1       6.258  10.391  -7.012  1.00  0.00     0.005 A 
ATOM    101  C   UNL     1       8.360  10.497  -6.012  1.00  0.00     0.179 C 
ATOM    102  C   UNL     1       4.925  10.216  -7.493  1.00  0.00     0.011 A 
ATOM    103  C   UNL     1       7.211  11.288  -7.690  1.00  0.00     0.065 A 
ATOM    104  N   UNL     1       8.407  11.392  -7.197  1.00  0.00    -0.280 NA
ATOM    105  C   UNL     1       4.539  10.892  -8.588  1.00  0.00     0.001 A 
ATOM    106  C   UNL     1       6.712  11.998  -8.887  1.00  0.00     0.028 A 
ATOM    107  C   UNL     1       5.446  11.790  -9.285  1.00  0.00     0.002 A 
ENDBRANCH  98  99
ENDBRANCH  88  91
ENDBRANCH  81  83
ENDBRANCH  80  81
ENDBRANCH  79  80
ENDBRANCH  78  79
ENDBRANCH  77  78
ENDBRANCH  76  77
ENDBRANCH  75  76
ENDBRANCH  74  75
ENDBRANCH   1  74
TORSDOF 26
