REMARK SMILES Cc1ccc(Cl)c(Nc2ccccc2C(=O)NCC(=O)OCCOCCOCCOCCOC(=O)c2ccc(-c3c4nc(c(-c5cc(S(=O)(=O)[O-])ccc5F)c5ccc([nH]5)c(-c5cc(S(=O)(=O)[O-])ccc5F)c5nc(c(-c6cc(S(=O)(=O)[O-])ccc6F)c6ccc3[nH]6)C=C5)C=C4)cc2)c1Cl
REMARK SMILES IDX 26 1 25 2 24 3 23 4 22 5 21 6 19 7 20 8 18 9 17 10 15 11
REMARK SMILES IDX 16 12 14 14 9 15 10 16 11 17 13 18 12 19 8 20 7 22 1 23 2 24
REMARK SMILES IDX 3 25 99 26 4 27 100 28 5 29 6 30 27 31 28 32 29 33 30 34
REMARK SMILES IDX 31 35 32 36 33 37 34 38 35 39 36 40 37 41 98 42 38 43 97 44
REMARK SMILES IDX 39 45 40 46 41 47 91 48 42 49 96 50 90 51 92 52 43 53 95 54
REMARK SMILES IDX 89 55 88 56 44 58 76 59 56 60 75 61 57 62 60 63 74 64 93 65
REMARK SMILES IDX 58 66 59 67 73 69 94 70 61 71 45 72 46 73 54 74 47 75 53 76
REMARK SMILES IDX 55 77 52 78 48 79 49 80 50 81 51 82 77 83 78 84 86 85 79 86
REMARK SMILES IDX 85 87 87 88 84 89 80 90 81 91 82 92 83 93 62 94 63 95 71 96
REMARK SMILES IDX 64 97 70 98 72 99 69 100 65 101 66 102 67 103 68 104
REMARK H PARENT 17 13 8 21 92 57 60 68
REMARK Flexibility Score: inf
ROOT
ATOM      1  C   UNL     1      -2.039   0.227   2.990  1.00  0.00     0.188 C 
ENDROOT
BRANCH   1   2
ATOM      2  C   UNL     1      -3.298   0.228   2.105  1.00  0.00     0.188 C 
BRANCH   2   3
ATOM      3  O   UNL     1      -4.528  -0.045   2.738  1.00  0.00    -0.376 OA
BRANCH   3   4
ATOM      4  C   UNL     1      -5.104  -1.345   2.788  1.00  0.00     0.202 C 
BRANCH   4   5
ATOM      5  C   UNL     1      -4.441  -2.643   2.309  1.00  0.00     0.261 C 
BRANCH   5   6
ATOM      6  O   UNL     1      -3.015  -2.645   2.302  1.00  0.00    -0.462 OA
BRANCH   6   7
ATOM      7  C   UNL     1      -2.498  -2.756   1.065  1.00  0.00     0.325 C 
ATOM      8  O   UNL     1      -3.159  -2.915   0.038  1.00  0.00    -0.250 OA
BRANCH   7   9
ATOM      9  C   UNL     1      -1.020  -2.496   0.950  1.00  0.00     0.239 C 
BRANCH   9  10
ATOM     10  N   UNL     1       0.061  -2.321   1.886  1.00  0.00    -0.341 N 
ATOM     11  C   UNL     1       1.393  -2.357   1.487  1.00  0.00     0.253 C 
ATOM     12  O   UNL     1       2.271  -1.846   2.177  1.00  0.00    -0.269 OA
ATOM     13  H   UNL     1      -0.149  -2.170   2.836  1.00  0.00     0.164 HD
BRANCH  11  14
ATOM     14  C   UNL     1       1.774  -3.215   0.313  1.00  0.00     0.063 A 
ATOM     15  C   UNL     1       1.269  -3.127  -1.009  1.00  0.00     0.051 A 
ATOM     16  C   UNL     1       1.429  -4.258  -1.838  1.00  0.00     0.027 A 
ATOM     17  C   UNL     1       2.118  -5.396  -1.414  1.00  0.00     0.002 A 
ATOM     18  C   UNL     1       2.536  -4.336   0.701  1.00  0.00     0.016 A 
ATOM     19  C   UNL     1       2.709  -5.418  -0.158  1.00  0.00     0.001 A 
BRANCH  15  20
ATOM     20  N   UNL     1       0.604  -2.028  -1.605  1.00  0.00    -0.352 N 
ATOM     21  H   UNL     1       0.012  -2.289  -2.348  1.00  0.00     0.167 HD
BRANCH  20  22
ATOM     22  C   UNL     1       0.608  -0.631  -1.360  1.00  0.00     0.077 A 
ATOM     23  C   UNL     1       2.761   2.173   0.133  1.00  0.00     0.046 C 
ATOM     24  C   UNL     1       1.589   1.416  -0.429  1.00  0.00    -0.030 A 
ATOM     25  C   UNL     1       0.337   2.046  -0.484  1.00  0.00     0.006 A 
ATOM     26  C   UNL     1       1.722   0.085  -0.883  1.00  0.00     0.069 A 
ATOM     27  C   UNL     1      -0.751   1.394  -1.050  1.00  0.00     0.023 A 
ATOM     28  Cl  UNL     1       3.318  -0.600  -1.002  1.00  0.00    -0.082 Cl
ATOM     29  C   UNL     1      -0.608   0.084  -1.504  1.00  0.00     0.066 A 
ATOM     30  Cl  UNL     1      -1.998  -0.663  -2.225  1.00  0.00    -0.082 Cl
ENDBRANCH  20  22
ENDBRANCH  15  20
ENDBRANCH  11  14
ENDBRANCH   9  10
ENDBRANCH   7   9
ENDBRANCH   6   7
ENDBRANCH   5   6
ENDBRANCH   4   5
ENDBRANCH   3   4
ENDBRANCH   2   3
ENDBRANCH   1   2
BRANCH   1  31
ATOM     31  O   UNL     1      -1.876  -0.829   3.918  1.00  0.00    -0.377 OA
BRANCH  31  32
ATOM     32  C   UNL     1      -2.752  -0.925   5.043  1.00  0.00     0.188 C 
BRANCH  32  33
ATOM     33  C   UNL     1      -3.633   0.260   5.500  1.00  0.00     0.188 C 
BRANCH  33  34
ATOM     34  O   UNL     1      -3.143   1.543   5.148  1.00  0.00    -0.376 OA
BRANCH  34  35
ATOM     35  C   UNL     1      -2.493   2.283   6.170  1.00  0.00     0.202 C 
BRANCH  35  36
ATOM     36  C   UNL     1      -1.166   1.699   6.674  1.00  0.00     0.261 C 
BRANCH  36  37
ATOM     37  O   UNL     1      -1.244   0.411   7.311  1.00  0.00    -0.460 OA
BRANCH  37  38
ATOM     38  C   UNL     1      -2.057   0.289   8.383  1.00  0.00     0.338 C 
ATOM     39  O   UNL     1      -2.694   1.179   8.921  1.00  0.00    -0.246 OA
BRANCH  38  40
ATOM     40  C   UNL     1      -2.225  -1.153   8.663  1.00  0.00     0.060 A 
ATOM     41  C   UNL     1      -3.515  -1.698   8.636  1.00  0.00     0.016 A 
ATOM     42  C   UNL     1      -1.121  -1.962   8.946  1.00  0.00     0.016 A 
ATOM     43  C   UNL     1      -3.710  -3.046   8.938  1.00  0.00     0.010 A 
ATOM     44  C   UNL     1      -1.321  -3.308   9.272  1.00  0.00     0.010 A 
ATOM     45  C   UNL     1      -2.621  -3.844   9.311  1.00  0.00    -0.014 A 
BRANCH  45  46
ATOM     46  C   UNL     1      -2.883  -5.144   9.979  1.00  0.00     0.031 A 
ATOM     47  C   UNL     1      -2.898  -5.172  11.485  1.00  0.00     0.074 A 
ATOM     48  C   UNL     1      -3.168  -6.256   9.280  1.00  0.00     0.049 A 
ATOM     49  N   UNL     1      -3.118  -6.169  12.301  1.00  0.00    -0.248 NA
ATOM     50  C   UNL     1      -2.622  -3.892  12.156  1.00  0.00     0.031 C 
ATOM     51  C   UNL     1      -3.228  -6.347   7.823  1.00  0.00     0.029 A 
ATOM     52  N   UNL     1      -3.465  -7.526   9.710  1.00  0.00    -0.354 N 
ATOM     53  C   UNL     1      -3.017  -5.636  13.582  1.00  0.00     0.074 A 
ATOM     54  C   UNL     1      -2.657  -4.243  13.430  1.00  0.00     0.031 C 
ATOM     55  C   UNL     1      -3.533  -7.611   7.479  1.00  0.00     0.029 A 
ATOM     56  C   UNL     1      -3.660  -8.424   8.688  1.00  0.00     0.049 A 
ATOM     57  H   UNL     1      -3.531  -7.770  10.662  1.00  0.00     0.167 HD
ATOM     58  C   UNL     1      -3.224  -6.245  14.777  1.00  0.00     0.034 A 
ATOM     59  C   UNL     1      -3.894  -9.752   8.726  1.00  0.00     0.034 A 
ATOM     60  C   UNL     1      -3.548  -7.644  14.915  1.00  0.00     0.049 A 
ATOM     61  C   UNL     1      -4.026 -10.436  10.067  1.00  0.00     0.074 A 
ATOM     62  C   UNL     1      -3.763  -8.371  16.072  1.00  0.00     0.029 A 
ATOM     63  N   UNL     1      -3.687  -8.536  13.857  1.00  0.00    -0.354 N 
ATOM     64  N   UNL     1      -3.936  -9.923  11.274  1.00  0.00    -0.248 NA
ATOM     65  C   UNL     1      -4.309 -11.877  10.047  1.00  0.00     0.031 C 
ATOM     66  C   UNL     1      -3.952  -9.712  15.720  1.00  0.00     0.029 A 
ATOM     67  C   UNL     1      -3.951  -9.811  14.338  1.00  0.00     0.049 A 
ATOM     68  H   UNL     1      -3.609  -8.298  12.905  1.00  0.00     0.167 HD
ATOM     69  C   UNL     1      -4.179 -10.976  12.155  1.00  0.00     0.074 A 
ATOM     70  C   UNL     1      -4.442 -12.143  11.338  1.00  0.00     0.031 C 
ATOM     71  C   UNL     1      -4.189 -10.977  13.515  1.00  0.00     0.034 A 
BRANCH  58  72
ATOM     72  C   UNL     1      -3.041  -5.398  16.016  1.00  0.00     0.023 A 
ATOM     73  C   UNL     1      -3.836  -4.262  16.258  1.00  0.00     0.031 A 
ATOM     74  C   UNL     1      -2.012  -5.684  16.930  1.00  0.00     0.131 A 
ATOM     75  C   UNL     1      -3.529  -3.405  17.326  1.00  0.00     0.055 A 
ATOM     76  C   UNL     1      -1.772  -4.879  18.045  1.00  0.00     0.041 A 
ATOM     77  F   UNL     1      -1.202  -6.737  16.740  1.00  0.00    -0.206 F 
ATOM     78  C   UNL     1      -2.519  -3.720  18.238  1.00  0.00     0.022 A 
BRANCH  75  79
ATOM     79  S   UNL     1      -4.341  -1.784  17.396  1.00  0.00     0.124 S 
ATOM     80  O   UNL     1      -3.981  -1.218  16.098  1.00  0.00    -0.237 OA
ATOM     81  O   UNL     1      -5.744  -2.142  17.571  1.00  0.00    -0.237 OA
ATOM     82  O   UNL     1      -3.713  -1.135  18.545  1.00  0.00    -0.744 OA
ENDBRANCH  75  79
ENDBRANCH  58  72
BRANCH  59  83
ATOM     83  C   UNL     1      -3.978 -10.537   7.459  1.00  0.00     0.023 A 
ATOM     84  C   UNL     1      -5.158 -11.193   7.074  1.00  0.00     0.031 A 
ATOM     85  C   UNL     1      -2.848 -10.676   6.633  1.00  0.00     0.131 A 
ATOM     86  C   UNL     1      -5.170 -11.987   5.915  1.00  0.00     0.055 A 
ATOM     87  C   UNL     1      -2.880 -11.424   5.455  1.00  0.00     0.041 A 
ATOM     88  F   UNL     1      -1.692 -10.074   6.956  1.00  0.00    -0.206 F 
ATOM     89  C   UNL     1      -4.044 -12.094   5.096  1.00  0.00     0.022 A 
BRANCH  86  90
ATOM     90  S   UNL     1      -6.665 -12.940   5.526  1.00  0.00     0.124 S 
ATOM     91  O   UNL     1      -6.790 -13.793   6.701  1.00  0.00    -0.237 OA
ATOM     92  O   UNL     1      -7.667 -11.888   5.386  1.00  0.00    -0.237 OA
ATOM     93  O   UNL     1      -6.315 -13.630   4.286  1.00  0.00    -0.744 OA
ENDBRANCH  86  90
ENDBRANCH  59  83
BRANCH  71  94
ATOM     94  C   UNL     1      -4.539 -12.281  14.199  1.00  0.00     0.023 A 
ATOM     95  C   UNL     1      -3.739 -13.430  14.064  1.00  0.00     0.031 A 
ATOM     96  C   UNL     1      -5.712 -12.386  14.969  1.00  0.00     0.131 A 
ATOM     97  C   UNL     1      -4.163 -14.649  14.616  1.00  0.00     0.055 A 
ATOM     98  C   UNL     1      -6.088 -13.583  15.583  1.00  0.00     0.041 A 
ATOM     99  F   UNL     1      -6.520 -11.327  15.134  1.00  0.00    -0.206 F 
ATOM    100  C   UNL     1      -5.322 -14.728  15.391  1.00  0.00     0.022 A 
BRANCH  97 101
ATOM    101  S   UNL     1      -3.255 -16.160  14.187  1.00  0.00     0.124 S 
ATOM    102  O   UNL     1      -3.292 -16.131  12.729  1.00  0.00    -0.237 OA
ATOM    103  O   UNL     1      -1.950 -15.924  14.797  1.00  0.00    -0.237 OA
ATOM    104  O   UNL     1      -4.045 -17.223  14.806  1.00  0.00    -0.744 OA
ENDBRANCH  97 101
ENDBRANCH  71  94
ENDBRANCH  45  46
ENDBRANCH  38  40
ENDBRANCH  37  38
ENDBRANCH  36  37
ENDBRANCH  35  36
ENDBRANCH  34  35
ENDBRANCH  33  34
ENDBRANCH  32  33
ENDBRANCH  31  32
ENDBRANCH   1  31
TORSDOF 27
