REMARK SMILES CCCc1c(C(=O)OCCOCCOCCOCCOC(=O)c2ccc(-c3c4nc(c(-c5cc(S(=O)(=O)[O-])ccc5F)c5ccc([nH]5)c(-c5cc(S(=O)(=O)[O-])ccc5F)c5nc(c(-c6cc(S(=O)(=O)[O-])ccc6F)c6ccc3[nH]6)C=C5)C=C4)cc2)nnn1-c1cc(OC)ccc1F
REMARK SMILES IDX 15 1 14 2 13 3 12 4 11 5 10 6 9 7 8 8 6 9 7 10 5 11 4 12
REMARK SMILES IDX 88 13 86 14 87 15 3 16 2 17 1 18 89 19 90 20 96 21 91 22
REMARK SMILES IDX 95 23 97 24 94 25 92 26 93 27 16 28 17 29 18 30 19 31 20 32
REMARK SMILES IDX 21 33 22 34 23 35 24 36 85 37 25 38 84 39 26 40 27 41 28 42
REMARK SMILES IDX 78 43 29 44 83 45 77 46 79 47 30 48 82 49 76 50 75 51 31 53
REMARK SMILES IDX 63 54 43 55 62 56 44 57 47 58 61 59 80 60 45 61 46 62 60 64
REMARK SMILES IDX 81 65 48 66 32 67 33 68 41 69 34 70 40 71 42 72 39 73 35 74
REMARK SMILES IDX 36 75 37 76 38 77 64 78 65 79 73 80 66 81 72 82 74 83 71 84
REMARK SMILES IDX 67 85 68 86 69 87 70 88 49 89 50 90 58 91 51 92 57 93 59 94
REMARK SMILES IDX 56 95 52 96 53 97 54 98 55 99
REMARK H PARENT 79 52 47 63
REMARK Flexibility Score: inf
ROOT
ATOM      1  C   UNL     1      -4.418  -0.539   2.903  1.00  0.00     0.188 C 
ENDROOT
BRANCH   1   2
ATOM      2  O   UNL     1      -3.282   0.075   2.292  1.00  0.00    -0.377 OA
BRANCH   2   3
ATOM      3  C   UNL     1      -3.191   1.482   2.448  1.00  0.00     0.188 C 
BRANCH   3   4
ATOM      4  C   UNL     1      -3.711   2.308   1.242  1.00  0.00     0.188 C 
BRANCH   4   5
ATOM      5  O   UNL     1      -4.414   1.709   0.154  1.00  0.00    -0.376 OA
BRANCH   5   6
ATOM      6  C   UNL     1      -4.079   0.422  -0.336  1.00  0.00     0.202 C 
BRANCH   6   7
ATOM      7  C   UNL     1      -2.641   0.105  -0.753  1.00  0.00     0.261 C 
BRANCH   7   8
ATOM      8  O   UNL     1      -1.639   0.615   0.127  1.00  0.00    -0.458 OA
BRANCH   8   9
ATOM      9  C   UNL     1      -1.013   1.754  -0.258  1.00  0.00     0.360 C 
ATOM     10  O   UNL     1      -1.190   2.310  -1.341  1.00  0.00    -0.244 OA
BRANCH   9  11
ATOM     11  C   UNL     1      -0.178   2.317   0.793  1.00  0.00     0.194 A 
ATOM     12  C   UNL     1       0.676   1.715   1.714  1.00  0.00     0.080 A 
ATOM     13  N   UNL     1       1.255   2.813   2.347  1.00  0.00    -0.214 N 
ATOM     14  N   UNL     1      -0.252   3.664   1.072  1.00  0.00    -0.122 NA
ATOM     15  N   UNL     1       0.512   3.917   2.119  1.00  0.00    -0.061 NA
BRANCH  12  16
ATOM     16  C   UNL     1       0.976   0.305   2.136  1.00  0.00     0.059 C 
BRANCH  16  17
ATOM     17  C   UNL     1       0.795  -0.817   1.120  1.00  0.00     0.003 C 
ATOM     18  C   UNL     1       1.488  -0.600  -0.215  1.00  0.00     0.004 C 
ENDBRANCH  16  17
ENDBRANCH  12  16
BRANCH  13  19
ATOM     19  C   UNL     1       2.489   2.930   3.012  1.00  0.00     0.106 A 
ATOM     20  C   UNL     1       2.631   3.795   4.105  1.00  0.00     0.078 A 
ATOM     21  C   UNL     1       3.605   2.268   2.505  1.00  0.00     0.149 A 
ATOM     22  C   UNL     1       3.879   3.941   4.723  1.00  0.00     0.121 A 
ATOM     23  C   UNL     1       4.847   2.418   3.106  1.00  0.00     0.045 A 
ATOM     24  F   UNL     1       3.534   1.544   1.380  1.00  0.00    -0.205 F 
ATOM     25  C   UNL     1       4.984   3.243   4.223  1.00  0.00     0.049 A 
BRANCH  22  26
ATOM     26  O   UNL     1       3.898   4.783   5.800  1.00  0.00    -0.497 OA
ATOM     27  C   UNL     1       5.173   5.077   6.361  1.00  0.00     0.278 C 
ENDBRANCH  22  26
ENDBRANCH  13  19
ENDBRANCH   9  11
ENDBRANCH   8   9
ENDBRANCH   7   8
ENDBRANCH   6   7
ENDBRANCH   5   6
ENDBRANCH   4   5
ENDBRANCH   3   4
ENDBRANCH   2   3
ENDBRANCH   1   2
BRANCH   1  28
ATOM     28  C   UNL     1      -5.807   0.114   2.676  1.00  0.00     0.188 C 
BRANCH  28  29
ATOM     29  O   UNL     1      -5.812   1.534   2.759  1.00  0.00    -0.376 OA
BRANCH  29  30
ATOM     30  C   UNL     1      -6.345   2.231   3.873  1.00  0.00     0.202 C 
BRANCH  30  31
ATOM     31  C   UNL     1      -5.622   2.087   5.208  1.00  0.00     0.261 C 
BRANCH  31  32
ATOM     32  O   UNL     1      -5.247   0.757   5.495  1.00  0.00    -0.460 OA
BRANCH  32  33
ATOM     33  C   UNL     1      -6.267  -0.100   5.673  1.00  0.00     0.338 C 
ATOM     34  O   UNL     1      -7.457   0.111   5.461  1.00  0.00    -0.246 OA
BRANCH  33  35
ATOM     35  C   UNL     1      -5.730  -1.318   6.272  1.00  0.00     0.060 A 
ATOM     36  C   UNL     1      -6.675  -2.296   6.582  1.00  0.00     0.016 A 
ATOM     37  C   UNL     1      -4.500  -1.206   6.936  1.00  0.00     0.016 A 
ATOM     38  C   UNL     1      -6.548  -2.920   7.794  1.00  0.00     0.010 A 
ATOM     39  C   UNL     1      -4.409  -1.778   8.169  1.00  0.00     0.010 A 
ATOM     40  C   UNL     1      -5.484  -2.542   8.617  1.00  0.00    -0.014 A 
BRANCH  40  41
ATOM     41  C   UNL     1      -5.423  -3.067   9.957  1.00  0.00     0.031 A 
ATOM     42  C   UNL     1      -4.840  -4.420   9.946  1.00  0.00     0.074 A 
ATOM     43  C   UNL     1      -5.727  -2.321  11.034  1.00  0.00     0.049 A 
ATOM     44  N   UNL     1      -5.478  -5.542   9.999  1.00  0.00    -0.248 NA
ATOM     45  C   UNL     1      -3.440  -4.551   9.495  1.00  0.00     0.031 C 
ATOM     46  C   UNL     1      -6.053  -0.893  11.089  1.00  0.00     0.029 A 
ATOM     47  N   UNL     1      -5.711  -2.676  12.342  1.00  0.00    -0.354 N 
ATOM     48  C   UNL     1      -4.482  -6.503   9.902  1.00  0.00     0.074 A 
ATOM     49  C   UNL     1      -3.386  -5.858   9.245  1.00  0.00     0.031 C 
ATOM     50  C   UNL     1      -5.974  -0.469  12.374  1.00  0.00     0.029 A 
ATOM     51  C   UNL     1      -5.709  -1.610  13.237  1.00  0.00     0.049 A 
ATOM     52  H   UNL     1      -5.701  -3.615  12.637  1.00  0.00     0.167 HD
ATOM     53  C   UNL     1      -4.487  -7.582  10.731  1.00  0.00     0.034 A 
ATOM     54  C   UNL     1      -5.429  -1.675  14.569  1.00  0.00     0.034 A 
ATOM     55  C   UNL     1      -5.802  -7.755  11.321  1.00  0.00     0.049 A 
ATOM     56  C   UNL     1      -5.598  -3.098  14.968  1.00  0.00     0.074 A 
ATOM     57  C   UNL     1      -7.074  -7.936  10.814  1.00  0.00     0.029 A 
ATOM     58  N   UNL     1      -5.974  -7.338  12.625  1.00  0.00    -0.354 N 
ATOM     59  N   UNL     1      -6.751  -3.709  14.956  1.00  0.00    -0.248 NA
ATOM     60  C   UNL     1      -4.440  -3.979  14.882  1.00  0.00     0.031 C 
ATOM     61  C   UNL     1      -7.934  -7.196  11.678  1.00  0.00     0.029 A 
ATOM     62  C   UNL     1      -7.170  -6.669  12.722  1.00  0.00     0.049 A 
ATOM     63  H   UNL     1      -5.344  -7.494  13.365  1.00  0.00     0.167 HD
ATOM     64  C   UNL     1      -6.492  -4.964  14.422  1.00  0.00     0.074 A 
ATOM     65  C   UNL     1      -5.040  -5.112  14.499  1.00  0.00     0.031 C 
ATOM     66  C   UNL     1      -7.444  -5.623  13.695  1.00  0.00     0.034 A 
BRANCH  53  67
ATOM     67  C   UNL     1      -3.231  -8.167  11.359  1.00  0.00     0.023 A 
ATOM     68  C   UNL     1      -3.434  -9.213  12.274  1.00  0.00     0.031 A 
ATOM     69  C   UNL     1      -1.926  -7.615  11.353  1.00  0.00     0.131 A 
ATOM     70  C   UNL     1      -2.448  -9.555  13.213  1.00  0.00     0.055 A 
ATOM     71  C   UNL     1      -0.929  -7.998  12.253  1.00  0.00     0.041 A 
ATOM     72  F   UNL     1      -1.534  -6.632  10.537  1.00  0.00    -0.206 F 
ATOM     73  C   UNL     1      -1.199  -8.946  13.218  1.00  0.00     0.022 A 
BRANCH  70  74
ATOM     74  S   UNL     1      -2.906 -10.688  14.542  1.00  0.00     0.124 S 
ATOM     75  O   UNL     1      -4.075 -10.017  15.100  1.00  0.00    -0.237 OA
ATOM     76  O   UNL     1      -3.158 -11.921  13.805  1.00  0.00    -0.237 OA
ATOM     77  O   UNL     1      -1.721 -10.700  15.396  1.00  0.00    -0.744 OA
ENDBRANCH  70  74
ENDBRANCH  53  67
BRANCH  54  78
ATOM     78  C   UNL     1      -4.695  -0.677  15.403  1.00  0.00     0.023 A 
ATOM     79  C   UNL     1      -4.749  -0.660  16.817  1.00  0.00     0.031 A 
ATOM     80  C   UNL     1      -3.708   0.138  14.804  1.00  0.00     0.131 A 
ATOM     81  C   UNL     1      -3.846   0.141  17.559  1.00  0.00     0.055 A 
ATOM     82  C   UNL     1      -2.821   0.926  15.541  1.00  0.00     0.041 A 
ATOM     83  F   UNL     1      -3.512   0.129  13.476  1.00  0.00    -0.206 F 
ATOM     84  C   UNL     1      -2.879   0.923  16.924  1.00  0.00     0.022 A 
BRANCH  81  85
ATOM     85  S   UNL     1      -3.853   0.119  19.385  1.00  0.00     0.124 S 
ATOM     86  O   UNL     1      -5.134   0.740  19.700  1.00  0.00    -0.237 OA
ATOM     87  O   UNL     1      -3.729  -1.303  19.683  1.00  0.00    -0.237 OA
ATOM     88  O   UNL     1      -2.681   0.920  19.742  1.00  0.00    -0.744 OA
ENDBRANCH  81  85
ENDBRANCH  54  78
BRANCH  66  89
ATOM     89  C   UNL     1      -8.872  -5.114  13.774  1.00  0.00     0.023 A 
ATOM     90  C   UNL     1      -9.302  -3.819  13.398  1.00  0.00     0.031 A 
ATOM     91  C   UNL     1      -9.856  -6.038  14.164  1.00  0.00     0.131 A 
ATOM     92  C   UNL     1     -10.674  -3.493  13.438  1.00  0.00     0.055 A 
ATOM     93  C   UNL     1     -11.212  -5.720  14.180  1.00  0.00     0.041 A 
ATOM     94  F   UNL     1      -9.513  -7.291  14.508  1.00  0.00    -0.206 F 
ATOM     95  C   UNL     1     -11.626  -4.442  13.824  1.00  0.00     0.022 A 
BRANCH  92  96
ATOM     96  S   UNL     1     -11.251  -1.816  13.012  1.00  0.00     0.124 S 
ATOM     97  O   UNL     1     -10.352  -0.945  13.760  1.00  0.00    -0.237 OA
ATOM     98  O   UNL     1     -11.102  -1.792  11.559  1.00  0.00    -0.237 OA
ATOM     99  O   UNL     1     -12.639  -1.805  13.479  1.00  0.00    -0.744 OA
ENDBRANCH  92  96
ENDBRANCH  66  89
ENDBRANCH  40  41
ENDBRANCH  33  35
ENDBRANCH  32  33
ENDBRANCH  31  32
ENDBRANCH  30  31
ENDBRANCH  29  30
ENDBRANCH  28  29
ENDBRANCH   1  28
TORSDOF 27
