REMARK SMILES C[C@@H](NC(=O)c1cc(C(=O)OCCOCCOCCOCCOC(=O)c2ccc(-c3c4nc(c(-c5cc(S(=O)(=O)[O-])ccc5F)c5ccc([nH]5)c(-c5cc(S(=O)(=O)[O-])ccc5F)c5nc(c(-c6cc(S(=O)(=O)[O-])ccc6F)c6ccc3[nH]6)C=C5)C=C4)cc2)n(C)n1)c1ccccc1
REMARK SMILES IDX 17 1 16 2 15 3 14 4 13 5 12 6 11 7 9 8 10 9 8 10 6 11 7 12
REMARK SMILES IDX 91 13 89 14 90 15 4 16 3 17 5 19 2 20 1 21 92 22 93 23 97 24
REMARK SMILES IDX 94 25 96 26 95 27 18 28 19 29 20 30 21 31 22 32 23 33 24 34
REMARK SMILES IDX 25 35 26 36 27 37 88 38 28 39 87 40 29 41 30 42 31 43 81 44
REMARK SMILES IDX 32 45 86 46 80 47 82 48 33 49 85 50 79 51 78 52 34 54 66 55
REMARK SMILES IDX 46 56 65 57 47 58 50 59 64 60 83 61 48 62 49 63 63 65 84 66
REMARK SMILES IDX 51 67 35 68 36 69 44 70 37 71 43 72 45 73 42 74 38 75 39 76
REMARK SMILES IDX 40 77 41 78 67 79 68 80 76 81 69 82 75 83 77 84 74 85 70 86
REMARK SMILES IDX 71 87 72 88 73 89 52 90 53 91 61 92 54 93 60 94 62 95 59 96
REMARK SMILES IDX 55 97 56 98 57 99 58 100
REMARK H PARENT 3 18 82 53 50 64
REMARK Flexibility Score: inf
ROOT
ATOM      1  O   UNL     1      -7.505   1.606  -0.419  1.00  0.00    -0.377 OA
ENDROOT
BRANCH   1   2
ATOM      2  C   UNL     1      -6.200   1.118  -0.691  1.00  0.00     0.188 C 
BRANCH   2   3
ATOM      3  C   UNL     1      -5.349   2.135  -1.467  1.00  0.00     0.188 C 
BRANCH   3   4
ATOM      4  O   UNL     1      -5.938   2.874  -2.531  1.00  0.00    -0.376 OA
BRANCH   4   5
ATOM      5  C   UNL     1      -7.021   2.283  -3.220  1.00  0.00     0.202 C 
BRANCH   5   6
ATOM      6  C   UNL     1      -6.770   0.953  -3.949  1.00  0.00     0.261 C 
BRANCH   6   7
ATOM      7  O   UNL     1      -5.575   0.225  -3.604  1.00  0.00    -0.459 OA
BRANCH   7   8
ATOM      8  C   UNL     1      -4.439   0.506  -4.295  1.00  0.00     0.356 C 
ATOM      9  O   UNL     1      -4.349   1.393  -5.139  1.00  0.00    -0.244 OA
BRANCH   8  10
ATOM     10  C   UNL     1      -3.340  -0.355  -3.891  1.00  0.00     0.146 A 
ATOM     11  C   UNL     1      -1.284  -1.266  -3.599  1.00  0.00     0.151 A 
ATOM     12  C   UNL     1      -1.979  -0.127  -4.085  1.00  0.00     0.071 A 
ATOM     13  N   UNL     1      -2.171  -2.175  -3.153  1.00  0.00    -0.167 NA
ATOM     14  N   UNL     1      -3.385  -1.597  -3.298  1.00  0.00    -0.260 N 
ATOM     15  C   UNL     1      -4.532  -2.414  -2.959  1.00  0.00     0.174 C 
BRANCH  11  16
ATOM     16  C   UNL     1       0.148  -1.613  -3.720  1.00  0.00     0.272 C 
ATOM     17  N   UNL     1       1.097  -1.290  -2.766  1.00  0.00    -0.344 N 
ATOM     18  H   UNL     1       1.890  -1.873  -2.789  1.00  0.00     0.164 HD
ATOM     19  O   UNL     1       0.557  -2.278  -4.678  1.00  0.00    -0.267 OA
BRANCH  17  20
ATOM     20  C   UNL     1       1.163  -0.259  -1.731  1.00  0.00     0.109 C 
ATOM     21  C   UNL     1       2.287  -0.549  -0.726  1.00  0.00     0.036 C 
BRANCH  20  22
ATOM     22  C   UNL     1      -0.134  -0.066  -1.005  1.00  0.00    -0.026 A 
ATOM     23  C   UNL     1      -0.774   1.177  -1.079  1.00  0.00     0.006 A 
ATOM     24  C   UNL     1      -0.767  -1.148  -0.376  1.00  0.00     0.006 A 
ATOM     25  C   UNL     1      -2.079   1.299  -0.636  1.00  0.00     0.000 A 
ATOM     26  C   UNL     1      -2.082  -1.029   0.042  1.00  0.00     0.000 A 
ATOM     27  C   UNL     1      -2.736   0.186  -0.113  1.00  0.00     0.000 A 
ENDBRANCH  20  22
ENDBRANCH  17  20
ENDBRANCH  11  16
ENDBRANCH   8  10
ENDBRANCH   7   8
ENDBRANCH   6   7
ENDBRANCH   5   6
ENDBRANCH   4   5
ENDBRANCH   3   4
ENDBRANCH   2   3
ENDBRANCH   1   2
BRANCH   1  28
ATOM     28  C   UNL     1      -7.707   1.957   0.943  1.00  0.00     0.188 C 
BRANCH  28  29
ATOM     29  C   UNL     1      -6.895   3.175   1.402  1.00  0.00     0.188 C 
BRANCH  29  30
ATOM     30  O   UNL     1      -5.491   2.892   1.405  1.00  0.00    -0.376 OA
BRANCH  30  31
ATOM     31  C   UNL     1      -4.821   3.055   2.649  1.00  0.00     0.202 C 
BRANCH  31  32
ATOM     32  C   UNL     1      -4.618   1.711   3.358  1.00  0.00     0.261 C 
BRANCH  32  33
ATOM     33  O   UNL     1      -5.822   0.949   3.527  1.00  0.00    -0.460 OA
BRANCH  33  34
ATOM     34  C   UNL     1      -6.759   1.486   4.343  1.00  0.00     0.338 C 
ATOM     35  O   UNL     1      -6.667   2.521   4.976  1.00  0.00    -0.246 OA
BRANCH  34  36
ATOM     36  C   UNL     1      -8.003   0.712   4.151  1.00  0.00     0.060 A 
ATOM     37  C   UNL     1      -9.168   1.409   3.807  1.00  0.00     0.016 A 
ATOM     38  C   UNL     1      -8.003  -0.685   4.221  1.00  0.00     0.016 A 
ATOM     39  C   UNL     1     -10.336   0.706   3.516  1.00  0.00     0.010 A 
ATOM     40  C   UNL     1      -9.186  -1.385   3.973  1.00  0.00     0.010 A 
ATOM     41  C   UNL     1     -10.360  -0.690   3.638  1.00  0.00    -0.014 A 
BRANCH  41  42
ATOM     42  C   UNL     1     -11.669  -1.379   3.684  1.00  0.00     0.031 A 
ATOM     43  C   UNL     1     -12.354  -1.455   5.020  1.00  0.00     0.074 A 
ATOM     44  C   UNL     1     -12.245  -1.891   2.582  1.00  0.00     0.049 A 
ATOM     45  N   UNL     1     -13.503  -1.986   5.340  1.00  0.00    -0.248 NA
ATOM     46  C   UNL     1     -11.637  -0.839   6.150  1.00  0.00     0.031 C 
ATOM     47  C   UNL     1     -11.692  -1.833   1.231  1.00  0.00     0.029 A 
ATOM     48  N   UNL     1     -13.432  -2.564   2.431  1.00  0.00    -0.354 N 
ATOM     49  C   UNL     1     -13.657  -1.751   6.702  1.00  0.00     0.074 A 
ATOM     50  C   UNL     1     -12.465  -1.069   7.154  1.00  0.00     0.031 C 
ATOM     51  C   UNL     1     -12.535  -2.458   0.388  1.00  0.00     0.029 A 
ATOM     52  C   UNL     1     -13.671  -2.985   1.144  1.00  0.00     0.049 A 
ATOM     53  H   UNL     1     -14.054  -2.730   3.176  1.00  0.00     0.167 HD
ATOM     54  C   UNL     1     -14.701  -2.070   7.502  1.00  0.00     0.034 A 
ATOM     55  C   UNL     1     -14.684  -3.726   0.647  1.00  0.00     0.034 A 
ATOM     56  C   UNL     1     -15.857  -2.797   7.045  1.00  0.00     0.049 A 
ATOM     57  C   UNL     1     -15.786  -4.172   1.583  1.00  0.00     0.074 A 
ATOM     58  C   UNL     1     -16.967  -3.195   7.766  1.00  0.00     0.029 A 
ATOM     59  N   UNL     1     -16.038  -3.259   5.747  1.00  0.00    -0.354 N 
ATOM     60  N   UNL     1     -15.931  -3.929   2.867  1.00  0.00    -0.248 NA
ATOM     61  C   UNL     1     -16.862  -4.985   1.002  1.00  0.00     0.031 C 
ATOM     62  C   UNL     1     -17.782  -3.960   6.925  1.00  0.00     0.029 A 
ATOM     63  C   UNL     1     -17.224  -3.968   5.655  1.00  0.00     0.049 A 
ATOM     64  H   UNL     1     -15.414  -3.105   5.001  1.00  0.00     0.167 HD
ATOM     65  C   UNL     1     -17.134  -4.530   3.235  1.00  0.00     0.074 A 
ATOM     66  C   UNL     1     -17.676  -5.136   2.037  1.00  0.00     0.031 C 
ATOM     67  C   UNL     1     -17.741  -4.572   4.449  1.00  0.00     0.034 A 
BRANCH  54  68
ATOM     68  C   UNL     1     -14.589  -1.690   8.957  1.00  0.00     0.023 A 
ATOM     69  C   UNL     1     -14.521  -0.345   9.364  1.00  0.00     0.031 A 
ATOM     70  C   UNL     1     -14.483  -2.684   9.944  1.00  0.00     0.131 A 
ATOM     71  C   UNL     1     -14.278  -0.034  10.711  1.00  0.00     0.055 A 
ATOM     72  C   UNL     1     -14.324  -2.366  11.293  1.00  0.00     0.041 A 
ATOM     73  F   UNL     1     -14.508  -3.984   9.609  1.00  0.00    -0.206 F 
ATOM     74  C   UNL     1     -14.205  -1.035  11.682  1.00  0.00     0.022 A 
BRANCH  71  75
ATOM     75  S   UNL     1     -13.907   1.686  11.150  1.00  0.00     0.124 S 
ATOM     76  O   UNL     1     -12.725   1.951  10.332  1.00  0.00    -0.237 OA
ATOM     77  O   UNL     1     -15.126   2.383  10.757  1.00  0.00    -0.237 OA
ATOM     78  O   UNL     1     -13.658   1.627  12.589  1.00  0.00    -0.744 OA
ENDBRANCH  71  75
ENDBRANCH  54  68
BRANCH  55  79
ATOM     79  C   UNL     1     -14.696  -4.138  -0.788  1.00  0.00     0.023 A 
ATOM     80  C   UNL     1     -15.723  -3.736  -1.658  1.00  0.00     0.031 A 
ATOM     81  C   UNL     1     -13.711  -5.007  -1.294  1.00  0.00     0.131 A 
ATOM     82  C   UNL     1     -15.770  -4.240  -2.969  1.00  0.00     0.055 A 
ATOM     83  C   UNL     1     -13.733  -5.463  -2.614  1.00  0.00     0.041 A 
ATOM     84  F   UNL     1     -12.708  -5.429  -0.507  1.00  0.00    -0.206 F 
ATOM     85  C   UNL     1     -14.775  -5.090  -3.456  1.00  0.00     0.022 A 
BRANCH  82  86
ATOM     86  S   UNL     1     -17.205  -3.839  -4.006  1.00  0.00     0.124 S 
ATOM     87  O   UNL     1     -18.305  -4.362  -3.204  1.00  0.00    -0.237 OA
ATOM     88  O   UNL     1     -17.112  -2.386  -4.101  1.00  0.00    -0.237 OA
ATOM     89  O   UNL     1     -16.938  -4.561  -5.248  1.00  0.00    -0.744 OA
ENDBRANCH  82  86
ENDBRANCH  55  79
BRANCH  67  90
ATOM     90  C   UNL     1     -19.085  -5.256   4.526  1.00  0.00     0.023 A 
ATOM     91  C   UNL     1     -19.228  -6.640   4.329  1.00  0.00     0.031 A 
ATOM     92  C   UNL     1     -20.241  -4.505   4.809  1.00  0.00     0.131 A 
ATOM     93  C   UNL     1     -20.504  -7.223   4.365  1.00  0.00     0.055 A 
ATOM     94  C   UNL     1     -21.499  -5.100   4.907  1.00  0.00     0.041 A 
ATOM     95  F   UNL     1     -20.164  -3.179   5.006  1.00  0.00    -0.206 F 
ATOM     96  C   UNL     1     -21.638  -6.465   4.671  1.00  0.00     0.022 A 
BRANCH  93  97
ATOM     97  S   UNL     1     -20.676  -8.972   3.919  1.00  0.00     0.124 S 
ATOM     98  O   UNL     1     -20.128  -8.995   2.567  1.00  0.00    -0.237 OA
ATOM     99  O   UNL     1     -19.876  -9.636   4.943  1.00  0.00    -0.237 OA
ATOM    100  O   UNL     1     -22.116  -9.209   4.008  1.00  0.00    -0.744 OA
ENDBRANCH  93  97
ENDBRANCH  67  90
ENDBRANCH  41  42
ENDBRANCH  34  36
ENDBRANCH  33  34
ENDBRANCH  32  33
ENDBRANCH  31  32
ENDBRANCH  30  31
ENDBRANCH  29  30
ENDBRANCH  28  29
ENDBRANCH   1  28
TORSDOF 26
