REMARK SMILES O=C(OCCOCCOCCOCCOC(=O)c1ccc(-c2c3nc(c(-c4cc(S(=O)(=O)[O-])ccc4F)c4ccc([nH]4)c(-c4cc(S(=O)(=O)[O-])ccc4F)c4nc(c(-c5cc(S(=O)(=O)[O-])ccc5F)c5ccc2[nH]5)C=C4)C=C3)cc1)C1=Cc2cc(S(F)(F)(F)(F)F)cc(Br)c2O[C@@H]1C(F)(F)F
REMARK SMILES IDX 10 1 9 2 8 3 7 4 6 5 5 6 4 7 3 8 2 9 1 10 81 11 82 12 97 13
REMARK SMILES IDX 83 14 96 15 84 16 95 17 85 18 93 19 92 20 94 21 98 22 99 23
REMARK SMILES IDX 100 24 101 25 86 26 87 27 88 28 89 29 90 30 91 31 11 32
REMARK SMILES IDX 12 33 13 34 14 35 15 36 16 37 17 38 18 39 19 40 80 41 20 42
REMARK SMILES IDX 79 43 21 44 22 45 23 46 73 47 24 48 78 49 72 50 74 51 25 52
REMARK SMILES IDX 77 53 71 54 70 55 26 57 58 58 38 59 57 60 39 61 42 62 56 63
REMARK SMILES IDX 75 64 40 65 41 66 55 68 76 69 43 70 27 71 28 72 36 73 29 74
REMARK SMILES IDX 35 75 37 76 34 77 30 78 31 79 32 80 33 81 59 82 60 83 68 84
REMARK SMILES IDX 61 85 67 86 69 87 66 88 62 89 63 90 64 91 65 92 44 93 45 94
REMARK SMILES IDX 53 95 46 96 52 97 54 98 51 99 47 100 48 101 49 102 50 103
REMARK H PARENT 74 56 42 67
REMARK Flexibility Score: inf
ROOT
ATOM      1  C   UNL     1       4.500   2.492  -1.188  1.00  0.00     0.188 C 
ENDROOT
BRANCH   1   2
ATOM      2  O   UNL     1       3.080   2.492  -1.188  1.00  0.00    -0.377 OA
BRANCH   2   3
ATOM      3  C   UNL     1       2.607   2.471   0.151  1.00  0.00     0.188 C 
BRANCH   3   4
ATOM      4  C   UNL     1       3.114   1.219   0.848  1.00  0.00     0.188 C 
BRANCH   4   5
ATOM      5  O   UNL     1       4.534   1.219   0.848  1.00  0.00    -0.376 OA
BRANCH   5   6
ATOM      6  C   UNL     1       5.007   1.240  -0.491  1.00  0.00     0.202 C 
BRANCH   6   7
ATOM      7  C   UNL     1       4.500   0.010  -1.227  1.00  0.00     0.261 C 
BRANCH   7   8
ATOM      8  O   UNL     1       3.080   0.010  -1.227  1.00  0.00    -0.460 OA
BRANCH   8   9
ATOM      9  C   UNL     1       2.370  -0.009   0.003  1.00  0.00     0.338 C 
ATOM     10  O   UNL     1       1.099  -0.009   0.003  1.00  0.00    -0.246 OA
BRANCH   9  11
ATOM     11  C   UNL     1       3.130  -0.030   1.319  1.00  0.00     0.087 C 
ATOM     12  C   UNL     1       4.491  -0.030   1.319  1.00  0.00     0.027 C 
ATOM     13  C   UNL     1       2.370  -0.051   2.635  1.00  0.00     0.316 C 
ATOM     14  C   UNL     1       5.251  -0.009   0.003  1.00  0.00     0.020 A 
ATOM     15  O   UNL     1       3.666   1.565  -0.808  1.00  0.00    -0.474 OA
ATOM     16  C   UNL     1       6.330  -0.860  -0.173  1.00  0.00     0.036 A 
ATOM     17  C   UNL     1       4.868   0.824  -0.958  1.00  0.00     0.142 A 
ATOM     18  C   UNL     1       7.126  -0.551  -1.300  1.00  0.00     0.109 A 
ATOM     19  C   UNL     1       5.624   0.976  -2.095  1.00  0.00     0.062 A 
ATOM     20  C   UNL     1       6.737   0.210  -2.307  1.00  0.00     0.044 A 
ATOM     21  Br  UNL     1       5.101   2.311  -3.432  1.00  0.00    -0.047 Br
BRANCH  13  22
ATOM     22  C   UNL     1       2.738   1.178   3.451  1.00  0.00     0.430 C 
ATOM     23  F   UNL     1       2.416   2.275   2.771  1.00  0.00    -0.167 F 
ATOM     24  F   UNL     1       2.073   1.160   4.603  1.00  0.00    -0.167 F 
ATOM     25  F   UNL     1       4.045   1.174   3.694  1.00  0.00    -0.167 F 
ENDBRANCH  13  22
BRANCH  18  26
ATOM     26  S   UNL     1       8.796  -1.248  -1.368  1.00  0.00     0.310 S 
ATOM     27  F   UNL     1       8.925  -1.254   0.212  1.00  0.00    -0.094 F 
ATOM     28  F   UNL     1       9.377   0.217  -1.341  1.00  0.00    -0.094 F 
ATOM     29  F   UNL     1      10.230  -1.846  -1.427  1.00  0.00    -0.094 F 
ATOM     30  F   UNL     1       8.201  -2.706  -1.253  1.00  0.00    -0.094 F 
ATOM     31  F   UNL     1       7.340  -0.656  -1.195  1.00  0.00    -0.094 F 
ENDBRANCH  18  26
ENDBRANCH   9  11
ENDBRANCH   8   9
ENDBRANCH   7   8
ENDBRANCH   6   7
ENDBRANCH   5   6
ENDBRANCH   4   5
ENDBRANCH   3   4
ENDBRANCH   2   3
ENDBRANCH   1   2
BRANCH   1  32
ATOM     32  C   UNL     1       5.007   3.722  -0.452  1.00  0.00     0.188 C 
BRANCH  32  33
ATOM     33  O   UNL     1       4.534   3.701   0.886  1.00  0.00    -0.376 OA
BRANCH  33  34
ATOM     34  C   UNL     1       3.114   3.701   0.886  1.00  0.00     0.202 C 
BRANCH  34  35
ATOM     35  C   UNL     1       2.607   4.953   0.190  1.00  0.00     0.261 C 
BRANCH  35  36
ATOM     36  O   UNL     1       3.080   4.974  -1.149  1.00  0.00    -0.460 OA
BRANCH  36  37
ATOM     37  C   UNL     1       4.476   4.978  -1.409  1.00  0.00     0.338 C 
ATOM     38  O   UNL     1       5.302   4.963  -0.443  1.00  0.00    -0.246 OA
BRANCH  37  39
ATOM     39  C   UNL     1       4.983   5.000  -2.841  1.00  0.00     0.060 A 
ATOM     40  C   UNL     1       6.014   4.152  -3.211  1.00  0.00     0.016 A 
ATOM     41  C   UNL     1       4.429   5.832  -3.715  1.00  0.00     0.016 A 
ATOM     42  C   UNL     1       6.590   4.463  -4.465  1.00  0.00     0.010 A 
ATOM     43  C   UNL     1       4.964   5.986  -4.971  1.00  0.00     0.010 A 
ATOM     44  C   UNL     1       6.021   5.223  -5.383  1.00  0.00    -0.014 A 
BRANCH  44  45
ATOM     45  C   UNL     1       6.514   5.247  -6.821  1.00  0.00     0.031 A 
ATOM     46  C   UNL     1       6.960   6.464  -7.340  1.00  0.00     0.074 A 
ATOM     47  C   UNL     1       6.494   4.062  -7.535  1.00  0.00     0.049 A 
ATOM     48  N   UNL     1       7.459   6.696  -8.555  1.00  0.00    -0.248 NA
ATOM     49  C   UNL     1       6.950   7.731  -6.595  1.00  0.00     0.031 C 
ATOM     50  C   UNL     1       6.054   2.829  -7.016  1.00  0.00     0.029 A 
ATOM     51  N   UNL     1       6.881   3.855  -8.841  1.00  0.00    -0.354 N 
ATOM     52  C   UNL     1       7.793   7.982  -8.679  1.00  0.00     0.074 A 
ATOM     53  C   UNL     1       7.465   8.668  -7.421  1.00  0.00     0.031 C 
ATOM     54  C   UNL     1       6.164   1.895  -7.997  1.00  0.00     0.029 A 
ATOM     55  C   UNL     1       6.674   2.528  -9.146  1.00  0.00     0.049 A 
ATOM     56  H   UNL     1       7.243   4.538  -9.451  1.00  0.00     0.167 HD
ATOM     57  C   UNL     1       8.361   8.609  -9.789  1.00  0.00     0.034 A 
ATOM     58  C   UNL     1       6.909   1.888 -10.352  1.00  0.00     0.034 A 
ATOM     59  C   UNL     1       8.637   7.959 -10.981  1.00  0.00     0.049 A 
ATOM     60  C   UNL     1       7.423   2.528 -11.483  1.00  0.00     0.074 A 
ATOM     61  C   UNL     1       9.215   8.575 -12.108  1.00  0.00     0.029 A 
ATOM     62  N   UNL     1       8.407   6.638 -11.294  1.00  0.00    -0.354 N 
ATOM     63  N   UNL     1       7.794   3.804 -11.592  1.00  0.00    -0.248 NA
ATOM     64  C   UNL     1       7.646   1.867 -12.775  1.00  0.00     0.031 C 
ATOM     65  C   UNL     1       9.325   7.640 -13.089  1.00  0.00     0.029 A 
ATOM     66  C   UNL     1       8.815   6.426 -12.592  1.00  0.00     0.049 A 
ATOM     67  H   UNL     1       8.018   5.962 -10.694  1.00  0.00     0.167 HD
ATOM     68  C   UNL     1       8.255   4.045 -12.822  1.00  0.00     0.074 A 
ATOM     69  C   UNL     1       8.159   2.804 -13.603  1.00  0.00     0.031 C 
ATOM     70  C   UNL     1       8.754   5.249 -13.322  1.00  0.00     0.034 A 
BRANCH  57  71
ATOM     71  C   UNL     1       8.696  10.088  -9.684  1.00  0.00     0.023 A 
ATOM     72  C   UNL     1       9.604  10.500  -8.723  1.00  0.00     0.031 A 
ATOM     73  C   UNL     1       8.130  10.957 -10.514  1.00  0.00     0.131 A 
ATOM     74  C   UNL     1       9.632  11.901  -8.524  1.00  0.00     0.055 A 
ATOM     75  C   UNL     1       8.311  12.308 -10.343  1.00  0.00     0.041 A 
ATOM     76  F   UNL     1       7.380  10.515 -11.520  1.00  0.00    -0.206 F 
ATOM     77  C   UNL     1       9.148  12.788  -9.374  1.00  0.00     0.022 A 
BRANCH  74  78
ATOM     78  S   UNL     1      10.386  12.520  -6.999  1.00  0.00     0.124 S 
ATOM     79  O   UNL     1       9.629  11.959  -5.792  1.00  0.00    -0.237 OA
ATOM     80  O   UNL     1      11.849  12.076  -6.936  1.00  0.00    -0.237 OA
ATOM     81  O   UNL     1      10.307  14.228  -6.977  1.00  0.00    -0.744 OA
ENDBRANCH  74  78
ENDBRANCH  57  71
BRANCH  58  82
ATOM     82  C   UNL     1       6.590   0.405 -10.451  1.00  0.00     0.023 A 
ATOM     83  C   UNL     1       7.617  -0.473 -10.758  1.00  0.00     0.031 A 
ATOM     84  C   UNL     1       5.352  -0.029 -10.244  1.00  0.00     0.131 A 
ATOM     85  C   UNL     1       7.176  -1.771 -11.110  1.00  0.00     0.055 A 
ATOM     86  C   UNL     1       5.022  -1.341 -10.479  1.00  0.00     0.041 A 
ATOM     87  F   UNL     1       4.423   0.816  -9.806  1.00  0.00    -0.206 F 
ATOM     88  C   UNL     1       5.976  -2.252 -10.842  1.00  0.00     0.022 A 
BRANCH  85  89
ATOM     89  S   UNL     1       8.338  -2.845 -11.988  1.00  0.00     0.124 S 
ATOM     90  O   UNL     1       8.743  -2.187 -13.309  1.00  0.00    -0.237 OA
ATOM     91  O   UNL     1       9.582  -3.065 -11.124  1.00  0.00    -0.237 OA
ATOM     92  O   UNL     1       7.592  -4.351 -12.306  1.00  0.00    -0.744 OA
ENDBRANCH  85  89
ENDBRANCH  58  82
BRANCH  70  93
ATOM     93  C   UNL     1       9.263   5.270 -14.755  1.00  0.00     0.023 A 
ATOM     94  C   UNL     1       8.397   4.952 -15.788  1.00  0.00     0.031 A 
ATOM     95  C   UNL     1      10.529   5.593 -14.992  1.00  0.00     0.131 A 
ATOM     96  C   UNL     1       9.041   4.721 -17.026  1.00  0.00     0.055 A 
ATOM     97  C   UNL     1      11.057   5.472 -16.254  1.00  0.00     0.041 A 
ATOM     98  F   UNL     1      11.293   6.037 -13.998  1.00  0.00    -0.206 F 
ATOM     99  C   UNL     1      10.272   5.105 -17.312  1.00  0.00     0.022 A 
BRANCH  96 100
ATOM    100  S   UNL     1       8.115   3.838 -18.306  1.00  0.00     0.124 S 
ATOM    101  O   UNL     1       7.729   2.450 -17.790  1.00  0.00    -0.237 OA
ATOM    102  O   UNL     1       6.849   4.624 -18.653  1.00  0.00    -0.237 OA
ATOM    103  O   UNL     1       9.087   3.676 -19.703  1.00  0.00    -0.744 OA
ENDBRANCH  96 100
ENDBRANCH  70  93
ENDBRANCH  44  45
ENDBRANCH  37  39
ENDBRANCH  36  37
ENDBRANCH  35  36
ENDBRANCH  34  35
ENDBRANCH  33  34
ENDBRANCH  32  33
ENDBRANCH   1  32
TORSDOF 25
