REMARK SMILES O=C1NC(=S)S/C1=C\c1ccc(OCc2cn(-c3ccc(C(=O)OCCOCCOCCOCCOC(=O)c4ccc(-c5c6nc(c(-c7cc(S(=O)(=O)[O-])ccc7F)c7ccc([nH]7)c(-c7cc(S(=O)(=O)[O-])ccc7F)c7nc(c(-c8cc(S(=O)(=O)[O-])ccc8F)c8ccc5[nH]8)C=C7)C=C6)cc4)cc3)nn2)cc1
REMARK SMILES IDX 29 1 28 2 27 3 26 4 25 5 24 6 22 7 23 8 21 9 18 10 19 11
REMARK SMILES IDX 103 12 20 13 102 14 17 15 15 16 16 17 105 18 104 19 14 20
REMARK SMILES IDX 13 21 12 22 9 23 10 24 107 25 11 26 106 27 8 28 1 29 2 30
REMARK SMILES IDX 3 31 7 32 4 33 6 35 5 36 30 37 31 38 32 39 33 40 34 41 35 42
REMARK SMILES IDX 36 43 37 44 38 45 39 46 40 47 101 48 41 49 100 50 42 51
REMARK SMILES IDX 43 52 44 53 94 54 45 55 99 56 93 57 95 58 46 59 98 60 92 61
REMARK SMILES IDX 91 62 47 64 79 65 59 66 78 67 60 68 63 69 77 70 96 71 61 72
REMARK SMILES IDX 62 73 76 75 97 76 64 77 48 78 49 79 57 80 50 81 56 82 58 83
REMARK SMILES IDX 55 84 51 85 52 86 53 87 54 88 80 89 81 90 89 91 82 92 88 93
REMARK SMILES IDX 90 94 87 95 83 96 84 97 85 98 86 99 65 100 66 101 74 102
REMARK SMILES IDX 67 103 73 104 75 105 72 106 68 107 69 108 70 109 71 110
REMARK H PARENT 3 34 95 63 63 74
REMARK Flexibility Score: inf
ROOT
ATOM      1  C   UNL     1       7.435   7.917   0.058  1.00  0.00     0.188 C 
ENDROOT
BRANCH   1   2
ATOM      2  C   UNL     1       7.885   8.076  -1.412  1.00  0.00     0.188 C 
BRANCH   2   3
ATOM      3  O   UNL     1       8.951   8.937  -1.787  1.00  0.00    -0.376 OA
BRANCH   3   4
ATOM      4  C   UNL     1       9.131  10.229  -1.234  1.00  0.00     0.202 C 
BRANCH   4   5
ATOM      5  C   UNL     1       7.981  11.203  -0.928  1.00  0.00     0.261 C 
BRANCH   5   6
ATOM      6  O   UNL     1       6.681  10.646  -0.761  1.00  0.00    -0.460 OA
BRANCH   6   7
ATOM      7  C   UNL     1       5.952  10.540  -1.889  1.00  0.00     0.338 C 
ATOM      8  O   UNL     1       6.254  10.912  -3.009  1.00  0.00    -0.246 OA
BRANCH   7   9
ATOM      9  C   UNL     1       4.761   9.720  -1.588  1.00  0.00     0.060 A 
ATOM     10  C   UNL     1       2.469   8.209  -1.175  1.00  0.00     0.066 A 
ATOM     11  C   UNL     1       3.331   7.885  -2.232  1.00  0.00     0.029 A 
ATOM     12  C   UNL     1       2.809   9.216  -0.261  1.00  0.00     0.029 A 
ATOM     13  C   UNL     1       4.453   8.672  -2.462  1.00  0.00     0.018 A 
ATOM     14  C   UNL     1       3.977   9.956  -0.454  1.00  0.00     0.018 A 
BRANCH  10  15
ATOM     15  N   UNL     1       1.198   7.596  -1.139  1.00  0.00    -0.220 N 
ATOM     16  C   UNL     1      -0.963   7.308  -1.146  1.00  0.00     0.120 A 
ATOM     17  C   UNL     1       0.028   8.120  -0.635  1.00  0.00     0.144 A 
ATOM     18  N   UNL     1      -0.378   6.298  -1.861  1.00  0.00    -0.131 NA
ATOM     19  N   UNL     1       0.930   6.476  -1.845  1.00  0.00    -0.062 NA
BRANCH  16  20
ATOM     20  C   UNL     1      -2.447   7.463  -1.129  1.00  0.00     0.289 C 
BRANCH  20  21
ATOM     21  O   UNL     1      -3.130   6.723  -0.108  1.00  0.00    -0.487 OA
BRANCH  21  22
ATOM     22  C   UNL     1      -3.123   5.358  -0.192  1.00  0.00     0.119 A 
ATOM     23  C   UNL     1      -2.908   2.565  -0.021  1.00  0.00    -0.024 A 
ATOM     24  C   UNL     1      -3.372   3.300   1.072  1.00  0.00     0.012 A 
ATOM     25  C   UNL     1      -2.641   3.224  -1.224  1.00  0.00     0.012 A 
ATOM     26  C   UNL     1      -3.476   4.692   0.983  1.00  0.00     0.047 A 
ATOM     27  C   UNL     1      -2.769   4.610  -1.314  1.00  0.00     0.047 A 
BRANCH  23  28
ATOM     28  C   UNL     1      -2.674   1.124   0.090  1.00  0.00     0.029 C 
ATOM     29  O   UNL     1      -2.196  -1.745   0.148  1.00  0.00    -0.268 OA
ATOM     30  C   UNL     1      -1.290  -0.927   0.127  1.00  0.00     0.263 C 
ATOM     31  N   UNL     1       0.041  -1.235   0.090  1.00  0.00    -0.307 N 
ATOM     32  C   UNL     1      -1.463   0.549   0.085  1.00  0.00     0.080 C 
ATOM     33  C   UNL     1       0.936  -0.211   0.011  1.00  0.00     0.145 C 
ATOM     34  H   UNL     1       0.345  -2.171   0.121  1.00  0.00     0.171 HD
ATOM     35  S   UNL     1       0.085   1.315   0.008  1.00  0.00    -0.055 SA
ATOM     36  S   UNL     1       2.572  -0.429  -0.093  1.00  0.00    -0.052 S 
ENDBRANCH  23  28
ENDBRANCH  21  22
ENDBRANCH  20  21
ENDBRANCH  16  20
ENDBRANCH  10  15
ENDBRANCH   7   9
ENDBRANCH   6   7
ENDBRANCH   5   6
ENDBRANCH   4   5
ENDBRANCH   3   4
ENDBRANCH   2   3
ENDBRANCH   1   2
BRANCH   1  37
ATOM     37  O   UNL     1       8.020   8.862   0.938  1.00  0.00    -0.377 OA
BRANCH  37  38
ATOM     38  C   UNL     1       9.188   8.421   1.627  1.00  0.00     0.188 C 
BRANCH  38  39
ATOM     39  C   UNL     1      10.277   7.654   0.830  1.00  0.00     0.188 C 
BRANCH  39  40
ATOM     40  O   UNL     1       9.771   6.693  -0.091  1.00  0.00    -0.376 OA
BRANCH  40  41
ATOM     41  C   UNL     1       9.929   5.300   0.120  1.00  0.00     0.202 C 
BRANCH  41  42
ATOM     42  C   UNL     1       9.062   4.683   1.212  1.00  0.00     0.261 C 
BRANCH  42  43
ATOM     43  O   UNL     1       9.033   5.458   2.392  1.00  0.00    -0.460 OA
BRANCH  43  44
ATOM     44  C   UNL     1      10.207   5.547   3.040  1.00  0.00     0.338 C 
ATOM     45  O   UNL     1      11.305   5.181   2.637  1.00  0.00    -0.246 OA
BRANCH  44  46
ATOM     46  C   UNL     1       9.942   6.066   4.378  1.00  0.00     0.060 A 
ATOM     47  C   UNL     1      11.052   6.127   5.216  1.00  0.00     0.016 A 
ATOM     48  C   UNL     1       8.622   6.005   4.854  1.00  0.00     0.016 A 
ATOM     49  C   UNL     1      10.859   5.762   6.521  1.00  0.00     0.010 A 
ATOM     50  C   UNL     1       8.437   5.608   6.145  1.00  0.00     0.010 A 
ATOM     51  C   UNL     1       9.571   5.386   6.917  1.00  0.00    -0.014 A 
BRANCH  51  52
ATOM     52  C   UNL     1       9.416   4.832   8.236  1.00  0.00     0.031 A 
ATOM     53  C   UNL     1       9.488   5.887   9.259  1.00  0.00     0.074 A 
ATOM     54  C   UNL     1       9.152   3.531   8.441  1.00  0.00     0.049 A 
ATOM     55  N   UNL     1      10.458   6.117  10.076  1.00  0.00    -0.248 NA
ATOM     56  C   UNL     1       8.493   6.972   9.181  1.00  0.00     0.031 C 
ATOM     57  C   UNL     1       8.812   2.502   7.454  1.00  0.00     0.029 A 
ATOM     58  N   UNL     1       9.025   2.874   9.619  1.00  0.00    -0.354 N 
ATOM     59  C   UNL     1      10.047   7.221  10.808  1.00  0.00     0.074 A 
ATOM     60  C   UNL     1       9.013   7.849  10.038  1.00  0.00     0.031 C 
ATOM     61  C   UNL     1       8.283   1.434   8.096  1.00  0.00     0.029 A 
ATOM     62  C   UNL     1       8.357   1.659   9.532  1.00  0.00     0.049 A 
ATOM     63  H   UNL     1       9.377   3.228  10.468  1.00  0.00     0.167 HD
ATOM     64  C   UNL     1      10.355   7.320  12.127  1.00  0.00     0.034 A 
ATOM     65  C   UNL     1       7.820   0.962  10.571  1.00  0.00     0.034 A 
ATOM     66  C   UNL     1      11.476   6.464  12.459  1.00  0.00     0.049 A 
ATOM     67  C   UNL     1       8.494   1.452  11.807  1.00  0.00     0.074 A 
ATOM     68  C   UNL     1      12.771   6.355  11.984  1.00  0.00     0.029 A 
ATOM     69  N   UNL     1      11.220   5.276  13.111  1.00  0.00    -0.354 N 
ATOM     70  N   UNL     1       9.766   1.273  12.046  1.00  0.00    -0.248 NA
ATOM     71  C   UNL     1       7.891   2.575  12.515  1.00  0.00     0.031 C 
ATOM     72  C   UNL     1      13.034   4.955  11.944  1.00  0.00     0.029 A 
ATOM     73  C   UNL     1      11.930   4.285  12.474  1.00  0.00     0.049 A 
ATOM     74  H   UNL     1      10.634   5.158  13.893  1.00  0.00     0.167 HD
ATOM     75  C   UNL     1      10.213   2.481  12.566  1.00  0.00     0.074 A 
ATOM     76  C   UNL     1       8.996   3.212  12.918  1.00  0.00     0.031 C 
ATOM     77  C   UNL     1      11.503   2.898  12.389  1.00  0.00     0.034 A 
BRANCH  64  78
ATOM     78  C   UNL     1       9.389   7.851  13.162  1.00  0.00     0.023 A 
ATOM     79  C   UNL     1       9.840   7.860  14.491  1.00  0.00     0.031 A 
ATOM     80  C   UNL     1       7.999   8.069  12.986  1.00  0.00     0.131 A 
ATOM     81  C   UNL     1       8.933   7.950  15.559  1.00  0.00     0.055 A 
ATOM     82  C   UNL     1       7.111   8.228  14.051  1.00  0.00     0.041 A 
ATOM     83  F   UNL     1       7.393   8.055  11.795  1.00  0.00    -0.206 F 
ATOM     84  C   UNL     1       7.570   8.132  15.349  1.00  0.00     0.022 A 
BRANCH  81  85
ATOM     85  S   UNL     1       9.556   7.634  17.225  1.00  0.00     0.124 S 
ATOM     86  O   UNL     1      10.193   6.333  17.054  1.00  0.00    -0.237 OA
ATOM     87  O   UNL     1      10.449   8.770  17.427  1.00  0.00    -0.237 OA
ATOM     88  O   UNL     1       8.345   7.637  18.042  1.00  0.00    -0.744 OA
ENDBRANCH  81  85
ENDBRANCH  64  78
BRANCH  65  89
ATOM     89  C   UNL     1       6.525   0.219  10.571  1.00  0.00     0.023 A 
ATOM     90  C   UNL     1       6.186  -0.738  11.553  1.00  0.00     0.031 A 
ATOM     91  C   UNL     1       5.483   0.621   9.701  1.00  0.00     0.131 A 
ATOM     92  C   UNL     1       4.866  -1.249  11.628  1.00  0.00     0.055 A 
ATOM     93  C   UNL     1       4.187   0.107   9.774  1.00  0.00     0.041 A 
ATOM     94  F   UNL     1       5.665   1.596   8.798  1.00  0.00    -0.206 F 
ATOM     95  C   UNL     1       3.870  -0.826  10.745  1.00  0.00     0.022 A 
BRANCH  92  96
ATOM     96  S   UNL     1       4.395  -2.423  12.942  1.00  0.00     0.124 S 
ATOM     97  O   UNL     1       5.144  -3.619  12.574  1.00  0.00    -0.237 OA
ATOM     98  O   UNL     1       4.826  -1.731  14.150  1.00  0.00    -0.237 OA
ATOM     99  O   UNL     1       2.943  -2.540  12.791  1.00  0.00    -0.744 OA
ENDBRANCH  92  96
ENDBRANCH  65  89
BRANCH  77 100
ATOM    100  C   UNL     1      12.524   1.897  11.877  1.00  0.00     0.023 A 
ATOM    101  C   UNL     1      12.432   1.190  10.654  1.00  0.00     0.031 A 
ATOM    102  C   UNL     1      13.709   1.754  12.621  1.00  0.00     0.131 A 
ATOM    103  C   UNL     1      13.500   0.373  10.230  1.00  0.00     0.055 A 
ATOM    104  C   UNL     1      14.771   0.963  12.186  1.00  0.00     0.041 A 
ATOM    105  F   UNL     1      13.871   2.419  13.777  1.00  0.00    -0.206 F 
ATOM    106  C   UNL     1      14.669   0.264  10.991  1.00  0.00     0.022 A 
BRANCH 103 107
ATOM    107  S   UNL     1      13.389  -0.585   8.682  1.00  0.00     0.124 S 
ATOM    108  O   UNL     1      12.074  -1.210   8.761  1.00  0.00    -0.237 OA
ATOM    109  O   UNL     1      13.547   0.447   7.661  1.00  0.00    -0.237 OA
ATOM    110  O   UNL     1      14.513  -1.519   8.778  1.00  0.00    -0.744 OA
ENDBRANCH 103 107
ENDBRANCH  77 100
ENDBRANCH  51  52
ENDBRANCH  44  46
ENDBRANCH  43  44
ENDBRANCH  42  43
ENDBRANCH  41  42
ENDBRANCH  40  41
ENDBRANCH  39  40
ENDBRANCH  38  39
ENDBRANCH  37  38
ENDBRANCH   1  37
TORSDOF 28
