REMARK SMILES O=C(OCCOCCOCCOCCOC(=O)[C@@H]1C[NH2+]CCN1C(=O)N[C@@H]1CCOC1)c1ccc(-c2c3nc(c(-c4cc(S(=O)(=O)[O-])ccc4F)c4ccc([nH]4)c(-c4cc(S(=O)(=O)[O-])ccc4F)c4nc(c(-c5cc(S(=O)(=O)[O-])ccc5F)c5ccc2[nH]5)C=C4)C=C3)cc1
REMARK SMILES IDX 8 1 7 2 6 3 5 4 4 5 3 6 2 7 1 8 32 9 33 10 94 11 34 12 93 13
REMARK SMILES IDX 35 14 36 15 37 16 87 17 38 18 92 19 86 20 88 21 39 22 91 23
REMARK SMILES IDX 85 24 84 25 40 27 72 28 52 29 71 30 53 31 56 32 70 33 89 34
REMARK SMILES IDX 54 35 55 36 69 38 90 39 57 40 41 41 42 42 50 43 43 44 49 45
REMARK SMILES IDX 51 46 48 47 44 48 45 49 46 50 47 51 73 52 74 53 82 54 75 55
REMARK SMILES IDX 81 56 83 57 80 58 76 59 77 60 78 61 79 62 58 63 59 64 67 65
REMARK SMILES IDX 60 66 66 67 68 68 65 69 61 70 62 71 63 72 64 73 9 74 10 75
REMARK SMILES IDX 11 76 12 77 13 78 14 79 15 80 16 81 17 82 18 83 19 84 23 85
REMARK SMILES IDX 20 86 22 87 21 88 24 91 25 92 26 93 27 95 28 96 31 97 29 98
REMARK SMILES IDX 30 99
REMARK H PARENT 88 26 56 37 20 89 20 90 26 94
REMARK Flexibility Score: inf
ROOT
ATOM      1  C   UNL     1       2.213  -0.553   2.398  1.00  0.00     0.188 C 
ENDROOT
BRANCH   1   2
ATOM      2  C   UNL     1       2.556   0.633   1.519  1.00  0.00     0.188 C 
BRANCH   2   3
ATOM      3  O   UNL     1       3.716   0.309   0.777  1.00  0.00    -0.376 OA
BRANCH   3   4
ATOM      4  C   UNL     1       4.625   1.368   0.516  1.00  0.00     0.202 C 
BRANCH   4   5
ATOM      5  C   UNL     1       4.040   2.388  -0.455  1.00  0.00     0.261 C 
BRANCH   5   6
ATOM      6  O   UNL     1       3.824   1.728  -1.712  1.00  0.00    -0.460 OA
BRANCH   6   7
ATOM      7  C   UNL     1       2.626   1.119  -1.883  1.00  0.00     0.338 C 
ATOM      8  O   UNL     1       1.527   1.489  -1.493  1.00  0.00    -0.246 OA
BRANCH   7   9
ATOM      9  C   UNL     1       2.932  -0.149  -2.557  1.00  0.00     0.060 A 
ATOM     10  C   UNL     1       3.766  -1.049  -1.887  1.00  0.00     0.016 A 
ATOM     11  C   UNL     1       2.565  -0.373  -3.879  1.00  0.00     0.016 A 
ATOM     12  C   UNL     1       4.376  -2.077  -2.558  1.00  0.00     0.010 A 
ATOM     13  C   UNL     1       3.128  -1.462  -4.548  1.00  0.00     0.010 A 
ATOM     14  C   UNL     1       4.073  -2.280  -3.898  1.00  0.00    -0.014 A 
BRANCH  14  15
ATOM     15  C   UNL     1       4.898  -3.252  -4.628  1.00  0.00     0.031 A 
ATOM     16  C   UNL     1       5.855  -2.725  -5.649  1.00  0.00     0.074 A 
ATOM     17  C   UNL     1       4.868  -4.550  -4.274  1.00  0.00     0.049 A 
ATOM     18  N   UNL     1       6.503  -3.365  -6.578  1.00  0.00    -0.248 NA
ATOM     19  C   UNL     1       6.112  -1.272  -5.623  1.00  0.00     0.031 C 
ATOM     20  C   UNL     1       4.104  -5.104  -3.150  1.00  0.00     0.029 A 
ATOM     21  N   UNL     1       5.500  -5.636  -4.811  1.00  0.00    -0.354 N 
ATOM     22  C   UNL     1       7.175  -2.388  -7.304  1.00  0.00     0.074 A 
ATOM     23  C   UNL     1       6.889  -1.115  -6.684  1.00  0.00     0.031 C 
ATOM     24  C   UNL     1       4.313  -6.427  -3.086  1.00  0.00     0.029 A 
ATOM     25  C   UNL     1       5.112  -6.824  -4.235  1.00  0.00     0.049 A 
ATOM     26  H   UNL     1       6.165  -5.575  -5.535  1.00  0.00     0.167 HD
ATOM     27  C   UNL     1       7.928  -2.567  -8.414  1.00  0.00     0.034 A 
ATOM     28  C   UNL     1       5.301  -8.086  -4.663  1.00  0.00     0.034 A 
ATOM     29  C   UNL     1       8.186  -3.874  -8.959  1.00  0.00     0.049 A 
ATOM     30  C   UNL     1       6.053  -8.256  -5.960  1.00  0.00     0.074 A 
ATOM     31  C   UNL     1       8.893  -4.220 -10.093  1.00  0.00     0.029 A 
ATOM     32  N   UNL     1       7.731  -5.061  -8.389  1.00  0.00    -0.354 N 
ATOM     33  N   UNL     1       6.612  -7.333  -6.714  1.00  0.00    -0.248 NA
ATOM     34  C   UNL     1       6.173  -9.619  -6.483  1.00  0.00     0.031 C 
ATOM     35  C   UNL     1       8.807  -5.609 -10.244  1.00  0.00     0.029 A 
ATOM     36  C   UNL     1       8.106  -6.138  -9.168  1.00  0.00     0.049 A 
ATOM     37  H   UNL     1       7.216  -5.123  -7.552  1.00  0.00     0.167 HD
ATOM     38  C   UNL     1       7.153  -8.008  -7.801  1.00  0.00     0.074 A 
ATOM     39  C   UNL     1       6.882  -9.417  -7.584  1.00  0.00     0.031 C 
ATOM     40  C   UNL     1       7.801  -7.522  -8.892  1.00  0.00     0.034 A 
BRANCH  27  41
ATOM     41  C   UNL     1       8.382  -1.334  -9.150  1.00  0.00     0.023 A 
ATOM     42  C   UNL     1       9.310  -0.426  -8.614  1.00  0.00     0.031 A 
ATOM     43  C   UNL     1       7.806  -1.028 -10.398  1.00  0.00     0.131 A 
ATOM     44  C   UNL     1       9.588   0.771  -9.294  1.00  0.00     0.055 A 
ATOM     45  C   UNL     1       8.138   0.130 -11.101  1.00  0.00     0.041 A 
ATOM     46  F   UNL     1       6.885  -1.840 -10.941  1.00  0.00    -0.206 F 
ATOM     47  C   UNL     1       9.025   1.045 -10.544  1.00  0.00     0.022 A 
BRANCH  44  48
ATOM     48  S   UNL     1      10.601   2.031  -8.469  1.00  0.00     0.124 S 
ATOM     49  O   UNL     1       9.771   2.368  -7.316  1.00  0.00    -0.237 OA
ATOM     50  O   UNL     1      11.834   1.307  -8.179  1.00  0.00    -0.237 OA
ATOM     51  O   UNL     1      10.721   3.087  -9.473  1.00  0.00    -0.744 OA
ENDBRANCH  44  48
ENDBRANCH  27  41
BRANCH  28  52
ATOM     52  C   UNL     1       4.663  -9.242  -3.965  1.00  0.00     0.023 A 
ATOM     53  C   UNL     1       5.428 -10.317  -3.491  1.00  0.00     0.031 A 
ATOM     54  C   UNL     1       3.263  -9.321  -3.814  1.00  0.00     0.131 A 
ATOM     55  C   UNL     1       4.791 -11.442  -2.939  1.00  0.00     0.055 A 
ATOM     56  C   UNL     1       2.640 -10.410  -3.202  1.00  0.00     0.041 A 
ATOM     57  F   UNL     1       2.471  -8.332  -4.258  1.00  0.00    -0.206 F 
ATOM     58  C   UNL     1       3.405 -11.489  -2.777  1.00  0.00     0.022 A 
BRANCH  55  59
ATOM     59  S   UNL     1       5.796 -12.900  -2.547  1.00  0.00     0.124 S 
ATOM     60  O   UNL     1       6.490 -13.130  -3.809  1.00  0.00    -0.237 OA
ATOM     61  O   UNL     1       6.615 -12.410  -1.444  1.00  0.00    -0.237 OA
ATOM     62  O   UNL     1       4.803 -13.909  -2.187  1.00  0.00    -0.744 OA
ENDBRANCH  55  59
ENDBRANCH  28  52
BRANCH  40  63
ATOM     63  C   UNL     1       8.268  -8.539  -9.894  1.00  0.00     0.023 A 
ATOM     64  C   UNL     1       7.354  -9.228 -10.707  1.00  0.00     0.031 A 
ATOM     65  C   UNL     1       9.639  -8.802 -10.046  1.00  0.00     0.131 A 
ATOM     66  C   UNL     1       7.824 -10.185 -11.614  1.00  0.00     0.055 A 
ATOM     67  C   UNL     1      10.103  -9.712 -10.993  1.00  0.00     0.041 A 
ATOM     68  F   UNL     1      10.545  -8.164  -9.288  1.00  0.00    -0.206 F 
ATOM     69  C   UNL     1       9.193 -10.416 -11.777  1.00  0.00     0.022 A 
BRANCH  66  70
ATOM     70  S   UNL     1       6.614 -11.169 -12.536  1.00  0.00     0.124 S 
ATOM     71  O   UNL     1       5.925 -11.881 -11.465  1.00  0.00    -0.237 OA
ATOM     72  O   UNL     1       5.835 -10.145 -13.226  1.00  0.00    -0.237 OA
ATOM     73  O   UNL     1       7.444 -12.004 -13.403  1.00  0.00    -0.744 OA
ENDBRANCH  66  70
ENDBRANCH  40  63
ENDBRANCH  14  15
ENDBRANCH   7   9
ENDBRANCH   6   7
ENDBRANCH   5   6
ENDBRANCH   4   5
ENDBRANCH   3   4
ENDBRANCH   2   3
ENDBRANCH   1   2
BRANCH   1  74
ATOM     74  O   UNL     1       3.295  -0.964   3.225  1.00  0.00    -0.377 OA
BRANCH  74  75
ATOM     75  C   UNL     1       4.441  -1.577   2.623  1.00  0.00     0.188 C 
BRANCH  75  76
ATOM     76  C   UNL     1       4.279  -2.788   1.692  1.00  0.00     0.188 C 
BRANCH  76  77
ATOM     77  O   UNL     1       2.949  -3.232   1.456  1.00  0.00    -0.376 OA
BRANCH  77  78
ATOM     78  C   UNL     1       2.526  -4.329   2.263  1.00  0.00     0.202 C 
BRANCH  78  79
ATOM     79  C   UNL     1       2.018  -3.943   3.666  1.00  0.00     0.261 C 
BRANCH  79  80
ATOM     80  O   UNL     1       2.986  -3.144   4.384  1.00  0.00    -0.462 OA
BRANCH  80  81
ATOM     81  C   UNL     1       3.226  -3.361   5.698  1.00  0.00     0.334 C 
ATOM     82  O   UNL     1       2.627  -4.200   6.365  1.00  0.00    -0.250 OA
BRANCH  81  83
ATOM     83  C   UNL     1       4.431  -2.534   6.239  1.00  0.00     0.252 C 
ATOM     84  C   UNL     1       4.255  -1.000   6.000  1.00  0.00     0.298 C 
ATOM     85  N   UNL     1       5.901  -2.898   6.429  1.00  0.00    -0.300 N 
ATOM     86  N   UNL     1       4.851  -0.160   7.073  1.00  0.00    -0.343 N 
ATOM     87  C   UNL     1       6.438  -2.059   7.534  1.00  0.00     0.183 C 
ATOM     88  C   UNL     1       6.269  -0.544   7.231  1.00  0.00     0.282 C 
ATOM     89  H   UNL     1       4.352  -0.316   7.949  1.00  0.00     0.346 HD
ATOM     90  H   UNL     1       4.780   0.827   6.825  1.00  0.00     0.346 HD
BRANCH  85  91
ATOM     91  C   UNL     1       6.888  -3.161   5.508  1.00  0.00     0.318 C 
ATOM     92  O   UNL     1       7.918  -2.467   5.477  1.00  0.00    -0.249 OA
ATOM     93  N   UNL     1       6.981  -4.206   4.680  1.00  0.00    -0.333 N 
ATOM     94  H   UNL     1       7.826  -4.106   4.186  1.00  0.00     0.165 HD
BRANCH  93  95
ATOM     95  C   UNL     1       6.347  -5.448   4.198  1.00  0.00     0.112 C 
ATOM     96  C   UNL     1       4.927  -5.603   4.579  1.00  0.00     0.056 C 
ATOM     97  C   UNL     1       6.894  -6.765   4.742  1.00  0.00     0.185 C 
ATOM     98  C   UNL     1       5.015  -6.188   5.964  1.00  0.00     0.162 C 
ATOM     99  O   UNL     1       6.131  -7.089   5.921  1.00  0.00    -0.379 OA
ENDBRANCH  93  95
ENDBRANCH  85  91
ENDBRANCH  81  83
ENDBRANCH  80  81
ENDBRANCH  79  80
ENDBRANCH  78  79
ENDBRANCH  77  78
ENDBRANCH  76  77
ENDBRANCH  75  76
ENDBRANCH  74  75
ENDBRANCH   1  74
TORSDOF 25
