REMARK SMILES CCCC[C@@H](C(=O)OCCOCCOCCOCCOC(=O)c1ccc(-c2c3nc(c(-c4cc(S(=O)(=O)[O-])ccc4F)c4ccc([nH]4)c(-c4cc(S(=O)(=O)[O-])ccc4F)c4nc(c(-c5cc(S(=O)(=O)[O-])ccc5F)c5ccc2[nH]5)C=C4)C=C3)cc1)[C@]1(O)COc2cc(O)ccc21
REMARK SMILES IDX 14 1 13 2 12 3 11 4 10 5 9 6 8 7 6 8 7 9 5 10 4 11 3 12 2 13
REMARK SMILES IDX 1 14 86 15 88 16 96 17 89 18 90 19 95 20 91 21 94 22 92 23
REMARK SMILES IDX 87 24 93 26 15 28 16 29 17 30 18 31 19 32 20 33 21 34 22 35
REMARK SMILES IDX 23 36 24 37 85 38 25 39 84 40 26 41 27 42 28 43 78 44 29 45
REMARK SMILES IDX 83 46 77 47 79 48 30 49 82 50 76 51 75 52 31 54 63 55 43 56
REMARK SMILES IDX 62 57 44 58 47 59 61 60 80 61 45 62 46 63 60 65 81 66 48 67
REMARK SMILES IDX 32 68 33 69 41 70 34 71 40 72 42 73 39 74 35 75 36 76 37 77
REMARK SMILES IDX 38 78 64 79 65 80 73 81 66 82 72 83 74 84 71 85 67 86 68 87
REMARK SMILES IDX 69 88 70 89 49 90 50 91 58 92 51 93 57 94 59 95 56 96 52 97
REMARK SMILES IDX 53 98 54 99 55 100
REMARK H PARENT 87 25 93 27 79 53 47 64
REMARK Flexibility Score: inf
ROOT
ATOM      1  O   UNL     1       0.937  -1.080   5.586  1.00  0.00    -0.377 OA
ENDROOT
BRANCH   1   2
ATOM      2  C   UNL     1      -0.018  -0.044   5.724  1.00  0.00     0.188 C 
BRANCH   2   3
ATOM      3  C   UNL     1      -1.387  -0.359   6.344  1.00  0.00     0.188 C 
BRANCH   3   4
ATOM      4  O   UNL     1      -1.730  -1.739   6.430  1.00  0.00    -0.376 OA
BRANCH   4   5
ATOM      5  C   UNL     1      -2.703  -2.171   5.482  1.00  0.00     0.202 C 
BRANCH   5   6
ATOM      6  C   UNL     1      -2.150  -2.287   4.063  1.00  0.00     0.261 C 
BRANCH   6   7
ATOM      7  O   UNL     1      -1.699  -1.001   3.594  1.00  0.00    -0.463 OA
BRANCH   7   8
ATOM      8  C   UNL     1      -2.422  -0.333   2.680  1.00  0.00     0.312 C 
ATOM      9  O   UNL     1      -3.493  -0.718   2.224  1.00  0.00    -0.252 OA
BRANCH   8  10
ATOM     10  C   UNL     1      -1.793   1.005   2.299  1.00  0.00     0.139 C 
BRANCH  10  11
ATOM     11  C   UNL     1      -0.242   1.036   2.146  1.00  0.00     0.019 C 
BRANCH  11  12
ATOM     12  C   UNL     1       0.531  -0.244   1.786  1.00  0.00     0.001 C 
BRANCH  12  13
ATOM     13  C   UNL     1       0.265  -0.839   0.409  1.00  0.00    -0.003 C 
ATOM     14  C   UNL     1       0.934  -0.045  -0.702  1.00  0.00     0.004 C 
ENDBRANCH  12  13
ENDBRANCH  11  12
ENDBRANCH  10  11
BRANCH  10  15
ATOM     15  C   UNL     1      -2.440   2.230   3.066  1.00  0.00     0.140 C 
ATOM     16  C   UNL     1      -1.494   3.212   3.829  1.00  0.00     0.270 C 
ATOM     17  C   UNL     1      -3.409   1.981   4.192  1.00  0.00     0.030 A 
ATOM     18  O   UNL     1      -1.694   3.110   5.258  1.00  0.00    -0.490 OA
ATOM     19  C   UNL     1      -2.920   2.521   5.377  1.00  0.00     0.129 A 
ATOM     20  C   UNL     1      -4.633   1.322   4.207  1.00  0.00     0.014 A 
ATOM     21  C   UNL     1      -3.571   2.380   6.593  1.00  0.00     0.093 A 
ATOM     22  C   UNL     1      -5.304   1.148   5.427  1.00  0.00     0.047 A 
ATOM     23  C   UNL     1      -4.760   1.662   6.608  1.00  0.00     0.119 A 
BRANCH  15  24
ATOM     24  O   UNL     1      -3.122   3.022   2.070  1.00  0.00    -0.381 OA
ATOM     25  H   UNL     1      -2.521   3.199   1.330  1.00  0.00     0.212 HD
ENDBRANCH  15  24
BRANCH  23  26
ATOM     26  O   UNL     1      -5.364   1.452   7.813  1.00  0.00    -0.508 OA
ATOM     27  H   UNL     1      -4.986   1.804   8.594  1.00  0.00     0.293 HD
ENDBRANCH  23  26
ENDBRANCH  10  15
ENDBRANCH   8  10
ENDBRANCH   7   8
ENDBRANCH   6   7
ENDBRANCH   5   6
ENDBRANCH   4   5
ENDBRANCH   3   4
ENDBRANCH   2   3
ENDBRANCH   1   2
BRANCH   1  28
ATOM     28  C   UNL     1       1.036  -2.031   6.635  1.00  0.00     0.188 C 
BRANCH  28  29
ATOM     29  C   UNL     1       0.870  -1.541   8.088  1.00  0.00     0.188 C 
BRANCH  29  30
ATOM     30  O   UNL     1       0.940  -0.128   8.256  1.00  0.00    -0.376 OA
BRANCH  30  31
ATOM     31  C   UNL     1       2.175   0.403   8.717  1.00  0.00     0.202 C 
BRANCH  31  32
ATOM     32  C   UNL     1       3.326   0.363   7.704  1.00  0.00     0.261 C 
BRANCH  32  33
ATOM     33  O   UNL     1       3.774  -0.949   7.332  1.00  0.00    -0.460 OA
BRANCH  33  34
ATOM     34  C   UNL     1       4.182  -1.781   8.316  1.00  0.00     0.338 C 
ATOM     35  O   UNL     1       4.290  -1.525   9.502  1.00  0.00    -0.246 OA
BRANCH  34  36
ATOM     36  C   UNL     1       4.269  -3.131   7.726  1.00  0.00     0.060 A 
ATOM     37  C   UNL     1       3.463  -4.152   8.248  1.00  0.00     0.016 A 
ATOM     38  C   UNL     1       5.083  -3.362   6.615  1.00  0.00     0.016 A 
ATOM     39  C   UNL     1       3.474  -5.414   7.657  1.00  0.00     0.010 A 
ATOM     40  C   UNL     1       5.122  -4.636   6.048  1.00  0.00     0.010 A 
ATOM     41  C   UNL     1       4.335  -5.671   6.581  1.00  0.00    -0.014 A 
BRANCH  41  42
ATOM     42  C   UNL     1       4.592  -7.070   6.171  1.00  0.00     0.031 A 
ATOM     43  C   UNL     1       5.708  -7.801   6.864  1.00  0.00     0.074 A 
ATOM     44  C   UNL     1       3.863  -7.673   5.216  1.00  0.00     0.049 A 
ATOM     45  N   UNL     1       6.167  -9.007   6.661  1.00  0.00    -0.248 NA
ATOM     46  C   UNL     1       6.399  -7.062   7.934  1.00  0.00     0.031 C 
ATOM     47  C   UNL     1       2.733  -7.075   4.508  1.00  0.00     0.029 A 
ATOM     48  N   UNL     1       3.977  -8.928   4.670  1.00  0.00    -0.354 N 
ATOM     49  C   UNL     1       7.194  -9.176   7.582  1.00  0.00     0.074 A 
ATOM     50  C   UNL     1       7.314  -7.936   8.318  1.00  0.00     0.031 C 
ATOM     51  C   UNL     1       2.267  -7.960   3.607  1.00  0.00     0.029 A 
ATOM     52  C   UNL     1       3.087  -9.170   3.650  1.00  0.00     0.049 A 
ATOM     53  H   UNL     1       4.635  -9.592   4.981  1.00  0.00     0.167 HD
ATOM     54  C   UNL     1       7.964 -10.269   7.799  1.00  0.00     0.034 A 
ATOM     55  C   UNL     1       2.974 -10.236   2.831  1.00  0.00     0.034 A 
ATOM     56  C   UNL     1       7.859 -11.482   7.028  1.00  0.00     0.049 A 
ATOM     57  C   UNL     1       3.923 -11.400   3.013  1.00  0.00     0.074 A 
ATOM     58  C   UNL     1       8.584 -12.652   7.160  1.00  0.00     0.029 A 
ATOM     59  N   UNL     1       6.988 -11.669   5.962  1.00  0.00    -0.354 N 
ATOM     60  N   UNL     1       4.878 -11.560   3.902  1.00  0.00    -0.248 NA
ATOM     61  C   UNL     1       3.778 -12.525   2.080  1.00  0.00     0.031 C 
ATOM     62  C   UNL     1       8.204 -13.518   6.129  1.00  0.00     0.029 A 
ATOM     63  C   UNL     1       7.187 -12.921   5.400  1.00  0.00     0.049 A 
ATOM     64  H   UNL     1       6.327 -11.010   5.651  1.00  0.00     0.167 HD
ATOM     65  C   UNL     1       5.429 -12.815   3.648  1.00  0.00     0.074 A 
ATOM     66  C   UNL     1       4.688 -13.374   2.536  1.00  0.00     0.031 C 
ATOM     67  C   UNL     1       6.450 -13.451   4.277  1.00  0.00     0.034 A 
BRANCH  54  68
ATOM     68  C   UNL     1       9.020 -10.161   8.869  1.00  0.00     0.023 A 
ATOM     69  C   UNL     1       8.683  -9.986  10.223  1.00  0.00     0.031 A 
ATOM     70  C   UNL     1      10.382 -10.182   8.525  1.00  0.00     0.131 A 
ATOM     71  C   UNL     1       9.693  -9.767  11.172  1.00  0.00     0.055 A 
ATOM     72  C   UNL     1      11.385 -10.040   9.485  1.00  0.00     0.041 A 
ATOM     73  F   UNL     1      10.762 -10.317   7.244  1.00  0.00    -0.206 F 
ATOM     74  C   UNL     1      11.043  -9.816  10.816  1.00  0.00     0.022 A 
BRANCH  71  75
ATOM     75  S   UNL     1       9.214  -9.273  12.851  1.00  0.00     0.124 S 
ATOM     76  O   UNL     1       8.462  -8.047  12.595  1.00  0.00    -0.237 OA
ATOM     77  O   UNL     1       8.434 -10.418  13.306  1.00  0.00    -0.237 OA
ATOM     78  O   UNL     1      10.494  -9.080  13.529  1.00  0.00    -0.744 OA
ENDBRANCH  71  75
ENDBRANCH  54  68
BRANCH  55  79
ATOM     79  C   UNL     1       1.971 -10.245   1.727  1.00  0.00     0.023 A 
ATOM     80  C   UNL     1       0.936 -11.194   1.689  1.00  0.00     0.031 A 
ATOM     81  C   UNL     1       2.077  -9.345   0.651  1.00  0.00     0.131 A 
ATOM     82  C   UNL     1       0.077 -11.250   0.579  1.00  0.00     0.055 A 
ATOM     83  C   UNL     1       1.190  -9.372  -0.426  1.00  0.00     0.041 A 
ATOM     84  F   UNL     1       3.051  -8.422   0.632  1.00  0.00    -0.206 F 
ATOM     85  C   UNL     1       0.190 -10.338  -0.473  1.00  0.00     0.022 A 
BRANCH  82  86
ATOM     86  S   UNL     1      -1.141 -12.592   0.487  1.00  0.00     0.124 S 
ATOM     87  O   UNL     1      -0.287 -13.773   0.539  1.00  0.00    -0.237 OA
ATOM     88  O   UNL     1      -1.959 -12.338   1.669  1.00  0.00    -0.237 OA
ATOM     89  O   UNL     1      -1.809 -12.358  -0.791  1.00  0.00    -0.744 OA
ENDBRANCH  82  86
ENDBRANCH  55  79
BRANCH  67  90
ATOM     90  C   UNL     1       6.801 -14.837   3.790  1.00  0.00     0.023 A 
ATOM     91  C   UNL     1       7.358 -15.053   2.518  1.00  0.00     0.031 A 
ATOM     92  C   UNL     1       6.571 -15.955   4.611  1.00  0.00     0.131 A 
ATOM     93  C   UNL     1       7.619 -16.362   2.083  1.00  0.00     0.055 A 
ATOM     94  C   UNL     1       6.889 -17.249   4.197  1.00  0.00     0.041 A 
ATOM     95  F   UNL     1       6.040 -15.807   5.835  1.00  0.00    -0.206 F 
ATOM     96  C   UNL     1       7.405 -17.459   2.921  1.00  0.00     0.022 A 
BRANCH  93  97
ATOM     97  S   UNL     1       8.165 -16.620   0.373  1.00  0.00     0.124 S 
ATOM     98  O   UNL     1       7.059 -16.047  -0.388  1.00  0.00    -0.237 OA
ATOM     99  O   UNL     1       9.421 -15.879   0.329  1.00  0.00    -0.237 OA
ATOM    100  O   UNL     1       8.300 -18.072   0.271  1.00  0.00    -0.744 OA
ENDBRANCH  93  97
ENDBRANCH  67  90
ENDBRANCH  41  42
ENDBRANCH  34  36
ENDBRANCH  33  34
ENDBRANCH  32  33
ENDBRANCH  31  32
ENDBRANCH  30  31
ENDBRANCH  29  30
ENDBRANCH  28  29
ENDBRANCH   1  28
TORSDOF 29
