REMARK SMILES Cc1ccc(OCCC(=O)N2C[C@H](O)C[C@@H]2C(=O)OCCOCCOCCOCCOC(=O)c2ccc(-c3c4nc(c(-c5cc(S(=O)(=O)[O-])ccc5F)c5ccc([nH]5)c(-c5cc(S(=O)(=O)[O-])ccc5F)c5nc(c(-c6cc(S(=O)(=O)[O-])ccc6F)c6ccc3[nH]6)C=C5)C=C4)cc2)cc1
REMARK SMILES IDX 24 1 23 2 22 3 21 4 20 5 19 6 17 7 18 8 16 9 11 10 12 11
REMARK SMILES IDX 13 12 15 13 9 14 10 15 8 16 7 17 6 18 5 19 1 20 2 21 3 22
REMARK SMILES IDX 98 23 4 24 97 25 14 26 25 28 26 29 27 30 28 31 29 32 30 33
REMARK SMILES IDX 31 34 32 35 33 36 34 37 35 38 96 39 36 40 95 41 37 42 38 43
REMARK SMILES IDX 39 44 89 45 40 46 94 47 88 48 90 49 41 50 93 51 87 52 86 53
REMARK SMILES IDX 42 55 74 56 54 57 73 58 55 59 58 60 72 61 91 62 56 63 57 64
REMARK SMILES IDX 71 66 92 67 59 68 43 69 44 70 52 71 45 72 51 73 53 74 50 75
REMARK SMILES IDX 46 76 47 77 48 78 49 79 75 80 76 81 84 82 77 83 83 84 85 85
REMARK SMILES IDX 82 86 78 87 79 88 80 89 81 90 60 91 61 92 69 93 62 94 68 95
REMARK SMILES IDX 70 96 67 97 63 98 64 99 65 100 66 101
REMARK H PARENT 14 27 90 54 58 65
REMARK Flexibility Score: inf
ROOT
ATOM      1  C   UNL     1       1.343  -2.298   3.241  1.00  0.00     0.188 C 
ENDROOT
BRANCH   1   2
ATOM      2  C   UNL     1       2.530  -1.369   3.518  1.00  0.00     0.188 C 
BRANCH   2   3
ATOM      3  O   UNL     1       2.635  -1.038   4.901  1.00  0.00    -0.376 OA
BRANCH   3   4
ATOM      4  C   UNL     1       1.558  -0.228   5.380  1.00  0.00     0.202 C 
BRANCH   4   5
ATOM      5  C   UNL     1       1.419   1.121   4.676  1.00  0.00     0.261 C 
BRANCH   5   6
ATOM      6  O   UNL     1       0.559   1.083   3.514  1.00  0.00    -0.462 OA
BRANCH   6   7
ATOM      7  C   UNL     1       0.933   1.873   2.472  1.00  0.00     0.329 C 
ATOM      8  O   UNL     1       1.951   2.561   2.469  1.00  0.00    -0.250 OA
BRANCH   7   9
ATOM      9  C   UNL     1       0.175   1.564   1.167  1.00  0.00     0.197 C 
ATOM     10  N   UNL     1      -1.293   1.476   1.079  1.00  0.00    -0.326 N 
ATOM     11  C   UNL     1      -1.703   0.098   1.232  1.00  0.00     0.152 C 
ATOM     12  C   UNL     1      -0.620  -0.639   0.465  1.00  0.00     0.136 C 
ATOM     13  C   UNL     1       0.646   0.164   0.722  1.00  0.00     0.070 C 
BRANCH  10  14
ATOM     14  C   UNL     1      -2.031   2.478   0.486  1.00  0.00     0.226 C 
ATOM     15  O   UNL     1      -1.558   3.597   0.271  1.00  0.00    -0.275 OA
BRANCH  14  16
ATOM     16  C   UNL     1      -3.436   2.164  -0.002  1.00  0.00     0.141 C 
BRANCH  16  17
ATOM     17  C   UNL     1      -3.520   1.973  -1.526  1.00  0.00     0.239 C 
BRANCH  17  18
ATOM     18  O   UNL     1      -2.958   0.764  -2.058  1.00  0.00    -0.493 OA
BRANCH  18  19
ATOM     19  C   UNL     1      -1.663   0.748  -2.507  1.00  0.00     0.119 A 
ATOM     20  C   UNL     1       2.562  -0.018  -2.553  1.00  0.00     0.044 C 
ATOM     21  C   UNL     1       1.103   0.281  -2.761  1.00  0.00    -0.051 A 
ATOM     22  C   UNL     1       0.194  -0.752  -3.006  1.00  0.00     0.007 A 
ATOM     23  C   UNL     1       0.611   1.576  -2.560  1.00  0.00     0.007 A 
ATOM     24  C   UNL     1      -1.185  -0.513  -2.899  1.00  0.00     0.046 A 
ATOM     25  C   UNL     1      -0.765   1.808  -2.436  1.00  0.00     0.046 A 
ENDBRANCH  18  19
ENDBRANCH  17  18
ENDBRANCH  16  17
ENDBRANCH  14  16
ENDBRANCH  10  14
BRANCH  12  26
ATOM     26  O   UNL     1      -0.509  -2.031   0.680  1.00  0.00    -0.391 OA
ATOM     27  H   UNL     1      -0.278  -2.198   1.607  1.00  0.00     0.211 HD
ENDBRANCH  12  26
ENDBRANCH   7   9
ENDBRANCH   6   7
ENDBRANCH   5   6
ENDBRANCH   4   5
ENDBRANCH   3   4
ENDBRANCH   2   3
ENDBRANCH   1   2
BRANCH   1  28
ATOM     28  O   UNL     1       0.093  -1.613   3.268  1.00  0.00    -0.377 OA
BRANCH  28  29
ATOM     29  C   UNL     1      -1.082  -2.300   3.714  1.00  0.00     0.188 C 
BRANCH  29  30
ATOM     30  C   UNL     1      -1.129  -3.807   3.528  1.00  0.00     0.188 C 
BRANCH  30  31
ATOM     31  O   UNL     1      -0.200  -4.343   4.459  1.00  0.00    -0.376 OA
BRANCH  31  32
ATOM     32  C   UNL     1       0.317  -5.622   4.155  1.00  0.00     0.202 C 
BRANCH  32  33
ATOM     33  C   UNL     1      -0.565  -6.681   4.798  1.00  0.00     0.261 C 
BRANCH  33  34
ATOM     34  O   UNL     1      -0.686  -6.355   6.200  1.00  0.00    -0.460 OA
BRANCH  34  35
ATOM     35  C   UNL     1      -1.929  -5.924   6.557  1.00  0.00     0.338 C 
ATOM     36  O   UNL     1      -2.955  -6.542   6.340  1.00  0.00    -0.246 OA
BRANCH  35  37
ATOM     37  C   UNL     1      -1.881  -4.537   7.117  1.00  0.00     0.060 A 
ATOM     38  C   UNL     1      -3.072  -3.804   7.233  1.00  0.00     0.016 A 
ATOM     39  C   UNL     1      -0.667  -3.887   7.331  1.00  0.00     0.016 A 
ATOM     40  C   UNL     1      -3.038  -2.414   7.449  1.00  0.00     0.010 A 
ATOM     41  C   UNL     1      -0.640  -2.502   7.488  1.00  0.00     0.010 A 
ATOM     42  C   UNL     1      -1.818  -1.731   7.502  1.00  0.00    -0.014 A 
BRANCH  42  43
ATOM     43  C   UNL     1      -1.678  -0.262   7.287  1.00  0.00     0.031 A 
ATOM     44  C   UNL     1      -0.624   0.564   7.995  1.00  0.00     0.074 A 
ATOM     45  C   UNL     1      -2.271   0.287   6.189  1.00  0.00     0.049 A 
ATOM     46  N   UNL     1      -0.405   1.822   7.771  1.00  0.00    -0.248 NA
ATOM     47  C   UNL     1       0.288   0.065   9.029  1.00  0.00     0.031 C 
ATOM     48  C   UNL     1      -1.785   1.441   5.443  1.00  0.00     0.029 A 
ATOM     49  N   UNL     1      -3.425  -0.061   5.477  1.00  0.00    -0.354 N 
ATOM     50  C   UNL     1       0.868   2.130   8.203  1.00  0.00     0.074 A 
ATOM     51  C   UNL     1       1.177   1.066   9.125  1.00  0.00     0.031 C 
ATOM     52  C   UNL     1      -2.600   1.762   4.437  1.00  0.00     0.029 A 
ATOM     53  C   UNL     1      -3.819   1.059   4.705  1.00  0.00     0.049 A 
ATOM     54  H   UNL     1      -3.882  -0.932   5.508  1.00  0.00     0.167 HD
ATOM     55  C   UNL     1       1.564   3.139   7.585  1.00  0.00     0.034 A 
ATOM     56  C   UNL     1      -4.987   1.731   4.944  1.00  0.00     0.034 A 
ATOM     57  C   UNL     1       0.711   3.959   6.704  1.00  0.00     0.049 A 
ATOM     58  C   UNL     1      -4.779   3.160   5.419  1.00  0.00     0.074 A 
ATOM     59  C   UNL     1       0.789   4.397   5.388  1.00  0.00     0.029 A 
ATOM     60  N   UNL     1      -0.546   4.350   7.154  1.00  0.00    -0.354 N 
ATOM     61  N   UNL     1      -3.641   3.575   5.917  1.00  0.00    -0.248 NA
ATOM     62  C   UNL     1      -5.739   4.255   5.313  1.00  0.00     0.031 C 
ATOM     63  C   UNL     1      -0.461   4.984   5.039  1.00  0.00     0.029 A 
ATOM     64  C   UNL     1      -1.267   4.973   6.164  1.00  0.00     0.049 A 
ATOM     65  H   UNL     1      -0.878   4.199   8.069  1.00  0.00     0.167 HD
ATOM     66  C   UNL     1      -3.656   4.929   6.102  1.00  0.00     0.074 A 
ATOM     67  C   UNL     1      -5.018   5.303   5.764  1.00  0.00     0.031 C 
ATOM     68  C   UNL     1      -2.534   5.613   6.485  1.00  0.00     0.034 A 
BRANCH  55  69
ATOM     69  C   UNL     1       3.086   3.320   7.592  1.00  0.00     0.023 A 
ATOM     70  C   UNL     1       3.660   4.476   7.001  1.00  0.00     0.031 A 
ATOM     71  C   UNL     1       4.021   2.361   8.036  1.00  0.00     0.131 A 
ATOM     72  C   UNL     1       5.059   4.636   6.875  1.00  0.00     0.055 A 
ATOM     73  C   UNL     1       5.411   2.553   7.976  1.00  0.00     0.041 A 
ATOM     74  F   UNL     1       3.651   1.160   8.495  1.00  0.00    -0.206 F 
ATOM     75  C   UNL     1       5.938   3.691   7.392  1.00  0.00     0.022 A 
BRANCH  72  76
ATOM     76  S   UNL     1       5.743   6.081   6.006  1.00  0.00     0.124 S 
ATOM     77  O   UNL     1       5.450   5.769   4.611  1.00  0.00    -0.237 OA
ATOM     78  O   UNL     1       5.000   7.191   6.593  1.00  0.00    -0.237 OA
ATOM     79  O   UNL     1       7.163   6.045   6.357  1.00  0.00    -0.744 OA
ENDBRANCH  72  76
ENDBRANCH  55  69
BRANCH  56  80
ATOM     80  C   UNL     1      -6.116   0.777   5.110  1.00  0.00     0.023 A 
ATOM     81  C   UNL     1      -6.359   0.012   3.945  1.00  0.00     0.031 A 
ATOM     82  C   UNL     1      -6.355   0.172   6.355  1.00  0.00     0.131 A 
ATOM     83  C   UNL     1      -6.514  -1.377   4.048  1.00  0.00     0.055 A 
ATOM     84  C   UNL     1      -6.626  -1.202   6.446  1.00  0.00     0.041 A 
ATOM     85  F   UNL     1      -6.130   0.845   7.493  1.00  0.00    -0.206 F 
ATOM     86  C   UNL     1      -6.639  -1.994   5.294  1.00  0.00     0.022 A 
BRANCH  83  87
ATOM     87  S   UNL     1      -6.169  -2.369   2.558  1.00  0.00     0.124 S 
ATOM     88  O   UNL     1      -7.382  -2.172   1.774  1.00  0.00    -0.237 OA
ATOM     89  O   UNL     1      -4.957  -1.740   2.034  1.00  0.00    -0.237 OA
ATOM     90  O   UNL     1      -5.964  -3.716   3.084  1.00  0.00    -0.744 OA
ENDBRANCH  83  87
ENDBRANCH  56  80
BRANCH  68  91
ATOM     91  C   UNL     1      -2.465   6.967   7.167  1.00  0.00     0.023 A 
ATOM     92  C   UNL     1      -3.595   7.679   7.574  1.00  0.00     0.031 A 
ATOM     93  C   UNL     1      -1.216   7.515   7.582  1.00  0.00     0.131 A 
ATOM     94  C   UNL     1      -3.472   8.864   8.325  1.00  0.00     0.055 A 
ATOM     95  C   UNL     1      -1.100   8.656   8.376  1.00  0.00     0.041 A 
ATOM     96  F   UNL     1      -0.041   6.950   7.272  1.00  0.00    -0.206 F 
ATOM     97  C   UNL     1      -2.236   9.344   8.753  1.00  0.00     0.022 A 
BRANCH  94  98
ATOM     98  S   UNL     1      -4.982   9.776   8.725  1.00  0.00     0.124 S 
ATOM     99  O   UNL     1      -5.459  10.161   7.400  1.00  0.00    -0.237 OA
ATOM    100  O   UNL     1      -5.781   8.769   9.417  1.00  0.00    -0.237 OA
ATOM    101  O   UNL     1      -4.511  10.877   9.562  1.00  0.00    -0.744 OA
ENDBRANCH  94  98
ENDBRANCH  68  91
ENDBRANCH  42  43
ENDBRANCH  35  37
ENDBRANCH  34  35
ENDBRANCH  33  34
ENDBRANCH  32  33
ENDBRANCH  31  32
ENDBRANCH  30  31
ENDBRANCH  29  30
ENDBRANCH  28  29
ENDBRANCH   1  28
TORSDOF 29
