REMARK SMILES Cc1cc(C)n2nc(SCC(=O)N3CCC(C(=O)OCCOCCOCCOCCOC(=O)c4ccc(-c5c6nc(c(-c7cc(S(=O)(=O)[O-])ccc7F)c7ccc([nH]7)c(-c7cc(S(=O)(=O)[O-])ccc7F)c7nc(c(-c8cc(S(=O)(=O)[O-])ccc8F)c8ccc5[nH]8)C=C7)C=C6)cc4)CC3)nc2n1
REMARK SMILES IDX 25 1 24 2 23 3 22 4 21 5 20 6 19 7 17 8 18 9 16 10 11 11
REMARK SMILES IDX 12 12 13 13 14 14 98 15 15 16 97 17 10 18 9 19 8 20 1 21
REMARK SMILES IDX 2 22 3 23 101 24 4 25 100 26 5 27 6 28 99 29 7 30 26 31
REMARK SMILES IDX 27 32 28 33 29 34 30 35 31 36 32 37 33 38 34 39 35 40 96 41
REMARK SMILES IDX 36 42 95 43 37 44 38 45 39 46 89 47 40 48 94 49 88 50 90 51
REMARK SMILES IDX 41 52 93 53 87 54 86 55 42 57 74 58 54 59 73 60 55 61 58 62
REMARK SMILES IDX 72 63 91 64 56 65 57 66 71 68 92 69 59 70 43 71 44 72 52 73
REMARK SMILES IDX 45 74 51 75 53 76 50 77 46 78 47 79 48 80 49 81 75 82 76 83
REMARK SMILES IDX 84 84 77 85 83 86 85 87 82 88 78 89 79 90 80 91 81 92 60 93
REMARK SMILES IDX 61 94 69 95 62 96 68 97 70 98 67 99 63 100 64 101 65 102
REMARK SMILES IDX 66 103
REMARK H PARENT 90 56 58 67
REMARK Flexibility Score: inf
ROOT
ATOM      1  O   UNL     1       6.168  -2.757  -7.705  1.00  0.00    -0.377 OA
ENDROOT
BRANCH   1   2
ATOM      2  C   UNL     1       5.967  -2.231  -8.999  1.00  0.00     0.188 C 
BRANCH   2   3
ATOM      3  C   UNL     1       6.582  -0.844  -9.284  1.00  0.00     0.188 C 
BRANCH   3   4
ATOM      4  O   UNL     1       7.420  -0.195  -8.334  1.00  0.00    -0.376 OA
BRANCH   4   5
ATOM      5  C   UNL     1       7.200  -0.404  -6.949  1.00  0.00     0.202 C 
BRANCH   5   6
ATOM      6  C   UNL     1       5.822  -0.070  -6.350  1.00  0.00     0.261 C 
BRANCH   6   7
ATOM      7  O   UNL     1       4.666  -0.419  -7.140  1.00  0.00    -0.463 OA
BRANCH   7   8
ATOM      8  C   UNL     1       4.098   0.594  -7.837  1.00  0.00     0.309 C 
ATOM      9  O   UNL     1       4.496   1.756  -7.815  1.00  0.00    -0.252 OA
BRANCH   8  10
ATOM     10  C   UNL     1       2.872   0.201  -8.656  1.00  0.00     0.103 C 
ATOM     11  C   UNL     1      -0.606  -1.751  -8.131  1.00  0.00     0.233 C 
ATOM     12  O   UNL     1      -0.305  -2.925  -7.883  1.00  0.00    -0.274 OA
ATOM     13  N   UNL     1       0.235  -0.954  -8.899  1.00  0.00    -0.342 N 
ATOM     14  C   UNL     1       1.308  -1.593  -9.633  1.00  0.00     0.120 C 
ATOM     15  C   UNL     1       0.393   0.489  -8.790  1.00  0.00     0.120 C 
ATOM     16  C   UNL     1       2.670  -1.278  -9.027  1.00  0.00     0.037 C 
ATOM     17  C   UNL     1       1.637   0.771  -7.953  1.00  0.00     0.037 C 
BRANCH  11  18
ATOM     18  C   UNL     1      -2.016  -1.274  -7.832  1.00  0.00     0.178 C 
BRANCH  18  19
ATOM     19  S   UNL     1      -2.243   0.132  -6.745  1.00  0.00    -0.074 SA
BRANCH  19  20
ATOM     20  C   UNL     1      -1.302  -0.251  -5.342  1.00  0.00     0.211 A 
ATOM     21  C   UNL     1       0.959   0.130  -0.084  1.00  0.00     0.067 C 
ATOM     22  C   UNL     1       0.504  -0.344  -1.441  1.00  0.00     0.043 A 
ATOM     23  C   UNL     1       0.640  -1.810  -1.724  1.00  0.00     0.047 A 
ATOM     24  N   UNL     1       0.035   0.538  -2.271  1.00  0.00    -0.216 NA
ATOM     25  C   UNL     1       0.202  -2.233  -2.924  1.00  0.00     0.045 A 
ATOM     26  C   UNL     1      -0.409   0.065  -3.470  1.00  0.00     0.253 A 
ATOM     27  C   UNL     1       0.263  -3.664  -3.357  1.00  0.00     0.067 C 
ATOM     28  N   UNL     1      -0.347  -1.295  -3.806  1.00  0.00    -0.200 N 
ATOM     29  N   UNL     1      -0.985   0.723  -4.448  1.00  0.00    -0.183 NA
ATOM     30  N   UNL     1      -0.921  -1.482  -5.019  1.00  0.00    -0.138 NA
ENDBRANCH  19  20
ENDBRANCH  18  19
ENDBRANCH  11  18
ENDBRANCH   8  10
ENDBRANCH   7   8
ENDBRANCH   6   7
ENDBRANCH   5   6
ENDBRANCH   4   5
ENDBRANCH   3   4
ENDBRANCH   2   3
ENDBRANCH   1   2
BRANCH   1  31
ATOM     31  C   UNL     1       7.095  -3.832  -7.642  1.00  0.00     0.188 C 
BRANCH  31  32
ATOM     32  C   UNL     1       8.457  -3.589  -8.334  1.00  0.00     0.188 C 
BRANCH  32  33
ATOM     33  O   UNL     1       8.379  -2.973  -9.620  1.00  0.00    -0.376 OA
BRANCH  33  34
ATOM     34  C   UNL     1       8.523  -3.721 -10.821  1.00  0.00     0.202 C 
BRANCH  34  35
ATOM     35  C   UNL     1       7.417  -4.708 -11.210  1.00  0.00     0.261 C 
BRANCH  35  36
ATOM     36  O   UNL     1       6.958  -5.513 -10.144  1.00  0.00    -0.460 OA
BRANCH  36  37
ATOM     37  C   UNL     1       7.902  -6.321  -9.617  1.00  0.00     0.338 C 
ATOM     38  O   UNL     1       9.087  -6.327  -9.865  1.00  0.00    -0.246 OA
BRANCH  37  39
ATOM     39  C   UNL     1       7.239  -7.250  -8.703  1.00  0.00     0.060 A 
ATOM     40  C   UNL     1       8.081  -8.032  -7.914  1.00  0.00     0.016 A 
ATOM     41  C   UNL     1       5.892  -7.564  -8.934  1.00  0.00     0.016 A 
ATOM     42  C   UNL     1       7.665  -9.307  -7.637  1.00  0.00     0.010 A 
ATOM     43  C   UNL     1       5.485  -8.839  -8.667  1.00  0.00     0.010 A 
ATOM     44  C   UNL     1       6.428  -9.716  -8.144  1.00  0.00    -0.014 A 
BRANCH  44  45
ATOM     45  C   UNL     1       6.109 -11.118  -8.102  1.00  0.00     0.031 A 
ATOM     46  C   UNL     1       5.685 -11.537  -6.759  1.00  0.00     0.074 A 
ATOM     47  C   UNL     1       6.132 -11.887  -9.206  1.00  0.00     0.049 A 
ATOM     48  N   UNL     1       6.387 -12.194  -5.900  1.00  0.00    -0.248 NA
ATOM     49  C   UNL     1       4.453 -10.948  -6.212  1.00  0.00     0.031 C 
ATOM     50  C   UNL     1       6.321 -11.498 -10.605  1.00  0.00     0.029 A 
ATOM     51  N   UNL     1       5.900 -13.218  -9.297  1.00  0.00    -0.354 N 
ATOM     52  C   UNL     1       5.562 -12.330  -4.796  1.00  0.00     0.074 A 
ATOM     53  C   UNL     1       4.526 -11.344  -4.941  1.00  0.00     0.031 C 
ATOM     54  C   UNL     1       5.961 -12.529 -11.408  1.00  0.00     0.029 A 
ATOM     55  C   UNL     1       5.644 -13.684 -10.582  1.00  0.00     0.049 A 
ATOM     56  H   UNL     1       5.912 -13.812  -8.512  1.00  0.00     0.167 HD
ATOM     57  C   UNL     1       5.626 -13.440  -4.017  1.00  0.00     0.034 A 
ATOM     58  C   UNL     1       5.140 -14.910 -10.897  1.00  0.00     0.034 A 
ATOM     59  C   UNL     1       6.852 -14.171  -4.242  1.00  0.00     0.049 A 
ATOM     60  C   UNL     1       5.453 -15.791  -9.736  1.00  0.00     0.074 A 
ATOM     61  C   UNL     1       8.193 -13.861  -4.116  1.00  0.00     0.029 A 
ATOM     62  N   UNL     1       6.800 -15.269  -5.072  1.00  0.00    -0.354 N 
ATOM     63  N   UNL     1       6.675 -16.096  -9.385  1.00  0.00    -0.248 NA
ATOM     64  C   UNL     1       4.462 -15.890  -8.672  1.00  0.00     0.031 C 
ATOM     65  C   UNL     1       8.820 -14.464  -5.246  1.00  0.00     0.029 A 
ATOM     66  C   UNL     1       7.850 -15.175  -5.956  1.00  0.00     0.049 A 
ATOM     67  H   UNL     1       6.132 -15.992  -5.038  1.00  0.00     0.167 HD
ATOM     68  C   UNL     1       6.687 -16.006  -8.000  1.00  0.00     0.074 A 
ATOM     69  C   UNL     1       5.276 -15.948  -7.613  1.00  0.00     0.031 C 
ATOM     70  C   UNL     1       7.825 -15.684  -7.317  1.00  0.00     0.034 A 
BRANCH  57  71
ATOM     71  C   UNL     1       4.425 -14.044  -3.344  1.00  0.00     0.023 A 
ATOM     72  C   UNL     1       4.647 -15.076  -2.421  1.00  0.00     0.031 A 
ATOM     73  C   UNL     1       3.081 -13.845  -3.747  1.00  0.00     0.131 A 
ATOM     74  C   UNL     1       3.584 -15.882  -1.983  1.00  0.00     0.055 A 
ATOM     75  C   UNL     1       2.020 -14.604  -3.257  1.00  0.00     0.041 A 
ATOM     76  F   UNL     1       2.731 -12.979  -4.706  1.00  0.00    -0.206 F 
ATOM     77  C   UNL     1       2.271 -15.649  -2.387  1.00  0.00     0.022 A 
BRANCH  74  78
ATOM     78  S   UNL     1       3.968 -17.332  -0.974  1.00  0.00     0.124 S 
ATOM     79  O   UNL     1       4.880 -18.067  -1.844  1.00  0.00    -0.237 OA
ATOM     80  O   UNL     1       4.561 -16.723   0.213  1.00  0.00    -0.237 OA
ATOM     81  O   UNL     1       2.663 -17.956  -0.767  1.00  0.00    -0.744 OA
ENDBRANCH  74  78
ENDBRANCH  57  71
BRANCH  58  82
ATOM     82  C   UNL     1       4.081 -15.229 -11.905  1.00  0.00     0.023 A 
ATOM     83  C   UNL     1       3.750 -16.558 -12.258  1.00  0.00     0.031 A 
ATOM     84  C   UNL     1       3.189 -14.226 -12.349  1.00  0.00     0.131 A 
ATOM     85  C   UNL     1       2.577 -16.835 -13.004  1.00  0.00     0.055 A 
ATOM     86  C   UNL     1       2.033 -14.505 -13.085  1.00  0.00     0.041 A 
ATOM     87  F   UNL     1       3.356 -12.940 -12.008  1.00  0.00    -0.206 F 
ATOM     88  C   UNL     1       1.715 -15.814 -13.405  1.00  0.00     0.022 A 
BRANCH  85  89
ATOM     89  S   UNL     1       2.083 -18.554 -13.368  1.00  0.00     0.124 S 
ATOM     90  O   UNL     1       2.984 -18.906 -14.459  1.00  0.00    -0.237 OA
ATOM     91  O   UNL     1       2.312 -19.228 -12.095  1.00  0.00    -0.237 OA
ATOM     92  O   UNL     1       0.675 -18.429 -13.747  1.00  0.00    -0.744 OA
ENDBRANCH  85  89
ENDBRANCH  58  82
BRANCH  70  93
ATOM     93  C   UNL     1       9.143 -15.672  -8.069  1.00  0.00     0.023 A 
ATOM     94  C   UNL     1       9.474 -14.787  -9.123  1.00  0.00     0.031 A 
ATOM     95  C   UNL     1      10.162 -16.502  -7.571  1.00  0.00     0.131 A 
ATOM     96  C   UNL     1      10.790 -14.762  -9.635  1.00  0.00     0.055 A 
ATOM     97  C   UNL     1      11.464 -16.460  -8.066  1.00  0.00     0.041 A 
ATOM     98  F   UNL     1       9.915 -17.340  -6.551  1.00  0.00    -0.206 F 
ATOM     99  C   UNL     1      11.784 -15.590  -9.101  1.00  0.00     0.022 A 
BRANCH  96 100
ATOM    100  S   UNL     1      11.247 -13.628 -10.991  1.00  0.00     0.124 S 
ATOM    101  O   UNL     1      10.315 -13.986 -12.054  1.00  0.00    -0.237 OA
ATOM    102  O   UNL     1      11.055 -12.313 -10.386  1.00  0.00    -0.237 OA
ATOM    103  O   UNL     1      12.644 -13.968 -11.268  1.00  0.00    -0.744 OA
ENDBRANCH  96 100
ENDBRANCH  70  93
ENDBRANCH  44  45
ENDBRANCH  37  39
ENDBRANCH  36  37
ENDBRANCH  35  36
ENDBRANCH  34  35
ENDBRANCH  33  34
ENDBRANCH  32  33
ENDBRANCH  31  32
ENDBRANCH   1  31
TORSDOF 26
