REMARK SMILES C[C@@H](CNc1cccc(F)c1C(=O)OCCOCCOCCOCCOC(=O)c1ccc(-c2c3nc(c(-c4cc(S(=O)(=O)[O-])ccc4F)c4ccc([nH]4)c(-c4cc(S(=O)(=O)[O-])ccc4F)c4nc(c(-c5cc(S(=O)(=O)[O-])ccc5F)c5ccc2[nH]5)C=C4)C=C3)cc1)[NH+]1CCCCC1
REMARK SMILES IDX 19 1 18 2 17 3 16 4 15 5 14 6 12 7 13 8 11 9 5 10 6 11 7 12
REMARK SMILES IDX 9 13 8 14 10 15 4 16 3 18 2 19 1 20 92 21 93 22 97 23 94 25
REMARK SMILES IDX 96 26 95 27 20 28 21 29 22 30 23 31 24 32 25 33 26 34 27 35
REMARK SMILES IDX 28 36 29 37 30 38 91 39 31 40 90 41 32 42 33 43 34 44 84 45
REMARK SMILES IDX 35 46 89 47 83 48 85 49 36 50 88 51 82 52 81 53 37 55 69 56
REMARK SMILES IDX 49 57 68 58 50 59 53 60 67 61 86 62 51 63 52 64 66 66 87 67
REMARK SMILES IDX 54 68 38 69 39 70 47 71 40 72 46 73 48 74 45 75 41 76 42 77
REMARK SMILES IDX 43 78 44 79 70 80 71 81 79 82 72 83 78 84 80 85 77 86 73 87
REMARK SMILES IDX 74 88 75 89 76 90 55 91 56 92 64 93 57 94 63 95 65 96 62 97
REMARK SMILES IDX 58 98 59 99 60 100 61 101
REMARK H PARENT 4 17 92 24 85 54 53 65
REMARK Flexibility Score: inf
ROOT
ATOM      1  C   UNL     1      -0.444   4.255   3.058  1.00  0.00     0.188 C 
ENDROOT
BRANCH   1   2
ATOM      2  C   UNL     1      -0.523   3.604   1.665  1.00  0.00     0.188 C 
BRANCH   2   3
ATOM      3  O   UNL     1      -1.528   4.108   0.793  1.00  0.00    -0.376 OA
BRANCH   3   4
ATOM      4  C   UNL     1      -2.692   3.303   0.646  1.00  0.00     0.202 C 
BRANCH   4   5
ATOM      5  C   UNL     1      -3.657   3.330   1.836  1.00  0.00     0.261 C 
BRANCH   5   6
ATOM      6  O   UNL     1      -3.068   2.837   3.050  1.00  0.00    -0.460 OA
BRANCH   6   7
ATOM      7  C   UNL     1      -2.909   1.499   3.126  1.00  0.00     0.343 C 
ATOM      8  O   UNL     1      -3.256   0.680   2.290  1.00  0.00    -0.246 OA
BRANCH   7   9
ATOM      9  C   UNL     1      -2.083   1.148   4.286  1.00  0.00     0.118 A 
ATOM     10  C   UNL     1      -0.880   0.421   4.109  1.00  0.00     0.052 A 
ATOM     11  C   UNL     1      -0.149   0.110   5.263  1.00  0.00     0.027 A 
ATOM     12  C   UNL     1      -0.625   0.447   6.539  1.00  0.00     0.005 A 
ATOM     13  C   UNL     1      -2.548   1.493   5.552  1.00  0.00     0.139 A 
ATOM     14  C   UNL     1      -1.827   1.136   6.683  1.00  0.00     0.040 A 
ATOM     15  F   UNL     1      -3.711   2.141   5.707  1.00  0.00    -0.206 F 
BRANCH  10  16
ATOM     16  N   UNL     1      -0.418   0.128   2.836  1.00  0.00    -0.378 N 
ATOM     17  H   UNL     1      -0.797   0.656   2.096  1.00  0.00     0.160 HD
BRANCH  16  18
ATOM     18  C   UNL     1       0.573  -0.881   2.478  1.00  0.00     0.177 C 
BRANCH  18  19
ATOM     19  C   UNL     1       0.506  -1.129   0.926  1.00  0.00     0.200 C 
ATOM     20  C   UNL     1       1.354  -0.076   0.195  1.00  0.00     0.077 C 
BRANCH  19  21
ATOM     21  N   UNL     1      -0.925  -1.209   0.519  1.00  0.00    -0.331 N 
ATOM     22  C   UNL     1      -1.370  -0.338  -0.572  1.00  0.00     0.262 C 
ATOM     23  C   UNL     1      -1.362  -2.593   0.316  1.00  0.00     0.262 C 
ATOM     24  H   UNL     1      -1.403  -0.814   1.330  1.00  0.00     0.348 HD
ATOM     25  C   UNL     1      -2.891  -0.379  -0.772  1.00  0.00     0.062 C 
ATOM     26  C   UNL     1      -2.883  -2.684   0.213  1.00  0.00     0.062 C 
ATOM     27  C   UNL     1      -3.423  -1.798  -0.902  1.00  0.00     0.012 C 
ENDBRANCH  19  21
ENDBRANCH  18  19
ENDBRANCH  16  18
ENDBRANCH  10  16
ENDBRANCH   7   9
ENDBRANCH   6   7
ENDBRANCH   5   6
ENDBRANCH   4   5
ENDBRANCH   3   4
ENDBRANCH   2   3
ENDBRANCH   1   2
BRANCH   1  28
ATOM     28  O   UNL     1      -1.244   5.383   3.377  1.00  0.00    -0.377 OA
BRANCH  28  29
ATOM     29  C   UNL     1      -1.540   6.341   2.373  1.00  0.00     0.188 C 
BRANCH  29  30
ATOM     30  C   UNL     1      -0.433   6.770   1.392  1.00  0.00     0.188 C 
BRANCH  30  31
ATOM     31  O   UNL     1       0.868   6.294   1.721  1.00  0.00    -0.376 OA
BRANCH  31  32
ATOM     32  C   UNL     1       1.737   7.244   2.326  1.00  0.00     0.202 C 
BRANCH  32  33
ATOM     33  C   UNL     1       1.381   7.624   3.769  1.00  0.00     0.261 C 
BRANCH  33  34
ATOM     34  O   UNL     1       0.131   8.312   3.941  1.00  0.00    -0.460 OA
BRANCH  34  35
ATOM     35  C   UNL     1      -0.047   9.474   3.274  1.00  0.00     0.338 C 
ATOM     36  O   UNL     1       0.763  10.049   2.570  1.00  0.00    -0.246 OA
BRANCH  35  37
ATOM     37  C   UNL     1      -1.475   9.835   3.389  1.00  0.00     0.060 A 
ATOM     38  C   UNL     1      -2.225  10.020   2.220  1.00  0.00     0.016 A 
ATOM     39  C   UNL     1      -2.075   9.952   4.645  1.00  0.00     0.016 A 
ATOM     40  C   UNL     1      -3.577  10.354   2.309  1.00  0.00     0.010 A 
ATOM     41  C   UNL     1      -3.421  10.312   4.732  1.00  0.00     0.010 A 
ATOM     42  C   UNL     1      -4.168  10.546   3.565  1.00  0.00    -0.014 A 
BRANCH  42  43
ATOM     43  C   UNL     1      -5.487  11.214   3.664  1.00  0.00     0.031 A 
ATOM     44  C   UNL     1      -5.502  12.711   3.818  1.00  0.00     0.074 A 
ATOM     45  C   UNL     1      -6.639  10.524   3.599  1.00  0.00     0.049 A 
ATOM     46  N   UNL     1      -6.515  13.518   3.984  1.00  0.00    -0.248 NA
ATOM     47  C   UNL     1      -4.192  13.384   3.779  1.00  0.00     0.031 C 
ATOM     48  C   UNL     1      -6.753   9.081   3.394  1.00  0.00     0.029 A 
ATOM     49  N   UNL     1      -7.939  10.953   3.702  1.00  0.00    -0.354 N 
ATOM     50  C   UNL     1      -5.968  14.794   4.064  1.00  0.00     0.074 A 
ATOM     51  C   UNL     1      -4.533  14.651   3.959  1.00  0.00     0.031 C 
ATOM     52  C   UNL     1      -8.056   8.745   3.385  1.00  0.00     0.029 A 
ATOM     53  C   UNL     1      -8.865   9.940   3.622  1.00  0.00     0.049 A 
ATOM     54  H   UNL     1      -8.186  11.899   3.821  1.00  0.00     0.167 HD
ATOM     55  C   UNL     1      -6.606  15.979   4.206  1.00  0.00     0.034 A 
ATOM     56  C   UNL     1     -10.208   9.974   3.748  1.00  0.00     0.034 A 
ATOM     57  C   UNL     1      -8.033  16.111   4.329  1.00  0.00     0.049 A 
ATOM     58  C   UNL     1     -10.891  11.294   4.012  1.00  0.00     0.074 A 
ATOM     59  C   UNL     1      -8.778  17.266   4.486  1.00  0.00     0.029 A 
ATOM     60  N   UNL     1      -8.931  15.053   4.317  1.00  0.00    -0.354 N 
ATOM     61  N   UNL     1     -10.361  12.490   4.122  1.00  0.00    -0.248 NA
ATOM     62  C   UNL     1     -12.352  11.269   4.175  1.00  0.00     0.031 C 
ATOM     63  C   UNL     1     -10.120  16.902   4.630  1.00  0.00     0.029 A 
ATOM     64  C   UNL     1     -10.220  15.526   4.492  1.00  0.00     0.049 A 
ATOM     65  H   UNL     1      -8.687  14.107   4.201  1.00  0.00     0.167 HD
ATOM     66  C   UNL     1     -11.424  13.361   4.344  1.00  0.00     0.074 A 
ATOM     67  C   UNL     1     -12.628  12.555   4.354  1.00  0.00     0.031 C 
ATOM     68  C   UNL     1     -11.407  14.707   4.513  1.00  0.00     0.034 A 
BRANCH  55  69
ATOM     69  C   UNL     1      -5.756  17.217   4.283  1.00  0.00     0.023 A 
ATOM     70  C   UNL     1      -5.056  17.699   3.164  1.00  0.00     0.031 A 
ATOM     71  C   UNL     1      -5.646  17.924   5.493  1.00  0.00     0.131 A 
ATOM     72  C   UNL     1      -4.245  18.836   3.288  1.00  0.00     0.055 A 
ATOM     73  C   UNL     1      -4.886  19.089   5.594  1.00  0.00     0.041 A 
ATOM     74  F   UNL     1      -6.276  17.490   6.596  1.00  0.00    -0.206 F 
ATOM     75  C   UNL     1      -4.174  19.548   4.489  1.00  0.00     0.022 A 
BRANCH  72  76
ATOM     76  S   UNL     1      -3.221  19.335   1.878  1.00  0.00     0.124 S 
ATOM     77  O   UNL     1      -2.295  18.210   1.774  1.00  0.00    -0.237 OA
ATOM     78  O   UNL     1      -4.198  19.459   0.802  1.00  0.00    -0.237 OA
ATOM     79  O   UNL     1      -2.619  20.592   2.319  1.00  0.00    -0.744 OA
ENDBRANCH  72  76
ENDBRANCH  55  69
BRANCH  56  80
ATOM     80  C   UNL     1     -10.999   8.714   3.669  1.00  0.00     0.023 A 
ATOM     81  C   UNL     1     -11.867   8.466   2.594  1.00  0.00     0.031 A 
ATOM     82  C   UNL     1     -10.908   7.745   4.684  1.00  0.00     0.131 A 
ATOM     83  C   UNL     1     -12.626   7.285   2.568  1.00  0.00     0.055 A 
ATOM     84  C   UNL     1     -11.638   6.556   4.636  1.00  0.00     0.041 A 
ATOM     85  F   UNL     1     -10.094   7.938   5.734  1.00  0.00    -0.206 F 
ATOM     86  C   UNL     1     -12.507   6.323   3.575  1.00  0.00     0.022 A 
BRANCH  83  87
ATOM     87  S   UNL     1     -13.798   7.028   1.207  1.00  0.00     0.124 S 
ATOM     88  O   UNL     1     -14.766   8.092   1.443  1.00  0.00    -0.237 OA
ATOM     89  O   UNL     1     -12.944   7.185   0.034  1.00  0.00    -0.237 OA
ATOM     90  O   UNL     1     -14.292   5.671   1.435  1.00  0.00    -0.744 OA
ENDBRANCH  83  87
ENDBRANCH  56  80
BRANCH  68  91
ATOM     91  C   UNL     1     -12.728  15.409   4.688  1.00  0.00     0.023 A 
ATOM     92  C   UNL     1     -13.461  15.314   5.883  1.00  0.00     0.031 A 
ATOM     93  C   UNL     1     -13.223  16.238   3.666  1.00  0.00     0.131 A 
ATOM     94  C   UNL     1     -14.664  16.023   6.018  1.00  0.00     0.055 A 
ATOM     95  C   UNL     1     -14.397  16.975   3.822  1.00  0.00     0.041 A 
ATOM     96  F   UNL     1     -12.554  16.366   2.508  1.00  0.00    -0.206 F 
ATOM     97  C   UNL     1     -15.127  16.866   5.003  1.00  0.00     0.022 A 
BRANCH  94  98
ATOM     98  S   UNL     1     -15.636  15.818   7.535  1.00  0.00     0.124 S 
ATOM     99  O   UNL     1     -16.029  14.415   7.454  1.00  0.00    -0.237 OA
ATOM    100  O   UNL     1     -14.670  16.149   8.578  1.00  0.00    -0.237 OA
ATOM    101  O   UNL     1     -16.727  16.778   7.378  1.00  0.00    -0.744 OA
ENDBRANCH  94  98
ENDBRANCH  68  91
ENDBRANCH  42  43
ENDBRANCH  35  37
ENDBRANCH  34  35
ENDBRANCH  33  34
ENDBRANCH  32  33
ENDBRANCH  31  32
ENDBRANCH  30  31
ENDBRANCH  29  30
ENDBRANCH  28  29
ENDBRANCH   1  28
TORSDOF 27
