REMARK SMILES CCc1ccsc1CNC(=O)N1[C@H]2CC[C@@H]1[C@H](C(=O)OCCOCCOCCOCCOC(=O)c1ccc(-c3c4nc(c(-c5cc(S(=O)(=O)[O-])ccc5F)c5ccc([nH]5)c(-c5cc(S(=O)(=O)[O-])ccc5F)c5nc(c(-c6cc(S(=O)(=O)[O-])ccc6F)c6ccc3[nH]6)C=C5)C=C4)cc1)C2
REMARK SMILES IDX 25 1 24 2 23 3 22 4 21 5 20 6 18 7 19 8 17 9 12 10 13 11
REMARK SMILES IDX 16 12 14 13 98 14 15 15 10 16 9 17 11 19 8 20 7 21 3 22 4 23
REMARK SMILES IDX 5 24 6 25 2 26 1 27 26 28 27 29 28 30 29 31 30 32 31 33
REMARK SMILES IDX 32 34 33 35 34 36 35 37 36 38 97 39 37 40 96 41 38 42 39 43
REMARK SMILES IDX 40 44 90 45 41 46 95 47 89 48 91 49 42 50 94 51 88 52 87 53
REMARK SMILES IDX 43 55 75 56 55 57 74 58 56 59 59 60 73 61 92 62 57 63 58 64
REMARK SMILES IDX 72 66 93 67 60 68 44 69 45 70 53 71 46 72 52 73 54 74 51 75
REMARK SMILES IDX 47 76 48 77 49 78 50 79 76 80 77 81 85 82 78 83 84 84 86 85
REMARK SMILES IDX 83 86 79 87 80 88 81 89 82 90 61 91 62 92 70 93 63 94 69 95
REMARK SMILES IDX 71 96 68 97 64 98 65 99 66 100 67 101
REMARK H PARENT 9 18 91 54 59 65
REMARK Flexibility Score: inf
ROOT
ATOM      1  C   UNL     1      -2.327  10.212  -0.536  1.00  0.00     0.188 C 
ENDROOT
BRANCH   1   2
ATOM      2  C   UNL     1      -2.655   9.927  -2.006  1.00  0.00     0.188 C 
BRANCH   2   3
ATOM      3  O   UNL     1      -3.840  10.477  -2.529  1.00  0.00    -0.376 OA
BRANCH   3   4
ATOM      4  C   UNL     1      -5.114   9.899  -2.303  1.00  0.00     0.202 C 
BRANCH   4   5
ATOM      5  C   UNL     1      -5.432   8.653  -1.453  1.00  0.00     0.261 C 
BRANCH   5   6
ATOM      6  O   UNL     1      -4.469   8.220  -0.491  1.00  0.00    -0.463 OA
BRANCH   6   7
ATOM      7  C   UNL     1      -3.750   7.138  -0.838  1.00  0.00     0.311 C 
ATOM      8  O   UNL     1      -3.852   6.556  -1.916  1.00  0.00    -0.252 OA
BRANCH   7   9
ATOM      9  C   UNL     1      -2.799   6.643   0.215  1.00  0.00     0.124 C 
ATOM     10  N   UNL     1      -1.793   6.269   2.192  1.00  0.00    -0.318 N 
ATOM     11  C   UNL     1      -2.949   5.402   2.263  1.00  0.00     0.088 C 
ATOM     12  C   UNL     1      -2.378   7.402   1.494  1.00  0.00     0.101 C 
ATOM     13  C   UNL     1      -3.967   6.345   2.940  1.00  0.00     0.027 C 
ATOM     14  C   UNL     1      -3.334   5.302   0.779  1.00  0.00     0.042 C 
ATOM     15  C   UNL     1      -3.534   7.735   2.435  1.00  0.00     0.028 C 
BRANCH  10  16
ATOM     16  C   UNL     1      -0.488   6.174   2.518  1.00  0.00     0.318 C 
ATOM     17  N   UNL     1       0.124   4.972   2.525  1.00  0.00    -0.333 N 
ATOM     18  H   UNL     1       0.912   4.898   3.110  1.00  0.00     0.165 HD
ATOM     19  O   UNL     1       0.202   7.165   2.758  1.00  0.00    -0.249 OA
BRANCH  17  20
ATOM     20  C   UNL     1      -0.221   3.782   1.791  1.00  0.00     0.165 C 
BRANCH  20  21
ATOM     21  C   UNL     1       0.641   3.585   0.566  1.00  0.00     0.027 A 
ATOM     22  C   UNL     1       1.018   2.362   0.013  1.00  0.00    -0.033 A 
ATOM     23  C   UNL     1       1.782   2.553  -1.187  1.00  0.00     0.016 A 
ATOM     24  C   UNL     1       1.935   3.879  -1.517  1.00  0.00     0.065 A 
ATOM     25  S   UNL     1       1.167   4.906  -0.396  1.00  0.00    -0.147 S 
BRANCH  22  26
ATOM     26  C   UNL     1       0.622   1.041   0.621  1.00  0.00     0.033 C 
ATOM     27  C   UNL     1       1.094  -0.199  -0.114  1.00  0.00     0.009 C 
ENDBRANCH  22  26
ENDBRANCH  20  21
ENDBRANCH  17  20
ENDBRANCH  10  16
ENDBRANCH   7   9
ENDBRANCH   6   7
ENDBRANCH   5   6
ENDBRANCH   4   5
ENDBRANCH   3   4
ENDBRANCH   2   3
ENDBRANCH   1   2
BRANCH   1  28
ATOM     28  O   UNL     1      -3.402  10.448   0.350  1.00  0.00    -0.377 OA
BRANCH  28  29
ATOM     29  C   UNL     1      -4.117  11.679   0.280  1.00  0.00     0.188 C 
BRANCH  29  30
ATOM     30  C   UNL     1      -3.694  12.805  -0.688  1.00  0.00     0.188 C 
BRANCH  30  31
ATOM     31  O   UNL     1      -2.318  12.827  -1.027  1.00  0.00    -0.376 OA
BRANCH  31  32
ATOM     32  C   UNL     1      -1.460  13.692  -0.298  1.00  0.00     0.202 C 
BRANCH  32  33
ATOM     33  C   UNL     1      -1.325  13.463   1.217  1.00  0.00     0.261 C 
BRANCH  33  34
ATOM     34  O   UNL     1      -2.531  13.574   1.989  1.00  0.00    -0.460 OA
BRANCH  34  35
ATOM     35  C   UNL     1      -3.204  14.742   1.936  1.00  0.00     0.338 C 
ATOM     36  O   UNL     1      -2.881  15.748   1.325  1.00  0.00    -0.246 OA
BRANCH  35  37
ATOM     37  C   UNL     1      -4.512  14.538   2.589  1.00  0.00     0.060 A 
ATOM     38  C   UNL     1      -5.681  14.683   1.831  1.00  0.00     0.016 A 
ATOM     39  C   UNL     1      -4.583  14.208   3.945  1.00  0.00     0.016 A 
ATOM     40  C   UNL     1      -6.929  14.536   2.437  1.00  0.00     0.010 A 
ATOM     41  C   UNL     1      -5.834  14.084   4.555  1.00  0.00     0.010 A 
ATOM     42  C   UNL     1      -7.012  14.283   3.812  1.00  0.00    -0.014 A 
BRANCH  42  43
ATOM     43  C   UNL     1      -8.314  14.441   4.508  1.00  0.00     0.031 A 
ATOM     44  C   UNL     1      -8.585  15.738   5.221  1.00  0.00     0.074 A 
ATOM     45  C   UNL     1      -9.246  13.472   4.486  1.00  0.00     0.049 A 
ATOM     46  N   UNL     1      -9.615  16.095   5.941  1.00  0.00    -0.248 NA
ATOM     47  C   UNL     1      -7.541  16.769   5.107  1.00  0.00     0.031 C 
ATOM     48  C   UNL     1      -9.118  12.194   3.788  1.00  0.00     0.029 A 
ATOM     49  N   UNL     1     -10.483  13.410   5.079  1.00  0.00    -0.354 N 
ATOM     50  C   UNL     1      -9.341  17.387   6.377  1.00  0.00     0.074 A 
ATOM     51  C   UNL     1      -8.031  17.733   5.870  1.00  0.00     0.031 C 
ATOM     52  C   UNL     1     -10.228  11.467   4.007  1.00  0.00     0.029 A 
ATOM     53  C   UNL     1     -11.124  12.207   4.895  1.00  0.00     0.049 A 
ATOM     54  H   UNL     1     -10.875  14.157   5.587  1.00  0.00     0.167 HD
ATOM     55  C   UNL     1     -10.115  18.211   7.127  1.00  0.00     0.034 A 
ATOM     56  C   UNL     1     -12.282  11.746   5.413  1.00  0.00     0.034 A 
ATOM     57  C   UNL     1     -11.413  17.841   7.636  1.00  0.00     0.049 A 
ATOM     58  C   UNL     1     -13.088  12.645   6.322  1.00  0.00     0.074 A 
ATOM     59  C   UNL     1     -12.292  18.602   8.387  1.00  0.00     0.029 A 
ATOM     60  N   UNL     1     -12.011  16.598   7.467  1.00  0.00    -0.354 N 
ATOM     61  N   UNL     1     -12.829  13.872   6.715  1.00  0.00    -0.248 NA
ATOM     62  C   UNL     1     -14.346  12.100   6.849  1.00  0.00     0.031 C 
ATOM     63  C   UNL     1     -13.374  17.793   8.748  1.00  0.00     0.029 A 
ATOM     64  C   UNL     1     -13.225  16.557   8.138  1.00  0.00     0.049 A 
ATOM     65  H   UNL     1     -11.629  15.854   6.947  1.00  0.00     0.167 HD
ATOM     66  C   UNL     1     -13.909  14.255   7.510  1.00  0.00     0.074 A 
ATOM     67  C   UNL     1     -14.826  13.133   7.526  1.00  0.00     0.031 C 
ATOM     68  C   UNL     1     -14.127  15.428   8.160  1.00  0.00     0.034 A 
BRANCH  55  69
ATOM     69  C   UNL     1      -9.541  19.560   7.492  1.00  0.00     0.023 A 
ATOM     70  C   UNL     1      -9.210  20.519   6.518  1.00  0.00     0.031 A 
ATOM     71  C   UNL     1      -9.281  19.875   8.838  1.00  0.00     0.131 A 
ATOM     72  C   UNL     1      -8.566  21.707   6.896  1.00  0.00     0.055 A 
ATOM     73  C   UNL     1      -8.723  21.098   9.215  1.00  0.00     0.041 A 
ATOM     74  F   UNL     1      -9.549  18.991   9.812  1.00  0.00    -0.206 F 
ATOM     75  C   UNL     1      -8.346  22.016   8.240  1.00  0.00     0.022 A 
BRANCH  72  76
ATOM     76  S   UNL     1      -7.870  22.766   5.598  1.00  0.00     0.124 S 
ATOM     77  O   UNL     1      -6.979  21.837   4.906  1.00  0.00    -0.237 OA
ATOM     78  O   UNL     1      -9.057  23.181   4.859  1.00  0.00    -0.237 OA
ATOM     79  O   UNL     1      -7.196  23.826   6.344  1.00  0.00    -0.744 OA
ENDBRANCH  72  76
ENDBRANCH  55  69
BRANCH  56  80
ATOM     80  C   UNL     1     -12.725  10.347   5.138  1.00  0.00     0.023 A 
ATOM     81  C   UNL     1     -13.926  10.075   4.463  1.00  0.00     0.031 A 
ATOM     82  C   UNL     1     -11.968   9.253   5.598  1.00  0.00     0.131 A 
ATOM     83  C   UNL     1     -14.355   8.747   4.305  1.00  0.00     0.055 A 
ATOM     84  C   UNL     1     -12.370   7.933   5.386  1.00  0.00     0.041 A 
ATOM     85  F   UNL     1     -10.815   9.453   6.255  1.00  0.00    -0.206 F 
ATOM     86  C   UNL     1     -13.577   7.674   4.746  1.00  0.00     0.022 A 
BRANCH  83  87
ATOM     87  S   UNL     1     -15.994   8.439   3.589  1.00  0.00     0.124 S 
ATOM     88  O   UNL     1     -16.861   9.156   4.516  1.00  0.00    -0.237 OA
ATOM     89  O   UNL     1     -15.856   9.020   2.257  1.00  0.00    -0.237 OA
ATOM     90  O   UNL     1     -16.111   6.983   3.622  1.00  0.00    -0.744 OA
ENDBRANCH  83  87
ENDBRANCH  56  80
BRANCH  68  91
ATOM     91  C   UNL     1     -15.435  15.577   8.904  1.00  0.00     0.023 A 
ATOM     92  C   UNL     1     -15.754  14.783  10.020  1.00  0.00     0.031 A 
ATOM     93  C   UNL     1     -16.380  16.532   8.485  1.00  0.00     0.131 A 
ATOM     94  C   UNL     1     -17.007  14.916  10.639  1.00  0.00     0.055 A 
ATOM     95  C   UNL     1     -17.595  16.709   9.149  1.00  0.00     0.041 A 
ATOM     96  F   UNL     1     -16.135  17.315   7.422  1.00  0.00    -0.206 F 
ATOM     97  C   UNL     1     -17.920  15.889  10.224  1.00  0.00     0.022 A 
BRANCH  94  98
ATOM     98  S   UNL     1     -17.476  13.726  11.925  1.00  0.00     0.124 S 
ATOM     99  O   UNL     1     -17.352  12.454  11.219  1.00  0.00    -0.237 OA
ATOM    100  O   UNL     1     -16.482  13.979  12.963  1.00  0.00    -0.237 OA
ATOM    101  O   UNL     1     -18.843  14.113  12.269  1.00  0.00    -0.744 OA
ENDBRANCH  94  98
ENDBRANCH  68  91
ENDBRANCH  42  43
ENDBRANCH  35  37
ENDBRANCH  34  35
ENDBRANCH  33  34
ENDBRANCH  32  33
ENDBRANCH  31  32
ENDBRANCH  30  31
ENDBRANCH  29  30
ENDBRANCH  28  29
ENDBRANCH   1  28
TORSDOF 27
