REMARK SMILES CCn1cc(/C=C/c2cc(C(=O)OCCOCCOCCOCCOC(=O)c3ccc(-c4c5nc(c(-c6cc(S(=O)(=O)[O-])ccc6F)c6ccc([nH]6)c(-c6cc(S(=O)(=O)[O-])ccc6F)c6nc(c(-c7cc(S(=O)(=O)[O-])ccc7F)c7ccc4[nH]7)C=C6)C=C5)cc3)ncn2)cn1
REMARK SMILES IDX 19 1 18 2 17 3 16 4 15 5 14 6 13 7 11 8 12 9 10 10 8 11 9 12
REMARK SMILES IDX 93 13 92 14 91 15 7 16 6 17 5 18 3 19 4 20 95 21 94 22 2 23
REMARK SMILES IDX 1 24 20 25 21 26 22 27 23 28 24 29 25 30 26 31 27 32 28 33
REMARK SMILES IDX 29 34 90 35 30 36 89 37 31 38 32 39 33 40 83 41 34 42 88 43
REMARK SMILES IDX 82 44 84 45 35 46 87 47 81 48 80 49 36 51 68 52 48 53 67 54
REMARK SMILES IDX 49 55 52 56 66 57 85 58 50 59 51 60 65 62 86 63 53 64 37 65
REMARK SMILES IDX 38 66 46 67 39 68 45 69 47 70 44 71 40 72 41 73 42 74 43 75
REMARK SMILES IDX 69 76 70 77 78 78 71 79 77 80 79 81 76 82 72 83 73 84 74 85
REMARK SMILES IDX 75 86 54 87 55 88 63 89 56 90 62 91 64 92 61 93 57 94 58 95
REMARK SMILES IDX 59 96 60 97
REMARK H PARENT 84 50 52 61
REMARK Flexibility Score: inf
ROOT
ATOM      1  O   UNL     1       0.637  -4.518   8.904  1.00  0.00    -0.377 OA
ENDROOT
BRANCH   1   2
ATOM      2  C   UNL     1       1.212  -5.809   8.793  1.00  0.00     0.188 C 
BRANCH   2   3
ATOM      3  C   UNL     1       2.426  -6.043   9.722  1.00  0.00     0.188 C 
BRANCH   3   4
ATOM      4  O   UNL     1       2.724  -5.170  10.802  1.00  0.00    -0.376 OA
BRANCH   4   5
ATOM      5  C   UNL     1       2.698  -3.758  10.688  1.00  0.00     0.202 C 
BRANCH   5   6
ATOM      6  C   UNL     1       3.186  -2.985   9.453  1.00  0.00     0.261 C 
BRANCH   6   7
ATOM      7  O   UNL     1       3.201  -3.692   8.216  1.00  0.00    -0.459 OA
BRANCH   7   8
ATOM      8  C   UNL     1       4.366  -4.305   7.894  1.00  0.00     0.357 C 
ATOM      9  O   UNL     1       5.422  -4.222   8.492  1.00  0.00    -0.244 OA
BRANCH   8  10
ATOM     10  C   UNL     1       4.086  -5.218   6.747  1.00  0.00     0.152 A 
ATOM     11  C   UNL     1       3.050  -5.737   4.725  1.00  0.00     0.067 A 
ATOM     12  C   UNL     1       3.250  -4.817   5.730  1.00  0.00     0.064 A 
ATOM     13  N   UNL     1       3.543  -6.989   4.778  1.00  0.00    -0.237 NA
ATOM     14  C   UNL     1       4.312  -7.285   5.834  1.00  0.00     0.223 A 
ATOM     15  N   UNL     1       4.642  -6.448   6.820  1.00  0.00    -0.229 NA
BRANCH  11  16
ATOM     16  C   UNL     1       2.307  -5.414   3.502  1.00  0.00     0.029 C 
ATOM     17  C   UNL     1       2.301  -4.179   2.975  1.00  0.00     0.013 C 
BRANCH  17  18
ATOM     18  C   UNL     1       1.675  -3.768   1.771  1.00  0.00     0.013 A 
ATOM     19  N   UNL     1       0.936  -2.458   0.178  1.00  0.00    -0.272 N 
ATOM     20  C   UNL     1       1.614  -2.457   1.362  1.00  0.00     0.116 A 
ATOM     21  N   UNL     1       0.591  -3.698  -0.229  1.00  0.00    -0.181 NA
ATOM     22  C   UNL     1       1.027  -4.492   0.755  1.00  0.00     0.143 A 
BRANCH  19  23
ATOM     23  C   UNL     1       0.549  -1.323  -0.639  1.00  0.00     0.141 C 
ATOM     24  C   UNL     1       1.030   0.036  -0.149  1.00  0.00     0.029 C 
ENDBRANCH  19  23
ENDBRANCH  17  18
ENDBRANCH  11  16
ENDBRANCH   8  10
ENDBRANCH   7   8
ENDBRANCH   6   7
ENDBRANCH   5   6
ENDBRANCH   4   5
ENDBRANCH   3   4
ENDBRANCH   2   3
ENDBRANCH   1   2
BRANCH   1  25
ATOM     25  C   UNL     1      -0.501  -4.412   9.762  1.00  0.00     0.188 C 
BRANCH  25  26
ATOM     26  C   UNL     1      -0.470  -5.134  11.134  1.00  0.00     0.188 C 
BRANCH  26  27
ATOM     27  O   UNL     1       0.121  -6.426  11.110  1.00  0.00    -0.376 OA
BRANCH  27  28
ATOM     28  C   UNL     1      -0.653  -7.609  11.188  1.00  0.00     0.202 C 
BRANCH  28  29
ATOM     29  C   UNL     1      -1.633  -7.893  10.057  1.00  0.00     0.261 C 
BRANCH  29  30
ATOM     30  O   UNL     1      -2.384  -6.767   9.648  1.00  0.00    -0.460 OA
BRANCH  30  31
ATOM     31  C   UNL     1      -3.292  -6.347  10.553  1.00  0.00     0.338 C 
ATOM     32  O   UNL     1      -3.308  -6.577  11.745  1.00  0.00    -0.246 OA
BRANCH  31  33
ATOM     33  C   UNL     1      -4.375  -5.696   9.820  1.00  0.00     0.060 A 
ATOM     34  C   UNL     1      -5.346  -5.054  10.586  1.00  0.00     0.016 A 
ATOM     35  C   UNL     1      -4.582  -6.068   8.483  1.00  0.00     0.016 A 
ATOM     36  C   UNL     1      -6.621  -4.997  10.076  1.00  0.00     0.010 A 
ATOM     37  C   UNL     1      -5.860  -6.049   7.997  1.00  0.00     0.010 A 
ATOM     38  C   UNL     1      -6.873  -5.587   8.832  1.00  0.00    -0.014 A 
BRANCH  38  39
ATOM     39  C   UNL     1      -8.217  -5.532   8.307  1.00  0.00     0.031 A 
ATOM     40  C   UNL     1      -8.537  -4.169   7.837  1.00  0.00     0.074 A 
ATOM     41  C   UNL     1      -9.001  -6.618   8.171  1.00  0.00     0.049 A 
ATOM     42  N   UNL     1      -9.314  -3.320   8.418  1.00  0.00    -0.248 NA
ATOM     43  C   UNL     1      -7.701  -3.581   6.773  1.00  0.00     0.031 C 
ATOM     44  C   UNL     1      -8.656  -8.021   8.405  1.00  0.00     0.029 A 
ATOM     45  N   UNL     1     -10.270  -6.698   7.693  1.00  0.00    -0.354 N 
ATOM     46  C   UNL     1      -9.288  -2.196   7.606  1.00  0.00     0.074 A 
ATOM     47  C   UNL     1      -8.099  -2.310   6.814  1.00  0.00     0.031 C 
ATOM     48  C   UNL     1      -9.604  -8.810   7.848  1.00  0.00     0.029 A 
ATOM     49  C   UNL     1     -10.671  -7.977   7.311  1.00  0.00     0.049 A 
ATOM     50  H   UNL     1     -10.861  -5.914   7.622  1.00  0.00     0.167 HD
ATOM     51  C   UNL     1     -10.416  -1.459   7.430  1.00  0.00     0.034 A 
ATOM     52  C   UNL     1     -11.758  -8.298   6.551  1.00  0.00     0.034 A 
ATOM     53  C   UNL     1     -11.371  -1.735   8.488  1.00  0.00     0.049 A 
ATOM     54  C   UNL     1     -12.694  -7.144   6.647  1.00  0.00     0.074 A 
ATOM     55  C   UNL     1     -11.309  -1.681   9.869  1.00  0.00     0.029 A 
ATOM     56  N   UNL     1     -12.454  -2.539   8.196  1.00  0.00    -0.354 N 
ATOM     57  N   UNL     1     -13.305  -6.816   7.753  1.00  0.00    -0.248 NA
ATOM     58  C   UNL     1     -12.541  -6.061   5.684  1.00  0.00     0.031 C 
ATOM     59  C   UNL     1     -12.021  -2.832  10.316  1.00  0.00     0.029 A 
ATOM     60  C   UNL     1     -12.579  -3.465   9.204  1.00  0.00     0.049 A 
ATOM     61  H   UNL     1     -13.036  -2.463   7.405  1.00  0.00     0.167 HD
ATOM     62  C   UNL     1     -13.204  -5.434   7.822  1.00  0.00     0.074 A 
ATOM     63  C   UNL     1     -12.802  -5.017   6.478  1.00  0.00     0.031 C 
ATOM     64  C   UNL     1     -13.153  -4.787   9.025  1.00  0.00     0.034 A 
BRANCH  51  65
ATOM     65  C   UNL     1     -10.822  -0.852   6.104  1.00  0.00     0.023 A 
ATOM     66  C   UNL     1     -12.073  -0.212   6.074  1.00  0.00     0.031 A 
ATOM     67  C   UNL     1     -10.237  -1.107   4.840  1.00  0.00     0.131 A 
ATOM     68  C   UNL     1     -12.745   0.002   4.861  1.00  0.00     0.055 A 
ATOM     69  C   UNL     1     -10.882  -0.827   3.632  1.00  0.00     0.041 A 
ATOM     70  F   UNL     1      -9.055  -1.708   4.681  1.00  0.00    -0.206 F 
ATOM     71  C   UNL     1     -12.161  -0.306   3.637  1.00  0.00     0.022 A 
BRANCH  68  72
ATOM     72  S   UNL     1     -14.477   0.509   4.938  1.00  0.00     0.124 S 
ATOM     73  O   UNL     1     -15.054  -0.574   5.727  1.00  0.00    -0.237 OA
ATOM     74  O   UNL     1     -14.377   1.807   5.598  1.00  0.00    -0.237 OA
ATOM     75  O   UNL     1     -14.878   0.550   3.535  1.00  0.00    -0.744 OA
ENDBRANCH  68  72
ENDBRANCH  51  65
BRANCH  52  76
ATOM     76  C   UNL     1     -11.898  -9.378   5.523  1.00  0.00     0.023 A 
ATOM     77  C   UNL     1     -13.143  -9.733   4.946  1.00  0.00     0.031 A 
ATOM     78  C   UNL     1     -10.750  -9.918   4.900  1.00  0.00     0.131 A 
ATOM     79  C   UNL     1     -13.195 -10.572   3.803  1.00  0.00     0.055 A 
ATOM     80  C   UNL     1     -10.808 -10.745   3.774  1.00  0.00     0.041 A 
ATOM     81  F   UNL     1      -9.514  -9.589   5.304  1.00  0.00    -0.206 F 
ATOM     82  C   UNL     1     -12.031 -11.065   3.212  1.00  0.00     0.022 A 
BRANCH  79  83
ATOM     83  S   UNL     1     -14.783 -10.961   2.986  1.00  0.00     0.124 S 
ATOM     84  O   UNL     1     -15.378 -11.921   3.908  1.00  0.00    -0.237 OA
ATOM     85  O   UNL     1     -15.426  -9.655   2.902  1.00  0.00    -0.237 OA
ATOM     86  O   UNL     1     -14.374 -11.521   1.697  1.00  0.00    -0.744 OA
ENDBRANCH  79  83
ENDBRANCH  52  76
BRANCH  64  87
ATOM     87  C   UNL     1     -13.536  -5.543  10.285  1.00  0.00     0.023 A 
ATOM     88  C   UNL     1     -12.966  -6.762  10.720  1.00  0.00     0.031 A 
ATOM     89  C   UNL     1     -14.454  -4.913  11.146  1.00  0.00     0.131 A 
ATOM     90  C   UNL     1     -13.332  -7.305  11.970  1.00  0.00     0.055 A 
ATOM     91  C   UNL     1     -14.791  -5.438  12.392  1.00  0.00     0.041 A 
ATOM     92  F   UNL     1     -15.018  -3.743  10.803  1.00  0.00    -0.206 F 
ATOM     93  C   UNL     1     -14.236  -6.641  12.806  1.00  0.00     0.022 A 
BRANCH  90  94
ATOM     94  S   UNL     1     -12.665  -8.907  12.530  1.00  0.00     0.124 S 
ATOM     95  O   UNL     1     -12.780  -9.758  11.352  1.00  0.00    -0.237 OA
ATOM     96  O   UNL     1     -11.306  -8.556  12.935  1.00  0.00    -0.237 OA
ATOM     97  O   UNL     1     -13.551  -9.275  13.636  1.00  0.00    -0.744 OA
ENDBRANCH  90  94
ENDBRANCH  64  87
ENDBRANCH  38  39
ENDBRANCH  31  33
ENDBRANCH  30  31
ENDBRANCH  29  30
ENDBRANCH  28  29
ENDBRANCH  27  28
ENDBRANCH  26  27
ENDBRANCH  25  26
ENDBRANCH   1  25
TORSDOF 26
