REMARK SMILES CCOc1ccc(-c2cc(Cl)cc3c2O[C@@H](C(F)(F)F)C(C(=O)OCCOCCOCCOCCOC(=O)c2ccc(-c4c5nc(c(-c6cc(S(=O)(=O)[O-])ccc6F)c6ccc([nH]6)c(-c6cc(S(=O)(=O)[O-])ccc6F)c6nc(c(-c7cc(S(=O)(=O)[O-])ccc7F)c7ccc4[nH]7)C=C6)C=C5)cc2)=C3)cc1
REMARK SMILES IDX 30 1 29 2 28 3 27 4 26 5 25 6 24 7 22 8 23 9 21 10 8 11 9 12
REMARK SMILES IDX 14 13 10 14 13 15 15 16 11 17 12 18 102 19 16 20 7 21 4 22
REMARK SMILES IDX 5 23 104 24 6 25 103 26 3 27 2 28 1 29 17 30 18 31 19 32
REMARK SMILES IDX 20 33 31 34 32 35 33 36 34 37 35 38 36 39 37 40 38 41 39 42
REMARK SMILES IDX 40 43 101 44 41 45 100 46 42 47 43 48 44 49 94 50 45 51
REMARK SMILES IDX 99 52 93 53 95 54 46 55 98 56 92 57 91 58 47 60 79 61 59 62
REMARK SMILES IDX 78 63 60 64 63 65 77 66 96 67 61 68 62 69 76 71 97 72 64 73
REMARK SMILES IDX 48 74 49 75 57 76 50 77 56 78 58 79 55 80 51 81 52 82 53 83
REMARK SMILES IDX 54 84 80 85 81 86 89 87 82 88 88 89 90 90 87 91 83 92 84 93
REMARK SMILES IDX 85 94 86 95 65 96 66 97 74 98 67 99 73 100 75 101 72 102
REMARK SMILES IDX 68 103 69 104 70 105 71 106
REMARK H PARENT 95 59 63 70
REMARK Flexibility Score: inf
ROOT
ATOM      1  O   UNL     1      12.214   5.747   4.148  1.00  0.00    -0.377 OA
ENDROOT
BRANCH   1   2
ATOM      2  C   UNL     1      10.845   5.501   3.888  1.00  0.00     0.188 C 
BRANCH   2   3
ATOM      3  C   UNL     1      10.474   4.025   4.081  1.00  0.00     0.188 C 
BRANCH   3   4
ATOM      4  O   UNL     1      11.487   3.243   4.704  1.00  0.00    -0.376 OA
BRANCH   4   5
ATOM      5  C   UNL     1      12.437   2.575   3.874  1.00  0.00     0.202 C 
BRANCH   5   6
ATOM      6  C   UNL     1      13.044   3.332   2.684  1.00  0.00     0.261 C 
BRANCH   6   7
ATOM      7  O   UNL     1      12.026   3.637   1.704  1.00  0.00    -0.460 OA
BRANCH   7   8
ATOM      8  C   UNL     1      11.806   2.695   0.774  1.00  0.00     0.338 C 
ATOM      9  O   UNL     1      12.493   1.694   0.612  1.00  0.00    -0.246 OA
BRANCH   8  10
ATOM     10  C   UNL     1      10.515   2.886   0.067  1.00  0.00     0.087 C 
ATOM     11  C   UNL     1       7.133   2.732   2.469  1.00  0.00     0.026 A 
ATOM     12  C   UNL     1       7.455   1.931   3.587  1.00  0.00     0.033 A 
ATOM     13  C   UNL     1       8.133   2.832   1.481  1.00  0.00     0.135 A 
ATOM     14  C   UNL     1       8.509   1.019   3.532  1.00  0.00     0.042 A 
ATOM     15  C   UNL     1       9.027   1.764   1.322  1.00  0.00     0.019 A 
ATOM     16  O   UNL     1       8.400   4.043   0.849  1.00  0.00    -0.475 OA
ATOM     17  Cl  UNL     1       8.842   0.020   4.888  1.00  0.00    -0.084 Cl
ATOM     18  C   UNL     1       9.227   0.856   2.355  1.00  0.00     0.032 A 
ATOM     19  C   UNL     1       9.840   1.722   0.089  1.00  0.00     0.027 C 
ATOM     20  C   UNL     1       9.634   4.122   0.005  1.00  0.00     0.316 C 
BRANCH  11  21
ATOM     21  C   UNL     1       5.662   2.784   2.157  1.00  0.00    -0.014 A 
ATOM     22  C   UNL     1       2.934   2.037   1.781  1.00  0.00     0.119 A 
ATOM     23  C   UNL     1       3.343   2.642   2.967  1.00  0.00     0.047 A 
ATOM     24  C   UNL     1       3.850   1.884   0.749  1.00  0.00     0.047 A 
ATOM     25  C   UNL     1       4.689   3.014   3.152  1.00  0.00     0.013 A 
ATOM     26  C   UNL     1       5.193   2.254   0.935  1.00  0.00     0.013 A 
BRANCH  22  27
ATOM     27  O   UNL     1       1.612   1.716   1.642  1.00  0.00    -0.494 OA
BRANCH  27  28
ATOM     28  C   UNL     1       1.346   0.321   1.437  1.00  0.00     0.226 C 
ATOM     29  C   UNL     1       1.084   0.012  -0.029  1.00  0.00     0.049 C 
ENDBRANCH  27  28
ENDBRANCH  22  27
ENDBRANCH  11  21
BRANCH  20  30
ATOM     30  C   UNL     1      10.319   5.512  -0.054  1.00  0.00     0.430 C 
ATOM     31  F   UNL     1      10.884   5.681  -1.281  1.00  0.00    -0.167 F 
ATOM     32  F   UNL     1       9.415   6.511   0.088  1.00  0.00    -0.167 F 
ATOM     33  F   UNL     1      11.292   5.732   0.839  1.00  0.00    -0.167 F 
ENDBRANCH  20  30
ENDBRANCH   8  10
ENDBRANCH   7   8
ENDBRANCH   6   7
ENDBRANCH   5   6
ENDBRANCH   4   5
ENDBRANCH   3   4
ENDBRANCH   2   3
ENDBRANCH   1   2
BRANCH   1  34
ATOM     34  C   UNL     1      12.563   6.063   5.492  1.00  0.00     0.188 C 
BRANCH  34  35
ATOM     35  C   UNL     1      11.794   5.419   6.665  1.00  0.00     0.188 C 
BRANCH  35  36
ATOM     36  O   UNL     1      10.374   5.559   6.577  1.00  0.00    -0.376 OA
BRANCH  36  37
ATOM     37  C   UNL     1       9.767   6.506   7.447  1.00  0.00     0.202 C 
BRANCH  37  38
ATOM     38  C   UNL     1       9.873   7.959   6.964  1.00  0.00     0.261 C 
BRANCH  38  39
ATOM     39  O   UNL     1      11.208   8.481   6.892  1.00  0.00    -0.460 OA
BRANCH  39  40
ATOM     40  C   UNL     1      11.934   8.472   8.032  1.00  0.00     0.338 C 
ATOM     41  O   UNL     1      11.547   8.149   9.142  1.00  0.00    -0.246 OA
BRANCH  40  42
ATOM     42  C   UNL     1      13.345   8.715   7.669  1.00  0.00     0.060 A 
ATOM     43  C   UNL     1      14.319   7.811   8.111  1.00  0.00     0.016 A 
ATOM     44  C   UNL     1      13.698   9.811   6.876  1.00  0.00     0.016 A 
ATOM     45  C   UNL     1      15.661   8.027   7.796  1.00  0.00     0.010 A 
ATOM     46  C   UNL     1      15.042  10.035   6.577  1.00  0.00     0.010 A 
ATOM     47  C   UNL     1      16.031   9.165   7.067  1.00  0.00    -0.014 A 
BRANCH  47  48
ATOM     48  C   UNL     1      17.453   9.578   7.022  1.00  0.00     0.031 A 
ATOM     49  C   UNL     1      17.933  10.552   8.062  1.00  0.00     0.074 A 
ATOM     50  C   UNL     1      18.297   9.105   6.090  1.00  0.00     0.049 A 
ATOM     51  N   UNL     1      19.112  11.094   8.219  1.00  0.00    -0.248 NA
ATOM     52  C   UNL     1      16.935  10.977   9.056  1.00  0.00     0.031 C 
ATOM     53  C   UNL     1      17.957   8.128   5.058  1.00  0.00     0.029 A 
ATOM     54  N   UNL     1      19.619   9.392   5.863  1.00  0.00    -0.354 N 
ATOM     55  C   UNL     1      18.999  11.923   9.330  1.00  0.00     0.074 A 
ATOM     56  C   UNL     1      17.623  11.847   9.774  1.00  0.00     0.031 C 
ATOM     57  C   UNL     1      19.047   7.898   4.304  1.00  0.00     0.029 A 
ATOM     58  C   UNL     1      20.148   8.735   4.778  1.00  0.00     0.049 A 
ATOM     59  H   UNL     1      20.140  10.010   6.425  1.00  0.00     0.167 HD
ATOM     60  C   UNL     1      19.956  12.671   9.932  1.00  0.00     0.034 A 
ATOM     61  C   UNL     1      21.375   8.819   4.225  1.00  0.00     0.034 A 
ATOM     62  C   UNL     1      21.314  12.762   9.456  1.00  0.00     0.049 A 
ATOM     63  C   UNL     1      22.396   9.746   4.841  1.00  0.00     0.074 A 
ATOM     64  C   UNL     1      22.372  13.474   9.991  1.00  0.00     0.029 A 
ATOM     65  N   UNL     1      21.796  12.137   8.311  1.00  0.00    -0.354 N 
ATOM     66  N   UNL     1      22.289  10.511   5.904  1.00  0.00    -0.248 NA
ATOM     67  C   UNL     1      23.706   9.819   4.179  1.00  0.00     0.031 C 
ATOM     68  C   UNL     1      23.468  13.345   9.129  1.00  0.00     0.029 A 
ATOM     69  C   UNL     1      23.122  12.483   8.099  1.00  0.00     0.049 A 
ATOM     70  H   UNL     1      21.272  11.535   7.734  1.00  0.00     0.167 HD
ATOM     71  C   UNL     1      23.529  11.129   6.056  1.00  0.00     0.074 A 
ATOM     72  C   UNL     1      24.367  10.643   4.979  1.00  0.00     0.031 C 
ATOM     73  C   UNL     1      23.941  12.007   7.007  1.00  0.00     0.034 A 
BRANCH  60  74
ATOM     74  C   UNL     1      19.528  13.493  11.125  1.00  0.00     0.023 A 
ATOM     75  C   UNL     1      19.022  12.894  12.293  1.00  0.00     0.031 A 
ATOM     76  C   UNL     1      19.546  14.898  11.063  1.00  0.00     0.131 A 
ATOM     77  C   UNL     1      18.462  13.691  13.303  1.00  0.00     0.055 A 
ATOM     78  C   UNL     1      19.072  15.687  12.112  1.00  0.00     0.041 A 
ATOM     79  F   UNL     1      19.993  15.528   9.965  1.00  0.00    -0.206 F 
ATOM     80  C   UNL     1      18.505  15.084  13.232  1.00  0.00     0.022 A 
BRANCH  77  81
ATOM     81  S   UNL     1      17.504  12.879  14.614  1.00  0.00     0.124 S 
ATOM     82  O   UNL     1      16.515  12.133  13.839  1.00  0.00    -0.237 OA
ATOM     83  O   UNL     1      18.517  12.081  15.295  1.00  0.00    -0.237 OA
ATOM     84  O   UNL     1      16.965  13.996  15.386  1.00  0.00    -0.744 OA
ENDBRANCH  77  81
ENDBRANCH  60  74
BRANCH  61  85
ATOM     85  C   UNL     1      21.709   8.025   3.009  1.00  0.00     0.023 A 
ATOM     86  C   UNL     1      22.677   7.010   3.051  1.00  0.00     0.031 A 
ATOM     87  C   UNL     1      21.090   8.298   1.775  1.00  0.00     0.131 A 
ATOM     88  C   UNL     1      23.024   6.325   1.875  1.00  0.00     0.055 A 
ATOM     89  C   UNL     1      21.406   7.584   0.619  1.00  0.00     0.041 A 
ATOM     90  F   UNL     1      20.160   9.261   1.681  1.00  0.00    -0.206 F 
ATOM     91  C   UNL     1      22.385   6.596   0.663  1.00  0.00     0.022 A 
BRANCH  88  92
ATOM     92  S   UNL     1      24.366   5.106   1.941  1.00  0.00     0.124 S 
ATOM     93  O   UNL     1      25.499   5.934   2.337  1.00  0.00    -0.237 OA
ATOM     94  O   UNL     1      23.875   4.167   2.945  1.00  0.00    -0.237 OA
ATOM     95  O   UNL     1      24.419   4.584   0.577  1.00  0.00    -0.744 OA
ENDBRANCH  88  92
ENDBRANCH  61  85
BRANCH  73  96
ATOM     96  C   UNL     1      25.380  12.463   6.947  1.00  0.00     0.023 A 
ATOM     97  C   UNL     1      25.863  13.266   5.898  1.00  0.00     0.031 A 
ATOM     98  C   UNL     1      26.283  12.083   7.956  1.00  0.00     0.131 A 
ATOM     99  C   UNL     1      27.221  13.619   5.856  1.00  0.00     0.055 A 
ATOM    100  C   UNL     1      27.619  12.488   7.941  1.00  0.00     0.041 A 
ATOM    101  F   UNL     1      25.879  11.315   8.981  1.00  0.00    -0.206 F 
ATOM    102  C   UNL     1      28.098  13.250   6.880  1.00  0.00     0.022 A 
BRANCH  99 103
ATOM    103  S   UNL     1      27.852  14.495   4.398  1.00  0.00     0.124 S 
ATOM    104  O   UNL     1      27.524  13.566   3.321  1.00  0.00    -0.237 OA
ATOM    105  O   UNL     1      27.088  15.737   4.424  1.00  0.00    -0.237 OA
ATOM    106  O   UNL     1      29.280  14.641   4.676  1.00  0.00    -0.744 OA
ENDBRANCH  99 103
ENDBRANCH  73  96
ENDBRANCH  47  48
ENDBRANCH  40  42
ENDBRANCH  39  40
ENDBRANCH  38  39
ENDBRANCH  37  38
ENDBRANCH  36  37
ENDBRANCH  35  36
ENDBRANCH  34  35
ENDBRANCH   1  34
TORSDOF 27
