REMARK SMILES Cc1ccc(S(=O)(=O)Nc2ccccn2)cc1C(=O)OCCOCCOCCOCCOC(=O)c1ccc(-c2c3nc(c(-c4cc(S(=O)(=O)[O-])ccc4F)c4ccc([nH]4)c(-c4cc(S(=O)(=O)[O-])ccc4F)c4nc(c(-c5cc(S(=O)(=O)[O-])ccc5F)c5ccc2[nH]5)C=C4)C=C3)cc1
REMARK SMILES IDX 26 1 25 2 24 3 23 4 22 5 21 6 20 7 18 8 19 9 17 10 1 11 2 12
REMARK SMILES IDX 3 13 4 14 16 15 5 16 6 17 7 18 8 19 9 20 10 22 11 23 15 24
REMARK SMILES IDX 12 25 14 26 13 27 27 28 28 29 29 30 30 31 31 32 32 33 33 34
REMARK SMILES IDX 34 35 35 36 36 37 97 38 37 39 96 40 38 41 39 42 40 43 90 44
REMARK SMILES IDX 41 45 95 46 89 47 91 48 42 49 94 50 88 51 87 52 43 54 75 55
REMARK SMILES IDX 55 56 74 57 56 58 59 59 73 60 92 61 57 62 58 63 72 65 93 66
REMARK SMILES IDX 60 67 44 68 45 69 53 70 46 71 52 72 54 73 51 74 47 75 48 76
REMARK SMILES IDX 49 77 50 78 76 79 77 80 85 81 78 82 84 83 86 84 83 85 79 86
REMARK SMILES IDX 80 87 81 88 82 89 61 90 62 91 70 92 63 93 69 94 71 95 68 96
REMARK SMILES IDX 64 97 65 98 66 99 67 100
REMARK H PARENT 9 21 91 53 59 64
REMARK Flexibility Score: inf
ROOT
ATOM      1  O   UNL     1       1.235   0.607  -3.233  1.00  0.00    -0.377 OA
ENDROOT
BRANCH   1   2
ATOM      2  C   UNL     1      -0.101   1.018  -2.945  1.00  0.00     0.188 C 
BRANCH   2   3
ATOM      3  C   UNL     1      -0.246   1.738  -1.622  1.00  0.00     0.188 C 
BRANCH   3   4
ATOM      4  O   UNL     1      -0.412   3.143  -1.758  1.00  0.00    -0.376 OA
BRANCH   4   5
ATOM      5  C   UNL     1       0.218   3.874  -0.707  1.00  0.00     0.202 C 
BRANCH   5   6
ATOM      6  C   UNL     1      -0.097   3.482   0.744  1.00  0.00     0.261 C 
BRANCH   6   7
ATOM      7  O   UNL     1       0.200   2.106   1.008  1.00  0.00    -0.460 OA
BRANCH   7   8
ATOM      8  C   UNL     1      -0.607   1.496   1.905  1.00  0.00     0.338 C 
ATOM      9  O   UNL     1      -1.232   2.003   2.797  1.00  0.00    -0.246 OA
BRANCH   8  10
ATOM     10  C   UNL     1      -1.043   0.218   1.287  1.00  0.00     0.064 A 
ATOM     11  C   UNL     1       1.243  -0.724   0.531  1.00  0.00     0.045 C 
ATOM     12  C   UNL     1      -0.259  -0.738   0.609  1.00  0.00    -0.036 A 
ATOM     13  C   UNL     1      -0.926  -1.729  -0.133  1.00  0.00     0.006 A 
ATOM     14  C   UNL     1      -2.299  -1.635  -0.372  1.00  0.00     0.022 A 
ATOM     15  C   UNL     1      -2.438   0.221   1.150  1.00  0.00     0.038 A 
ATOM     16  C   UNL     1      -3.031  -0.602   0.214  1.00  0.00     0.088 A 
BRANCH  16  17
ATOM     17  S   UNL     1      -4.615  -0.159  -0.451  1.00  0.00     0.263 S 
ATOM     18  O   UNL     1      -4.488  -0.211  -1.894  1.00  0.00    -0.201 OA
ATOM     19  O   UNL     1      -5.582  -0.989   0.237  1.00  0.00    -0.201 OA
BRANCH  17  20
ATOM     20  N   UNL     1      -4.936   1.414  -0.004  1.00  0.00    -0.263 N 
ATOM     21  H   UNL     1      -5.744   1.570   0.537  1.00  0.00     0.182 HD
BRANCH  20  22
ATOM     22  C   UNL     1      -4.157   2.542  -0.329  1.00  0.00     0.139 A 
ATOM     23  C   UNL     1      -3.606   2.848  -1.556  1.00  0.00     0.048 A 
ATOM     24  N   UNL     1      -4.168   3.397   0.710  1.00  0.00    -0.239 NA
ATOM     25  C   UNL     1      -3.012   4.106  -1.706  1.00  0.00     0.005 A 
ATOM     26  C   UNL     1      -3.546   4.588   0.556  1.00  0.00     0.113 A 
ATOM     27  C   UNL     1      -2.962   4.990  -0.630  1.00  0.00     0.020 A 
ENDBRANCH  20  22
ENDBRANCH  17  20
ENDBRANCH  16  17
ENDBRANCH   8  10
ENDBRANCH   7   8
ENDBRANCH   6   7
ENDBRANCH   5   6
ENDBRANCH   4   5
ENDBRANCH   3   4
ENDBRANCH   2   3
ENDBRANCH   1   2
BRANCH   1  28
ATOM     28  C   UNL     1       2.254   1.597  -3.088  1.00  0.00     0.188 C 
BRANCH  28  29
ATOM     29  C   UNL     1       2.321   2.553  -4.261  1.00  0.00     0.188 C 
BRANCH  29  30
ATOM     30  O   UNL     1       1.234   3.480  -4.234  1.00  0.00    -0.376 OA
BRANCH  30  31
ATOM     31  C   UNL     1       0.486   3.586  -5.439  1.00  0.00     0.202 C 
BRANCH  31  32
ATOM     32  C   UNL     1       1.309   3.961  -6.682  1.00  0.00     0.261 C 
BRANCH  32  33
ATOM     33  O   UNL     1       1.867   5.284  -6.543  1.00  0.00    -0.460 OA
BRANCH  33  34
ATOM     34  C   UNL     1       3.200   5.325  -6.261  1.00  0.00     0.338 C 
ATOM     35  O   UNL     1       4.083   4.902  -6.987  1.00  0.00    -0.246 OA
BRANCH  34  36
ATOM     36  C   UNL     1       3.412   5.838  -4.877  1.00  0.00     0.060 A 
ATOM     37  C   UNL     1       4.657   5.685  -4.240  1.00  0.00     0.016 A 
ATOM     38  C   UNL     1       2.290   6.165  -4.126  1.00  0.00     0.016 A 
ATOM     39  C   UNL     1       4.731   5.666  -2.838  1.00  0.00     0.010 A 
ATOM     40  C   UNL     1       2.350   6.010  -2.761  1.00  0.00     0.010 A 
ATOM     41  C   UNL     1       3.552   5.721  -2.099  1.00  0.00    -0.014 A 
BRANCH  41  42
ATOM     42  C   UNL     1       3.391   5.332  -0.684  1.00  0.00     0.031 A 
ATOM     43  C   UNL     1       2.563   6.229   0.200  1.00  0.00     0.074 A 
ATOM     44  C   UNL     1       3.616   4.027  -0.372  1.00  0.00     0.049 A 
ATOM     45  N   UNL     1       2.108   5.925   1.363  1.00  0.00    -0.248 NA
ATOM     46  C   UNL     1       2.093   7.556  -0.210  1.00  0.00     0.031 C 
ATOM     47  C   UNL     1       3.035   3.258   0.730  1.00  0.00     0.029 A 
ATOM     48  N   UNL     1       4.345   3.047  -1.016  1.00  0.00    -0.354 N 
ATOM     49  C   UNL     1       1.114   6.818   1.732  1.00  0.00     0.074 A 
ATOM     50  C   UNL     1       1.178   7.843   0.726  1.00  0.00     0.031 C 
ATOM     51  C   UNL     1       3.479   1.992   0.737  1.00  0.00     0.029 A 
ATOM     52  C   UNL     1       4.603   1.975  -0.153  1.00  0.00     0.049 A 
ATOM     53  H   UNL     1       4.642   3.096  -1.954  1.00  0.00     0.167 HD
ATOM     54  C   UNL     1       0.307   6.509   2.797  1.00  0.00     0.034 A 
ATOM     55  C   UNL     1       5.861   1.791   0.355  1.00  0.00     0.034 A 
ATOM     56  C   UNL     1       0.849   5.351   3.536  1.00  0.00     0.049 A 
ATOM     57  C   UNL     1       5.882   2.301   1.828  1.00  0.00     0.074 A 
ATOM     58  C   UNL     1       0.338   4.158   4.007  1.00  0.00     0.029 A 
ATOM     59  N   UNL     1       2.228   5.263   3.749  1.00  0.00    -0.354 N 
ATOM     60  N   UNL     1       5.127   3.288   2.291  1.00  0.00    -0.248 NA
ATOM     61  C   UNL     1       6.454   1.515   2.925  1.00  0.00     0.031 C 
ATOM     62  C   UNL     1       1.440   3.271   4.230  1.00  0.00     0.029 A 
ATOM     63  C   UNL     1       2.625   3.975   4.044  1.00  0.00     0.049 A 
ATOM     64  H   UNL     1       2.844   6.029   3.694  1.00  0.00     0.167 HD
ATOM     65  C   UNL     1       4.945   3.145   3.653  1.00  0.00     0.074 A 
ATOM     66  C   UNL     1       5.856   2.058   4.002  1.00  0.00     0.031 C 
ATOM     67  C   UNL     1       3.992   3.723   4.467  1.00  0.00     0.034 A 
BRANCH  54  68
ATOM     68  C   UNL     1      -1.069   7.114   3.132  1.00  0.00     0.023 A 
ATOM     69  C   UNL     1      -1.762   6.676   4.292  1.00  0.00     0.031 A 
ATOM     70  C   UNL     1      -1.806   8.013   2.328  1.00  0.00     0.131 A 
ATOM     71  C   UNL     1      -3.084   7.085   4.586  1.00  0.00     0.055 A 
ATOM     72  C   UNL     1      -3.098   8.471   2.655  1.00  0.00     0.041 A 
ATOM     73  F   UNL     1      -1.351   8.456   1.152  1.00  0.00    -0.206 F 
ATOM     74  C   UNL     1      -3.750   8.000   3.782  1.00  0.00     0.022 A 
BRANCH  71  75
ATOM     75  S   UNL     1      -3.952   6.377   6.022  1.00  0.00     0.124 S 
ATOM     76  O   UNL     1      -4.166   4.999   5.598  1.00  0.00    -0.237 OA
ATOM     77  O   UNL     1      -2.995   6.585   7.102  1.00  0.00    -0.237 OA
ATOM     78  O   UNL     1      -5.167   7.187   6.116  1.00  0.00    -0.744 OA
ENDBRANCH  71  75
ENDBRANCH  54  68
BRANCH  55  79
ATOM     79  C   UNL     1       6.831   1.770  -0.801  1.00  0.00     0.023 A 
ATOM     80  C   UNL     1       6.587   0.703  -1.720  1.00  0.00     0.031 A 
ATOM     81  C   UNL     1       7.319   2.969  -1.348  1.00  0.00     0.131 A 
ATOM     82  C   UNL     1       6.521   0.949  -3.106  1.00  0.00     0.055 A 
ATOM     83  C   UNL     1       7.311   3.186  -2.741  1.00  0.00     0.041 A 
ATOM     84  F   UNL     1       7.590   4.018  -0.559  1.00  0.00    -0.206 F 
ATOM     85  C   UNL     1       6.833   2.208  -3.616  1.00  0.00     0.022 A 
BRANCH  82  86
ATOM     86  S   UNL     1       5.714  -0.280  -4.198  1.00  0.00     0.124 S 
ATOM     87  O   UNL     1       6.832  -1.141  -4.565  1.00  0.00    -0.237 OA
ATOM     88  O   UNL     1       4.715  -0.881  -3.323  1.00  0.00    -0.237 OA
ATOM     89  O   UNL     1       5.168   0.547  -5.273  1.00  0.00    -0.744 OA
ENDBRANCH  82  86
ENDBRANCH  55  79
BRANCH  67  90
ATOM     90  C   UNL     1       4.320   4.177   5.876  1.00  0.00     0.023 A 
ATOM     91  C   UNL     1       5.628   4.133   6.344  1.00  0.00     0.031 A 
ATOM     92  C   UNL     1       3.382   4.835   6.722  1.00  0.00     0.131 A 
ATOM     93  C   UNL     1       5.957   4.624   7.609  1.00  0.00     0.055 A 
ATOM     94  C   UNL     1       3.736   5.423   7.936  1.00  0.00     0.041 A 
ATOM     95  F   UNL     1       2.088   4.975   6.404  1.00  0.00    -0.206 F 
ATOM     96  C   UNL     1       5.034   5.303   8.399  1.00  0.00     0.022 A 
BRANCH  93  97
ATOM     97  S   UNL     1       7.609   4.238   8.205  1.00  0.00     0.124 S 
ATOM     98  O   UNL     1       7.571   2.778   8.236  1.00  0.00    -0.237 OA
ATOM     99  O   UNL     1       8.459   4.826   7.175  1.00  0.00    -0.237 OA
ATOM    100  O   UNL     1       7.663   4.890   9.510  1.00  0.00    -0.744 OA
ENDBRANCH  93  97
ENDBRANCH  67  90
ENDBRANCH  41  42
ENDBRANCH  34  36
ENDBRANCH  33  34
ENDBRANCH  32  33
ENDBRANCH  31  32
ENDBRANCH  30  31
ENDBRANCH  29  30
ENDBRANCH  28  29
ENDBRANCH   1  28
TORSDOF 26
