REMARK SMILES C=CCN(CC(=O)OCCOCCOCCOCCOC(=O)c1ccc(-c2c3nc(c(-c4cc(S(=O)(=O)[O-])ccc4F)c4ccc([nH]4)c(-c4cc(S(=O)(=O)[O-])ccc4F)c4nc(c(-c5cc(S(=O)(=O)[O-])ccc5F)c5ccc2[nH]5)C=C4)C=C3)cc1)C(=O)N1CC[C@@H]([NH+]2CCCCC2)C1
REMARK SMILES IDX 13 1 12 2 11 3 10 4 9 5 8 6 6 7 7 8 5 9 4 10 3 11 2 12 1 13
REMARK SMILES IDX 86 14 87 15 88 16 89 17 98 18 90 19 91 20 92 21 93 22 97 23
REMARK SMILES IDX 94 25 96 26 95 27 14 28 15 29 16 30 17 31 18 32 19 33 20 34
REMARK SMILES IDX 21 35 22 36 23 37 24 38 85 39 25 40 84 41 26 42 27 43 28 44
REMARK SMILES IDX 78 45 29 46 83 47 77 48 79 49 30 50 82 51 76 52 75 53 31 55
REMARK SMILES IDX 63 56 43 57 62 58 44 59 47 60 61 61 80 62 45 63 46 64 60 66
REMARK SMILES IDX 81 67 48 68 32 69 33 70 41 71 34 72 40 73 42 74 39 75 35 76
REMARK SMILES IDX 36 77 37 78 38 79 64 80 65 81 73 82 66 83 72 84 74 85 71 86
REMARK SMILES IDX 67 87 68 88 69 89 70 90 49 91 50 92 58 93 51 94 57 95 59 96
REMARK SMILES IDX 56 97 52 98 53 99 54 100 55 101
REMARK H PARENT 92 24 79 54 47 65
REMARK Flexibility Score: inf
ROOT
ATOM      1  C   UNL     1      -4.421   1.624   3.040  1.00  0.00     0.188 C 
ENDROOT
BRANCH   1   2
ATOM      2  C   UNL     1      -5.607   2.593   3.053  1.00  0.00     0.188 C 
BRANCH   2   3
ATOM      3  O   UNL     1      -6.830   2.184   2.473  1.00  0.00    -0.376 OA
BRANCH   3   4
ATOM      4  C   UNL     1      -6.782   1.606   1.172  1.00  0.00     0.202 C 
BRANCH   4   5
ATOM      5  C   UNL     1      -6.008   2.383   0.092  1.00  0.00     0.261 C 
BRANCH   5   6
ATOM      6  O   UNL     1      -4.566   2.327   0.262  1.00  0.00    -0.462 OA
BRANCH   6   7
ATOM      7  C   UNL     1      -3.871   3.479   0.053  1.00  0.00     0.325 C 
ATOM      8  O   UNL     1      -4.384   4.514  -0.366  1.00  0.00    -0.250 OA
BRANCH   7   9
ATOM      9  C   UNL     1      -2.339   3.375   0.255  1.00  0.00     0.244 C 
BRANCH   9  10
ATOM     10  N   UNL     1      -1.695   2.333   1.075  1.00  0.00    -0.310 N 
BRANCH  10  11
ATOM     11  C   UNL     1      -1.427   1.077   0.360  1.00  0.00     0.149 C 
BRANCH  11  12
ATOM     12  C   UNL     1      -0.025   1.103  -0.198  1.00  0.00    -0.013 C 
ATOM     13  C   UNL     1       0.824   0.066  -0.138  1.00  0.00     0.006 C 
ENDBRANCH  11  12
ENDBRANCH  10  11
BRANCH  10  14
ATOM     14  C   UNL     1      -1.184   2.411   2.362  1.00  0.00     0.321 C 
ATOM     15  O   UNL     1      -0.445   1.510   2.781  1.00  0.00    -0.248 OA
BRANCH  14  16
ATOM     16  N   UNL     1      -1.463   3.450   3.219  1.00  0.00    -0.318 N 
ATOM     17  C   UNL     1      -2.448   4.513   3.223  1.00  0.00     0.128 C 
ATOM     18  C   UNL     1      -0.749   3.477   4.511  1.00  0.00     0.186 C 
ATOM     19  C   UNL     1      -1.896   5.535   4.200  1.00  0.00     0.088 C 
ATOM     20  C   UNL     1      -1.284   4.687   5.327  1.00  0.00     0.205 C 
BRANCH  20  21
ATOM     21  N   UNL     1      -2.087   4.499   6.542  1.00  0.00    -0.331 N 
ATOM     22  C   UNL     1      -2.658   3.227   6.951  1.00  0.00     0.262 C 
ATOM     23  C   UNL     1      -2.813   5.639   7.088  1.00  0.00     0.262 C 
ATOM     24  H   UNL     1      -1.178   4.405   6.996  1.00  0.00     0.348 HD
ATOM     25  C   UNL     1      -4.138   3.117   6.603  1.00  0.00     0.062 C 
ATOM     26  C   UNL     1      -4.295   5.631   6.702  1.00  0.00     0.062 C 
ATOM     27  C   UNL     1      -4.970   4.310   7.048  1.00  0.00     0.012 C 
ENDBRANCH  20  21
ENDBRANCH  14  16
ENDBRANCH  10  14
ENDBRANCH   9  10
ENDBRANCH   7   9
ENDBRANCH   6   7
ENDBRANCH   5   6
ENDBRANCH   4   5
ENDBRANCH   3   4
ENDBRANCH   2   3
ENDBRANCH   1   2
BRANCH   1  28
ATOM     28  O   UNL     1      -4.639   0.272   2.716  1.00  0.00    -0.377 OA
BRANCH  28  29
ATOM     29  C   UNL     1      -5.120  -0.589   3.734  1.00  0.00     0.188 C 
BRANCH  29  30
ATOM     30  C   UNL     1      -4.965  -0.138   5.188  1.00  0.00     0.188 C 
BRANCH  30  31
ATOM     31  O   UNL     1      -3.685   0.280   5.662  1.00  0.00    -0.376 OA
BRANCH  31  32
ATOM     32  C   UNL     1      -2.491  -0.258   5.099  1.00  0.00     0.202 C 
BRANCH  32  33
ATOM     33  C   UNL     1      -1.772  -1.178   6.083  1.00  0.00     0.261 C 
BRANCH  33  34
ATOM     34  O   UNL     1      -2.196  -2.521   5.832  1.00  0.00    -0.460 OA
BRANCH  34  35
ATOM     35  C   UNL     1      -3.402  -2.836   6.363  1.00  0.00     0.338 C 
ATOM     36  O   UNL     1      -3.915  -2.349   7.346  1.00  0.00    -0.246 OA
BRANCH  35  37
ATOM     37  C   UNL     1      -4.108  -3.692   5.377  1.00  0.00     0.060 A 
ATOM     38  C   UNL     1      -5.511  -3.680   5.376  1.00  0.00     0.016 A 
ATOM     39  C   UNL     1      -3.406  -4.436   4.420  1.00  0.00     0.016 A 
ATOM     40  C   UNL     1      -6.216  -4.448   4.454  1.00  0.00     0.010 A 
ATOM     41  C   UNL     1      -4.106  -5.222   3.513  1.00  0.00     0.010 A 
ATOM     42  C   UNL     1      -5.508  -5.269   3.569  1.00  0.00    -0.014 A 
BRANCH  42  43
ATOM     43  C   UNL     1      -6.176  -6.443   2.976  1.00  0.00     0.031 A 
ATOM     44  C   UNL     1      -6.151  -7.706   3.791  1.00  0.00     0.074 A 
ATOM     45  C   UNL     1      -6.723  -6.400   1.752  1.00  0.00     0.049 A 
ATOM     46  N   UNL     1      -6.525  -8.915   3.473  1.00  0.00    -0.248 NA
ATOM     47  C   UNL     1      -5.599  -7.583   5.152  1.00  0.00     0.031 C 
ATOM     48  C   UNL     1      -6.830  -5.209   0.913  1.00  0.00     0.029 A 
ATOM     49  N   UNL     1      -7.274  -7.401   0.998  1.00  0.00    -0.354 N 
ATOM     50  C   UNL     1      -6.246  -9.695   4.591  1.00  0.00     0.074 A 
ATOM     51  C   UNL     1      -5.633  -8.833   5.574  1.00  0.00     0.031 C 
ATOM     52  C   UNL     1      -7.401  -5.554  -0.256  1.00  0.00     0.029 A 
ATOM     53  C   UNL     1      -7.654  -6.994  -0.257  1.00  0.00     0.049 A 
ATOM     54  H   UNL     1      -7.386  -8.323   1.324  1.00  0.00     0.167 HD
ATOM     55  C   UNL     1      -6.481 -11.015   4.778  1.00  0.00     0.034 A 
ATOM     56  C   UNL     1      -8.124  -7.722  -1.290  1.00  0.00     0.034 A 
ATOM     57  C   UNL     1      -7.045 -11.855   3.755  1.00  0.00     0.049 A 
ATOM     58  C   UNL     1      -8.288  -9.212  -1.103  1.00  0.00     0.074 A 
ATOM     59  C   UNL     1      -7.321 -13.208   3.797  1.00  0.00     0.029 A 
ATOM     60  N   UNL     1      -7.399 -11.414   2.483  1.00  0.00    -0.354 N 
ATOM     61  N   UNL     1      -8.027  -9.948  -0.045  1.00  0.00    -0.248 NA
ATOM     62  C   UNL     1      -8.810  -9.969  -2.247  1.00  0.00     0.031 C 
ATOM     63  C   UNL     1      -7.774 -13.598   2.532  1.00  0.00     0.029 A 
ATOM     64  C   UNL     1      -7.863 -12.473   1.724  1.00  0.00     0.049 A 
ATOM     65  H   UNL     1      -7.330 -10.483   2.170  1.00  0.00     0.167 HD
ATOM     66  C   UNL     1      -8.395 -11.248  -0.383  1.00  0.00     0.074 A 
ATOM     67  C   UNL     1      -8.886 -11.194  -1.746  1.00  0.00     0.031 C 
ATOM     68  C   UNL     1      -8.348 -12.380   0.365  1.00  0.00     0.034 A 
BRANCH  55  69
ATOM     69  C   UNL     1      -6.044 -11.604   6.098  1.00  0.00     0.023 A 
ATOM     70  C   UNL     1      -6.570 -11.145   7.321  1.00  0.00     0.031 A 
ATOM     71  C   UNL     1      -5.010 -12.554   6.145  1.00  0.00     0.131 A 
ATOM     72  C   UNL     1      -5.987 -11.551   8.531  1.00  0.00     0.055 A 
ATOM     73  C   UNL     1      -4.499 -13.028   7.356  1.00  0.00     0.041 A 
ATOM     74  F   UNL     1      -4.445 -13.008   5.015  1.00  0.00    -0.206 F 
ATOM     75  C   UNL     1      -4.972 -12.509   8.558  1.00  0.00     0.022 A 
BRANCH  72  76
ATOM     76  S   UNL     1      -6.434 -10.660  10.048  1.00  0.00     0.124 S 
ATOM     77  O   UNL     1      -6.093  -9.284   9.693  1.00  0.00    -0.237 OA
ATOM     78  O   UNL     1      -7.857 -10.953  10.177  1.00  0.00    -0.237 OA
ATOM     79  O   UNL     1      -5.576 -11.264  11.066  1.00  0.00    -0.744 OA
ENDBRANCH  72  76
ENDBRANCH  55  69
BRANCH  56  80
ATOM     80  C   UNL     1      -8.451  -7.064  -2.585  1.00  0.00     0.023 A 
ATOM     81  C   UNL     1      -9.775  -7.003  -3.048  1.00  0.00     0.031 A 
ATOM     82  C   UNL     1      -7.445  -6.495  -3.387  1.00  0.00     0.131 A 
ATOM     83  C   UNL     1     -10.056  -6.411  -4.289  1.00  0.00     0.055 A 
ATOM     84  C   UNL     1      -7.735  -5.870  -4.602  1.00  0.00     0.041 A 
ATOM     85  F   UNL     1      -6.163  -6.522  -2.989  1.00  0.00    -0.206 F 
ATOM     86  C   UNL     1      -9.047  -5.833  -5.063  1.00  0.00     0.022 A 
BRANCH  83  87
ATOM     87  S   UNL     1     -11.762  -6.447  -4.904  1.00  0.00     0.124 S 
ATOM     88  O   UNL     1     -12.015  -7.880  -4.993  1.00  0.00    -0.237 OA
ATOM     89  O   UNL     1     -12.478  -5.732  -3.852  1.00  0.00    -0.237 OA
ATOM     90  O   UNL     1     -11.678  -5.746  -6.183  1.00  0.00    -0.744 OA
ENDBRANCH  83  87
ENDBRANCH  56  80
BRANCH  68  91
ATOM     91  C   UNL     1      -8.912 -13.636  -0.250  1.00  0.00     0.023 A 
ATOM     92  C   UNL     1      -8.276 -14.297  -1.313  1.00  0.00     0.031 A 
ATOM     93  C   UNL     1     -10.095 -14.192   0.270  1.00  0.00     0.131 A 
ATOM     94  C   UNL     1      -8.849 -15.460  -1.849  1.00  0.00     0.055 A 
ATOM     95  C   UNL     1     -10.630 -15.378  -0.231  1.00  0.00     0.041 A 
ATOM     96  F   UNL     1     -10.740 -13.597   1.287  1.00  0.00    -0.206 F 
ATOM     97  C   UNL     1     -10.011 -16.015  -1.302  1.00  0.00     0.022 A 
BRANCH  94  98
ATOM     98  S   UNL     1      -8.093 -16.210  -3.316  1.00  0.00     0.124 S 
ATOM     99  O   UNL     1      -8.185 -15.127  -4.291  1.00  0.00    -0.237 OA
ATOM    100  O   UNL     1      -6.749 -16.531  -2.847  1.00  0.00    -0.237 OA
ATOM    101  O   UNL     1      -8.946 -17.365  -3.590  1.00  0.00    -0.744 OA
ENDBRANCH  94  98
ENDBRANCH  68  91
ENDBRANCH  42  43
ENDBRANCH  35  37
ENDBRANCH  34  35
ENDBRANCH  33  34
ENDBRANCH  32  33
ENDBRANCH  31  32
ENDBRANCH  30  31
ENDBRANCH  29  30
ENDBRANCH  28  29
ENDBRANCH   1  28
TORSDOF 29
