REMARK SMILES NC(=O)c1cc(NC(=O)/C=C\C(=O)OCCOCCOCCOCCOC(=O)c2ccc(-c3c4nc(c(-c5cc(S(=O)(=O)[O-])ccc5F)c5ccc([nH]5)c(-c5cc(S(=O)(=O)[O-])ccc5F)c5nc(c(-c6cc(S(=O)(=O)[O-])ccc6F)c6ccc3[nH]6)C=C5)C=C4)cc2)ccc1N1CCOCC1
REMARK SMILES IDX 20 1 19 2 18 3 17 4 16 5 15 6 14 7 12 8 13 9 11 10 10 11
REMARK SMILES IDX 8 12 7 13 9 15 6 16 4 17 5 18 94 19 93 20 92 21 2 22 1 23
REMARK SMILES IDX 3 26 95 27 96 28 100 29 97 30 99 31 98 32 21 33 22 34 23 35
REMARK SMILES IDX 24 36 25 37 26 38 27 39 28 40 29 41 30 42 91 43 31 44 90 45
REMARK SMILES IDX 32 46 33 47 34 48 84 49 35 50 89 51 83 52 85 53 36 54 88 55
REMARK SMILES IDX 82 56 81 57 37 59 69 60 49 61 68 62 50 63 53 64 67 65 86 66
REMARK SMILES IDX 51 67 52 68 66 70 87 71 54 72 38 73 39 74 47 75 40 76 46 77
REMARK SMILES IDX 48 78 45 79 41 80 42 81 43 82 44 83 70 84 71 85 79 86 72 87
REMARK SMILES IDX 78 88 80 89 77 90 73 91 74 92 75 93 76 94 55 95 56 96 64 97
REMARK SMILES IDX 57 98 63 99 65 100 62 101 58 102 59 103 60 104 61 105
REMARK H PARENT 7 14 1 24 1 25 85 58 53 69
REMARK Flexibility Score: inf
ROOT
ATOM      1  O   UNL     1       3.234   4.317   3.021  1.00  0.00    -0.377 OA
ENDROOT
BRANCH   1   2
ATOM      2  C   UNL     1       2.863   2.977   2.739  1.00  0.00     0.188 C 
BRANCH   2   3
ATOM      3  C   UNL     1       3.334   2.407   1.396  1.00  0.00     0.188 C 
BRANCH   3   4
ATOM      4  O   UNL     1       3.912   3.366   0.513  1.00  0.00    -0.376 OA
BRANCH   4   5
ATOM      5  C   UNL     1       3.023   4.106  -0.313  1.00  0.00     0.202 C 
BRANCH   5   6
ATOM      6  C   UNL     1       2.363   5.375   0.241  1.00  0.00     0.261 C 
BRANCH   6   7
ATOM      7  O   UNL     1       1.076   5.321   0.896  1.00  0.00    -0.460 OA
BRANCH   7   8
ATOM      8  C   UNL     1       0.347   4.205   1.020  1.00  0.00     0.331 C 
ATOM      9  O   UNL     1       0.666   3.049   0.812  1.00  0.00    -0.247 OA
BRANCH   8  10
ATOM     10  C   UNL     1      -1.017   4.516   1.441  1.00  0.00     0.099 C 
ATOM     11  C   UNL     1      -1.822   5.370   0.796  1.00  0.00     0.079 C 
BRANCH  11  12
ATOM     12  C   UNL     1      -1.482   6.269  -0.332  1.00  0.00     0.248 C 
ATOM     13  N   UNL     1      -0.839   5.876  -1.470  1.00  0.00    -0.322 N 
ATOM     14  H   UNL     1      -0.596   6.630  -2.055  1.00  0.00     0.170 HD
ATOM     15  O   UNL     1      -1.791   7.455  -0.205  1.00  0.00    -0.270 OA
BRANCH  13  16
ATOM     16  C   UNL     1      -0.447   4.628  -1.990  1.00  0.00     0.042 A 
ATOM     17  C   UNL     1      -0.335   2.206  -1.893  1.00  0.00     0.064 A 
ATOM     18  C   UNL     1      -1.017   3.415  -1.632  1.00  0.00     0.042 A 
ATOM     19  C   UNL     1       0.901   2.191  -2.588  1.00  0.00     0.050 A 
ATOM     20  C   UNL     1       1.324   3.413  -3.135  1.00  0.00     0.029 A 
ATOM     21  C   UNL     1       0.660   4.616  -2.844  1.00  0.00     0.028 A 
BRANCH  17  22
ATOM     22  C   UNL     1      -0.905   1.021  -1.194  1.00  0.00     0.250 C 
ATOM     23  N   UNL     1      -0.026   0.239  -0.503  1.00  0.00    -0.366 N 
ATOM     24  H   UNL     1      -0.348  -0.558  -0.023  1.00  0.00     0.159 HD
ATOM     25  H   UNL     1       0.931   0.472  -0.485  1.00  0.00     0.159 HD
ATOM     26  O   UNL     1      -2.109   0.798  -1.179  1.00  0.00    -0.269 OA
ENDBRANCH  17  22
BRANCH  19  27
ATOM     27  N   UNL     1       1.710   1.063  -2.661  1.00  0.00    -0.366 N 
ATOM     28  C   UNL     1       1.273  -0.052  -3.511  1.00  0.00     0.145 C 
ATOM     29  C   UNL     1       3.173   1.129  -2.479  1.00  0.00     0.145 C 
ATOM     30  C   UNL     1       1.871  -1.366  -2.976  1.00  0.00     0.181 C 
ATOM     31  C   UNL     1       3.680  -0.231  -1.965  1.00  0.00     0.181 C 
ATOM     32  O   UNL     1       3.303  -1.298  -2.852  1.00  0.00    -0.378 OA
ENDBRANCH  19  27
ENDBRANCH  13  16
ENDBRANCH  11  12
ENDBRANCH   8  10
ENDBRANCH   7   8
ENDBRANCH   6   7
ENDBRANCH   5   6
ENDBRANCH   4   5
ENDBRANCH   3   4
ENDBRANCH   2   3
ENDBRANCH   1   2
BRANCH   1  33
ATOM     33  C   UNL     1       4.581   4.718   2.785  1.00  0.00     0.188 C 
BRANCH  33  34
ATOM     34  C   UNL     1       5.716   3.688   2.896  1.00  0.00     0.188 C 
BRANCH  34  35
ATOM     35  O   UNL     1       5.425   2.597   3.756  1.00  0.00    -0.376 OA
BRANCH  35  36
ATOM     36  C   UNL     1       5.884   2.721   5.095  1.00  0.00     0.202 C 
BRANCH  36  37
ATOM     37  C   UNL     1       5.190   3.796   5.945  1.00  0.00     0.261 C 
BRANCH  37  38
ATOM     38  O   UNL     1       5.412   5.175   5.586  1.00  0.00    -0.460 OA
BRANCH  38  39
ATOM     39  C   UNL     1       6.668   5.610   5.331  1.00  0.00     0.338 C 
ATOM     40  O   UNL     1       7.700   4.988   5.486  1.00  0.00    -0.246 OA
BRANCH  39  41
ATOM     41  C   UNL     1       6.562   6.899   4.597  1.00  0.00     0.060 A 
ATOM     42  C   UNL     1       7.231   7.039   3.371  1.00  0.00     0.016 A 
ATOM     43  C   UNL     1       5.774   7.944   5.087  1.00  0.00     0.016 A 
ATOM     44  C   UNL     1       7.165   8.244   2.666  1.00  0.00     0.010 A 
ATOM     45  C   UNL     1       5.734   9.161   4.399  1.00  0.00     0.010 A 
ATOM     46  C   UNL     1       6.471   9.332   3.212  1.00  0.00    -0.014 A 
BRANCH  46  47
ATOM     47  C   UNL     1       6.799  10.710   2.756  1.00  0.00     0.031 A 
ATOM     48  C   UNL     1       7.940  11.402   3.458  1.00  0.00     0.074 A 
ATOM     49  C   UNL     1       6.133  11.335   1.769  1.00  0.00     0.049 A 
ATOM     50  N   UNL     1       8.389  12.622   3.327  1.00  0.00    -0.248 NA
ATOM     51  C   UNL     1       8.669  10.597   4.454  1.00  0.00     0.031 C 
ATOM     52  C   UNL     1       5.049  10.761   0.975  1.00  0.00     0.029 A 
ATOM     53  N   UNL     1       6.273  12.611   1.274  1.00  0.00    -0.354 N 
ATOM     54  C   UNL     1       9.448  12.731   4.223  1.00  0.00     0.074 A 
ATOM     55  C   UNL     1       9.553  11.466   4.914  1.00  0.00     0.031 C 
ATOM     56  C   UNL     1       4.609  11.690   0.105  1.00  0.00     0.029 A 
ATOM     57  C   UNL     1       5.352  12.935   0.304  1.00  0.00     0.049 A 
ATOM     58  H   UNL     1       6.968  13.235   1.585  1.00  0.00     0.167 HD
ATOM     59  C   UNL     1      10.264  13.787   4.451  1.00  0.00     0.034 A 
ATOM     60  C   UNL     1       5.120  14.109  -0.321  1.00  0.00     0.034 A 
ATOM     61  C   UNL     1      10.134  15.055   3.784  1.00  0.00     0.049 A 
ATOM     62  C   UNL     1       5.976  15.310   0.024  1.00  0.00     0.074 A 
ATOM     63  C   UNL     1      10.899  16.196   3.945  1.00  0.00     0.029 A 
ATOM     64  N   UNL     1       9.162  15.357   2.840  1.00  0.00    -0.354 N 
ATOM     65  N   UNL     1       6.978  15.400   0.870  1.00  0.00    -0.248 NA
ATOM     66  C   UNL     1       5.670  16.568  -0.673  1.00  0.00     0.031 C 
ATOM     67  C   UNL     1      10.348  17.207   3.151  1.00  0.00     0.029 A 
ATOM     68  C   UNL     1       9.288  16.674   2.433  1.00  0.00     0.049 A 
ATOM     69  H   UNL     1       8.482  14.726   2.508  1.00  0.00     0.167 HD
ATOM     70  C   UNL     1       7.440  16.713   0.777  1.00  0.00     0.074 A 
ATOM     71  C   UNL     1       6.617  17.373  -0.213  1.00  0.00     0.031 C 
ATOM     72  C   UNL     1       8.457  17.319   1.444  1.00  0.00     0.034 A 
BRANCH  59  73
ATOM     73  C   UNL     1      11.320  13.619   5.515  1.00  0.00     0.023 A 
ATOM     74  C   UNL     1      12.371  12.695   5.373  1.00  0.00     0.031 A 
ATOM     75  C   UNL     1      11.243  14.355   6.710  1.00  0.00     0.131 A 
ATOM     76  C   UNL     1      13.260  12.481   6.436  1.00  0.00     0.055 A 
ATOM     77  C   UNL     1      12.179  14.193   7.733  1.00  0.00     0.041 A 
ATOM     78  F   UNL     1      10.244  15.228   6.912  1.00  0.00    -0.206 F 
ATOM     79  C   UNL     1      13.186  13.242   7.606  1.00  0.00     0.022 A 
BRANCH  76  80
ATOM     80  S   UNL     1      14.424  11.094   6.327  1.00  0.00     0.124 S 
ATOM     81  O   UNL     1      13.518   9.958   6.186  1.00  0.00    -0.237 OA
ATOM     82  O   UNL     1      15.211  11.434   5.147  1.00  0.00    -0.237 OA
ATOM     83  O   UNL     1      15.146  11.152   7.596  1.00  0.00    -0.744 OA
ENDBRANCH  76  80
ENDBRANCH  59  73
BRANCH  60  84
ATOM     84  C   UNL     1       3.998  14.249  -1.299  1.00  0.00     0.023 A 
ATOM     85  C   UNL     1       4.238  14.586  -2.642  1.00  0.00     0.031 A 
ATOM     86  C   UNL     1       2.661  14.135  -0.880  1.00  0.00     0.131 A 
ATOM     87  C   UNL     1       3.159  14.847  -3.503  1.00  0.00     0.055 A 
ATOM     88  C   UNL     1       1.591  14.343  -1.753  1.00  0.00     0.041 A 
ATOM     89  F   UNL     1       2.373  13.825   0.394  1.00  0.00    -0.206 F 
ATOM     90  C   UNL     1       1.837  14.716  -3.071  1.00  0.00     0.022 A 
BRANCH  87  91
ATOM     91  S   UNL     1       3.507  15.456  -5.177  1.00  0.00     0.124 S 
ATOM     92  O   UNL     1       4.261  16.673  -4.900  1.00  0.00    -0.237 OA
ATOM     93  O   UNL     1       4.265  14.347  -5.749  1.00  0.00    -0.237 OA
ATOM     94  O   UNL     1       2.178  15.659  -5.749  1.00  0.00    -0.744 OA
ENDBRANCH  87  91
ENDBRANCH  60  84
BRANCH  72  95
ATOM     95  C   UNL     1       8.772  18.750   1.080  1.00  0.00     0.023 A 
ATOM     96  C   UNL     1       7.885  19.803   1.360  1.00  0.00     0.031 A 
ATOM     97  C   UNL     1       9.990  19.062   0.447  1.00  0.00     0.131 A 
ATOM     98  C   UNL     1       8.206  21.111   0.964  1.00  0.00     0.055 A 
ATOM     99  C   UNL     1      10.330  20.372   0.109  1.00  0.00     0.041 A 
ATOM    100  F   UNL     1      10.876  18.096   0.157  1.00  0.00    -0.206 F 
ATOM    101  C   UNL     1       9.430  21.404   0.356  1.00  0.00     0.022 A 
BRANCH  98 102
ATOM    102  S   UNL     1       6.965  22.417   1.175  1.00  0.00     0.124 S 
ATOM    103  O   UNL     1       5.841  21.896   0.405  1.00  0.00    -0.237 OA
ATOM    104  O   UNL     1       6.786  22.446   2.623  1.00  0.00    -0.237 OA
ATOM    105  O   UNL     1       7.610  23.600   0.608  1.00  0.00    -0.744 OA
ENDBRANCH  98 102
ENDBRANCH  72  95
ENDBRANCH  46  47
ENDBRANCH  39  41
ENDBRANCH  38  39
ENDBRANCH  37  38
ENDBRANCH  36  37
ENDBRANCH  35  36
ENDBRANCH  34  35
ENDBRANCH  33  34
ENDBRANCH   1  33
TORSDOF 27
