REMARK SMILES CC(C)C(=O)Nc1ccc(C(=O)Nc2ccc(CC(=O)OCCOCCOCCOCCOC(=O)c3ccc(-c4c5nc(c(-c6cc(S(=O)(=O)[O-])ccc6F)c6ccc([nH]6)c(-c6cc(S(=O)(=O)[O-])ccc6F)c6nc(c(-c7cc(S(=O)(=O)[O-])ccc7F)c7ccc4[nH]7)C=C6)C=C5)cc3)cc2)cc1
REMARK SMILES IDX 26 1 25 2 24 3 23 4 22 5 21 6 19 7 20 8 18 9 17 10 14 11
REMARK SMILES IDX 15 12 100 13 16 14 99 15 13 16 11 17 12 18 10 20 7 21 8 22
REMARK SMILES IDX 102 23 9 24 101 25 6 26 4 27 5 28 2 30 1 31 3 32 27 33 28 34
REMARK SMILES IDX 29 35 30 36 31 37 32 38 33 39 34 40 35 41 36 42 37 43 98 44
REMARK SMILES IDX 38 45 97 46 39 47 40 48 41 49 91 50 42 51 96 52 90 53 92 54
REMARK SMILES IDX 43 55 95 56 89 57 88 58 44 60 76 61 56 62 75 63 57 64 60 65
REMARK SMILES IDX 74 66 93 67 58 68 59 69 73 71 94 72 61 73 45 74 46 75 54 76
REMARK SMILES IDX 47 77 53 78 55 79 52 80 48 81 49 82 50 83 51 84 77 85 78 86
REMARK SMILES IDX 86 87 79 88 85 89 87 90 84 91 80 92 81 93 82 94 83 95 62 96
REMARK SMILES IDX 63 97 71 98 64 99 70 100 72 101 69 102 65 103 66 104 67 105
REMARK SMILES IDX 68 106
REMARK H PARENT 13 19 6 29 92 59 60 70
REMARK Flexibility Score: inf
ROOT
ATOM      1  C   UNL     1       5.607  -5.896   1.847  1.00  0.00     0.188 C 
ENDROOT
BRANCH   1   2
ATOM      2  C   UNL     1       6.580  -4.962   2.596  1.00  0.00     0.188 C 
BRANCH   2   3
ATOM      3  O   UNL     1       6.794  -5.070   4.004  1.00  0.00    -0.376 OA
BRANCH   3   4
ATOM      4  C   UNL     1       6.043  -6.012   4.751  1.00  0.00     0.202 C 
BRANCH   4   5
ATOM      5  C   UNL     1       4.571  -5.638   5.003  1.00  0.00     0.261 C 
BRANCH   5   6
ATOM      6  O   UNL     1       3.899  -4.962   3.918  1.00  0.00    -0.463 OA
BRANCH   6   7
ATOM      7  C   UNL     1       3.925  -3.608   3.930  1.00  0.00     0.310 C 
ATOM      8  O   UNL     1       4.363  -2.937   4.862  1.00  0.00    -0.252 OA
BRANCH   7   9
ATOM      9  C   UNL     1       3.328  -2.938   2.703  1.00  0.00     0.158 C 
BRANCH   9  10
ATOM     10  C   UNL     1       3.095  -3.704   1.409  1.00  0.00    -0.037 A 
ATOM     11  C   UNL     1       2.527  -4.903  -1.089  1.00  0.00     0.041 A 
ATOM     12  C   UNL     1       3.707  -4.175  -0.920  1.00  0.00     0.026 A 
ATOM     13  C   UNL     1       1.695  -5.137   0.011  1.00  0.00     0.026 A 
ATOM     14  C   UNL     1       3.962  -3.542   0.308  1.00  0.00     0.006 A 
ATOM     15  C   UNL     1       1.981  -4.545   1.254  1.00  0.00     0.006 A 
BRANCH  11  16
ATOM     16  N   UNL     1       2.115  -5.198  -2.400  1.00  0.00    -0.322 N 
ATOM     17  C   UNL     1       1.025  -4.707  -3.116  1.00  0.00     0.255 C 
ATOM     18  O   UNL     1       0.817  -5.160  -4.244  1.00  0.00    -0.269 OA
ATOM     19  H   UNL     1       2.678  -5.847  -2.882  1.00  0.00     0.170 HD
BRANCH  17  20
ATOM     20  C   UNL     1       0.176  -3.553  -2.654  1.00  0.00     0.040 A 
ATOM     21  C   UNL     1      -1.241  -1.204  -1.969  1.00  0.00     0.041 A 
ATOM     22  C   UNL     1      -1.642  -1.957  -3.071  1.00  0.00     0.027 A 
ATOM     23  C   UNL     1      -0.282  -1.722  -1.136  1.00  0.00     0.027 A 
ATOM     24  C   UNL     1      -0.939  -3.138  -3.405  1.00  0.00     0.016 A 
ATOM     25  C   UNL     1       0.491  -2.788  -1.542  1.00  0.00     0.016 A 
BRANCH  21  26
ATOM     26  N   UNL     1      -1.765   0.058  -1.683  1.00  0.00    -0.326 N 
ATOM     27  C   UNL     1      -1.150   1.126  -1.071  1.00  0.00     0.226 C 
ATOM     28  O   UNL     1      -1.876   1.999  -0.580  1.00  0.00    -0.274 OA
ATOM     29  H   UNL     1      -2.700   0.204  -1.956  1.00  0.00     0.169 HD
BRANCH  27  30
ATOM     30  C   UNL     1       0.391   1.347  -1.078  1.00  0.00     0.072 C 
ATOM     31  C   UNL     1       1.215   0.724   0.051  1.00  0.00     0.018 C 
ATOM     32  C   UNL     1       1.044   1.134  -2.444  1.00  0.00     0.018 C 
ENDBRANCH  27  30
ENDBRANCH  21  26
ENDBRANCH  17  20
ENDBRANCH  11  16
ENDBRANCH   9  10
ENDBRANCH   7   9
ENDBRANCH   6   7
ENDBRANCH   5   6
ENDBRANCH   4   5
ENDBRANCH   3   4
ENDBRANCH   2   3
ENDBRANCH   1   2
BRANCH   1  33
ATOM     33  O   UNL     1       5.516  -7.202   2.383  1.00  0.00    -0.377 OA
BRANCH  33  34
ATOM     34  C   UNL     1       6.055  -8.218   1.565  1.00  0.00     0.188 C 
BRANCH  34  35
ATOM     35  C   UNL     1       7.555  -8.042   1.300  1.00  0.00     0.188 C 
BRANCH  35  36
ATOM     36  O   UNL     1       7.835  -6.802   0.654  1.00  0.00    -0.376 OA
BRANCH  36  37
ATOM     37  C   UNL     1       8.145  -6.811  -0.728  1.00  0.00     0.202 C 
BRANCH  37  38
ATOM     38  C   UNL     1       7.014  -7.097  -1.732  1.00  0.00     0.261 C 
BRANCH  38  39
ATOM     39  O   UNL     1       6.162  -8.219  -1.472  1.00  0.00    -0.460 OA
BRANCH  39  40
ATOM     40  C   UNL     1       6.716  -9.451  -1.515  1.00  0.00     0.338 C 
ATOM     41  O   UNL     1       7.881  -9.708  -1.766  1.00  0.00    -0.246 OA
BRANCH  40  42
ATOM     42  C   UNL     1       5.717 -10.415  -0.995  1.00  0.00     0.060 A 
ATOM     43  C   UNL     1       6.048 -11.194   0.121  1.00  0.00     0.016 A 
ATOM     44  C   UNL     1       4.448 -10.521  -1.573  1.00  0.00     0.016 A 
ATOM     45  C   UNL     1       5.121 -12.094   0.650  1.00  0.00     0.010 A 
ATOM     46  C   UNL     1       3.533 -11.450  -1.065  1.00  0.00     0.010 A 
ATOM     47  C   UNL     1       3.876 -12.262   0.032  1.00  0.00    -0.014 A 
BRANCH  47  48
ATOM     48  C   UNL     1       3.044 -13.444   0.373  1.00  0.00     0.031 A 
ATOM     49  C   UNL     1       3.202 -14.677  -0.478  1.00  0.00     0.074 A 
ATOM     50  C   UNL     1       2.204 -13.448   1.425  1.00  0.00     0.049 A 
ATOM     51  N   UNL     1       2.558 -15.813  -0.429  1.00  0.00    -0.248 NA
ATOM     52  C   UNL     1       4.231 -14.613  -1.529  1.00  0.00     0.031 C 
ATOM     53  C   UNL     1       2.016 -12.342   2.363  1.00  0.00     0.029 A 
ATOM     54  N   UNL     1       1.347 -14.421   1.879  1.00  0.00    -0.354 N 
ATOM     55  C   UNL     1       3.109 -16.601  -1.434  1.00  0.00     0.074 A 
ATOM     56  C   UNL     1       4.107 -15.798  -2.105  1.00  0.00     0.031 C 
ATOM     57  C   UNL     1       1.091 -12.697   3.274  1.00  0.00     0.029 A 
ATOM     58  C   UNL     1       0.590 -14.035   2.962  1.00  0.00     0.049 A 
ATOM     59  H   UNL     1       1.280 -15.313   1.467  1.00  0.00     0.167 HD
ATOM     60  C   UNL     1       2.818 -17.884  -1.762  1.00  0.00     0.034 A 
ATOM     61  C   UNL     1      -0.409 -14.679   3.602  1.00  0.00     0.034 A 
ATOM     62  C   UNL     1       1.805 -18.667  -1.102  1.00  0.00     0.049 A 
ATOM     63  C   UNL     1      -0.803 -16.066   3.133  1.00  0.00     0.074 A 
ATOM     64  C   UNL     1       1.411 -19.966  -1.369  1.00  0.00     0.029 A 
ATOM     65  N   UNL     1       1.019 -18.221  -0.048  1.00  0.00    -0.354 N 
ATOM     66  N   UNL     1      -0.281 -16.797   2.174  1.00  0.00    -0.248 NA
ATOM     67  C   UNL     1      -1.916 -16.716   3.840  1.00  0.00     0.031 C 
ATOM     68  C   UNL     1       0.341 -20.280  -0.527  1.00  0.00     0.029 A 
ATOM     69  C   UNL     1       0.124 -19.210   0.327  1.00  0.00     0.049 A 
ATOM     70  H   UNL     1       1.087 -17.332   0.371  1.00  0.00     0.167 HD
ATOM     71  C   UNL     1      -0.973 -18.008   2.199  1.00  0.00     0.074 A 
ATOM     72  C   UNL     1      -1.937 -17.913   3.274  1.00  0.00     0.031 C 
ATOM     73  C   UNL     1      -0.824 -19.103   1.410  1.00  0.00     0.034 A 
BRANCH  60  74
ATOM     74  C   UNL     1       3.578 -18.496  -2.911  1.00  0.00     0.023 A 
ATOM     75  C   UNL     1       4.963 -18.723  -2.841  1.00  0.00     0.031 A 
ATOM     76  C   UNL     1       2.910 -18.848  -4.097  1.00  0.00     0.131 A 
ATOM     77  C   UNL     1       5.645 -19.235  -3.955  1.00  0.00     0.055 A 
ATOM     78  C   UNL     1       3.581 -19.429  -5.174  1.00  0.00     0.041 A 
ATOM     79  F   UNL     1       1.593 -18.627  -4.231  1.00  0.00    -0.206 F 
ATOM     80  C   UNL     1       4.959 -19.616  -5.111  1.00  0.00     0.022 A 
BRANCH  77  81
ATOM     81  S   UNL     1       7.457 -19.282  -3.917  1.00  0.00     0.124 S 
ATOM     82  O   UNL     1       7.785 -17.869  -3.744  1.00  0.00    -0.237 OA
ATOM     83  O   UNL     1       7.727 -20.144  -2.772  1.00  0.00    -0.237 OA
ATOM     84  O   UNL     1       7.813 -19.842  -5.219  1.00  0.00    -0.744 OA
ENDBRANCH  77  81
ENDBRANCH  60  74
BRANCH  61  85
ATOM     85  C   UNL     1      -1.157 -14.030   4.722  1.00  0.00     0.023 A 
ATOM     86  C   UNL     1      -1.216 -14.621   5.995  1.00  0.00     0.031 A 
ATOM     87  C   UNL     1      -1.922 -12.869   4.505  1.00  0.00     0.131 A 
ATOM     88  C   UNL     1      -2.079 -14.099   6.973  1.00  0.00     0.055 A 
ATOM     89  C   UNL     1      -2.722 -12.311   5.505  1.00  0.00     0.041 A 
ATOM     90  F   UNL     1      -1.915 -12.263   3.307  1.00  0.00    -0.206 F 
ATOM     91  C   UNL     1      -2.820 -12.940   6.742  1.00  0.00     0.022 A 
BRANCH  88  92
ATOM     92  S   UNL     1      -2.328 -15.045   8.502  1.00  0.00     0.124 S 
ATOM     93  O   UNL     1      -2.759 -16.337   7.982  1.00  0.00    -0.237 OA
ATOM     94  O   UNL     1      -0.998 -15.004   9.101  1.00  0.00    -0.237 OA
ATOM     95  O   UNL     1      -3.353 -14.281   9.210  1.00  0.00    -0.744 OA
ENDBRANCH  88  92
ENDBRANCH  61  85
BRANCH  73  96
ATOM     96  C   UNL     1      -1.674 -20.311   1.728  1.00  0.00     0.023 A 
ATOM     97  C   UNL     1      -3.072 -20.297   1.590  1.00  0.00     0.031 A 
ATOM     98  C   UNL     1      -1.067 -21.498   2.179  1.00  0.00     0.131 A 
ATOM     99  C   UNL     1      -3.822 -21.426   1.955  1.00  0.00     0.055 A 
ATOM    100  C   UNL     1      -1.812 -22.640   2.474  1.00  0.00     0.041 A 
ATOM    101  F   UNL     1       0.265 -21.570   2.331  1.00  0.00    -0.206 F 
ATOM    102  C   UNL     1      -3.199 -22.603   2.377  1.00  0.00     0.022 A 
BRANCH  99 103
ATOM    103  S   UNL     1      -5.632 -21.305   1.963  1.00  0.00     0.124 S 
ATOM    104  O   UNL     1      -5.858 -20.198   2.886  1.00  0.00    -0.237 OA
ATOM    105  O   UNL     1      -5.933 -21.036   0.561  1.00  0.00    -0.237 OA
ATOM    106  O   UNL     1      -6.061 -22.615   2.448  1.00  0.00    -0.744 OA
ENDBRANCH  99 103
ENDBRANCH  73  96
ENDBRANCH  47  48
ENDBRANCH  40  42
ENDBRANCH  39  40
ENDBRANCH  38  39
ENDBRANCH  37  38
ENDBRANCH  36  37
ENDBRANCH  35  36
ENDBRANCH  34  35
ENDBRANCH  33  34
ENDBRANCH   1  33
TORSDOF 28
