REMARK SMILES CC[C@](C)(NC(=O)N[C@@H]1C[C@@H]1C)C(=O)OCCOCCOCCOCCOC(=O)c1ccc(-c2c3nc(c(-c4cc(S(=O)(=O)[O-])ccc4F)c4ccc([nH]4)c(-c4cc(S(=O)(=O)[O-])ccc4F)c4nc(c(-c5cc(S(=O)(=O)[O-])ccc5F)c5ccc2[nH]5)C=C4)C=C3)cc1
REMARK SMILES IDX 22 1 21 2 20 3 19 4 18 5 17 6 16 7 15 8 13 9 14 10 3 11 4 12
REMARK SMILES IDX 2 13 1 14 5 15 6 16 7 18 8 19 9 21 10 22 11 23 12 24 23 25
REMARK SMILES IDX 24 26 25 27 26 28 27 29 28 30 29 31 30 32 31 33 92 34 32 35
REMARK SMILES IDX 91 36 33 37 34 38 35 39 85 40 36 41 90 42 84 43 86 44 37 45
REMARK SMILES IDX 89 46 83 47 82 48 38 50 70 51 50 52 69 53 51 54 54 55 68 56
REMARK SMILES IDX 87 57 52 58 53 59 67 61 88 62 55 63 39 64 40 65 48 66 41 67
REMARK SMILES IDX 47 68 49 69 46 70 42 71 43 72 44 73 45 74 71 75 72 76 80 77
REMARK SMILES IDX 73 78 79 79 81 80 78 81 74 82 75 83 76 84 77 85 56 86 57 87
REMARK SMILES IDX 65 88 58 89 64 90 66 91 63 92 59 93 60 94 61 95 62 96
REMARK H PARENT 5 17 8 20 86 49 54 60
REMARK Flexibility Score: inf
ROOT
ATOM      1  C   UNL     1       5.420   1.502   5.587  1.00  0.00     0.188 C 
ENDROOT
BRANCH   1   2
ATOM      2  O   UNL     1       4.403   1.093   4.692  1.00  0.00    -0.377 OA
BRANCH   2   3
ATOM      3  C   UNL     1       4.788   0.035   3.837  1.00  0.00     0.188 C 
BRANCH   3   4
ATOM      4  C   UNL     1       5.746   0.451   2.711  1.00  0.00     0.188 C 
BRANCH   4   5
ATOM      5  O   UNL     1       5.293   1.436   1.768  1.00  0.00    -0.376 OA
BRANCH   5   6
ATOM      6  C   UNL     1       5.181   2.801   2.221  1.00  0.00     0.202 C 
BRANCH   6   7
ATOM      7  C   UNL     1       4.349   3.651   1.207  1.00  0.00     0.261 C 
BRANCH   7   8
ATOM      8  O   UNL     1       2.898   3.575   1.431  1.00  0.00    -0.462 OA
BRANCH   8   9
ATOM      9  C   UNL     1       2.050   3.197   0.404  1.00  0.00     0.331 C 
ATOM     10  O   UNL     1       2.452   3.019  -0.742  1.00  0.00    -0.249 OA
BRANCH   9  11
ATOM     11  C   UNL     1       0.489   3.054   0.847  1.00  0.00     0.136 C 
ATOM     12  C   UNL     1      -0.377   1.762   0.750  1.00  0.00     0.047 C 
BRANCH  11  13
ATOM     13  C   UNL     1      -0.272   4.030  -0.104  1.00  0.00     0.037 C 
ATOM     14  C   UNL     1      -0.471   3.428  -1.516  1.00  0.00     0.007 C 
ENDBRANCH  11  13
BRANCH  11  15
ATOM     15  N   UNL     1       0.419   3.413   2.258  1.00  0.00    -0.322 N 
ATOM     16  C   UNL     1       0.848   2.650   3.291  1.00  0.00     0.315 C 
ATOM     17  H   UNL     1       0.025   4.288   2.479  1.00  0.00     0.166 HD
ATOM     18  O   UNL     1       0.577   3.007   4.439  1.00  0.00    -0.249 OA
ATOM     19  N   UNL     1       1.516   1.474   3.108  1.00  0.00    -0.335 N 
ATOM     20  H   UNL     1       1.418   0.863   3.874  1.00  0.00     0.165 HD
BRANCH  19  21
ATOM     21  C   UNL     1       2.329   0.915   2.061  1.00  0.00     0.087 C 
ATOM     22  C   UNL     1       2.193   0.368   0.666  1.00  0.00     0.030 C 
ATOM     23  C   UNL     1       2.307  -0.584   1.794  1.00  0.00     0.010 C 
ATOM     24  C   UNL     1       1.148  -1.384   2.263  1.00  0.00     0.010 C 
ENDBRANCH  19  21
ENDBRANCH  11  15
ENDBRANCH   9  11
ENDBRANCH   8   9
ENDBRANCH   7   8
ENDBRANCH   6   7
ENDBRANCH   5   6
ENDBRANCH   4   5
ENDBRANCH   3   4
ENDBRANCH   2   3
ENDBRANCH   1   2
BRANCH   1  25
ATOM     25  C   UNL     1       6.077   0.365   6.386  1.00  0.00     0.188 C 
BRANCH  25  26
ATOM     26  O   UNL     1       5.301  -0.711   6.912  1.00  0.00    -0.376 OA
BRANCH  26  27
ATOM     27  C   UNL     1       3.896  -0.598   7.094  1.00  0.00     0.202 C 
BRANCH  27  28
ATOM     28  C   UNL     1       3.412   0.179   8.318  1.00  0.00     0.261 C 
BRANCH  28  29
ATOM     29  O   UNL     1       3.752   1.567   8.274  1.00  0.00    -0.460 OA
BRANCH  29  30
ATOM     30  C   UNL     1       4.898   1.885   8.912  1.00  0.00     0.338 C 
ATOM     31  O   UNL     1       5.655   1.123   9.503  1.00  0.00    -0.246 OA
BRANCH  30  32
ATOM     32  C   UNL     1       5.215   3.294   8.653  1.00  0.00     0.060 A 
ATOM     33  C   UNL     1       6.460   3.607   8.090  1.00  0.00     0.016 A 
ATOM     34  C   UNL     1       4.321   4.295   9.033  1.00  0.00     0.016 A 
ATOM     35  C   UNL     1       6.848   4.932   7.964  1.00  0.00     0.010 A 
ATOM     36  C   UNL     1       4.727   5.625   8.948  1.00  0.00     0.010 A 
ATOM     37  C   UNL     1       6.015   5.932   8.474  1.00  0.00    -0.014 A 
BRANCH  37  38
ATOM     38  C   UNL     1       6.629   7.229   8.819  1.00  0.00     0.031 A 
ATOM     39  C   UNL     1       7.141   7.394  10.224  1.00  0.00     0.074 A 
ATOM     40  C   UNL     1       6.787   8.189   7.898  1.00  0.00     0.049 A 
ATOM     41  N   UNL     1       7.691   8.432  10.794  1.00  0.00    -0.248 NA
ATOM     42  C   UNL     1       7.005   6.223  11.106  1.00  0.00     0.031 C 
ATOM     43  C   UNL     1       6.401   8.083   6.493  1.00  0.00     0.029 A 
ATOM     44  N   UNL     1       7.320   9.444   8.013  1.00  0.00    -0.354 N 
ATOM     45  C   UNL     1       7.953   8.043  12.104  1.00  0.00     0.074 A 
ATOM     46  C   UNL     1       7.463   6.692  12.253  1.00  0.00     0.031 C 
ATOM     47  C   UNL     1       6.709   9.235   5.873  1.00  0.00     0.029 A 
ATOM     48  C   UNL     1       7.268  10.169   6.849  1.00  0.00     0.049 A 
ATOM     49  H   UNL     1       7.704   9.793   8.850  1.00  0.00     0.167 HD
ATOM     50  C   UNL     1       8.552   8.754  13.089  1.00  0.00     0.034 A 
ATOM     51  C   UNL     1       7.612  11.450   6.617  1.00  0.00     0.034 A 
ATOM     52  C   UNL     1       9.006  10.110  12.912  1.00  0.00     0.049 A 
ATOM     53  C   UNL     1       8.175  12.263   7.758  1.00  0.00     0.074 A 
ATOM     54  C   UNL     1       9.622  10.941  13.829  1.00  0.00     0.029 A 
ATOM     55  N   UNL     1       8.873  10.843  11.737  1.00  0.00    -0.354 N 
ATOM     56  N   UNL     1       8.409  11.900   9.000  1.00  0.00    -0.248 NA
ATOM     57  C   UNL     1       8.530  13.654   7.461  1.00  0.00     0.031 C 
ATOM     58  C   UNL     1       9.775  12.201  13.240  1.00  0.00     0.029 A 
ATOM     59  C   UNL     1       9.358  12.128  11.919  1.00  0.00     0.049 A 
ATOM     60  H   UNL     1       8.491  10.498  10.898  1.00  0.00     0.167 HD
ATOM     61  C   UNL     1       8.982  13.009   9.620  1.00  0.00     0.074 A 
ATOM     62  C   UNL     1       9.059  14.046   8.610  1.00  0.00     0.031 C 
ATOM     63  C   UNL     1       9.417  13.153  10.900  1.00  0.00     0.034 A 
BRANCH  50  64
ATOM     64  C   UNL     1       8.658   8.097  14.447  1.00  0.00     0.023 A 
ATOM     65  C   UNL     1       9.365   6.896  14.643  1.00  0.00     0.031 A 
ATOM     66  C   UNL     1       7.972   8.640  15.548  1.00  0.00     0.131 A 
ATOM     67  C   UNL     1       9.285   6.230  15.876  1.00  0.00     0.055 A 
ATOM     68  C   UNL     1       7.981   8.023  16.800  1.00  0.00     0.041 A 
ATOM     69  F   UNL     1       7.253   9.766  15.419  1.00  0.00    -0.206 F 
ATOM     70  C   UNL     1       8.623   6.800  16.965  1.00  0.00     0.022 A 
BRANCH  67  71
ATOM     71  S   UNL     1       9.890   4.522  15.978  1.00  0.00     0.124 S 
ATOM     72  O   UNL     1       9.113   3.871  14.925  1.00  0.00    -0.237 OA
ATOM     73  O   UNL     1      11.316   4.676  15.717  1.00  0.00    -0.237 OA
ATOM     74  O   UNL     1       9.543   4.116  17.338  1.00  0.00    -0.744 OA
ENDBRANCH  67  71
ENDBRANCH  50  64
BRANCH  51  75
ATOM     75  C   UNL     1       7.418  12.046   5.267  1.00  0.00     0.023 A 
ATOM     76  C   UNL     1       8.511  12.493   4.510  1.00  0.00     0.031 A 
ATOM     77  C   UNL     1       6.130  12.204   4.723  1.00  0.00     0.131 A 
ATOM     78  C   UNL     1       8.296  13.111   3.269  1.00  0.00     0.055 A 
ATOM     79  C   UNL     1       5.925  12.768   3.463  1.00  0.00     0.041 A 
ATOM     80  F   UNL     1       5.049  11.794   5.406  1.00  0.00    -0.206 F 
ATOM     81  C   UNL     1       7.012  13.237   2.733  1.00  0.00     0.022 A 
BRANCH  78  82
ATOM     82  S   UNL     1       9.718  13.822   2.397  1.00  0.00     0.124 S 
ATOM     83  O   UNL     1      10.206  14.794   3.369  1.00  0.00    -0.237 OA
ATOM     84  O   UNL     1      10.559  12.649   2.183  1.00  0.00    -0.237 OA
ATOM     85  O   UNL     1       9.126  14.390   1.188  1.00  0.00    -0.744 OA
ENDBRANCH  78  82
ENDBRANCH  51  75
BRANCH  63  86
ATOM     86  C   UNL     1      10.082  14.463  11.257  1.00  0.00     0.023 A 
ATOM     87  C   UNL     1       9.391  15.686  11.231  1.00  0.00     0.031 A 
ATOM     88  C   UNL     1      11.443  14.483  11.617  1.00  0.00     0.131 A 
ATOM     89  C   UNL     1      10.078  16.882  11.487  1.00  0.00     0.055 A 
ATOM     90  C   UNL     1      12.100  15.666  11.952  1.00  0.00     0.041 A 
ATOM     91  F   UNL     1      12.157  13.346  11.654  1.00  0.00    -0.206 F 
ATOM     92  C   UNL     1      11.422  16.878  11.870  1.00  0.00     0.022 A 
BRANCH  89  93
ATOM     93  S   UNL     1       9.227  18.455  11.185  1.00  0.00     0.124 S 
ATOM     94  O   UNL     1       8.827  18.319   9.789  1.00  0.00    -0.237 OA
ATOM     95  O   UNL     1       8.146  18.419  12.165  1.00  0.00    -0.237 OA
ATOM     96  O   UNL     1      10.261  19.458  11.439  1.00  0.00    -0.744 OA
ENDBRANCH  89  93
ENDBRANCH  63  86
ENDBRANCH  37  38
ENDBRANCH  30  32
ENDBRANCH  29  30
ENDBRANCH  28  29
ENDBRANCH  27  28
ENDBRANCH  26  27
ENDBRANCH  25  26
ENDBRANCH   1  25
TORSDOF 26
