REMARK SMILES O=C(CCCNS(=O)(=O)c1ccc2c3c(cccc13)C(=O)N2)OCCOCCOCCOCCOC(=O)c1ccc(-c2c3nc(c(-c4cc(S(=O)(=O)[O-])ccc4F)c4ccc([nH]4)c(-c4cc(S(=O)(=O)[O-])ccc4F)c4nc(c(-c5cc(S(=O)(=O)[O-])ccc5F)c5ccc2[nH]5)C=C4)C=C3)cc1
REMARK SMILES IDX 28 1 27 2 26 3 25 4 24 5 23 6 2 7 1 8 3 9 4 10 5 11 6 12
REMARK SMILES IDX 7 14 8 15 9 16 10 17 11 18 19 19 12 20 14 21 18 22 13 23
REMARK SMILES IDX 15 24 17 25 22 26 16 27 20 28 21 30 29 31 30 32 31 33 32 34
REMARK SMILES IDX 33 35 34 36 35 37 36 38 37 39 38 40 39 41 100 42 40 43 99 44
REMARK SMILES IDX 41 45 42 46 43 47 93 48 44 49 98 50 92 51 94 52 45 53 97 54
REMARK SMILES IDX 91 55 90 56 46 58 78 59 58 60 77 61 59 62 62 63 76 64 95 65
REMARK SMILES IDX 60 66 61 67 75 69 96 70 63 71 47 72 48 73 56 74 49 75 55 76
REMARK SMILES IDX 57 77 54 78 50 79 51 80 52 81 53 82 79 83 80 84 88 85 81 86
REMARK SMILES IDX 87 87 89 88 86 89 82 90 83 91 84 92 85 93 64 94 65 95 73 96
REMARK SMILES IDX 66 97 72 98 74 99 71 100 67 101 68 102 69 103 70 104
REMARK H PARENT 6 13 22 29 94 57 62 68
REMARK Flexibility Score: inf
ROOT
ATOM      1  C   UNL     1       2.039  -2.275   1.951  1.00  0.00     0.188 C 
ENDROOT
BRANCH   1   2
ATOM      2  C   UNL     1       2.133  -1.638   0.569  1.00  0.00     0.188 C 
BRANCH   2   3
ATOM      3  O   UNL     1       3.161  -0.667   0.402  1.00  0.00    -0.376 OA
BRANCH   3   4
ATOM      4  C   UNL     1       3.397   0.234   1.458  1.00  0.00     0.202 C 
BRANCH   4   5
ATOM      5  C   UNL     1       3.293   1.702   1.072  1.00  0.00     0.261 C 
BRANCH   5   6
ATOM      6  O   UNL     1       2.722   2.127  -0.184  1.00  0.00    -0.463 OA
BRANCH   6   7
ATOM      7  C   UNL     1       2.214   1.271  -1.089  1.00  0.00     0.305 C 
ATOM      8  O   UNL     1       1.001   1.117  -1.218  1.00  0.00    -0.252 OA
BRANCH   7   9
ATOM      9  C   UNL     1       3.199   0.619  -2.046  1.00  0.00     0.124 C 
BRANCH   9  10
ATOM     10  C   UNL     1       4.454   1.369  -2.466  1.00  0.00     0.028 C 
BRANCH  10  11
ATOM     11  C   UNL     1       5.550   1.645  -1.441  1.00  0.00     0.099 C 
BRANCH  11  12
ATOM     12  N   UNL     1       6.106   0.430  -0.834  1.00  0.00    -0.211 NA
ATOM     13  H   UNL     1       6.509  -0.118  -1.595  1.00  0.00     0.141 HD
BRANCH  12  14
ATOM     14  S   UNL     1       7.298   0.532   0.375  1.00  0.00     0.241 S 
ATOM     15  O   UNL     1       6.663   0.785   1.646  1.00  0.00    -0.207 OA
ATOM     16  O   UNL     1       8.113  -0.649   0.182  1.00  0.00    -0.207 OA
BRANCH  14  17
ATOM     17  C   UNL     1       8.269   1.955  -0.072  1.00  0.00     0.090 A 
ATOM     18  C   UNL     1       9.433   1.742  -0.855  1.00  0.00     0.024 A 
ATOM     19  C   UNL     1       7.838   3.274   0.275  1.00  0.00     0.005 A 
ATOM     20  C   UNL     1      10.169   2.818  -1.385  1.00  0.00     0.028 A 
ATOM     21  C   UNL     1       8.561   4.266  -0.316  1.00  0.00     0.019 A 
ATOM     22  C   UNL     1       6.777   3.752   1.092  1.00  0.00     0.010 A 
ATOM     23  C   UNL     1       9.668   4.076  -1.113  1.00  0.00     0.050 A 
ATOM     24  C   UNL     1       8.300   5.627  -0.249  1.00  0.00     0.050 A 
ATOM     25  C   UNL     1       6.476   5.126   1.188  1.00  0.00     0.002 A 
ATOM     26  N   UNL     1      10.091   5.323  -1.531  1.00  0.00    -0.321 N 
ATOM     27  C   UNL     1       7.225   6.091   0.502  1.00  0.00     0.014 A 
ATOM     28  C   UNL     1       9.273   6.354  -1.042  1.00  0.00     0.256 C 
ATOM     29  H   UNL     1      10.876   5.471  -2.107  1.00  0.00     0.170 HD
ATOM     30  O   UNL     1       9.420   7.535  -1.299  1.00  0.00    -0.269 OA
ENDBRANCH  14  17
ENDBRANCH  12  14
ENDBRANCH  11  12
ENDBRANCH  10  11
ENDBRANCH   9  10
ENDBRANCH   7   9
ENDBRANCH   6   7
ENDBRANCH   5   6
ENDBRANCH   4   5
ENDBRANCH   3   4
ENDBRANCH   2   3
ENDBRANCH   1   2
BRANCH   1  31
ATOM     31  O   UNL     1       3.156  -3.030   2.398  1.00  0.00    -0.377 OA
BRANCH  31  32
ATOM     32  C   UNL     1       4.469  -2.740   1.941  1.00  0.00     0.188 C 
BRANCH  32  33
ATOM     33  C   UNL     1       5.316  -4.007   1.765  1.00  0.00     0.188 C 
BRANCH  33  34
ATOM     34  O   UNL     1       4.745  -5.042   0.966  1.00  0.00    -0.376 OA
BRANCH  34  35
ATOM     35  C   UNL     1       3.450  -5.515   1.342  1.00  0.00     0.202 C 
BRANCH  35  36
ATOM     36  C   UNL     1       3.237  -6.068   2.772  1.00  0.00     0.261 C 
BRANCH  36  37
ATOM     37  O   UNL     1       3.419  -5.127   3.852  1.00  0.00    -0.460 OA
BRANCH  37  38
ATOM     38  C   UNL     1       4.519  -5.278   4.628  1.00  0.00     0.338 C 
ATOM     39  O   UNL     1       5.339  -6.179   4.565  1.00  0.00    -0.246 OA
BRANCH  38  40
ATOM     40  C   UNL     1       4.702  -4.087   5.492  1.00  0.00     0.060 A 
ATOM     41  C   UNL     1       5.784  -3.224   5.258  1.00  0.00     0.016 A 
ATOM     42  C   UNL     1       3.889  -3.894   6.609  1.00  0.00     0.016 A 
ATOM     43  C   UNL     1       6.064  -2.178   6.142  1.00  0.00     0.010 A 
ATOM     44  C   UNL     1       4.193  -2.869   7.516  1.00  0.00     0.010 A 
ATOM     45  C   UNL     1       5.303  -2.029   7.306  1.00  0.00    -0.014 A 
BRANCH  45  46
ATOM     46  C   UNL     1       5.817  -1.179   8.411  1.00  0.00     0.031 A 
ATOM     47  C   UNL     1       6.716  -1.820   9.436  1.00  0.00     0.074 A 
ATOM     48  C   UNL     1       5.520   0.129   8.508  1.00  0.00     0.049 A 
ATOM     49  N   UNL     1       7.282  -1.292  10.489  1.00  0.00    -0.248 NA
ATOM     50  C   UNL     1       7.014  -3.250   9.245  1.00  0.00     0.031 C 
ATOM     51  C   UNL     1       4.698   0.879   7.565  1.00  0.00     0.029 A 
ATOM     52  N   UNL     1       5.877   1.056   9.459  1.00  0.00    -0.354 N 
ATOM     53  C   UNL     1       8.010  -2.318  11.079  1.00  0.00     0.074 A 
ATOM     54  C   UNL     1       7.780  -3.509  10.293  1.00  0.00     0.031 C 
ATOM     55  C   UNL     1       4.600   2.151   7.991  1.00  0.00     0.029 A 
ATOM     56  C   UNL     1       5.335   2.302   9.249  1.00  0.00     0.049 A 
ATOM     57  H   UNL     1       6.465   0.847  10.220  1.00  0.00     0.167 HD
ATOM     58  C   UNL     1       8.812  -2.271  12.168  1.00  0.00     0.034 A 
ATOM     59  C   UNL     1       5.417   3.432   9.985  1.00  0.00     0.034 A 
ATOM     60  C   UNL     1       9.023  -1.091  12.962  1.00  0.00     0.049 A 
ATOM     61  C   UNL     1       6.262   3.448  11.238  1.00  0.00     0.074 A 
ATOM     62  C   UNL     1       9.818  -0.951  14.086  1.00  0.00     0.029 A 
ATOM     63  N   UNL     1       8.443   0.145  12.725  1.00  0.00    -0.354 N 
ATOM     64  N   UNL     1       6.976   2.481  11.764  1.00  0.00    -0.248 NA
ATOM     65  C   UNL     1       6.330   4.712  11.989  1.00  0.00     0.031 C 
ATOM     66  C   UNL     1       9.671   0.352  14.564  1.00  0.00     0.029 A 
ATOM     67  C   UNL     1       8.852   1.049  13.691  1.00  0.00     0.049 A 
ATOM     68  H   UNL     1       7.831   0.350  11.981  1.00  0.00     0.167 HD
ATOM     69  C   UNL     1       7.615   3.032  12.873  1.00  0.00     0.074 A 
ATOM     70  C   UNL     1       7.202   4.417  12.945  1.00  0.00     0.031 C 
ATOM     71  C   UNL     1       8.472   2.441  13.743  1.00  0.00     0.034 A 
BRANCH  58  72
ATOM     72  C   UNL     1       9.535  -3.527  12.575  1.00  0.00     0.023 A 
ATOM     73  C   UNL     1       9.253  -4.132  13.813  1.00  0.00     0.031 A 
ATOM     74  C   UNL     1      10.581  -4.053  11.796  1.00  0.00     0.131 A 
ATOM     75  C   UNL     1      10.037  -5.204  14.255  1.00  0.00     0.055 A 
ATOM     76  C   UNL     1      11.332  -5.148  12.223  1.00  0.00     0.041 A 
ATOM     77  F   UNL     1      10.881  -3.513  10.604  1.00  0.00    -0.206 F 
ATOM     78  C   UNL     1      11.069  -5.720  13.464  1.00  0.00     0.022 A 
BRANCH  75  79
ATOM     79  S   UNL     1       9.777  -5.936  15.893  1.00  0.00     0.124 S 
ATOM     80  O   UNL     1       9.598  -7.349  15.567  1.00  0.00    -0.237 OA
ATOM     81  O   UNL     1      11.026  -5.606  16.574  1.00  0.00    -0.237 OA
ATOM     82  O   UNL     1       8.585  -5.261  16.395  1.00  0.00    -0.744 OA
ENDBRANCH  75  79
ENDBRANCH  58  72
BRANCH  59  83
ATOM     83  C   UNL     1       4.720   4.661   9.508  1.00  0.00     0.023 A 
ATOM     84  C   UNL     1       3.317   4.710   9.423  1.00  0.00     0.031 A 
ATOM     85  C   UNL     1       5.451   5.770   9.050  1.00  0.00     0.131 A 
ATOM     86  C   UNL     1       2.695   5.819   8.835  1.00  0.00     0.055 A 
ATOM     87  C   UNL     1       4.823   6.899   8.521  1.00  0.00     0.041 A 
ATOM     88  F   UNL     1       6.791   5.766   9.109  1.00  0.00    -0.206 F 
ATOM     89  C   UNL     1       3.437   6.920   8.398  1.00  0.00     0.022 A 
BRANCH  86  90
ATOM     90  S   UNL     1       0.906   5.828   8.534  1.00  0.00     0.124 S 
ATOM     91  O   UNL     1       0.500   7.102   9.119  1.00  0.00    -0.237 OA
ATOM     92  O   UNL     1       0.856   5.758   7.076  1.00  0.00    -0.237 OA
ATOM     93  O   UNL     1       0.433   4.638   9.233  1.00  0.00    -0.744 OA
ENDBRANCH  86  90
ENDBRANCH  59  83
BRANCH  71  94
ATOM     94  C   UNL     1       9.099   3.268  14.841  1.00  0.00     0.023 A 
ATOM     95  C   UNL     1      10.500   3.425  14.872  1.00  0.00     0.031 A 
ATOM     96  C   UNL     1       8.354   3.751  15.929  1.00  0.00     0.131 A 
ATOM     97  C   UNL     1      11.115   4.007  15.987  1.00  0.00     0.055 A 
ATOM     98  C   UNL     1       8.968   4.375  17.017  1.00  0.00     0.041 A 
ATOM     99  F   UNL     1       7.018   3.615  15.955  1.00  0.00    -0.206 F 
ATOM    100  C   UNL     1      10.355   4.491  17.056  1.00  0.00     0.022 A 
BRANCH  97 101
ATOM    101  S   UNL     1      12.922   4.085  16.125  1.00  0.00     0.124 S 
ATOM    102  O   UNL     1      13.152   5.518  16.294  1.00  0.00    -0.237 OA
ATOM    103  O   UNL     1      13.174   3.270  17.311  1.00  0.00    -0.237 OA
ATOM    104  O   UNL     1      13.397   3.525  14.864  1.00  0.00    -0.744 OA
ENDBRANCH  97 101
ENDBRANCH  71  94
ENDBRANCH  45  46
ENDBRANCH  38  40
ENDBRANCH  37  38
ENDBRANCH  36  37
ENDBRANCH  35  36
ENDBRANCH  34  35
ENDBRANCH  33  34
ENDBRANCH  32  33
ENDBRANCH  31  32
ENDBRANCH   1  31
TORSDOF 28
