REMARK SMILES CCCC[C@@H](C(=O)OCCOCCOCCOCCOC(=O)c1ccc(-c2c3nc(c(-c4cc(S(=O)(=O)[O-])ccc4F)c4ccc([nH]4)c(-c4cc(S(=O)(=O)[O-])ccc4F)c4nc(c(-c5cc(S(=O)(=O)[O-])ccc5F)c5ccc2[nH]5)C=C4)C=C3)cc1)C1(O)Cc2ccccc2C1
REMARK SMILES IDX 14 1 13 2 12 3 11 4 10 5 9 6 8 7 6 8 7 9 5 10 4 11 3 12 2 13
REMARK SMILES IDX 1 14 86 15 88 16 95 17 89 18 94 19 90 20 93 21 91 22 92 23
REMARK SMILES IDX 87 24 15 26 16 27 17 28 18 29 19 30 20 31 21 32 22 33 23 34
REMARK SMILES IDX 24 35 85 36 25 37 84 38 26 39 27 40 28 41 78 42 29 43 83 44
REMARK SMILES IDX 77 45 79 46 30 47 82 48 76 49 75 50 31 52 63 53 43 54 62 55
REMARK SMILES IDX 44 56 47 57 61 58 80 59 45 60 46 61 60 63 81 64 48 65 32 66
REMARK SMILES IDX 33 67 41 68 34 69 40 70 42 71 39 72 35 73 36 74 37 75 38 76
REMARK SMILES IDX 64 77 65 78 73 79 66 80 72 81 74 82 71 83 67 84 68 85 69 86
REMARK SMILES IDX 70 87 49 88 50 89 58 90 51 91 57 92 59 93 56 94 52 95 53 96
REMARK SMILES IDX 54 97 55 98
REMARK H PARENT 87 25 79 51 47 62
REMARK Flexibility Score: inf
ROOT
ATOM      1  O   UNL     1       0.796   0.610   5.710  1.00  0.00    -0.377 OA
ENDROOT
BRANCH   1   2
ATOM      2  C   UNL     1       0.025   1.668   5.199  1.00  0.00     0.188 C 
BRANCH   2   3
ATOM      3  C   UNL     1      -1.350   1.879   5.837  1.00  0.00     0.188 C 
BRANCH   3   4
ATOM      4  O   UNL     1      -2.088   0.762   6.312  1.00  0.00    -0.376 OA
BRANCH   4   5
ATOM      5  C   UNL     1      -1.979  -0.497   5.653  1.00  0.00     0.202 C 
BRANCH   5   6
ATOM      6  C   UNL     1      -2.415  -0.598   4.180  1.00  0.00     0.261 C 
BRANCH   6   7
ATOM      7  O   UNL     1      -1.515   0.073   3.277  1.00  0.00    -0.463 OA
BRANCH   7   8
ATOM      8  C   UNL     1      -2.014   0.375   2.044  1.00  0.00     0.311 C 
ATOM      9  O   UNL     1      -2.980  -0.184   1.535  1.00  0.00    -0.252 OA
BRANCH   8  10
ATOM     10  C   UNL     1      -1.412   1.672   1.455  1.00  0.00     0.131 C 
BRANCH  10  11
ATOM     11  C   UNL     1       0.142   1.659   1.321  1.00  0.00     0.018 C 
BRANCH  11  12
ATOM     12  C   UNL     1       0.934   0.359   1.545  1.00  0.00     0.001 C 
BRANCH  12  13
ATOM     13  C   UNL     1       0.633  -0.810   0.615  1.00  0.00    -0.003 C 
ATOM     14  C   UNL     1       1.039  -0.541  -0.822  1.00  0.00     0.004 C 
ENDBRANCH  12  13
ENDBRANCH  11  12
ENDBRANCH  10  11
BRANCH  10  15
ATOM     15  C   UNL     1      -2.028   2.897   2.230  1.00  0.00     0.086 C 
ATOM     16  C   UNL     1      -1.001   3.949   2.781  1.00  0.00     0.072 C 
ATOM     17  C   UNL     1      -3.075   3.866   1.609  1.00  0.00     0.072 C 
ATOM     18  C   UNL     1      -1.947   4.910   3.453  1.00  0.00    -0.042 A 
ATOM     19  C   UNL     1      -3.206   4.790   2.838  1.00  0.00    -0.042 A 
ATOM     20  C   UNL     1      -1.770   5.390   4.747  1.00  0.00     0.004 A 
ATOM     21  C   UNL     1      -4.341   5.001   3.610  1.00  0.00     0.004 A 
ATOM     22  C   UNL     1      -2.911   5.592   5.514  1.00  0.00     0.000 A 
ATOM     23  C   UNL     1      -4.183   5.367   4.960  1.00  0.00     0.000 A 
BRANCH  15  24
ATOM     24  O   UNL     1      -2.796   2.300   3.306  1.00  0.00    -0.388 OA
ATOM     25  H   UNL     1      -2.243   1.661   3.783  1.00  0.00     0.211 HD
ENDBRANCH  15  24
ENDBRANCH  10  15
ENDBRANCH   8  10
ENDBRANCH   7   8
ENDBRANCH   6   7
ENDBRANCH   5   6
ENDBRANCH   4   5
ENDBRANCH   3   4
ENDBRANCH   2   3
ENDBRANCH   1   2
BRANCH   1  26
ATOM     26  C   UNL     1       1.122   0.628   7.086  1.00  0.00     0.188 C 
BRANCH  26  27
ATOM     27  C   UNL     1       0.885   1.878   7.956  1.00  0.00     0.188 C 
BRANCH  27  28
ATOM     28  O   UNL     1       1.028   3.123   7.273  1.00  0.00    -0.376 OA
BRANCH  28  29
ATOM     29  C   UNL     1       2.185   3.893   7.561  1.00  0.00     0.202 C 
BRANCH  29  30
ATOM     30  C   UNL     1       3.436   3.457   6.789  1.00  0.00     0.261 C 
BRANCH  30  31
ATOM     31  O   UNL     1       3.883   2.121   7.052  1.00  0.00    -0.460 OA
BRANCH  31  32
ATOM     32  C   UNL     1       4.182   1.803   8.337  1.00  0.00     0.338 C 
ATOM     33  O   UNL     1       4.180   2.545   9.292  1.00  0.00    -0.246 OA
BRANCH  32  34
ATOM     34  C   UNL     1       4.272   0.325   8.396  1.00  0.00     0.060 A 
ATOM     35  C   UNL     1       3.460  -0.358   9.313  1.00  0.00     0.016 A 
ATOM     36  C   UNL     1       5.043  -0.379   7.465  1.00  0.00     0.016 A 
ATOM     37  C   UNL     1       3.426  -1.752   9.306  1.00  0.00     0.010 A 
ATOM     38  C   UNL     1       5.036  -1.774   7.483  1.00  0.00     0.010 A 
ATOM     39  C   UNL     1       4.250  -2.463   8.422  1.00  0.00    -0.014 A 
BRANCH  39  40
ATOM     40  C   UNL     1       4.510  -3.898   8.679  1.00  0.00     0.031 A 
ATOM     41  C   UNL     1       5.653  -4.226   9.600  1.00  0.00     0.074 A 
ATOM     42  C   UNL     1       3.763  -4.872   8.131  1.00  0.00     0.049 A 
ATOM     43  N   UNL     1       6.108  -5.387   9.986  1.00  0.00    -0.248 NA
ATOM     44  C   UNL     1       6.385  -3.074  10.154  1.00  0.00     0.031 C 
ATOM     45  C   UNL     1       2.616  -4.668   7.249  1.00  0.00     0.029 A 
ATOM     46  N   UNL     1       3.869  -6.236   8.238  1.00  0.00    -0.354 N 
ATOM     47  C   UNL     1       7.173  -5.105  10.836  1.00  0.00     0.074 A 
ATOM     48  C   UNL     1       7.323  -3.668  10.870  1.00  0.00     0.031 C 
ATOM     49  C   UNL     1       2.131  -5.869   6.884  1.00  0.00     0.029 A 
ATOM     50  C   UNL     1       2.949  -6.924   7.482  1.00  0.00     0.049 A 
ATOM     51  H   UNL     1       4.542  -6.681   8.802  1.00  0.00     0.167 HD
ATOM     52  C   UNL     1       7.949  -5.968  11.533  1.00  0.00     0.034 A 
ATOM     53  C   UNL     1       2.805  -8.251   7.287  1.00  0.00     0.034 A 
ATOM     54  C   UNL     1       7.812  -7.399  11.453  1.00  0.00     0.049 A 
ATOM     55  C   UNL     1       3.742  -9.199   8.001  1.00  0.00     0.074 A 
ATOM     56  C   UNL     1       8.539  -8.374  12.111  1.00  0.00     0.029 A 
ATOM     57  N   UNL     1       6.897  -8.063  10.643  1.00  0.00    -0.354 N 
ATOM     58  N   UNL     1       4.728  -8.925   8.828  1.00  0.00    -0.248 NA
ATOM     59  C   UNL     1       3.541 -10.634   7.763  1.00  0.00     0.031 C 
ATOM     60  C   UNL     1       8.116  -9.623  11.643  1.00  0.00     0.029 A 
ATOM     61  C   UNL     1       7.067  -9.433  10.756  1.00  0.00     0.049 A 
ATOM     62  H   UNL     1       6.227  -7.623  10.072  1.00  0.00     0.167 HD
ATOM     63  C   UNL     1       5.243 -10.157   9.229  1.00  0.00     0.074 A 
ATOM     64  C   UNL     1       4.448 -11.171   8.566  1.00  0.00     0.031 C 
ATOM     65  C   UNL     1       6.274 -10.429  10.071  1.00  0.00     0.034 A 
BRANCH  52  66
ATOM     66  C   UNL     1       9.047  -5.369  12.377  1.00  0.00     0.023 A 
ATOM     67  C   UNL     1       8.766  -4.518  13.462  1.00  0.00     0.031 A 
ATOM     68  C   UNL     1      10.395  -5.595  12.050  1.00  0.00     0.131 A 
ATOM     69  C   UNL     1       9.813  -3.861  14.126  1.00  0.00     0.055 A 
ATOM     70  C   UNL     1      11.435  -5.004  12.769  1.00  0.00     0.041 A 
ATOM     71  F   UNL     1      10.725  -6.372  11.006  1.00  0.00    -0.206 F 
ATOM     72  C   UNL     1      11.147  -4.118  13.803  1.00  0.00     0.022 A 
BRANCH  69  73
ATOM     73  S   UNL     1       9.402  -2.543  15.304  1.00  0.00     0.124 S 
ATOM     74  O   UNL     1       8.637  -1.624  14.464  1.00  0.00    -0.237 OA
ATOM     75  O   UNL     1       8.643  -3.258  16.324  1.00  0.00    -0.237 OA
ATOM     76  O   UNL     1      10.708  -2.045  15.730  1.00  0.00    -0.744 OA
ENDBRANCH  69  73
ENDBRANCH  52  66
BRANCH  53  77
ATOM     77  C   UNL     1       1.766  -8.773   6.350  1.00  0.00     0.023 A 
ATOM     78  C   UNL     1       0.713  -9.584   6.802  1.00  0.00     0.031 A 
ATOM     79  C   UNL     1       1.850  -8.512   4.970  1.00  0.00     0.131 A 
ATOM     80  C   UNL     1      -0.190 -10.139   5.879  1.00  0.00     0.055 A 
ATOM     81  C   UNL     1       0.921  -9.025   4.062  1.00  0.00     0.041 A 
ATOM     82  F   UNL     1       2.840  -7.748   4.482  1.00  0.00    -0.206 F 
ATOM     83  C   UNL     1      -0.101  -9.854   4.515  1.00  0.00     0.022 A 
BRANCH  80  84
ATOM     84  S   UNL     1      -1.444 -11.306   6.479  1.00  0.00     0.124 S 
ATOM     85  O   UNL     1      -0.618 -12.355   7.066  1.00  0.00    -0.237 OA
ATOM     86  O   UNL     1      -2.200 -10.483   7.418  1.00  0.00    -0.237 OA
ATOM     87  O   UNL     1      -2.166 -11.685   5.266  1.00  0.00    -0.744 OA
ENDBRANCH  80  84
ENDBRANCH  53  77
BRANCH  65  88
ATOM     88  C   UNL     1       6.570 -11.884  10.348  1.00  0.00     0.023 A 
ATOM     89  C   UNL     1       7.040 -12.750   9.345  1.00  0.00     0.031 A 
ATOM     90  C   UNL     1       6.370 -12.413  11.636  1.00  0.00     0.131 A 
ATOM     91  C   UNL     1       7.234 -14.110   9.630  1.00  0.00     0.055 A 
ATOM     92  C   UNL     1       6.629 -13.752  11.930  1.00  0.00     0.041 A 
ATOM     93  F   UNL     1       5.923 -11.633  12.634  1.00  0.00    -0.206 F 
ATOM     94  C   UNL     1       7.049 -14.613  10.921  1.00  0.00     0.022 A 
BRANCH  91  95
ATOM     95  S   UNL     1       7.630 -15.238   8.266  1.00  0.00     0.124 S 
ATOM     96  O   UNL     1       6.505 -15.026   7.361  1.00  0.00    -0.237 OA
ATOM     97  O   UNL     1       8.921 -14.733   7.809  1.00  0.00    -0.237 OA
ATOM     98  O   UNL     1       7.670 -16.551   8.907  1.00  0.00    -0.744 OA
ENDBRANCH  91  95
ENDBRANCH  65  88
ENDBRANCH  39  40
ENDBRANCH  32  34
ENDBRANCH  31  32
ENDBRANCH  30  31
ENDBRANCH  29  30
ENDBRANCH  28  29
ENDBRANCH  27  28
ENDBRANCH  26  27
ENDBRANCH   1  26
TORSDOF 28
