REMARK SMILES O=C(OCCOCCOCCOCCOC(=O)[C@H]1CC[N@@H+]1CCc1ccccc1)c1ccc(-c2c3nc(c(-c4cc(S(=O)(=O)[O-])ccc4F)c4ccc([nH]4)c(-c4cc(S(=O)(=O)[O-])ccc4F)c4nc(c(-c5cc(S(=O)(=O)[O-])ccc5F)c5ccc2[nH]5)C=C4)C=C3)cc1
REMARK SMILES IDX 9 1 8 2 7 3 6 4 5 5 4 6 3 7 2 8 1 9 30 10 31 11 92 12 32 13
REMARK SMILES IDX 91 14 33 15 34 16 35 17 85 18 36 19 90 20 84 21 86 22 37 23
REMARK SMILES IDX 89 24 83 25 82 26 38 28 70 29 50 30 69 31 51 32 54 33 68 34
REMARK SMILES IDX 87 35 52 36 53 37 67 39 88 40 55 41 39 42 40 43 48 44 41 45
REMARK SMILES IDX 47 46 49 47 46 48 42 49 43 50 44 51 45 52 71 53 72 54 80 55
REMARK SMILES IDX 73 56 79 57 81 58 78 59 74 60 75 61 76 62 77 63 56 64 57 65
REMARK SMILES IDX 65 66 58 67 64 68 66 69 63 70 59 71 60 72 61 73 62 74 10 75
REMARK SMILES IDX 11 76 12 77 13 78 14 79 15 80 16 81 17 82 18 83 19 84 21 85
REMARK SMILES IDX 20 86 22 88 23 89 24 90 25 91 29 92 26 93 28 94 27 95
REMARK H PARENT 86 27 54 38 21 87
REMARK Flexibility Score: inf
ROOT
ATOM      1  O   UNL     1       5.951  -2.357   1.269  1.00  0.00    -0.377 OA
ENDROOT
BRANCH   1   2
ATOM      2  C   UNL     1       6.745  -1.821   2.322  1.00  0.00     0.188 C 
BRANCH   2   3
ATOM      3  C   UNL     1       6.269  -2.238   3.709  1.00  0.00     0.188 C 
BRANCH   3   4
ATOM      4  O   UNL     1       6.633  -3.599   3.958  1.00  0.00    -0.376 OA
BRANCH   4   5
ATOM      5  C   UNL     1       5.689  -4.357   4.710  1.00  0.00     0.202 C 
BRANCH   5   6
ATOM      6  C   UNL     1       5.879  -4.261   6.225  1.00  0.00     0.261 C 
BRANCH   6   7
ATOM      7  O   UNL     1       6.192  -2.928   6.644  1.00  0.00    -0.460 OA
BRANCH   7   8
ATOM      8  C   UNL     1       7.410  -2.337   6.725  1.00  0.00     0.338 C 
ATOM      9  O   UNL     1       7.439  -1.163   7.103  1.00  0.00    -0.246 OA
BRANCH   8  10
ATOM     10  C   UNL     1       8.722  -2.985   6.368  1.00  0.00     0.060 A 
ATOM     11  C   UNL     1       8.906  -4.199   5.694  1.00  0.00     0.016 A 
ATOM     12  C   UNL     1       9.880  -2.274   6.739  1.00  0.00     0.016 A 
ATOM     13  C   UNL     1      10.172  -4.733   5.471  1.00  0.00     0.010 A 
ATOM     14  C   UNL     1      11.156  -2.799   6.524  1.00  0.00     0.010 A 
ATOM     15  C   UNL     1      11.295  -4.058   5.933  1.00  0.00    -0.014 A 
BRANCH  15  16
ATOM     16  C   UNL     1      12.557  -4.806   6.058  1.00  0.00     0.031 A 
ATOM     17  C   UNL     1      12.841  -5.430   7.391  1.00  0.00     0.074 A 
ATOM     18  C   UNL     1      13.364  -4.985   5.002  1.00  0.00     0.049 A 
ATOM     19  N   UNL     1      13.924  -6.008   7.831  1.00  0.00    -0.248 NA
ATOM     20  C   UNL     1      11.736  -5.393   8.364  1.00  0.00     0.031 C 
ATOM     21  C   UNL     1      13.079  -4.535   3.640  1.00  0.00     0.029 A 
ATOM     22  N   UNL     1      14.588  -5.590   4.913  1.00  0.00    -0.354 N 
ATOM     23  C   UNL     1      13.642  -6.373   9.144  1.00  0.00     0.074 A 
ATOM     24  C   UNL     1      12.290  -5.947   9.426  1.00  0.00     0.031 C 
ATOM     25  C   UNL     1      14.120  -4.855   2.853  1.00  0.00     0.029 A 
ATOM     26  C   UNL     1      15.165  -5.466   3.671  1.00  0.00     0.049 A 
ATOM     27  H   UNL     1      15.013  -6.066   5.662  1.00  0.00     0.167 HD
ATOM     28  C   UNL     1      14.457  -6.990  10.033  1.00  0.00     0.034 A 
ATOM     29  C   UNL     1      16.420  -5.756   3.275  1.00  0.00     0.034 A 
ATOM     30  C   UNL     1      15.814  -7.346   9.709  1.00  0.00     0.049 A 
ATOM     31  C   UNL     1      17.362  -6.331   4.305  1.00  0.00     0.074 A 
ATOM     32  C   UNL     1      16.794  -7.884  10.519  1.00  0.00     0.029 A 
ATOM     33  N   UNL     1      16.385  -7.171   8.449  1.00  0.00    -0.354 N 
ATOM     34  N   UNL     1      17.131  -6.602   5.572  1.00  0.00    -0.248 NA
ATOM     35  C   UNL     1      18.729  -6.629   3.866  1.00  0.00     0.031 C 
ATOM     36  C   UNL     1      17.973  -7.974   9.767  1.00  0.00     0.029 A 
ATOM     37  C   UNL     1      17.710  -7.565   8.466  1.00  0.00     0.049 A 
ATOM     38  H   UNL     1      15.913  -6.818   7.661  1.00  0.00     0.167 HD
ATOM     39  C   UNL     1      18.318  -7.118   6.079  1.00  0.00     0.074 A 
ATOM     40  C   UNL     1      19.262  -7.125   4.975  1.00  0.00     0.031 C 
ATOM     41  C   UNL     1      18.609  -7.551   7.333  1.00  0.00     0.034 A 
BRANCH  28  42
ATOM     42  C   UNL     1      13.914  -7.165  11.432  1.00  0.00     0.023 A 
ATOM     43  C   UNL     1      12.764  -7.936  11.692  1.00  0.00     0.031 A 
ATOM     44  C   UNL     1      14.455  -6.418  12.494  1.00  0.00     0.131 A 
ATOM     45  C   UNL     1      12.126  -7.841  12.939  1.00  0.00     0.055 A 
ATOM     46  C   UNL     1      13.868  -6.406  13.761  1.00  0.00     0.041 A 
ATOM     47  F   UNL     1      15.531  -5.639  12.303  1.00  0.00    -0.206 F 
ATOM     48  C   UNL     1      12.682  -7.099  13.983  1.00  0.00     0.022 A 
BRANCH  45  49
ATOM     49  S   UNL     1      10.447  -8.516  13.106  1.00  0.00     0.124 S 
ATOM     50  O   UNL     1       9.735  -7.806  12.046  1.00  0.00    -0.237 OA
ATOM     51  O   UNL     1      10.657  -9.944  12.887  1.00  0.00    -0.237 OA
ATOM     52  O   UNL     1      10.059  -8.144  14.464  1.00  0.00    -0.744 OA
ENDBRANCH  45  49
ENDBRANCH  28  42
BRANCH  29  53
ATOM     53  C   UNL     1      16.864  -5.411   1.894  1.00  0.00     0.023 A 
ATOM     54  C   UNL     1      17.235  -6.395   0.964  1.00  0.00     0.031 A 
ATOM     55  C   UNL     1      16.908  -4.065   1.477  1.00  0.00     0.131 A 
ATOM     56  C   UNL     1      17.639  -6.018  -0.329  1.00  0.00     0.055 A 
ATOM     57  C   UNL     1      17.268  -3.700   0.180  1.00  0.00     0.041 A 
ATOM     58  F   UNL     1      16.569  -3.081   2.326  1.00  0.00    -0.206 F 
ATOM     59  C   UNL     1      17.642  -4.680  -0.732  1.00  0.00     0.022 A 
BRANCH  56  60
ATOM     60  S   UNL     1      18.205  -7.303  -1.480  1.00  0.00     0.124 S 
ATOM     61  O   UNL     1      19.340  -7.869  -0.761  1.00  0.00    -0.237 OA
ATOM     62  O   UNL     1      17.025  -8.154  -1.590  1.00  0.00    -0.237 OA
ATOM     63  O   UNL     1      18.544  -6.554  -2.689  1.00  0.00    -0.744 OA
ENDBRANCH  56  60
ENDBRANCH  29  53
BRANCH  41  64
ATOM     64  C   UNL     1      19.987  -8.114   7.556  1.00  0.00     0.023 A 
ATOM     65  C   UNL     1      21.121  -7.289   7.613  1.00  0.00     0.031 A 
ATOM     66  C   UNL     1      20.148  -9.494   7.769  1.00  0.00     0.131 A 
ATOM     67  C   UNL     1      22.379  -7.859   7.854  1.00  0.00     0.055 A 
ATOM     68  C   UNL     1      21.394 -10.049   8.054  1.00  0.00     0.041 A 
ATOM     69  F   UNL     1      19.089 -10.319   7.728  1.00  0.00    -0.206 F 
ATOM     70  C   UNL     1      22.519  -9.230   8.092  1.00  0.00     0.022 A 
BRANCH  67  71
ATOM     71  S   UNL     1      23.843  -6.791   7.815  1.00  0.00     0.124 S 
ATOM     72  O   UNL     1      23.842  -6.329   6.430  1.00  0.00    -0.237 OA
ATOM     73  O   UNL     1      23.526  -5.785   8.823  1.00  0.00    -0.237 OA
ATOM     74  O   UNL     1      24.936  -7.695   8.166  1.00  0.00    -0.744 OA
ENDBRANCH  67  71
ENDBRANCH  41  64
ENDBRANCH  15  16
ENDBRANCH   8  10
ENDBRANCH   7   8
ENDBRANCH   6   7
ENDBRANCH   5   6
ENDBRANCH   4   5
ENDBRANCH   3   4
ENDBRANCH   2   3
ENDBRANCH   1   2
BRANCH   1  75
ATOM     75  C   UNL     1       5.842  -3.779   1.225  1.00  0.00     0.188 C 
BRANCH  75  76
ATOM     76  C   UNL     1       7.147  -4.601   1.183  1.00  0.00     0.188 C 
BRANCH  76  77
ATOM     77  O   UNL     1       8.288  -3.868   0.755  1.00  0.00    -0.376 OA
BRANCH  77  78
ATOM     78  C   UNL     1       8.656  -4.072  -0.607  1.00  0.00     0.202 C 
BRANCH  78  79
ATOM     79  C   UNL     1       7.649  -3.488  -1.602  1.00  0.00     0.261 C 
BRANCH  79  80
ATOM     80  O   UNL     1       6.401  -4.215  -1.622  1.00  0.00    -0.459 OA
BRANCH  80  81
ATOM     81  C   UNL     1       6.364  -5.409  -2.284  1.00  0.00     0.365 C 
ATOM     82  O   UNL     1       7.290  -5.781  -3.003  1.00  0.00    -0.245 OA
BRANCH  81  83
ATOM     83  C   UNL     1       5.029  -6.241  -2.003  1.00  0.00     0.300 C 
ATOM     84  C   UNL     1       5.292  -7.723  -1.621  1.00  0.00     0.139 C 
ATOM     85  N   UNL     1       4.417  -6.053  -0.655  1.00  0.00    -0.323 N 
ATOM     86  C   UNL     1       4.975  -7.320  -0.180  1.00  0.00     0.269 C 
ATOM     87  H   UNL     1       4.608  -5.187  -0.151  1.00  0.00     0.348 HD
BRANCH  85  88
ATOM     88  C   UNL     1       2.947  -5.979  -0.606  1.00  0.00     0.267 C 
BRANCH  88  89
ATOM     89  C   UNL     1       1.979  -6.838  -1.463  1.00  0.00     0.097 C 
BRANCH  89  90
ATOM     90  C   UNL     1       1.984  -8.338  -1.296  1.00  0.00    -0.042 A 
ATOM     91  C   UNL     1       1.870  -9.152  -2.434  1.00  0.00     0.004 A 
ATOM     92  C   UNL     1       2.107  -8.957  -0.046  1.00  0.00     0.004 A 
ATOM     93  C   UNL     1       2.014 -10.537  -2.338  1.00  0.00     0.000 A 
ATOM     94  C   UNL     1       2.290 -10.339   0.046  1.00  0.00     0.000 A 
ATOM     95  C   UNL     1       2.261 -11.126  -1.101  1.00  0.00     0.000 A 
ENDBRANCH  89  90
ENDBRANCH  88  89
ENDBRANCH  85  88
ENDBRANCH  81  83
ENDBRANCH  80  81
ENDBRANCH  79  80
ENDBRANCH  78  79
ENDBRANCH  77  78
ENDBRANCH  76  77
ENDBRANCH  75  76
ENDBRANCH   1  75
TORSDOF 26
