REMARK SMILES COc1cc2c(cc1OC)[C@H](C(=O)OCCOCCOCCOCCOC(=O)c1ccc(-c3c4nc(c(-c5cc(S(=O)(=O)[O-])ccc5F)c5ccc([nH]5)c(-c5cc(S(=O)(=O)[O-])ccc5F)c5nc(c(-c6cc(S(=O)(=O)[O-])ccc6F)c6ccc3[nH]6)C=C5)C=C4)cc1)[C@H](c1cccc(Cl)c1)N(C)C2=O
REMARK SMILES IDX 21 1 20 2 19 3 18 4 17 5 16 6 15 7 14 8 12 9 13 10 11 11
REMARK SMILES IDX 3 12 4 13 8 14 5 15 7 16 6 17 102 18 100 19 103 20 92 21
REMARK SMILES IDX 101 22 2 23 1 24 9 25 10 26 93 27 94 28 99 29 95 30 97 31
REMARK SMILES IDX 96 32 98 33 22 34 23 35 24 36 25 37 26 38 27 39 28 40 29 41
REMARK SMILES IDX 30 42 91 43 31 44 90 45 32 46 33 47 34 48 84 49 35 50 89 51
REMARK SMILES IDX 83 52 85 53 36 54 88 55 82 56 81 57 37 59 69 60 49 61 68 62
REMARK SMILES IDX 50 63 53 64 67 65 86 66 51 67 52 68 66 70 87 71 54 72 38 73
REMARK SMILES IDX 39 74 47 75 40 76 46 77 48 78 45 79 41 80 42 81 43 82 44 83
REMARK SMILES IDX 70 84 71 85 79 86 72 87 78 88 80 89 77 90 73 91 74 92 75 93
REMARK SMILES IDX 76 94 55 95 56 96 64 97 57 98 63 99 65 100 62 101 58 102
REMARK SMILES IDX 59 103 60 104 61 105
REMARK H PARENT 85 58 53 69
REMARK Flexibility Score: inf
ROOT
ATOM      1  C   UNL     1      -2.480  -3.830  -4.224  1.00  0.00     0.188 C 
ENDROOT
BRANCH   1   2
ATOM      2  O   UNL     1      -1.252  -4.510  -4.410  1.00  0.00    -0.377 OA
BRANCH   2   3
ATOM      3  C   UNL     1      -0.461  -4.075  -5.488  1.00  0.00     0.188 C 
BRANCH   3   4
ATOM      4  C   UNL     1      -0.354  -5.078  -6.646  1.00  0.00     0.188 C 
BRANCH   4   5
ATOM      5  O   UNL     1      -0.988  -6.354  -6.628  1.00  0.00    -0.376 OA
BRANCH   5   6
ATOM      6  C   UNL     1      -1.335  -7.012  -5.417  1.00  0.00     0.202 C 
BRANCH   6   7
ATOM      7  C   UNL     1      -0.200  -7.488  -4.501  1.00  0.00     0.261 C 
BRANCH   7   8
ATOM      8  O   UNL     1       0.636  -6.432  -4.002  1.00  0.00    -0.463 OA
BRANCH   8   9
ATOM      9  C   UNL     1       1.815  -6.216  -4.617  1.00  0.00     0.316 C 
ATOM     10  O   UNL     1       2.240  -6.924  -5.529  1.00  0.00    -0.251 OA
BRANCH   9  11
ATOM     11  C   UNL     1       2.557  -4.961  -4.186  1.00  0.00     0.157 C 
ATOM     12  C   UNL     1       1.491  -2.127  -1.020  1.00  0.00     0.161 A 
ATOM     13  C   UNL     1       2.632  -1.974  -1.807  1.00  0.00     0.064 A 
ATOM     14  C   UNL     1       0.675  -3.247  -1.228  1.00  0.00     0.161 A 
ATOM     15  C   UNL     1       2.955  -2.930  -2.786  1.00  0.00     0.048 A 
ATOM     16  C   UNL     1       1.006  -4.194  -2.215  1.00  0.00     0.056 A 
ATOM     17  C   UNL     1       2.131  -4.048  -3.031  1.00  0.00    -0.015 A 
ATOM     18  C   UNL     1       4.246  -2.785  -3.519  1.00  0.00     0.254 C 
ATOM     19  N   UNL     1       4.764  -3.934  -4.124  1.00  0.00    -0.333 N 
ATOM     20  O   UNL     1       4.806  -1.694  -3.552  1.00  0.00    -0.269 OA
ATOM     21  C   UNL     1       4.070  -5.242  -4.057  1.00  0.00     0.134 C 
ATOM     22  C   UNL     1       6.028  -3.840  -4.825  1.00  0.00     0.147 C 
BRANCH  12  23
ATOM     23  O   UNL     1       1.224  -1.297   0.034  1.00  0.00    -0.493 OA
ATOM     24  C   UNL     1       1.424   0.093  -0.194  1.00  0.00     0.278 C 
ENDBRANCH  12  23
BRANCH  14  25
ATOM     25  O   UNL     1      -0.466  -3.575  -0.545  1.00  0.00    -0.493 OA
ATOM     26  C   UNL     1      -1.167  -2.512   0.081  1.00  0.00     0.278 C 
ENDBRANCH  14  25
BRANCH  21  27
ATOM     27  C   UNL     1       4.335  -6.081  -2.806  1.00  0.00    -0.023 A 
ATOM     28  C   UNL     1       3.862  -7.409  -2.769  1.00  0.00     0.006 A 
ATOM     29  C   UNL     1       4.832  -5.526  -1.620  1.00  0.00     0.026 A 
ATOM     30  C   UNL     1       3.708  -8.086  -1.562  1.00  0.00     0.002 A 
ATOM     31  C   UNL     1       4.710  -6.222  -0.417  1.00  0.00     0.041 A 
ATOM     32  C   UNL     1       4.111  -7.479  -0.379  1.00  0.00     0.020 A 
ATOM     33  Cl  UNL     1       5.256  -5.491   1.040  1.00  0.00    -0.084 Cl
ENDBRANCH  21  27
ENDBRANCH   9  11
ENDBRANCH   8   9
ENDBRANCH   7   8
ENDBRANCH   6   7
ENDBRANCH   5   6
ENDBRANCH   4   5
ENDBRANCH   3   4
ENDBRANCH   2   3
ENDBRANCH   1   2
BRANCH   1  34
ATOM     34  C   UNL     1      -3.340  -3.675  -5.490  1.00  0.00     0.188 C 
BRANCH  34  35
ATOM     35  O   UNL     1      -2.671  -3.008  -6.557  1.00  0.00    -0.376 OA
BRANCH  35  36
ATOM     36  C   UNL     1      -2.838  -1.602  -6.691  1.00  0.00     0.202 C 
BRANCH  36  37
ATOM     37  C   UNL     1      -2.280  -0.677  -5.590  1.00  0.00     0.261 C 
BRANCH  37  38
ATOM     38  O   UNL     1      -2.781  -0.841  -4.252  1.00  0.00    -0.460 OA
BRANCH  38  39
ATOM     39  C   UNL     1      -4.115  -0.830  -4.045  1.00  0.00     0.338 C 
ATOM     40  O   UNL     1      -4.979  -0.633  -4.883  1.00  0.00    -0.246 OA
BRANCH  39  41
ATOM     41  C   UNL     1      -4.361  -1.293  -2.660  1.00  0.00     0.060 A 
ATOM     42  C   UNL     1      -5.052  -2.493  -2.442  1.00  0.00     0.016 A 
ATOM     43  C   UNL     1      -3.903  -0.545  -1.575  1.00  0.00     0.016 A 
ATOM     44  C   UNL     1      -5.300  -2.944  -1.140  1.00  0.00     0.010 A 
ATOM     45  C   UNL     1      -4.176  -0.984  -0.274  1.00  0.00     0.010 A 
ATOM     46  C   UNL     1      -4.895  -2.177  -0.042  1.00  0.00    -0.014 A 
BRANCH  46  47
ATOM     47  C   UNL     1      -5.393  -2.485   1.330  1.00  0.00     0.031 A 
ATOM     48  C   UNL     1      -6.466  -1.587   1.893  1.00  0.00     0.074 A 
ATOM     49  C   UNL     1      -4.934  -3.516   2.068  1.00  0.00     0.049 A 
ATOM     50  N   UNL     1      -6.993  -1.559   3.089  1.00  0.00    -0.248 NA
ATOM     51  C   UNL     1      -7.007  -0.572   0.973  1.00  0.00     0.031 C 
ATOM     52  C   UNL     1      -3.952  -4.509   1.634  1.00  0.00     0.029 A 
ATOM     53  N   UNL     1      -5.228  -3.890   3.360  1.00  0.00    -0.354 N 
ATOM     54  C   UNL     1      -7.921  -0.523   3.066  1.00  0.00     0.074 A 
ATOM     55  C   UNL     1      -7.832   0.095   1.762  1.00  0.00     0.031 C 
ATOM     56  C   UNL     1      -3.699  -5.354   2.651  1.00  0.00     0.029 A 
ATOM     57  C   UNL     1      -4.489  -4.962   3.815  1.00  0.00     0.049 A 
ATOM     58  H   UNL     1      -5.905  -3.434   3.910  1.00  0.00     0.167 HD
ATOM     59  C   UNL     1      -8.791  -0.137   4.030  1.00  0.00     0.034 A 
ATOM     60  C   UNL     1      -4.446  -5.548   5.032  1.00  0.00     0.034 A 
ATOM     61  C   UNL     1      -8.879  -0.756   5.327  1.00  0.00     0.049 A 
ATOM     62  C   UNL     1      -5.346  -5.026   6.133  1.00  0.00     0.074 A 
ATOM     63  C   UNL     1      -9.728  -0.444   6.374  1.00  0.00     0.029 A 
ATOM     64  N   UNL     1      -8.087  -1.812   5.758  1.00  0.00    -0.354 N 
ATOM     65  N   UNL     1      -6.225  -4.051   6.092  1.00  0.00    -0.248 NA
ATOM     66  C   UNL     1      -5.259  -5.697   7.439  1.00  0.00     0.031 C 
ATOM     67  C   UNL     1      -9.398  -1.257   7.462  1.00  0.00     0.029 A 
ATOM     68  C   UNL     1      -8.406  -2.140   7.066  1.00  0.00     0.049 A 
ATOM     69  H   UNL     1      -7.399  -2.261   5.215  1.00  0.00     0.167 HD
ATOM     70  C   UNL     1      -6.827  -4.029   7.350  1.00  0.00     0.074 A 
ATOM     71  C   UNL     1      -6.220  -5.092   8.120  1.00  0.00     0.031 C 
ATOM     72  C   UNL     1      -7.801  -3.209   7.824  1.00  0.00     0.034 A 
BRANCH  59  73
ATOM     73  C   UNL     1      -9.689   1.035   3.718  1.00  0.00     0.023 A 
ATOM     74  C   UNL     1     -10.635   0.980   2.680  1.00  0.00     0.031 A 
ATOM     75  C   UNL     1      -9.569   2.236   4.438  1.00  0.00     0.131 A 
ATOM     76  C   UNL     1     -11.364   2.127   2.337  1.00  0.00     0.055 A 
ATOM     77  C   UNL     1     -10.365   3.346   4.151  1.00  0.00     0.041 A 
ATOM     78  F   UNL     1      -8.664   2.356   5.421  1.00  0.00    -0.206 F 
ATOM     79  C   UNL     1     -11.258   3.301   3.084  1.00  0.00     0.022 A 
BRANCH  76  80
ATOM     80  S   UNL     1     -12.332   2.108   0.803  1.00  0.00     0.124 S 
ATOM     81  O   UNL     1     -11.297   1.839  -0.193  1.00  0.00    -0.237 OA
ATOM     82  O   UNL     1     -13.283   1.029   1.042  1.00  0.00    -0.237 OA
ATOM     83  O   UNL     1     -12.908   3.449   0.745  1.00  0.00    -0.744 OA
ENDBRANCH  76  80
ENDBRANCH  59  73
BRANCH  60  84
ATOM     84  C   UNL     1      -3.511  -6.682   5.314  1.00  0.00     0.023 A 
ATOM     85  C   UNL     1      -3.994  -7.939   5.717  1.00  0.00     0.031 A 
ATOM     86  C   UNL     1      -2.117  -6.496   5.290  1.00  0.00     0.131 A 
ATOM     87  C   UNL     1      -3.099  -8.933   6.146  1.00  0.00     0.055 A 
ATOM     88  C   UNL     1      -1.228  -7.510   5.654  1.00  0.00     0.041 A 
ATOM     89  F   UNL     1      -1.596  -5.314   4.924  1.00  0.00    -0.206 F 
ATOM     90  C   UNL     1      -1.718  -8.732   6.104  1.00  0.00     0.022 A 
BRANCH  87  91
ATOM     91  S   UNL     1      -3.772 -10.449   6.884  1.00  0.00     0.124 S 
ATOM     92  O   UNL     1      -4.562  -9.915   7.987  1.00  0.00    -0.237 OA
ATOM     93  O   UNL     1      -4.525 -11.019   5.771  1.00  0.00    -0.237 OA
ATOM     94  O   UNL     1      -2.579 -11.197   7.274  1.00  0.00    -0.744 OA
ENDBRANCH  87  91
ENDBRANCH  60  84
BRANCH  72  95
ATOM     95  C   UNL     1      -8.320  -3.472   9.219  1.00  0.00     0.023 A 
ATOM     96  C   UNL     1      -7.513  -3.317  10.359  1.00  0.00     0.031 A 
ATOM     97  C   UNL     1      -9.655  -3.878   9.406  1.00  0.00     0.131 A 
ATOM     98  C   UNL     1      -8.031  -3.619  11.628  1.00  0.00     0.055 A 
ATOM     99  C   UNL     1     -10.184  -4.109  10.676  1.00  0.00     0.041 A 
ATOM    100  F   UNL     1     -10.473  -4.047   8.354  1.00  0.00    -0.206 F 
ATOM    101  C   UNL     1      -9.366  -3.993  11.796  1.00  0.00     0.022 A 
BRANCH  98 102
ATOM    102  S   UNL     1      -6.907  -3.610  13.052  1.00  0.00     0.124 S 
ATOM    103  O   UNL     1      -5.896  -4.581  12.646  1.00  0.00    -0.237 OA
ATOM    104  O   UNL     1      -6.471  -2.218  13.097  1.00  0.00    -0.237 OA
ATOM    105  O   UNL     1      -7.758  -4.029  14.164  1.00  0.00    -0.744 OA
ENDBRANCH  98 102
ENDBRANCH  72  95
ENDBRANCH  46  47
ENDBRANCH  39  41
ENDBRANCH  38  39
ENDBRANCH  37  38
ENDBRANCH  36  37
ENDBRANCH  35  36
ENDBRANCH  34  35
ENDBRANCH   1  34
TORSDOF 26
