REMARK SMILES CCCN1C(=O)/C(=C\c2ccc(C(=O)OCCOCCOCCOCCOC(=O)c3ccc(-c4c5nc(c(-c6cc(S(=O)(=O)[O-])ccc6F)c6ccc([nH]6)c(-c6cc(S(=O)(=O)[O-])ccc6F)c6nc(c(-c7cc(S(=O)(=O)[O-])ccc7F)c7ccc4[nH]7)C=C6)C=C5)cc3)cc2)S/C1=[NH+]\c1nnc(C)s1
REMARK SMILES IDX 21 1 20 2 19 3 18 4 17 5 16 6 15 7 13 8 14 9 12 10 9 11
REMARK SMILES IDX 10 12 94 13 11 14 93 15 8 16 4 17 5 18 96 19 6 20 7 21 95 22
REMARK SMILES IDX 97 23 3 25 2 26 1 27 98 28 99 29 103 30 100 31 101 32 102 33
REMARK SMILES IDX 22 34 23 35 24 36 25 37 26 38 27 39 28 40 29 41 30 42 31 43
REMARK SMILES IDX 92 44 32 45 91 46 33 47 34 48 35 49 85 50 36 51 90 52 84 53
REMARK SMILES IDX 86 54 37 55 89 56 83 57 82 58 38 60 70 61 50 62 69 63 51 64
REMARK SMILES IDX 54 65 68 66 87 67 52 68 53 69 67 71 88 72 55 73 39 74 40 75
REMARK SMILES IDX 48 76 41 77 47 78 49 79 46 80 42 81 43 82 44 83 45 84 71 85
REMARK SMILES IDX 72 86 80 87 73 88 79 89 81 90 78 91 74 92 75 93 76 94 77 95
REMARK SMILES IDX 56 96 57 97 65 98 58 99 64 100 66 101 63 102 59 103 60 104
REMARK SMILES IDX 61 105 62 106
REMARK H PARENT 97 24 86 59 54 70
REMARK Flexibility Score: inf
ROOT
ATOM      1  O   UNL     1       5.533  10.192  -0.399  1.00  0.00    -0.377 OA
ENDROOT
BRANCH   1   2
ATOM      2  C   UNL     1       4.193  10.591  -0.630  1.00  0.00     0.188 C 
BRANCH   2   3
ATOM      3  C   UNL     1       3.484  11.355   0.506  1.00  0.00     0.188 C 
BRANCH   3   4
ATOM      4  O   UNL     1       4.370  11.902   1.466  1.00  0.00    -0.376 OA
BRANCH   4   5
ATOM      5  C   UNL     1       4.554  11.273   2.720  1.00  0.00     0.202 C 
BRANCH   5   6
ATOM      6  C   UNL     1       4.861   9.771   2.842  1.00  0.00     0.261 C 
BRANCH   6   7
ATOM      7  O   UNL     1       4.228   8.913   1.894  1.00  0.00    -0.460 OA
BRANCH   7   8
ATOM      8  C   UNL     1       2.921   8.652   2.086  1.00  0.00     0.338 C 
ATOM      9  O   UNL     1       2.223   9.044   3.006  1.00  0.00    -0.246 OA
BRANCH   8  10
ATOM     10  C   UNL     1       2.405   7.993   0.863  1.00  0.00     0.060 A 
ATOM     11  C   UNL     1       1.284   6.684  -1.315  1.00  0.00    -0.024 A 
ATOM     12  C   UNL     1       0.562   7.693  -0.671  1.00  0.00     0.009 A 
ATOM     13  C   UNL     1       2.621   6.436  -0.970  1.00  0.00     0.009 A 
ATOM     14  C   UNL     1       1.121   8.341   0.426  1.00  0.00     0.016 A 
ATOM     15  C   UNL     1       3.179   7.085   0.130  1.00  0.00     0.016 A 
BRANCH  11  16
ATOM     16  C   UNL     1       0.550   5.723  -2.134  1.00  0.00     0.031 C 
ATOM     17  N   UNL     1       0.194   2.650  -0.187  1.00  0.00    -0.219 N 
ATOM     18  C   UNL     1       0.484   4.001  -0.262  1.00  0.00     0.321 C 
ATOM     19  C   UNL     1      -0.451   2.116  -1.273  1.00  0.00     0.271 C 
ATOM     20  O   UNL     1       0.922   4.657   0.673  1.00  0.00    -0.250 OA
ATOM     21  C   UNL     1       0.185   4.533  -1.628  1.00  0.00     0.100 C 
ATOM     22  S   UNL     1      -0.671   3.344  -2.519  1.00  0.00    -0.012 SA
ATOM     23  N   UNL     1      -0.795   0.875  -1.343  1.00  0.00    -0.226 N 
ATOM     24  H   UNL     1      -0.724   0.283  -0.559  1.00  0.00     0.268 HD
BRANCH  17  25
ATOM     25  C   UNL     1       0.651   1.970   1.030  1.00  0.00     0.206 C 
BRANCH  25  26
ATOM     26  C   UNL     1       0.451   0.467   1.194  1.00  0.00     0.035 C 
ATOM     27  C   UNL     1       1.395  -0.370   0.340  1.00  0.00     0.007 C 
ENDBRANCH  25  26
ENDBRANCH  17  25
BRANCH  23  28
ATOM     28  C   UNL     1      -1.255   0.410  -2.527  1.00  0.00     0.345 A 
ATOM     29  N   UNL     1      -2.503   0.200  -2.892  1.00  0.00     0.023 NA
ATOM     30  S   UNL     1      -0.107  -0.057  -3.740  1.00  0.00    -0.044 S 
ATOM     31  N   UNL     1      -2.610  -0.233  -4.202  1.00  0.00    -0.067 NA
ATOM     32  C   UNL     1      -1.433  -0.352  -4.777  1.00  0.00     0.135 A 
ATOM     33  C   UNL     1      -1.210  -0.704  -6.199  1.00  0.00     0.083 C 
ENDBRANCH  23  28
ENDBRANCH  11  16
ENDBRANCH   8  10
ENDBRANCH   7   8
ENDBRANCH   6   7
ENDBRANCH   5   6
ENDBRANCH   4   5
ENDBRANCH   3   4
ENDBRANCH   2   3
ENDBRANCH   1   2
BRANCH   1  34
ATOM     34  C   UNL     1       6.534  11.180  -0.155  1.00  0.00     0.188 C 
BRANCH  34  35
ATOM     35  C   UNL     1       6.277  12.699  -0.325  1.00  0.00     0.188 C 
BRANCH  35  36
ATOM     36  O   UNL     1       5.143  13.035  -1.110  1.00  0.00    -0.376 OA
BRANCH  36  37
ATOM     37  C   UNL     1       5.367  13.550  -2.409  1.00  0.00     0.202 C 
BRANCH  37  38
ATOM     38  C   UNL     1       6.014  12.595  -3.422  1.00  0.00     0.261 C 
BRANCH  38  39
ATOM     39  O   UNL     1       7.268  12.018  -3.031  1.00  0.00    -0.460 OA
BRANCH  39  40
ATOM     40  C   UNL     1       8.307  12.864  -2.858  1.00  0.00     0.338 C 
ATOM     41  O   UNL     1       8.296  14.075  -3.008  1.00  0.00    -0.246 OA
BRANCH  40  42
ATOM     42  C   UNL     1       9.419  12.091  -2.268  1.00  0.00     0.060 A 
ATOM     43  C   UNL     1       9.911  12.452  -1.006  1.00  0.00     0.016 A 
ATOM     44  C   UNL     1       9.959  11.001  -2.954  1.00  0.00     0.016 A 
ATOM     45  C   UNL     1      10.970  11.739  -0.442  1.00  0.00     0.010 A 
ATOM     46  C   UNL     1      11.033  10.303  -2.397  1.00  0.00     0.010 A 
ATOM     47  C   UNL     1      11.565  10.689  -1.153  1.00  0.00    -0.014 A 
BRANCH  47  48
ATOM     48  C   UNL     1      12.861  10.126  -0.697  1.00  0.00     0.031 A 
ATOM     49  C   UNL     1      14.120  10.623  -1.355  1.00  0.00     0.074 A 
ATOM     50  C   UNL     1      12.924   9.209   0.285  1.00  0.00     0.049 A 
ATOM     51  N   UNL     1      15.356  10.236  -1.187  1.00  0.00    -0.248 NA
ATOM     52  C   UNL     1      13.954  11.701  -2.343  1.00  0.00     0.031 C 
ATOM     53  C   UNL     1      11.779   8.690   1.031  1.00  0.00     0.029 A 
ATOM     54  N   UNL     1      14.002   8.544   0.817  1.00  0.00    -0.354 N 
ATOM     55  C   UNL     1      16.116  11.014  -2.054  1.00  0.00     0.074 A 
ATOM     56  C   UNL     1      15.196  11.870  -2.770  1.00  0.00     0.031 C 
ATOM     57  C   UNL     1      12.215   7.777   1.916  1.00  0.00     0.029 A 
ATOM     58  C   UNL     1      13.661   7.612   1.769  1.00  0.00     0.049 A 
ATOM     59  H   UNL     1      14.931   8.719   0.542  1.00  0.00     0.167 HD
ATOM     60  C   UNL     1      17.460  11.017  -2.230  1.00  0.00     0.034 A 
ATOM     61  C   UNL     1      14.423   6.708   2.420  1.00  0.00     0.034 A 
ATOM     62  C   UNL     1      18.362  10.149  -1.515  1.00  0.00     0.049 A 
ATOM     63  C   UNL     1      15.909   6.667   2.141  1.00  0.00     0.074 A 
ATOM     64  C   UNL     1      19.741  10.081  -1.604  1.00  0.00     0.029 A 
ATOM     65  N   UNL     1      17.977   9.186  -0.590  1.00  0.00    -0.354 N 
ATOM     66  N   UNL     1      16.619   7.410   1.323  1.00  0.00    -0.248 NA
ATOM     67  C   UNL     1      16.696   5.668   2.877  1.00  0.00     0.031 C 
ATOM     68  C   UNL     1      20.180   9.022  -0.803  1.00  0.00     0.029 A 
ATOM     69  C   UNL     1      19.087   8.492  -0.135  1.00  0.00     0.049 A 
ATOM     70  H   UNL     1      17.050   9.020  -0.301  1.00  0.00     0.167 HD
ATOM     71  C   UNL     1      17.940   6.991   1.475  1.00  0.00     0.074 A 
ATOM     72  C   UNL     1      17.928   5.940   2.471  1.00  0.00     0.031 C 
ATOM     73  C   UNL     1      19.062   7.438   0.854  1.00  0.00     0.034 A 
BRANCH  60  74
ATOM     74  C   UNL     1      18.023  11.945  -3.279  1.00  0.00     0.023 A 
ATOM     75  C   UNL     1      17.918  13.343  -3.172  1.00  0.00     0.031 A 
ATOM     76  C   UNL     1      18.663  11.419  -4.416  1.00  0.00     0.131 A 
ATOM     77  C   UNL     1      18.385  14.162  -4.212  1.00  0.00     0.055 A 
ATOM     78  C   UNL     1      19.200  12.242  -5.407  1.00  0.00     0.041 A 
ATOM     79  F   UNL     1      18.768  10.092  -4.588  1.00  0.00    -0.206 F 
ATOM     80  C   UNL     1      19.051  13.622  -5.315  1.00  0.00     0.022 A 
BRANCH  77  81
ATOM     81  S   UNL     1      17.986  15.931  -4.170  1.00  0.00     0.124 S 
ATOM     82  O   UNL     1      16.526  15.903  -4.131  1.00  0.00    -0.237 OA
ATOM     83  O   UNL     1      18.650  16.376  -2.951  1.00  0.00    -0.237 OA
ATOM     84  O   UNL     1      18.558  16.440  -5.415  1.00  0.00    -0.744 OA
ENDBRANCH  77  81
ENDBRANCH  60  74
BRANCH  61  85
ATOM     85  C   UNL     1      13.802   5.730   3.362  1.00  0.00     0.023 A 
ATOM     86  C   UNL     1      14.149   5.701   4.722  1.00  0.00     0.031 A 
ATOM     87  C   UNL     1      12.891   4.764   2.896  1.00  0.00     0.131 A 
ATOM     88  C   UNL     1      13.626   4.700   5.557  1.00  0.00     0.055 A 
ATOM     89  C   UNL     1      12.327   3.808   3.743  1.00  0.00     0.041 A 
ATOM     90  F   UNL     1      12.530   4.738   1.603  1.00  0.00    -0.206 F 
ATOM     91  C   UNL     1      12.705   3.764   5.081  1.00  0.00     0.022 A 
BRANCH  88  92
ATOM     92  S   UNL     1      14.244   4.576   7.259  1.00  0.00     0.124 S 
ATOM     93  O   UNL     1      15.673   4.385   7.042  1.00  0.00    -0.237 OA
ATOM     94  O   UNL     1      13.845   5.862   7.820  1.00  0.00    -0.237 OA
ATOM     95  O   UNL     1      13.532   3.417   7.795  1.00  0.00    -0.744 OA
ENDBRANCH  88  92
ENDBRANCH  61  85
BRANCH  73  96
ATOM     96  C   UNL     1      20.381   6.830   1.274  1.00  0.00     0.023 A 
ATOM     97  C   UNL     1      20.683   5.476   1.048  1.00  0.00     0.031 A 
ATOM     98  C   UNL     1      21.351   7.624   1.913  1.00  0.00     0.131 A 
ATOM     99  C   UNL     1      21.899   4.944   1.508  1.00  0.00     0.055 A 
ATOM    100  C   UNL     1      22.587   7.106   2.304  1.00  0.00     0.041 A 
ATOM    101  F   UNL     1      21.118   8.923   2.160  1.00  0.00    -0.206 F 
ATOM    102  C   UNL     1      22.861   5.755   2.115  1.00  0.00     0.022 A 
BRANCH  99 103
ATOM    103  S   UNL     1      22.164   3.153   1.396  1.00  0.00     0.124 S 
ATOM    104  O   UNL     1      21.030   2.631   2.151  1.00  0.00    -0.237 OA
ATOM    105  O   UNL     1      22.133   2.921  -0.044  1.00  0.00    -0.237 OA
ATOM    106  O   UNL     1      23.470   2.960   2.026  1.00  0.00    -0.744 OA
ENDBRANCH  99 103
ENDBRANCH  73  96
ENDBRANCH  47  48
ENDBRANCH  40  42
ENDBRANCH  39  40
ENDBRANCH  38  39
ENDBRANCH  37  38
ENDBRANCH  36  37
ENDBRANCH  35  36
ENDBRANCH  34  35
ENDBRANCH   1  34
TORSDOF 27
