REMARK SMILES CCC(=O)Nc1ccc(NC(=O)[C@@H]2CC=CC[C@@H]2C(=O)OCCOCCOCCOCCOC(=O)c2ccc(-c3c4nc(c(-c5cc(S(=O)(=O)[O-])ccc5F)c5ccc([nH]5)c(-c5cc(S(=O)(=O)[O-])ccc5F)c5nc(c(-c6cc(S(=O)(=O)[O-])ccc6F)c6ccc3[nH]6)C=C5)C=C4)cc2)cc1
REMARK SMILES IDX 26 1 25 2 24 3 23 4 22 5 21 6 19 7 20 8 18 9 13 10 14 11
REMARK SMILES IDX 15 12 17 13 16 14 11 15 10 16 12 18 9 19 6 20 7 21 100 22
REMARK SMILES IDX 8 23 99 24 5 25 3 26 4 27 2 29 1 30 27 31 28 32 29 33 30 34
REMARK SMILES IDX 31 35 32 36 33 37 34 38 35 39 36 40 37 41 98 42 38 43 97 44
REMARK SMILES IDX 39 45 40 46 41 47 91 48 42 49 96 50 90 51 92 52 43 53 95 54
REMARK SMILES IDX 89 55 88 56 44 58 76 59 56 60 75 61 57 62 60 63 74 64 93 65
REMARK SMILES IDX 58 66 59 67 73 69 94 70 61 71 45 72 46 73 54 74 47 75 53 76
REMARK SMILES IDX 55 77 52 78 48 79 49 80 50 81 51 82 77 83 78 84 86 85 79 86
REMARK SMILES IDX 85 87 87 88 84 89 80 90 81 91 82 92 83 93 62 94 63 95 71 96
REMARK SMILES IDX 64 97 70 98 72 99 69 100 65 101 66 102 67 103 68 104
REMARK H PARENT 10 17 5 28 92 57 60 68
REMARK Flexibility Score: inf
ROOT
ATOM      1  C   UNL     1       7.426   0.180  -4.019  1.00  0.00     0.188 C 
ENDROOT
BRANCH   1   2
ATOM      2  C   UNL     1       6.050   0.723  -4.465  1.00  0.00     0.188 C 
BRANCH   2   3
ATOM      3  O   UNL     1       5.929   1.766  -5.426  1.00  0.00    -0.376 OA
BRANCH   3   4
ATOM      4  C   UNL     1       6.999   2.673  -5.630  1.00  0.00     0.202 C 
BRANCH   4   5
ATOM      5  C   UNL     1       7.498   3.520  -4.451  1.00  0.00     0.261 C 
BRANCH   5   6
ATOM      6  O   UNL     1       7.535   2.878  -3.169  1.00  0.00    -0.463 OA
BRANCH   6   7
ATOM      7  C   UNL     1       6.451   3.025  -2.374  1.00  0.00     0.310 C 
ATOM      8  O   UNL     1       5.386   3.525  -2.720  1.00  0.00    -0.252 OA
BRANCH   7   9
ATOM      9  C   UNL     1       6.676   2.494  -0.963  1.00  0.00     0.116 C 
ATOM     10  C   UNL     1       7.948   3.018  -0.301  1.00  0.00     0.097 C 
ATOM     11  C   UNL     1       9.234   2.365  -0.809  1.00  0.00     0.041 C 
ATOM     12  C   UNL     1       9.111   0.871  -0.717  1.00  0.00    -0.030 C 
ATOM     13  C   UNL     1       6.590   0.967  -0.737  1.00  0.00     0.043 C 
ATOM     14  C   UNL     1       7.923   0.248  -0.640  1.00  0.00    -0.030 C 
BRANCH  10  15
ATOM     15  C   UNL     1       8.024   4.528  -0.289  1.00  0.00     0.228 C 
ATOM     16  N   UNL     1       7.949   5.183   0.911  1.00  0.00    -0.326 N 
ATOM     17  H   UNL     1       7.779   6.150   0.841  1.00  0.00     0.169 HD
ATOM     18  O   UNL     1       8.032   5.192  -1.325  1.00  0.00    -0.274 OA
BRANCH  16  19
ATOM     19  C   UNL     1       8.075   4.705   2.225  1.00  0.00     0.041 A 
ATOM     20  C   UNL     1       8.033   3.731   4.860  1.00  0.00     0.041 A 
ATOM     21  C   UNL     1       8.768   3.066   3.888  1.00  0.00     0.028 A 
ATOM     22  C   UNL     1       7.451   4.954   4.540  1.00  0.00     0.028 A 
ATOM     23  C   UNL     1       8.806   3.569   2.587  1.00  0.00     0.028 A 
ATOM     24  C   UNL     1       7.451   5.434   3.229  1.00  0.00     0.028 A 
BRANCH  20  25
ATOM     25  N   UNL     1       8.007   3.193   6.150  1.00  0.00    -0.326 N 
ATOM     26  C   UNL     1       7.030   3.235   7.104  1.00  0.00     0.224 C 
ATOM     27  O   UNL     1       7.326   2.954   8.269  1.00  0.00    -0.275 OA
ATOM     28  H   UNL     1       8.822   2.707   6.412  1.00  0.00     0.169 HD
BRANCH  26  29
ATOM     29  C   UNL     1       5.576   3.441   6.707  1.00  0.00     0.097 C 
ATOM     30  C   UNL     1       5.087   4.874   6.676  1.00  0.00     0.014 C 
ENDBRANCH  26  29
ENDBRANCH  20  25
ENDBRANCH  16  19
ENDBRANCH  10  15
ENDBRANCH   7   9
ENDBRANCH   6   7
ENDBRANCH   5   6
ENDBRANCH   4   5
ENDBRANCH   3   4
ENDBRANCH   2   3
ENDBRANCH   1   2
BRANCH   1  31
ATOM     31  O   UNL     1       8.548   0.664  -4.730  1.00  0.00    -0.377 OA
BRANCH  31  32
ATOM     32  C   UNL     1       9.076  -0.226  -5.697  1.00  0.00     0.188 C 
BRANCH  32  33
ATOM     33  C   UNL     1       8.050  -0.788  -6.697  1.00  0.00     0.188 C 
BRANCH  33  34
ATOM     34  O   UNL     1       6.924  -1.386  -6.067  1.00  0.00    -0.376 OA
BRANCH  34  35
ATOM     35  C   UNL     1       6.839  -2.794  -5.946  1.00  0.00     0.202 C 
BRANCH  35  36
ATOM     36  C   UNL     1       7.812  -3.508  -4.991  1.00  0.00     0.261 C 
BRANCH  36  37
ATOM     37  O   UNL     1       9.204  -3.216  -5.155  1.00  0.00    -0.460 OA
BRANCH  37  38
ATOM     38  C   UNL     1       9.755  -3.536  -6.346  1.00  0.00     0.338 C 
ATOM     39  O   UNL     1       9.195  -4.095  -7.275  1.00  0.00    -0.246 OA
BRANCH  38  40
ATOM     40  C   UNL     1      11.082  -2.889  -6.424  1.00  0.00     0.060 A 
ATOM     41  C   UNL     1      11.328  -2.005  -7.482  1.00  0.00     0.016 A 
ATOM     42  C   UNL     1      12.064  -3.131  -5.460  1.00  0.00     0.016 A 
ATOM     43  C   UNL     1      12.572  -1.393  -7.606  1.00  0.00     0.010 A 
ATOM     44  C   UNL     1      13.326  -2.546  -5.605  1.00  0.00     0.010 A 
ATOM     45  C   UNL     1      13.594  -1.710  -6.705  1.00  0.00    -0.014 A 
BRANCH  45  46
ATOM     46  C   UNL     1      14.989  -1.384  -7.085  1.00  0.00     0.031 A 
ATOM     47  C   UNL     1      15.793  -2.455  -7.773  1.00  0.00     0.074 A 
ATOM     48  C   UNL     1      15.501  -0.156  -6.903  1.00  0.00     0.049 A 
ATOM     49  N   UNL     1      17.023  -2.425  -8.210  1.00  0.00    -0.248 NA
ATOM     50  C   UNL     1      15.106  -3.739  -7.994  1.00  0.00     0.031 C 
ATOM     51  C   UNL     1      14.793   0.974  -6.305  1.00  0.00     0.029 A 
ATOM     52  N   UNL     1      16.741   0.345  -7.208  1.00  0.00    -0.354 N 
ATOM     53  C   UNL     1      17.260  -3.683  -8.755  1.00  0.00     0.074 A 
ATOM     54  C   UNL     1      16.061  -4.465  -8.550  1.00  0.00     0.031 C 
ATOM     55  C   UNL     1      15.617   2.036  -6.275  1.00  0.00     0.029 A 
ATOM     56  C   UNL     1      16.920   1.651  -6.817  1.00  0.00     0.049 A 
ATOM     57  H   UNL     1      17.438  -0.180  -7.664  1.00  0.00     0.167 HD
ATOM     58  C   UNL     1      18.373  -4.139  -9.380  1.00  0.00     0.034 A 
ATOM     59  C   UNL     1      18.019   2.431  -6.865  1.00  0.00     0.034 A 
ATOM     60  C   UNL     1      19.565  -3.347  -9.557  1.00  0.00     0.049 A 
ATOM     61  C   UNL     1      19.283   1.873  -7.478  1.00  0.00     0.074 A 
ATOM     62  C   UNL     1      20.750  -3.700 -10.177  1.00  0.00     0.029 A 
ATOM     63  N   UNL     1      19.730  -2.046  -9.097  1.00  0.00    -0.354 N 
ATOM     64  N   UNL     1      19.497   0.684  -7.998  1.00  0.00    -0.248 NA
ATOM     65  C   UNL     1      20.448   2.765  -7.522  1.00  0.00     0.031 C 
ATOM     66  C   UNL     1      21.659  -2.650 -10.012  1.00  0.00     0.029 A 
ATOM     67  C   UNL     1      21.012  -1.599  -9.381  1.00  0.00     0.049 A 
ATOM     68  H   UNL     1      19.039  -1.518  -8.636  1.00  0.00     0.167 HD
ATOM     69  C   UNL     1      20.812   0.701  -8.459  1.00  0.00     0.074 A 
ATOM     70  C   UNL     1      21.332   2.022  -8.170  1.00  0.00     0.031 C 
ATOM     71  C   UNL     1      21.523  -0.282  -9.073  1.00  0.00     0.034 A 
BRANCH  58  72
ATOM     72  C   UNL     1      18.363  -5.576  -9.846  1.00  0.00     0.023 A 
ATOM     73  C   UNL     1      17.445  -6.043 -10.804  1.00  0.00     0.031 A 
ATOM     74  C   UNL     1      19.250  -6.508  -9.279  1.00  0.00     0.131 A 
ATOM     75  C   UNL     1      17.378  -7.413 -11.100  1.00  0.00     0.055 A 
ATOM     76  C   UNL     1      19.241  -7.854  -9.648  1.00  0.00     0.041 A 
ATOM     77  F   UNL     1      20.129  -6.131  -8.337  1.00  0.00    -0.206 F 
ATOM     78  C   UNL     1      18.289  -8.318 -10.550  1.00  0.00     0.022 A 
BRANCH  75  79
ATOM     79  S   UNL     1      15.973  -8.021 -12.074  1.00  0.00     0.124 S 
ATOM     80  O   UNL     1      14.840  -7.563 -11.274  1.00  0.00    -0.237 OA
ATOM     81  O   UNL     1      16.164  -7.352 -13.355  1.00  0.00    -0.237 OA
ATOM     82  O   UNL     1      16.169  -9.470 -12.091  1.00  0.00    -0.744 OA
ENDBRANCH  75  79
ENDBRANCH  58  72
BRANCH  59  83
ATOM     83  C   UNL     1      17.996   3.801  -6.272  1.00  0.00     0.023 A 
ATOM     84  C   UNL     1      18.216   4.946  -7.054  1.00  0.00     0.031 A 
ATOM     85  C   UNL     1      17.804   3.976  -4.889  1.00  0.00     0.131 A 
ATOM     86  C   UNL     1      18.281   6.209  -6.442  1.00  0.00     0.055 A 
ATOM     87  C   UNL     1      17.810   5.239  -4.295  1.00  0.00     0.041 A 
ATOM     88  F   UNL     1      17.598   2.915  -4.092  1.00  0.00    -0.206 F 
ATOM     89  C   UNL     1      18.063   6.364  -5.071  1.00  0.00     0.022 A 
BRANCH  86  90
ATOM     90  S   UNL     1      18.748   7.642  -7.451  1.00  0.00     0.124 S 
ATOM     91  O   UNL     1      20.055   7.236  -7.955  1.00  0.00    -0.237 OA
ATOM     92  O   UNL     1      17.668   7.689  -8.431  1.00  0.00    -0.237 OA
ATOM     93  O   UNL     1      18.764   8.744  -6.490  1.00  0.00    -0.744 OA
ENDBRANCH  86  90
ENDBRANCH  59  83
BRANCH  71  94
ATOM     94  C   UNL     1      22.929   0.057  -9.517  1.00  0.00     0.023 A 
ATOM     95  C   UNL     1      23.944   0.376  -8.599  1.00  0.00     0.031 A 
ATOM     96  C   UNL     1      23.252   0.070 -10.887  1.00  0.00     0.131 A 
ATOM     97  C   UNL     1      25.211   0.762  -9.064  1.00  0.00     0.055 A 
ATOM     98  C   UNL     1      24.535   0.381 -11.339  1.00  0.00     0.041 A 
ATOM     99  F   UNL     1      22.323  -0.222 -11.812  1.00  0.00    -0.206 F 
ATOM    100  C   UNL     1      25.519   0.746 -10.426  1.00  0.00     0.022 A 
BRANCH  97 101
ATOM    101  S   UNL     1      26.418   1.404  -7.870  1.00  0.00     0.124 S 
ATOM    102  O   UNL     1      25.685   2.512  -7.267  1.00  0.00    -0.237 OA
ATOM    103  O   UNL     1      26.650   0.249  -7.010  1.00  0.00    -0.237 OA
ATOM    104  O   UNL     1      27.552   1.793  -8.706  1.00  0.00    -0.744 OA
ENDBRANCH  97 101
ENDBRANCH  71  94
ENDBRANCH  45  46
ENDBRANCH  38  40
ENDBRANCH  37  38
ENDBRANCH  36  37
ENDBRANCH  35  36
ENDBRANCH  34  35
ENDBRANCH  33  34
ENDBRANCH  32  33
ENDBRANCH  31  32
ENDBRANCH   1  31
TORSDOF 27
