REMARK SMILES NS(=O)(=O)c1ccc(N2N=C(C(=O)OCCOCCOCCOCCOC(=O)c3ccc(-c4c5nc(c(-c6cc(S(=O)(=O)[O-])ccc6F)c6ccc([nH]6)c(-c6cc(S(=O)(=O)[O-])ccc6F)c6nc(c(-c7cc(S(=O)(=O)[O-])ccc7F)c7ccc4[nH]7)C=C6)C=C5)cc3)C[C@H]2c2ccco2)cc1
REMARK SMILES IDX 20 1 19 2 18 3 17 4 16 5 15 6 14 7 12 8 13 9 11 10 9 11
REMARK SMILES IDX 10 12 93 13 92 14 8 15 5 16 6 17 100 18 7 19 99 20 2 21 3 22
REMARK SMILES IDX 4 23 1 24 94 27 95 28 98 29 96 30 97 31 21 32 22 33 23 34
REMARK SMILES IDX 24 35 25 36 26 37 27 38 28 39 29 40 30 41 91 42 31 43 90 44
REMARK SMILES IDX 32 45 33 46 34 47 84 48 35 49 89 50 83 51 85 52 36 53 88 54
REMARK SMILES IDX 82 55 81 56 37 58 69 59 49 60 68 61 50 62 53 63 67 64 86 65
REMARK SMILES IDX 51 66 52 67 66 69 87 70 54 71 38 72 39 73 47 74 40 75 46 76
REMARK SMILES IDX 48 77 45 78 41 79 42 80 43 81 44 82 70 83 71 84 79 85 72 86
REMARK SMILES IDX 78 87 80 88 77 89 73 90 74 91 75 92 76 93 55 94 56 95 64 96
REMARK SMILES IDX 57 97 63 98 65 99 62 100 58 101 59 102 60 103 61 104
REMARK H PARENT 1 25 1 26 85 57 53 68
REMARK Flexibility Score: inf
ROOT
ATOM      1  O   UNL     1       3.012   4.224   9.916  1.00  0.00    -0.377 OA
ENDROOT
BRANCH   1   2
ATOM      2  C   UNL     1       3.153   3.445   8.741  1.00  0.00     0.188 C 
BRANCH   2   3
ATOM      3  C   UNL     1       4.582   3.444   8.172  1.00  0.00     0.188 C 
BRANCH   3   4
ATOM      4  O   UNL     1       5.654   3.818   9.017  1.00  0.00    -0.376 OA
BRANCH   4   5
ATOM      5  C   UNL     1       5.783   5.112   9.589  1.00  0.00     0.202 C 
BRANCH   5   6
ATOM      6  C   UNL     1       4.995   6.378   9.193  1.00  0.00     0.261 C 
BRANCH   6   7
ATOM      7  O   UNL     1       3.883   6.200   8.325  1.00  0.00    -0.459 OA
BRANCH   7   8
ATOM      8  C   UNL     1       4.075   6.474   7.026  1.00  0.00     0.354 C 
ATOM      9  O   UNL     1       5.053   6.950   6.486  1.00  0.00    -0.245 OA
BRANCH   8  10
ATOM     10  C   UNL     1       2.888   5.925   6.282  1.00  0.00     0.148 C 
ATOM     11  N   UNL     1       1.721   4.838   4.895  1.00  0.00    -0.254 N 
ATOM     12  N   UNL     1       3.001   5.082   5.297  1.00  0.00    -0.169 NA
ATOM     13  C   UNL     1       0.767   5.816   5.455  1.00  0.00     0.180 C 
ATOM     14  C   UNL     1       1.493   6.216   6.746  1.00  0.00     0.101 C 
BRANCH  11  15
ATOM     15  C   UNL     1       1.507   4.079   3.755  1.00  0.00     0.060 A 
ATOM     16  C   UNL     1       0.971   2.518   1.475  1.00  0.00     0.082 A 
ATOM     17  C   UNL     1       1.158   1.896   2.710  1.00  0.00     0.024 A 
ATOM     18  C   UNL     1       1.108   3.901   1.357  1.00  0.00     0.024 A 
ATOM     19  C   UNL     1       1.429   2.680   3.841  1.00  0.00     0.029 A 
ATOM     20  C   UNL     1       1.387   4.666   2.491  1.00  0.00     0.029 A 
BRANCH  16  21
ATOM     21  S   UNL     1       0.578   1.586   0.028  1.00  0.00     0.238 S 
ATOM     22  O   UNL     1       1.254   2.182  -1.110  1.00  0.00    -0.207 OA
ATOM     23  O   UNL     1      -0.832   1.310   0.029  1.00  0.00    -0.207 OA
BRANCH  21  24
ATOM     24  N   UNL     1       1.345   0.109   0.253  1.00  0.00    -0.225 NA
ATOM     25  H   UNL     1       1.164  -0.493  -0.550  1.00  0.00     0.137 HD
ATOM     26  H   UNL     1       0.988  -0.335   1.098  1.00  0.00     0.137 HD
ENDBRANCH  21  24
ENDBRANCH  16  21
ENDBRANCH  11  15
BRANCH  13  27
ATOM     27  C   UNL     1       0.465   7.031   4.622  1.00  0.00     0.128 A 
ATOM     28  C   UNL     1      -0.421   7.278   3.591  1.00  0.00     0.048 A 
ATOM     29  O   UNL     1       1.182   8.166   4.886  1.00  0.00    -0.467 OA
ATOM     30  C   UNL     1      -0.214   8.623   3.196  1.00  0.00     0.042 A 
ATOM     31  C   UNL     1       0.756   9.124   4.030  1.00  0.00     0.195 A 
ENDBRANCH  13  27
ENDBRANCH   8  10
ENDBRANCH   7   8
ENDBRANCH   6   7
ENDBRANCH   5   6
ENDBRANCH   4   5
ENDBRANCH   3   4
ENDBRANCH   2   3
ENDBRANCH   1   2
BRANCH   1  32
ATOM     32  C   UNL     1       3.155   3.545  11.163  1.00  0.00     0.188 C 
BRANCH  32  33
ATOM     33  C   UNL     1       4.138   2.360  11.277  1.00  0.00     0.188 C 
BRANCH  33  34
ATOM     34  O   UNL     1       4.002   1.386  10.246  1.00  0.00    -0.376 OA
BRANCH  34  35
ATOM     35  C   UNL     1       3.319   0.179  10.556  1.00  0.00     0.202 C 
BRANCH  35  36
ATOM     36  C   UNL     1       1.800   0.303  10.750  1.00  0.00     0.261 C 
BRANCH  36  37
ATOM     37  O   UNL     1       1.384   1.131  11.847  1.00  0.00    -0.460 OA
BRANCH  37  38
ATOM     38  C   UNL     1       1.807   0.757  13.075  1.00  0.00     0.338 C 
ATOM     39  O   UNL     1       2.445  -0.242  13.352  1.00  0.00    -0.246 OA
BRANCH  38  40
ATOM     40  C   UNL     1       1.546   1.866  14.014  1.00  0.00     0.060 A 
ATOM     41  C   UNL     1       2.619   2.373  14.754  1.00  0.00     0.016 A 
ATOM     42  C   UNL     1       0.257   2.379  14.186  1.00  0.00     0.016 A 
ATOM     43  C   UNL     1       2.394   3.353  15.719  1.00  0.00     0.010 A 
ATOM     44  C   UNL     1       0.032   3.356  15.161  1.00  0.00     0.010 A 
ATOM     45  C   UNL     1       1.093   3.811  15.964  1.00  0.00    -0.014 A 
BRANCH  45  46
ATOM     46  C   UNL     1       0.838   4.606  17.192  1.00  0.00     0.031 A 
ATOM     47  C   UNL     1       0.287   3.903  18.404  1.00  0.00     0.074 A 
ATOM     48  C   UNL     1       1.156   5.911  17.253  1.00  0.00     0.049 A 
ATOM     49  N   UNL     1       0.046   4.370  19.601  1.00  0.00    -0.248 NA
ATOM     50  C   UNL     1      -0.039   2.479  18.236  1.00  0.00     0.031 C 
ATOM     51  C   UNL     1       1.713   6.693  16.150  1.00  0.00     0.029 A 
ATOM     52  N   UNL     1       1.060   6.806  18.288  1.00  0.00    -0.354 N 
ATOM     53  C   UNL     1      -0.460   3.299  20.331  1.00  0.00     0.074 A 
ATOM     54  C   UNL     1      -0.540   2.175  19.422  1.00  0.00     0.031 C 
ATOM     55  C   UNL     1       1.905   7.956  16.569  1.00  0.00     0.029 A 
ATOM     56  C   UNL     1       1.461   8.078  17.957  1.00  0.00     0.049 A 
ATOM     57  H   UNL     1       0.734   6.560  19.184  1.00  0.00     0.167 HD
ATOM     58  C   UNL     1      -0.811   3.252  21.641  1.00  0.00     0.034 A 
ATOM     59  C   UNL     1       1.455   9.213  18.684  1.00  0.00     0.034 A 
ATOM     60  C   UNL     1      -0.743   4.390  22.526  1.00  0.00     0.049 A 
ATOM     61  C   UNL     1       1.009   9.158  20.125  1.00  0.00     0.074 A 
ATOM     62  C   UNL     1      -1.047   4.454  23.875  1.00  0.00     0.029 A 
ATOM     63  N   UNL     1      -0.363   5.674  22.148  1.00  0.00    -0.354 N 
ATOM     64  N   UNL     1       0.572   8.130  20.818  1.00  0.00    -0.248 NA
ATOM     65  C   UNL     1       1.079  10.410  20.887  1.00  0.00     0.031 C 
ATOM     66  C   UNL     1      -0.938   5.787  24.288  1.00  0.00     0.029 A 
ATOM     67  C   UNL     1      -0.468   6.542  23.225  1.00  0.00     0.049 A 
ATOM     68  H   UNL     1      -0.064   5.929  21.245  1.00  0.00     0.167 HD
ATOM     69  C   UNL     1       0.341   8.608  22.106  1.00  0.00     0.074 A 
ATOM     70  C   UNL     1       0.707  10.011  22.094  1.00  0.00     0.031 C 
ATOM     71  C   UNL     1      -0.124   7.948  23.200  1.00  0.00     0.034 A 
BRANCH  58  72
ATOM     72  C   UNL     1      -1.361   1.942  22.161  1.00  0.00     0.023 A 
ATOM     73  C   UNL     1      -0.604   0.756  22.143  1.00  0.00     0.031 A 
ATOM     74  C   UNL     1      -2.686   1.864  22.625  1.00  0.00     0.131 A 
ATOM     75  C   UNL     1      -1.205  -0.466  22.484  1.00  0.00     0.055 A 
ATOM     76  C   UNL     1      -3.249   0.660  23.055  1.00  0.00     0.041 A 
ATOM     77  F   UNL     1      -3.470   2.954  22.643  1.00  0.00    -0.206 F 
ATOM     78  C   UNL     1      -2.514  -0.518  22.966  1.00  0.00     0.022 A 
BRANCH  75  79
ATOM     79  S   UNL     1      -0.317  -2.004  22.109  1.00  0.00     0.124 S 
ATOM     80  O   UNL     1      -0.059  -1.854  20.678  1.00  0.00    -0.237 OA
ATOM     81  O   UNL     1       0.849  -1.915  22.981  1.00  0.00    -0.237 OA
ATOM     82  O   UNL     1      -1.279  -3.048  22.454  1.00  0.00    -0.744 OA
ENDBRANCH  75  79
ENDBRANCH  58  72
BRANCH  59  83
ATOM     83  C   UNL     1       1.849  10.505  18.050  1.00  0.00     0.023 A 
ATOM     84  C   UNL     1       2.984  11.220  18.465  1.00  0.00     0.031 A 
ATOM     85  C   UNL     1       1.065  11.054  17.019  1.00  0.00     0.131 A 
ATOM     86  C   UNL     1       3.284  12.457  17.872  1.00  0.00     0.055 A 
ATOM     87  C   UNL     1       1.396  12.259  16.399  1.00  0.00     0.041 A 
ATOM     88  F   UNL     1      -0.032  10.412  16.585  1.00  0.00    -0.206 F 
ATOM     89  C   UNL     1       2.507  12.973  16.832  1.00  0.00     0.022 A 
BRANCH  86  90
ATOM     90  S   UNL     1       4.678  13.422  18.521  1.00  0.00     0.124 S 
ATOM     91  O   UNL     1       4.278  13.625  19.909  1.00  0.00    -0.237 OA
ATOM     92  O   UNL     1       5.801  12.516  18.302  1.00  0.00    -0.237 OA
ATOM     93  O   UNL     1       4.678  14.623  17.688  1.00  0.00    -0.744 OA
ENDBRANCH  86  90
ENDBRANCH  59  83
BRANCH  71  94
ATOM     94  C   UNL     1      -0.220   8.733  24.490  1.00  0.00     0.023 A 
ATOM     95  C   UNL     1      -1.080   9.838  24.628  1.00  0.00     0.031 A 
ATOM     96  C   UNL     1       0.586   8.388  25.591  1.00  0.00     0.131 A 
ATOM     97  C   UNL     1      -1.057  10.601  25.806  1.00  0.00     0.055 A 
ATOM     98  C   UNL     1       0.548   9.105  26.788  1.00  0.00     0.041 A 
ATOM     99  F   UNL     1       1.431   7.347  25.520  1.00  0.00    -0.206 F 
ATOM    100  C   UNL     1      -0.263  10.230  26.894  1.00  0.00     0.022 A 
BRANCH  97 101
ATOM    101  S   UNL     1      -1.976  12.165  25.848  1.00  0.00     0.124 S 
ATOM    102  O   UNL     1      -1.434  12.865  24.689  1.00  0.00    -0.237 OA
ATOM    103  O   UNL     1      -3.360  11.716  25.733  1.00  0.00    -0.237 OA
ATOM    104  O   UNL     1      -1.616  12.739  27.143  1.00  0.00    -0.744 OA
ENDBRANCH  97 101
ENDBRANCH  71  94
ENDBRANCH  45  46
ENDBRANCH  38  40
ENDBRANCH  37  38
ENDBRANCH  36  37
ENDBRANCH  35  36
ENDBRANCH  34  35
ENDBRANCH  33  34
ENDBRANCH  32  33
ENDBRANCH   1  32
TORSDOF 27
