REMARK SMILES O=C(OCCOCCOCCOCCOC(=O)c1cccc(CS(=O)(=O)Nc2ncccn2)c1)c1ccc(-c2c3nc(c(-c4cc(S(=O)(=O)[O-])ccc4F)c4ccc([nH]4)c(-c4cc(S(=O)(=O)[O-])ccc4F)c4nc(c(-c5cc(S(=O)(=O)[O-])ccc5F)c5ccc2[nH]5)C=C4)C=C3)cc1
REMARK SMILES IDX 10 1 9 2 8 3 7 4 6 5 5 6 4 7 3 8 2 9 1 10 35 11 36 12 97 13
REMARK SMILES IDX 37 14 96 15 38 16 39 17 40 18 90 19 41 20 95 21 89 22 91 23
REMARK SMILES IDX 42 24 94 25 88 26 87 27 43 29 75 30 55 31 74 32 56 33 59 34
REMARK SMILES IDX 73 35 92 36 57 37 58 38 72 40 93 41 60 42 44 43 45 44 53 45
REMARK SMILES IDX 46 46 52 47 54 48 51 49 47 50 48 51 49 52 50 53 76 54 77 55
REMARK SMILES IDX 85 56 78 57 84 58 86 59 83 60 79 61 80 62 81 63 82 64 61 65
REMARK SMILES IDX 62 66 70 67 63 68 69 69 71 70 68 71 64 72 65 73 66 74 67 75
REMARK SMILES IDX 11 76 12 77 13 78 14 79 15 80 16 81 17 82 18 83 19 84 34 85
REMARK SMILES IDX 20 86 22 87 21 88 23 89 24 90 25 91 26 92 27 93 28 95 29 96
REMARK SMILES IDX 33 97 30 98 32 99 31 100
REMARK H PARENT 91 28 59 39 27 94
REMARK Flexibility Score: inf
ROOT
ATOM      1  C   UNL     1       3.975   3.324   1.277  1.00  0.00     0.188 C 
ENDROOT
BRANCH   1   2
ATOM      2  O   UNL     1       2.559   3.490   1.323  1.00  0.00    -0.377 OA
BRANCH   2   3
ATOM      3  C   UNL     1       1.796   2.293   1.178  1.00  0.00     0.188 C 
BRANCH   3   4
ATOM      4  C   UNL     1       2.277   1.338   0.080  1.00  0.00     0.188 C 
BRANCH   4   5
ATOM      5  O   UNL     1       3.601   0.912   0.345  1.00  0.00    -0.376 OA
BRANCH   5   6
ATOM      6  C   UNL     1       4.530   0.612  -0.682  1.00  0.00     0.202 C 
BRANCH   6   7
ATOM      7  C   UNL     1       4.074  -0.345  -1.772  1.00  0.00     0.261 C 
BRANCH   7   8
ATOM      8  O   UNL     1       2.710  -0.800  -1.672  1.00  0.00    -0.460 OA
BRANCH   8   9
ATOM      9  C   UNL     1       2.144  -1.725  -0.858  1.00  0.00     0.338 C 
ATOM     10  O   UNL     1       0.946  -1.974  -0.979  1.00  0.00    -0.246 OA
BRANCH   9  11
ATOM     11  C   UNL     1       2.914  -2.477   0.162  1.00  0.00     0.060 A 
ATOM     12  C   UNL     1       3.872  -1.900   0.979  1.00  0.00     0.016 A 
ATOM     13  C   UNL     1       2.589  -3.816   0.395  1.00  0.00     0.016 A 
ATOM     14  C   UNL     1       4.696  -2.647   1.781  1.00  0.00     0.010 A 
ATOM     15  C   UNL     1       3.302  -4.557   1.344  1.00  0.00     0.010 A 
ATOM     16  C   UNL     1       4.406  -3.982   1.989  1.00  0.00    -0.014 A 
BRANCH  16  17
ATOM     17  C   UNL     1       5.395  -4.747   2.763  1.00  0.00     0.031 A 
ATOM     18  C   UNL     1       6.197  -5.771   2.023  1.00  0.00     0.074 A 
ATOM     19  C   UNL     1       5.702  -4.362   4.018  1.00  0.00     0.049 A 
ATOM     20  N   UNL     1       7.068  -6.624   2.479  1.00  0.00    -0.248 NA
ATOM     21  C   UNL     1       5.996  -5.835   0.564  1.00  0.00     0.031 C 
ATOM     22  C   UNL     1       5.090  -3.231   4.734  1.00  0.00     0.029 A 
ATOM     23  N   UNL     1       6.640  -4.829   4.896  1.00  0.00    -0.354 N 
ATOM     24  C   UNL     1       7.488  -7.351   1.372  1.00  0.00     0.074 A 
ATOM     25  C   UNL     1       6.765  -6.855   0.226  1.00  0.00     0.031 C 
ATOM     26  C   UNL     1       5.699  -3.074   5.918  1.00  0.00     0.029 A 
ATOM     27  C   UNL     1       6.647  -4.162   6.100  1.00  0.00     0.049 A 
ATOM     28  H   UNL     1       7.252  -5.572   4.687  1.00  0.00     0.167 HD
ATOM     29  C   UNL     1       8.402  -8.346   1.336  1.00  0.00     0.034 A 
ATOM     30  C   UNL     1       7.300  -4.453   7.240  1.00  0.00     0.034 A 
ATOM     31  C   UNL     1       9.092  -8.794   2.516  1.00  0.00     0.049 A 
ATOM     32  C   UNL     1       8.195  -5.667   7.211  1.00  0.00     0.074 A 
ATOM     33  C   UNL     1       9.952  -9.862   2.667  1.00  0.00     0.029 A 
ATOM     34  N   UNL     1       8.995  -8.175   3.759  1.00  0.00    -0.354 N 
ATOM     35  N   UNL     1       8.490  -6.450   6.194  1.00  0.00    -0.248 NA
ATOM     36  C   UNL     1       8.835  -6.046   8.472  1.00  0.00     0.031 C 
ATOM     37  C   UNL     1      10.322  -9.928   4.014  1.00  0.00     0.029 A 
ATOM     38  C   UNL     1       9.764  -8.850   4.688  1.00  0.00     0.049 A 
ATOM     39  H   UNL     1       8.457  -7.373   3.949  1.00  0.00     0.167 HD
ATOM     40  C   UNL     1       9.366  -7.406   6.692  1.00  0.00     0.074 A 
ATOM     41  C   UNL     1       9.580  -7.071   8.088  1.00  0.00     0.031 C 
ATOM     42  C   UNL     1       9.937  -8.471   6.071  1.00  0.00     0.034 A 
BRANCH  29  43
ATOM     43  C   UNL     1       8.596  -9.048   0.018  1.00  0.00     0.023 A 
ATOM     44  C   UNL     1       9.128  -8.391  -1.105  1.00  0.00     0.031 A 
ATOM     45  C   UNL     1       8.146 -10.370  -0.142  1.00  0.00     0.131 A 
ATOM     46  C   UNL     1       9.131  -9.034  -2.353  1.00  0.00     0.055 A 
ATOM     47  C   UNL     1       8.227 -11.032  -1.368  1.00  0.00     0.041 A 
ATOM     48  F   UNL     1       7.588 -11.031   0.885  1.00  0.00    -0.206 F 
ATOM     49  C   UNL     1       8.710 -10.359  -2.487  1.00  0.00     0.022 A 
BRANCH  46  50
ATOM     50  S   UNL     1       9.551  -8.065  -3.829  1.00  0.00     0.124 S 
ATOM     51  O   UNL     1       8.488  -7.063  -3.835  1.00  0.00    -0.237 OA
ATOM     52  O   UNL     1      10.888  -7.574  -3.517  1.00  0.00    -0.237 OA
ATOM     53  O   UNL     1       9.483  -9.043  -4.913  1.00  0.00    -0.744 OA
ENDBRANCH  46  50
ENDBRANCH  29  43
BRANCH  30  54
ATOM     54  C   UNL     1       7.049  -3.690   8.502  1.00  0.00     0.023 A 
ATOM     55  C   UNL     1       8.098  -3.114   9.233  1.00  0.00     0.031 A 
ATOM     56  C   UNL     1       5.753  -3.608   9.051  1.00  0.00     0.131 A 
ATOM     57  C   UNL     1       7.848  -2.549  10.496  1.00  0.00     0.055 A 
ATOM     58  C   UNL     1       5.498  -2.979  10.271  1.00  0.00     0.041 A 
ATOM     59  F   UNL     1       4.703  -4.148   8.411  1.00  0.00    -0.206 F 
ATOM     60  C   UNL     1       6.553  -2.465  11.013  1.00  0.00     0.022 A 
BRANCH  57  61
ATOM     61  S   UNL     1       9.261  -2.054  11.522  1.00  0.00     0.124 S 
ATOM     62  O   UNL     1      10.052  -3.279  11.546  1.00  0.00    -0.237 OA
ATOM     63  O   UNL     1       9.816  -0.946  10.753  1.00  0.00    -0.237 OA
ATOM     64  O   UNL     1       8.643  -1.682  12.793  1.00  0.00    -0.744 OA
ENDBRANCH  57  61
ENDBRANCH  30  54
BRANCH  42  65
ATOM     65  C   UNL     1      10.872  -9.303   6.907  1.00  0.00     0.023 A 
ATOM     66  C   UNL     1      10.411 -10.032   8.014  1.00  0.00     0.031 A 
ATOM     67  C   UNL     1      12.244  -9.341   6.604  1.00  0.00     0.131 A 
ATOM     68  C   UNL     1      11.329 -10.702   8.832  1.00  0.00     0.055 A 
ATOM     69  C   UNL     1      13.140 -10.081   7.372  1.00  0.00     0.041 A 
ATOM     70  F   UNL     1      12.733  -8.659   5.556  1.00  0.00    -0.206 F 
ATOM     71  C   UNL     1      12.687 -10.751   8.505  1.00  0.00     0.022 A 
BRANCH  68  72
ATOM     72  S   UNL     1      10.739 -11.392  10.400  1.00  0.00     0.124 S 
ATOM     73  O   UNL     1      10.173 -10.215  11.052  1.00  0.00    -0.237 OA
ATOM     74  O   UNL     1       9.779 -12.398   9.957  1.00  0.00    -0.237 OA
ATOM     75  O   UNL     1      11.953 -11.921  11.017  1.00  0.00    -0.744 OA
ENDBRANCH  68  72
ENDBRANCH  42  65
ENDBRANCH  16  17
ENDBRANCH   9  11
ENDBRANCH   8   9
ENDBRANCH   7   8
ENDBRANCH   6   7
ENDBRANCH   5   6
ENDBRANCH   4   5
ENDBRANCH   3   4
ENDBRANCH   2   3
ENDBRANCH   1   2
BRANCH   1  76
ATOM     76  C   UNL     1       4.662   2.413   2.335  1.00  0.00     0.188 C 
BRANCH  76  77
ATOM     77  O   UNL     1       3.772   1.556   3.038  1.00  0.00    -0.376 OA
BRANCH  77  78
ATOM     78  C   UNL     1       3.550   1.848   4.412  1.00  0.00     0.202 C 
BRANCH  78  79
ATOM     79  C   UNL     1       2.802   3.152   4.753  1.00  0.00     0.261 C 
BRANCH  79  80
ATOM     80  O   UNL     1       3.221   4.343   4.065  1.00  0.00    -0.460 OA
BRANCH  80  81
ATOM     81  C   UNL     1       4.477   4.766   4.298  1.00  0.00     0.338 C 
ATOM     82  O   UNL     1       5.276   4.277   5.089  1.00  0.00    -0.246 OA
BRANCH  81  83
ATOM     83  C   UNL     1       4.830   5.803   3.305  1.00  0.00     0.060 A 
ATOM     84  C   UNL     1       5.980   5.646   2.515  1.00  0.00     0.016 A 
ATOM     85  C   UNL     1       4.046   6.947   3.181  1.00  0.00     0.020 A 
ATOM     86  C   UNL     1       6.262   6.563   1.507  1.00  0.00     0.001 A 
ATOM     87  C   UNL     1       4.469   7.971   2.326  1.00  0.00    -0.030 A 
ATOM     88  C   UNL     1       5.500   7.721   1.406  1.00  0.00     0.005 A 
BRANCH  87  89
ATOM     89  C   UNL     1       3.891   9.345   2.494  1.00  0.00     0.195 C 
BRANCH  89  90
ATOM     90  S   UNL     1       5.157  10.529   3.064  1.00  0.00     0.239 S 
ATOM     91  O   UNL     1       6.305  10.464   2.177  1.00  0.00    -0.206 OA
ATOM     92  O   UNL     1       4.491  11.813   3.196  1.00  0.00    -0.206 OA
BRANCH  90  93
ATOM     93  N   UNL     1       5.760  10.178   4.564  1.00  0.00    -0.251 N 
ATOM     94  H   UNL     1       6.245  10.875   5.064  1.00  0.00     0.183 HD
BRANCH  93  95
ATOM     95  C   UNL     1       5.598   8.918   5.134  1.00  0.00     0.236 A 
ATOM     96  N   UNL     1       4.570   8.753   5.971  1.00  0.00    -0.221 NA
ATOM     97  N   UNL     1       6.641   8.103   4.969  1.00  0.00    -0.221 NA
ATOM     98  C   UNL     1       4.646   7.654   6.755  1.00  0.00     0.117 A 
ATOM     99  C   UNL     1       6.634   6.994   5.737  1.00  0.00     0.117 A 
ATOM    100  C   UNL     1       5.667   6.734   6.681  1.00  0.00     0.040 A 
ENDBRANCH  93  95
ENDBRANCH  90  93
ENDBRANCH  89  90
ENDBRANCH  87  89
ENDBRANCH  81  83
ENDBRANCH  80  81
ENDBRANCH  79  80
ENDBRANCH  78  79
ENDBRANCH  77  78
ENDBRANCH  76  77
ENDBRANCH   1  76
TORSDOF 27
