REMARK SMILES CCCCCCNC(=O)Oc1cccc(-c2ccc([C@@H](C)C(=O)OCCOCCOCCOCCOC(=O)c3ccc(-c4c5nc(c(-c6cc(S(=O)(=O)[O-])ccc6F)c6ccc([nH]6)c(-c6cc(S(=O)(=O)[O-])ccc6F)c6nc(c(-c7cc(S(=O)(=O)[O-])ccc7F)c7ccc4[nH]7)C=C6)C=C5)cc3)cc2C(F)(F)F)c1
REMARK SMILES IDX 27 1 26 2 25 3 24 4 22 5 23 6 20 7 21 8 19 9 16 10 17 11
REMARK SMILES IDX 103 12 18 13 102 14 15 15 11 16 12 17 108 18 13 19 14 20
REMARK SMILES IDX 10 21 8 22 7 23 9 25 6 26 5 27 4 28 3 29 2 30 1 31 104 32
REMARK SMILES IDX 105 33 106 34 107 35 28 36 29 37 30 38 31 39 32 40 33 41
REMARK SMILES IDX 34 42 35 43 36 44 37 45 38 46 39 47 40 48 101 49 41 50
REMARK SMILES IDX 100 51 42 52 43 53 44 54 94 55 45 56 99 57 93 58 95 59 46 60
REMARK SMILES IDX 98 61 92 62 91 63 47 65 79 66 59 67 78 68 60 69 63 70 77 71
REMARK SMILES IDX 96 72 61 73 62 74 76 76 97 77 64 78 48 79 49 80 57 81 50 82
REMARK SMILES IDX 56 83 58 84 55 85 51 86 52 87 53 88 54 89 80 90 81 91 89 92
REMARK SMILES IDX 82 93 88 94 90 95 87 96 83 97 84 98 85 99 86 100 65 101
REMARK SMILES IDX 66 102 74 103 67 104 73 105 75 106 72 107 68 108 69 109
REMARK SMILES IDX 70 110 71 111
REMARK H PARENT 7 24 95 64 63 75
REMARK Flexibility Score: inf
ROOT
ATOM      1  O   UNL     1      -1.135 -13.256   7.560  1.00  0.00    -0.376 OA
ENDROOT
BRANCH   1   2
ATOM      2  C   UNL     1      -1.656 -14.407   6.909  1.00  0.00     0.202 C 
BRANCH   2   3
ATOM      3  C   UNL     1      -3.162 -14.725   6.954  1.00  0.00     0.261 C 
BRANCH   3   4
ATOM      4  O   UNL     1      -4.065 -13.670   6.559  1.00  0.00    -0.463 OA
BRANCH   4   5
ATOM      5  C   UNL     1      -4.734 -13.049   7.555  1.00  0.00     0.313 C 
ATOM      6  O   UNL     1      -4.620 -13.353   8.742  1.00  0.00    -0.252 OA
BRANCH   5   7
ATOM      7  C   UNL     1      -5.693 -11.939   7.130  1.00  0.00     0.126 C 
ATOM      8  C   UNL     1      -7.123 -12.439   7.305  1.00  0.00     0.025 C 
BRANCH   7   9
ATOM      9  C   UNL     1      -5.524 -11.193   5.806  1.00  0.00    -0.033 A 
ATOM     10  C   UNL     1      -5.221  -9.639   3.396  1.00  0.00    -0.006 A 
ATOM     11  C   UNL     1      -5.409 -11.040   3.378  1.00  0.00     0.009 A 
ATOM     12  C   UNL     1      -5.166  -9.011   4.658  1.00  0.00     0.064 A 
ATOM     13  C   UNL     1      -5.562 -11.803   4.553  1.00  0.00     0.005 A 
ATOM     14  C   UNL     1      -5.325  -9.796   5.831  1.00  0.00     0.018 A 
BRANCH  10  15
ATOM     15  C   UNL     1      -5.198  -8.894   2.114  1.00  0.00    -0.014 A 
ATOM     16  C   UNL     1      -4.237  -7.274   0.574  1.00  0.00     0.133 A 
ATOM     17  C   UNL     1      -5.370  -7.325  -0.236  1.00  0.00     0.047 A 
ATOM     18  C   UNL     1      -4.131  -8.061   1.728  1.00  0.00     0.056 A 
ATOM     19  C   UNL     1      -6.411  -8.181   0.103  1.00  0.00     0.004 A 
ATOM     20  C   UNL     1      -6.327  -8.948   1.269  1.00  0.00     0.009 A 
BRANCH  16  21
ATOM     21  O   UNL     1      -3.306  -6.262   0.254  1.00  0.00    -0.410 OA
BRANCH  21  22
ATOM     22  C   UNL     1      -1.944  -6.515   0.271  1.00  0.00     0.412 C 
ATOM     23  N   UNL     1      -1.188  -5.405   0.002  1.00  0.00    -0.321 N 
ATOM     24  H   UNL     1      -0.212  -5.538  -0.025  1.00  0.00     0.167 HD
ATOM     25  O   UNL     1      -1.418  -7.599   0.492  1.00  0.00    -0.224 OA
BRANCH  23  26
ATOM     26  C   UNL     1      -1.660  -4.055  -0.247  1.00  0.00     0.119 C 
BRANCH  26  27
ATOM     27  C   UNL     1      -1.079  -3.050   0.751  1.00  0.00     0.021 C 
BRANCH  27  28
ATOM     28  C   UNL     1       0.449  -2.905   0.712  1.00  0.00     0.002 C 
BRANCH  28  29
ATOM     29  C   UNL     1       1.034  -2.418  -0.618  1.00  0.00    -0.000 C 
BRANCH  29  30
ATOM     30  C   UNL     1       0.568  -1.033  -1.074  1.00  0.00    -0.003 C 
ATOM     31  C   UNL     1       0.976   0.084  -0.124  1.00  0.00     0.004 C 
ENDBRANCH  29  30
ENDBRANCH  28  29
ENDBRANCH  27  28
ENDBRANCH  26  27
ENDBRANCH  23  26
ENDBRANCH  21  22
ENDBRANCH  16  21
ENDBRANCH  10  15
BRANCH  12  32
ATOM     32  C   UNL     1      -4.899  -7.534   4.857  1.00  0.00     0.417 C 
ATOM     33  F   UNL     1      -5.517  -7.041   5.974  1.00  0.00    -0.166 F 
ATOM     34  F   UNL     1      -3.571  -7.282   5.049  1.00  0.00    -0.166 F 
ATOM     35  F   UNL     1      -5.298  -6.708   3.854  1.00  0.00    -0.166 F 
ENDBRANCH  12  32
ENDBRANCH   7   9
ENDBRANCH   5   7
ENDBRANCH   4   5
ENDBRANCH   3   4
ENDBRANCH   2   3
ENDBRANCH   1   2
BRANCH   1  36
ATOM     36  C   UNL     1      -1.659 -11.964   7.283  1.00  0.00     0.188 C 
BRANCH  36  37
ATOM     37  C   UNL     1      -2.151 -11.579   5.881  1.00  0.00     0.188 C 
BRANCH  37  38
ATOM     38  O   UNL     1      -2.207 -12.639   4.952  1.00  0.00    -0.377 OA
BRANCH  38  39
ATOM     39  C   UNL     1      -1.175 -12.686   3.980  1.00  0.00     0.188 C 
BRANCH  39  40
ATOM     40  C   UNL     1       0.251 -12.365   4.464  1.00  0.00     0.188 C 
BRANCH  40  41
ATOM     41  O   UNL     1       0.365 -11.106   5.121  1.00  0.00    -0.376 OA
BRANCH  41  42
ATOM     42  C   UNL     1       0.782  -9.981   4.358  1.00  0.00     0.202 C 
BRANCH  42  43
ATOM     43  C   UNL     1      -0.149  -9.465   3.246  1.00  0.00     0.261 C 
BRANCH  43  44
ATOM     44  O   UNL     1      -0.489 -10.384   2.201  1.00  0.00    -0.460 OA
BRANCH  44  45
ATOM     45  C   UNL     1       0.510 -10.978   1.509  1.00  0.00     0.338 C 
ATOM     46  O   UNL     1       1.699 -10.806   1.649  1.00  0.00    -0.246 OA
BRANCH  45  47
ATOM     47  C   UNL     1      -0.110 -12.053   0.697  1.00  0.00     0.060 A 
ATOM     48  C   UNL     1       0.293 -13.382   0.897  1.00  0.00     0.016 A 
ATOM     49  C   UNL     1      -1.095 -11.748  -0.242  1.00  0.00     0.016 A 
ATOM     50  C   UNL     1      -0.267 -14.409   0.130  1.00  0.00     0.010 A 
ATOM     51  C   UNL     1      -1.632 -12.771  -1.028  1.00  0.00     0.010 A 
ATOM     52  C   UNL     1      -1.198 -14.101  -0.869  1.00  0.00    -0.014 A 
BRANCH  52  53
ATOM     53  C   UNL     1      -1.552 -15.098  -1.912  1.00  0.00     0.031 A 
ATOM     54  C   UNL     1      -0.810 -15.026  -3.220  1.00  0.00     0.074 A 
ATOM     55  C   UNL     1      -2.523 -16.010  -1.732  1.00  0.00     0.049 A 
ATOM     56  N   UNL     1      -1.056 -15.629  -4.352  1.00  0.00    -0.248 NA
ATOM     57  C   UNL     1       0.363 -14.137  -3.250  1.00  0.00     0.031 C 
ATOM     58  C   UNL     1      -3.258 -16.230  -0.489  1.00  0.00     0.029 A 
ATOM     59  N   UNL     1      -3.078 -16.907  -2.614  1.00  0.00    -0.354 N 
ATOM     60  C   UNL     1      -0.086 -15.172  -5.238  1.00  0.00     0.074 A 
ATOM     61  C   UNL     1       0.741 -14.232  -4.514  1.00  0.00     0.031 C 
ATOM     62  C   UNL     1      -4.192 -17.176  -0.697  1.00  0.00     0.029 A 
ATOM     63  C   UNL     1      -4.161 -17.585  -2.102  1.00  0.00     0.049 A 
ATOM     64  H   UNL     1      -2.734 -17.049  -3.526  1.00  0.00     0.167 HD
ATOM     65  C   UNL     1       0.091 -15.504  -6.539  1.00  0.00     0.034 A 
ATOM     66  C   UNL     1      -5.053 -18.397  -2.712  1.00  0.00     0.034 A 
ATOM     67  C   UNL     1      -0.752 -16.435  -7.245  1.00  0.00     0.049 A 
ATOM     68  C   UNL     1      -4.903 -18.672  -4.194  1.00  0.00     0.074 A 
ATOM     69  C   UNL     1      -0.658 -16.854  -8.560  1.00  0.00     0.029 A 
ATOM     70  N   UNL     1      -1.855 -17.078  -6.700  1.00  0.00    -0.354 N 
ATOM     71  N   UNL     1      -3.992 -18.226  -5.030  1.00  0.00    -0.248 NA
ATOM     72  C   UNL     1      -5.899 -19.556  -4.817  1.00  0.00     0.031 C 
ATOM     73  C   UNL     1      -1.751 -17.679  -8.834  1.00  0.00     0.029 A 
ATOM     74  C   UNL     1      -2.471 -17.860  -7.663  1.00  0.00     0.049 A 
ATOM     75  H   UNL     1      -2.155 -16.992  -5.766  1.00  0.00     0.167 HD
ATOM     76  C   UNL     1      -4.282 -18.814  -6.261  1.00  0.00     0.074 A 
ATOM     77  C   UNL     1      -5.452 -19.641  -6.062  1.00  0.00     0.031 C 
ATOM     78  C   UNL     1      -3.631 -18.692  -7.446  1.00  0.00     0.034 A 
BRANCH  65  79
ATOM     79  C   UNL     1       1.190 -14.803  -7.297  1.00  0.00     0.023 A 
ATOM     80  C   UNL     1       2.546 -14.966  -6.967  1.00  0.00     0.031 A 
ATOM     81  C   UNL     1       0.870 -13.944  -8.364  1.00  0.00     0.131 A 
ATOM     82  C   UNL     1       3.526 -14.236  -7.657  1.00  0.00     0.055 A 
ATOM     83  C   UNL     1       1.855 -13.283  -9.099  1.00  0.00     0.041 A 
ATOM     84  F   UNL     1      -0.410 -13.726  -8.706  1.00  0.00    -0.206 F 
ATOM     85  C   UNL     1       3.192 -13.418  -8.739  1.00  0.00     0.022 A 
BRANCH  82  86
ATOM     86  S   UNL     1       5.229 -14.267  -7.035  1.00  0.00     0.124 S 
ATOM     87  O   UNL     1       5.056 -13.760  -5.676  1.00  0.00    -0.237 OA
ATOM     88  O   UNL     1       5.582 -15.677  -7.150  1.00  0.00    -0.237 OA
ATOM     89  O   UNL     1       5.941 -13.368  -7.941  1.00  0.00    -0.744 OA
ENDBRANCH  82  86
ENDBRANCH  65  79
BRANCH  66  90
ATOM     90  C   UNL     1      -6.214 -18.958  -1.956  1.00  0.00     0.023 A 
ATOM     91  C   UNL     1      -6.396 -20.344  -1.827  1.00  0.00     0.031 A 
ATOM     92  C   UNL     1      -7.203 -18.114  -1.418  1.00  0.00     0.131 A 
ATOM     93  C   UNL     1      -7.564 -20.845  -1.228  1.00  0.00     0.055 A 
ATOM     94  C   UNL     1      -8.330 -18.617  -0.764  1.00  0.00     0.041 A 
ATOM     95  F   UNL     1      -7.090 -16.780  -1.521  1.00  0.00    -0.206 F 
ATOM     96  C   UNL     1      -8.524 -19.991  -0.681  1.00  0.00     0.022 A 
BRANCH  93  97
ATOM     97  S   UNL     1      -7.869 -22.633  -1.280  1.00  0.00     0.124 S 
ATOM     98  O   UNL     1      -7.832 -22.896  -2.715  1.00  0.00    -0.237 OA
ATOM     99  O   UNL     1      -6.749 -23.154  -0.503  1.00  0.00    -0.237 OA
ATOM    100  O   UNL     1      -9.181 -22.773  -0.652  1.00  0.00    -0.744 OA
ENDBRANCH  93  97
ENDBRANCH  66  90
BRANCH  78 101
ATOM    101  C   UNL     1      -4.107 -19.533  -8.605  1.00  0.00     0.023 A 
ATOM    102  C   UNL     1      -5.334 -19.303  -9.250  1.00  0.00     0.031 A 
ATOM    103  C   UNL     1      -3.276 -20.553  -9.107  1.00  0.00     0.131 A 
ATOM    104  C   UNL     1      -5.705 -20.100 -10.345  1.00  0.00     0.055 A 
ATOM    105  C   UNL     1      -3.625 -21.302 -10.230  1.00  0.00     0.041 A 
ATOM    106  F   UNL     1      -2.093 -20.817  -8.528  1.00  0.00    -0.206 F 
ATOM    107  C   UNL     1      -4.849 -21.082 -10.852  1.00  0.00     0.022 A 
BRANCH 104 108
ATOM    108  S   UNL     1      -7.351 -19.875 -11.075  1.00  0.00     0.124 S 
ATOM    109  O   UNL     1      -8.227 -20.179  -9.948  1.00  0.00    -0.237 OA
ATOM    110  O   UNL     1      -7.319 -18.479 -11.498  1.00  0.00    -0.237 OA
ATOM    111  O   UNL     1      -7.380 -20.850 -12.164  1.00  0.00    -0.744 OA
ENDBRANCH 104 108
ENDBRANCH  78 101
ENDBRANCH  52  53
ENDBRANCH  45  47
ENDBRANCH  44  45
ENDBRANCH  43  44
ENDBRANCH  42  43
ENDBRANCH  41  42
ENDBRANCH  40  41
ENDBRANCH  39  40
ENDBRANCH  38  39
ENDBRANCH  37  38
ENDBRANCH  36  37
ENDBRANCH   1  36
TORSDOF 33
