REMARK SMILES O=C(OCCOCCOCCOCCOC(=O)[C@@H](c1cccc(O)c1)[NH+]1CC[NH+](C2CCCC2)CC1)c1ccc(-c2c3nc(c(-c4cc(S(=O)(=O)[O-])ccc4F)c4ccc([nH]4)c(-c4cc(S(=O)(=O)[O-])ccc4F)c4nc(c(-c5cc(S(=O)(=O)[O-])ccc5F)c5ccc2[nH]5)C=C4)C=C3)cc1
REMARK SMILES IDX 8 1 7 2 6 3 5 4 4 5 3 6 2 7 1 8 37 9 38 10 99 11 39 12 98 13
REMARK SMILES IDX 40 14 41 15 42 16 92 17 43 18 97 19 91 20 93 21 44 22 96 23
REMARK SMILES IDX 90 24 89 25 45 27 77 28 57 29 76 30 58 31 61 32 75 33 94 34
REMARK SMILES IDX 59 35 60 36 74 38 95 39 62 40 46 41 47 42 55 43 48 44 54 45
REMARK SMILES IDX 56 46 53 47 49 48 50 49 51 50 52 51 78 52 79 53 87 54 80 55
REMARK SMILES IDX 86 56 88 57 85 58 81 59 82 60 83 61 84 62 63 63 64 64 72 65
REMARK SMILES IDX 65 66 71 67 73 68 70 69 66 70 67 71 68 72 69 73 9 74 10 75
REMARK SMILES IDX 11 76 12 77 13 78 14 79 15 80 16 81 17 82 18 83 19 84 20 85
REMARK SMILES IDX 25 86 21 87 23 88 22 89 24 90 26 92 27 93 36 94 28 96 35 97
REMARK SMILES IDX 29 98 30 100 31 101 34 102 32 103 33 104
REMARK H PARENT 93 26 61 37 24 91 26 95 29 99
REMARK Flexibility Score: inf
ROOT
ATOM      1  C   UNL     1       2.716   1.030   2.107  1.00  0.00     0.188 C 
ENDROOT
BRANCH   1   2
ATOM      2  C   UNL     1       2.793   1.057   0.589  1.00  0.00     0.188 C 
BRANCH   2   3
ATOM      3  O   UNL     1       4.146   0.972   0.154  1.00  0.00    -0.376 OA
BRANCH   3   4
ATOM      4  C   UNL     1       4.368   1.274  -1.217  1.00  0.00     0.202 C 
BRANCH   4   5
ATOM      5  C   UNL     1       4.235   0.059  -2.139  1.00  0.00     0.261 C 
BRANCH   5   6
ATOM      6  O   UNL     1       2.893  -0.463  -2.105  1.00  0.00    -0.460 OA
BRANCH   6   7
ATOM      7  C   UNL     1       2.407  -1.548  -1.456  1.00  0.00     0.338 C 
ATOM      8  O   UNL     1       1.228  -1.850  -1.648  1.00  0.00    -0.246 OA
BRANCH   7   9
ATOM      9  C   UNL     1       3.186  -2.377  -0.476  1.00  0.00     0.060 A 
ATOM     10  C   UNL     1       4.365  -1.990   0.164  1.00  0.00     0.016 A 
ATOM     11  C   UNL     1       2.641  -3.627  -0.128  1.00  0.00     0.016 A 
ATOM     12  C   UNL     1       5.024  -2.823   1.056  1.00  0.00     0.010 A 
ATOM     13  C   UNL     1       3.293  -4.476   0.775  1.00  0.00     0.010 A 
ATOM     14  C   UNL     1       4.511  -4.083   1.338  1.00  0.00    -0.014 A 
BRANCH  14  15
ATOM     15  C   UNL     1       5.404  -5.030   2.029  1.00  0.00     0.031 A 
ATOM     16  C   UNL     1       6.185  -5.985   1.173  1.00  0.00     0.074 A 
ATOM     17  C   UNL     1       5.644  -4.897   3.345  1.00  0.00     0.049 A 
ATOM     18  N   UNL     1       7.030  -6.914   1.522  1.00  0.00    -0.248 NA
ATOM     19  C   UNL     1       5.999  -5.855  -0.284  1.00  0.00     0.031 C 
ATOM     20  C   UNL     1       5.041  -3.882   4.212  1.00  0.00     0.029 A 
ATOM     21  N   UNL     1       6.483  -5.590   4.175  1.00  0.00    -0.354 N 
ATOM     22  C   UNL     1       7.471  -7.485   0.332  1.00  0.00     0.074 A 
ATOM     23  C   UNL     1       6.786  -6.811  -0.747  1.00  0.00     0.031 C 
ATOM     24  C   UNL     1       5.539  -4.016   5.453  1.00  0.00     0.029 A 
ATOM     25  C   UNL     1       6.443  -5.162   5.482  1.00  0.00     0.049 A 
ATOM     26  H   UNL     1       7.060  -6.325   3.865  1.00  0.00     0.167 HD
ATOM     27  C   UNL     1       8.367  -8.486   0.165  1.00  0.00     0.034 A 
ATOM     28  C   UNL     1       7.045  -5.675   6.574  1.00  0.00     0.034 A 
ATOM     29  C   UNL     1       9.004  -9.150   1.272  1.00  0.00     0.049 A 
ATOM     30  C   UNL     1       7.936  -6.880   6.375  1.00  0.00     0.074 A 
ATOM     31  C   UNL     1       9.834 -10.255   1.264  1.00  0.00     0.029 A 
ATOM     32  N   UNL     1       8.873  -8.757   2.601  1.00  0.00    -0.354 N 
ATOM     33  N   UNL     1       8.268  -7.488   5.255  1.00  0.00    -0.248 NA
ATOM     34  C   UNL     1       8.528  -7.473   7.578  1.00  0.00     0.031 C 
ATOM     35  C   UNL     1      10.161 -10.560   2.591  1.00  0.00     0.029 A 
ATOM     36  C   UNL     1       9.592  -9.607   3.422  1.00  0.00     0.049 A 
ATOM     37  H   UNL     1       8.345  -7.987   2.911  1.00  0.00     0.167 HD
ATOM     38  C   UNL     1       9.119  -8.525   5.622  1.00  0.00     0.074 A 
ATOM     39  C   UNL     1       9.277  -8.434   7.061  1.00  0.00     0.031 C 
ATOM     40  C   UNL     1       9.710  -9.479   4.856  1.00  0.00     0.034 A 
BRANCH  27  41
ATOM     41  C   UNL     1       8.604  -8.959  -1.246  1.00  0.00     0.023 A 
ATOM     42  C   UNL     1       9.216  -8.138  -2.211  1.00  0.00     0.031 A 
ATOM     43  C   UNL     1       8.122 -10.214  -1.658  1.00  0.00     0.131 A 
ATOM     44  C   UNL     1       9.265  -8.553  -3.552  1.00  0.00     0.055 A 
ATOM     45  C   UNL     1       8.242 -10.651  -2.978  1.00  0.00     0.041 A 
ATOM     46  F   UNL     1       7.496 -11.023  -0.789  1.00  0.00    -0.206 F 
ATOM     47  C   UNL     1       8.803  -9.813  -3.937  1.00  0.00     0.022 A 
BRANCH  44  48
ATOM     48  S   UNL     1       9.817  -7.364  -4.809  1.00  0.00     0.124 S 
ATOM     49  O   UNL     1       8.791  -6.324  -4.697  1.00  0.00    -0.237 OA
ATOM     50  O   UNL     1      11.143  -7.006  -4.354  1.00  0.00    -0.237 OA
ATOM     51  O   UNL     1       9.766  -8.139  -6.055  1.00  0.00    -0.744 OA
ENDBRANCH  44  48
ENDBRANCH  27  41
BRANCH  28  52
ATOM     52  C   UNL     1       6.767  -5.133   7.939  1.00  0.00     0.023 A 
ATOM     53  C   UNL     1       7.799  -4.677   8.776  1.00  0.00     0.031 A 
ATOM     54  C   UNL     1       5.460  -5.146   8.466  1.00  0.00     0.131 A 
ATOM     55  C   UNL     1       7.517  -4.311  10.104  1.00  0.00     0.055 A 
ATOM     56  C   UNL     1       5.176  -4.718   9.764  1.00  0.00     0.041 A 
ATOM     57  F   UNL     1       4.431  -5.586   7.723  1.00  0.00    -0.206 F 
ATOM     58  C   UNL     1       6.211  -4.314  10.598  1.00  0.00     0.022 A 
BRANCH  55  59
ATOM     59  S   UNL     1       8.902  -3.956  11.224  1.00  0.00     0.124 S 
ATOM     60  O   UNL     1       9.719  -5.155  11.076  1.00  0.00    -0.237 OA
ATOM     61  O   UNL     1       9.450  -2.732  10.650  1.00  0.00    -0.237 OA
ATOM     62  O   UNL     1       8.256  -3.800  12.526  1.00  0.00    -0.744 OA
ENDBRANCH  55  59
ENDBRANCH  28  52
BRANCH  40  63
ATOM     63  C   UNL     1      10.594 -10.463   5.576  1.00  0.00     0.023 A 
ATOM     64  C   UNL     1      10.061 -11.396   6.481  1.00  0.00     0.031 A 
ATOM     65  C   UNL     1      11.984 -10.450   5.371  1.00  0.00     0.131 A 
ATOM     66  C   UNL     1      10.922 -12.235   7.202  1.00  0.00     0.055 A 
ATOM     67  C   UNL     1      12.830 -11.331   6.044  1.00  0.00     0.041 A 
ATOM     68  F   UNL     1      12.541  -9.579   4.514  1.00  0.00    -0.206 F 
ATOM     69  C   UNL     1      12.301 -12.219   6.977  1.00  0.00     0.022 A 
BRANCH  66  70
ATOM     70  S   UNL     1      10.222 -13.272   8.512  1.00  0.00     0.124 S 
ATOM     71  O   UNL     1       9.594 -12.282   9.381  1.00  0.00    -0.237 OA
ATOM     72  O   UNL     1       9.310 -14.138   7.771  1.00  0.00    -0.237 OA
ATOM     73  O   UNL     1      11.390 -13.943   9.079  1.00  0.00    -0.744 OA
ENDBRANCH  66  70
ENDBRANCH  40  63
ENDBRANCH  14  15
ENDBRANCH   7   9
ENDBRANCH   6   7
ENDBRANCH   5   6
ENDBRANCH   4   5
ENDBRANCH   3   4
ENDBRANCH   2   3
ENDBRANCH   1   2
BRANCH   1  74
ATOM     74  O   UNL     1       3.851   1.636   2.715  1.00  0.00    -0.377 OA
BRANCH  74  75
ATOM     75  C   UNL     1       4.902   0.720   3.023  1.00  0.00     0.188 C 
BRANCH  75  76
ATOM     76  C   UNL     1       5.528   1.090   4.368  1.00  0.00     0.188 C 
BRANCH  76  77
ATOM     77  O   UNL     1       4.716   0.912   5.530  1.00  0.00    -0.376 OA
BRANCH  77  78
ATOM     78  C   UNL     1       3.345   1.292   5.496  1.00  0.00     0.202 C 
BRANCH  78  79
ATOM     79  C   UNL     1       3.003   2.793   5.545  1.00  0.00     0.261 C 
BRANCH  79  80
ATOM     80  O   UNL     1       3.247   3.549   4.336  1.00  0.00    -0.459 OA
BRANCH  80  81
ATOM     81  C   UNL     1       4.441   4.193   4.301  1.00  0.00     0.369 C 
ATOM     82  O   UNL     1       5.251   4.142   5.232  1.00  0.00    -0.245 OA
BRANCH  81  83
ATOM     83  C   UNL     1       4.670   5.187   3.144  1.00  0.00     0.326 C 
BRANCH  83  84
ATOM     84  C   UNL     1       4.324   4.904   1.678  1.00  0.00     0.025 A 
ATOM     85  C   UNL     1       5.247   5.369   0.706  1.00  0.00     0.011 A 
ATOM     86  C   UNL     1       3.078   4.464   1.218  1.00  0.00     0.056 A 
ATOM     87  C   UNL     1       4.922   5.456  -0.650  1.00  0.00     0.004 A 
ATOM     88  C   UNL     1       2.770   4.535  -0.148  1.00  0.00     0.116 A 
ATOM     89  C   UNL     1       3.671   5.041  -1.081  1.00  0.00     0.046 A 
BRANCH  88  90
ATOM     90  O   UNL     1       1.542   4.100  -0.562  1.00  0.00    -0.508 OA
ATOM     91  H   UNL     1       1.313   4.137  -1.470  1.00  0.00     0.293 HD
ENDBRANCH  88  90
ENDBRANCH  83  84
BRANCH  83  92
ATOM     92  N   UNL     1       4.209   6.508   3.647  1.00  0.00    -0.310 N 
ATOM     93  C   UNL     1       5.228   7.190   4.472  1.00  0.00     0.325 C 
ATOM     94  C   UNL     1       3.466   7.391   2.754  1.00  0.00     0.325 C 
ATOM     95  H   UNL     1       3.442   6.229   4.259  1.00  0.00     0.349 HD
ATOM     96  C   UNL     1       5.870   8.481   3.889  1.00  0.00     0.324 C 
ATOM     97  C   UNL     1       4.351   8.430   2.054  1.00  0.00     0.324 C 
ATOM     98  N   UNL     1       5.029   9.315   3.009  1.00  0.00    -0.323 N 
ATOM     99  H   UNL     1       5.625   9.954   2.483  1.00  0.00     0.348 HD
BRANCH  98 100
ATOM    100  C   UNL     1       4.168  10.280   3.708  1.00  0.00     0.184 C 
ATOM    101  C   UNL     1       3.016  10.881   2.884  1.00  0.00     0.065 C 
ATOM    102  C   UNL     1       3.511   9.916   5.057  1.00  0.00     0.065 C 
ATOM    103  C   UNL     1       2.181  11.607   3.924  1.00  0.00     0.006 C 
ATOM    104  C   UNL     1       2.164  10.640   5.094  1.00  0.00     0.006 C 
ENDBRANCH  98 100
ENDBRANCH  83  92
ENDBRANCH  81  83
ENDBRANCH  80  81
ENDBRANCH  79  80
ENDBRANCH  78  79
ENDBRANCH  77  78
ENDBRANCH  76  77
ENDBRANCH  75  76
ENDBRANCH  74  75
ENDBRANCH   1  74
TORSDOF 27
