REMARK SMILES CN(CC(=O)N[C@H]1C=C[C@H](C(=O)OCCOCCOCCOCCOC(=O)c2ccc(-c3c4nc(c(-c5cc(S(=O)(=O)[O-])ccc5F)c5ccc([nH]5)c(-c5cc(S(=O)(=O)[O-])ccc5F)c5nc(c(-c6cc(S(=O)(=O)[O-])ccc6F)c6ccc3[nH]6)C=C5)C=C4)cc2)C1)C(=O)c1cccs1
REMARK SMILES IDX 18 1 17 2 16 3 15 4 14 5 13 6 11 7 12 8 10 9 7 10 8 11 91 12
REMARK SMILES IDX 9 13 6 14 4 15 5 16 3 18 2 19 1 20 92 21 93 22 94 23 95 24
REMARK SMILES IDX 98 25 96 26 97 27 19 28 20 29 21 30 22 31 23 32 24 33 25 34
REMARK SMILES IDX 26 35 27 36 28 37 29 38 90 39 30 40 89 41 31 42 32 43 33 44
REMARK SMILES IDX 83 45 34 46 88 47 82 48 84 49 35 50 87 51 81 52 80 53 36 55
REMARK SMILES IDX 68 56 48 57 67 58 49 59 52 60 66 61 85 62 50 63 51 64 65 66
REMARK SMILES IDX 86 67 53 68 37 69 38 70 46 71 39 72 45 73 47 74 44 75 40 76
REMARK SMILES IDX 41 77 42 78 43 79 69 80 70 81 78 82 71 83 77 84 79 85 76 86
REMARK SMILES IDX 72 87 73 88 74 89 75 90 54 91 55 92 63 93 56 94 62 95 64 96
REMARK SMILES IDX 61 97 57 98 58 99 59 100 60 101
REMARK H PARENT 6 17 84 54 52 65
REMARK Flexibility Score: inf
ROOT
ATOM      1  C   UNL     1      -0.366  -0.275  -3.699  1.00  0.00     0.188 C 
ENDROOT
BRANCH   1   2
ATOM      2  C   UNL     1       0.685  -1.377  -3.917  1.00  0.00     0.188 C 
BRANCH   2   3
ATOM      3  O   UNL     1       0.536  -2.299  -4.986  1.00  0.00    -0.376 OA
BRANCH   3   4
ATOM      4  C   UNL     1      -0.744  -2.872  -5.221  1.00  0.00     0.202 C 
BRANCH   4   5
ATOM      5  C   UNL     1      -1.576  -3.486  -4.071  1.00  0.00     0.261 C 
BRANCH   5   6
ATOM      6  O   UNL     1      -1.536  -2.824  -2.788  1.00  0.00    -0.463 OA
BRANCH   6   7
ATOM      7  C   UNL     1      -1.015  -3.531  -1.744  1.00  0.00     0.312 C 
ATOM      8  O   UNL     1      -0.593  -4.679  -1.829  1.00  0.00    -0.252 OA
BRANCH   7   9
ATOM      9  C   UNL     1      -0.938  -2.729  -0.434  1.00  0.00     0.124 C 
ATOM     10  C   UNL     1      -2.359  -0.798   0.186  1.00  0.00     0.106 C 
ATOM     11  C   UNL     1      -1.082  -0.376  -0.393  1.00  0.00    -0.006 C 
ATOM     12  C   UNL     1      -2.277  -2.340   0.208  1.00  0.00     0.048 C 
ATOM     13  C   UNL     1      -0.279  -1.413  -0.647  1.00  0.00    -0.014 C 
BRANCH  10  14
ATOM     14  N   UNL     1      -2.564  -0.169   1.484  1.00  0.00    -0.348 N 
ATOM     15  C   UNL     1      -1.823   0.575   2.350  1.00  0.00     0.240 C 
ATOM     16  O   UNL     1      -2.481   1.141   3.237  1.00  0.00    -0.273 OA
ATOM     17  H   UNL     1      -3.475  -0.323   1.823  1.00  0.00     0.164 HD
BRANCH  15  18
ATOM     18  C   UNL     1      -0.309   0.907   2.248  1.00  0.00     0.219 C 
BRANCH  18  19
ATOM     19  N   UNL     1       0.698  -0.099   1.889  1.00  0.00    -0.332 N 
ATOM     20  C   UNL     1       1.765   0.329   0.987  1.00  0.00     0.147 C 
BRANCH  19  21
ATOM     21  C   UNL     1       0.992  -1.240   2.652  1.00  0.00     0.264 C 
ATOM     22  O   UNL     1       1.788  -2.083   2.236  1.00  0.00    -0.268 OA
BRANCH  21  23
ATOM     23  C   UNL     1       0.442  -1.319   3.990  1.00  0.00     0.092 A 
ATOM     24  C   UNL     1      -0.853  -1.471   4.440  1.00  0.00     0.025 A 
ATOM     25  S   UNL     1       1.555  -1.246   5.295  1.00  0.00    -0.139 S 
ATOM     26  C   UNL     1      -0.941  -1.389   5.860  1.00  0.00     0.012 A 
ATOM     27  C   UNL     1       0.298  -1.282   6.449  1.00  0.00     0.065 A 
ENDBRANCH  21  23
ENDBRANCH  19  21
ENDBRANCH  18  19
ENDBRANCH  15  18
ENDBRANCH  10  14
ENDBRANCH   7   9
ENDBRANCH   6   7
ENDBRANCH   5   6
ENDBRANCH   4   5
ENDBRANCH   3   4
ENDBRANCH   2   3
ENDBRANCH   1   2
BRANCH   1  28
ATOM     28  O   UNL     1      -1.562  -0.439  -4.427  1.00  0.00    -0.377 OA
BRANCH  28  29
ATOM     29  C   UNL     1      -1.732   0.465  -5.505  1.00  0.00     0.188 C 
BRANCH  29  30
ATOM     30  C   UNL     1      -0.510   0.691  -6.421  1.00  0.00     0.188 C 
BRANCH  30  31
ATOM     31  O   UNL     1       0.698   1.014  -5.735  1.00  0.00    -0.376 OA
BRANCH  31  32
ATOM     32  C   UNL     1       1.091   2.374  -5.619  1.00  0.00     0.202 C 
BRANCH  32  33
ATOM     33  C   UNL     1       0.247   3.322  -4.743  1.00  0.00     0.261 C 
BRANCH  33  34
ATOM     34  O   UNL     1      -1.155   3.388  -5.029  1.00  0.00    -0.460 OA
BRANCH  34  35
ATOM     35  C   UNL     1      -1.508   3.829  -6.256  1.00  0.00     0.338 C 
ATOM     36  O   UNL     1      -0.751   4.230  -7.125  1.00  0.00    -0.246 OA
BRANCH  35  37
ATOM     37  C   UNL     1      -2.943   3.530  -6.454  1.00  0.00     0.060 A 
ATOM     38  C   UNL     1      -3.306   2.699  -7.521  1.00  0.00     0.016 A 
ATOM     39  C   UNL     1      -3.918   4.034  -5.588  1.00  0.00     0.016 A 
ATOM     40  C   UNL     1      -4.647   2.397  -7.749  1.00  0.00     0.010 A 
ATOM     41  C   UNL     1      -5.267   3.760  -5.839  1.00  0.00     0.010 A 
ATOM     42  C   UNL     1      -5.637   2.972  -6.944  1.00  0.00    -0.014 A 
BRANCH  42  43
ATOM     43  C   UNL     1      -7.042   2.950  -7.421  1.00  0.00     0.031 A 
ATOM     44  C   UNL     1      -7.539   4.145  -8.189  1.00  0.00     0.074 A 
ATOM     45  C   UNL     1      -7.833   1.877  -7.241  1.00  0.00     0.049 A 
ATOM     46  N   UNL     1      -8.719   4.375  -8.701  1.00  0.00    -0.248 NA
ATOM     47  C   UNL     1      -6.566   5.228  -8.405  1.00  0.00     0.031 C 
ATOM     48  C   UNL     1      -7.439   0.640  -6.570  1.00  0.00     0.029 A 
ATOM     49  N   UNL     1      -9.137   1.660  -7.611  1.00  0.00    -0.354 N 
ATOM     50  C   UNL     1      -8.632   5.630  -9.296  1.00  0.00     0.074 A 
ATOM     51  C   UNL     1      -7.297   6.126  -9.045  1.00  0.00     0.031 C 
ATOM     52  C   UNL     1      -8.486  -0.205  -6.568  1.00  0.00     0.029 A 
ATOM     53  C   UNL     1      -9.633   0.445  -7.201  1.00  0.00     0.049 A 
ATOM     54  H   UNL     1      -9.667   2.313  -8.123  1.00  0.00     0.167 HD
ATOM     55  C   UNL     1      -9.579   6.303  -9.995  1.00  0.00     0.034 A 
ATOM     56  C   UNL     1     -10.877  -0.067  -7.301  1.00  0.00     0.034 A 
ATOM     57  C   UNL     1     -10.910   5.798 -10.223  1.00  0.00     0.049 A 
ATOM     58  C   UNL     1     -11.947   0.744  -7.997  1.00  0.00     0.074 A 
ATOM     59  C   UNL     1     -11.946   6.389 -10.924  1.00  0.00     0.029 A 
ATOM     60  N   UNL     1     -11.396   4.589  -9.739  1.00  0.00    -0.354 N 
ATOM     61  N   UNL     1     -11.854   1.927  -8.562  1.00  0.00    -0.248 NA
ATOM     62  C   UNL     1     -13.286   0.145  -8.078  1.00  0.00     0.031 C 
ATOM     63  C   UNL     1     -13.081   5.583 -10.788  1.00  0.00     0.029 A 
ATOM     64  C   UNL     1     -12.729   4.438 -10.090  1.00  0.00     0.049 A 
ATOM     65  H   UNL     1     -10.871   3.936  -9.223  1.00  0.00     0.167 HD
ATOM     66  C   UNL     1     -13.114   2.196  -9.095  1.00  0.00     0.074 A 
ATOM     67  C   UNL     1     -13.942   1.045  -8.796  1.00  0.00     0.031 C 
ATOM     68  C   UNL     1     -13.547   3.289  -9.776  1.00  0.00     0.034 A 
BRANCH  55  69
ATOM     69  C   UNL     1      -9.221   7.681 -10.497  1.00  0.00     0.023 A 
ATOM     70  C   UNL     1      -8.193   7.891 -11.433  1.00  0.00     0.031 A 
ATOM     71  C   UNL     1      -9.899   8.810 -10.001  1.00  0.00     0.131 A 
ATOM     72  C   UNL     1      -7.822   9.198 -11.784  1.00  0.00     0.055 A 
ATOM     73  C   UNL     1      -9.584  10.102 -10.423  1.00  0.00     0.041 A 
ATOM     74  F   UNL     1     -10.869   8.676  -9.083  1.00  0.00    -0.206 F 
ATOM     75  C   UNL     1      -8.530  10.304 -11.308  1.00  0.00     0.022 A 
BRANCH  72  76
ATOM     76  S   UNL     1      -6.303   9.440 -12.746  1.00  0.00     0.124 S 
ATOM     77  O   UNL     1      -5.307   8.800 -11.890  1.00  0.00    -0.237 OA
ATOM     78  O   UNL     1      -6.608   8.753 -13.995  1.00  0.00    -0.237 OA
ATOM     79  O   UNL     1      -6.187  10.894 -12.844  1.00  0.00    -0.744 OA
ENDBRANCH  72  76
ENDBRANCH  55  69
BRANCH  56  80
ATOM     80  C   UNL     1     -11.204  -1.389  -6.689  1.00  0.00     0.023 A 
ATOM     81  C   UNL     1     -11.651  -2.468  -7.468  1.00  0.00     0.031 A 
ATOM     82  C   UNL     1     -11.135  -1.571  -5.295  1.00  0.00     0.131 A 
ATOM     83  C   UNL     1     -12.056  -3.661  -6.847  1.00  0.00     0.055 A 
ATOM     84  C   UNL     1     -11.481  -2.779  -4.687  1.00  0.00     0.041 A 
ATOM     85  F   UNL     1     -10.723  -0.571  -4.499  1.00  0.00    -0.206 F 
ATOM     86  C   UNL     1     -11.958  -3.829  -5.464  1.00  0.00     0.022 A 
BRANCH  83  87
ATOM     87  S   UNL     1     -12.807  -4.961  -7.865  1.00  0.00     0.124 S 
ATOM     88  O   UNL     1     -13.944  -4.258  -8.450  1.00  0.00    -0.237 OA
ATOM     89  O   UNL     1     -11.720  -5.295  -8.778  1.00  0.00    -0.237 OA
ATOM     90  O   UNL     1     -13.146  -5.999  -6.895  1.00  0.00    -0.744 OA
ENDBRANCH  83  87
ENDBRANCH  56  80
BRANCH  68  91
ATOM     91  C   UNL     1     -14.969   3.268 -10.291  1.00  0.00     0.023 A 
ATOM     92  C   UNL     1     -16.076   3.240  -9.425  1.00  0.00     0.031 A 
ATOM     93  C   UNL     1     -15.216   3.270 -11.677  1.00  0.00     0.131 A 
ATOM     94  C   UNL     1     -17.374   3.151  -9.952  1.00  0.00     0.055 A 
ATOM     95  C   UNL     1     -16.512   3.257 -12.194  1.00  0.00     0.041 A 
ATOM     96  F   UNL     1     -14.199   3.292 -12.553  1.00  0.00    -0.206 F 
ATOM     97  C   UNL     1     -17.600   3.181 -11.330  1.00  0.00     0.022 A 
BRANCH  94  98
ATOM     98  S   UNL     1     -18.759   2.881  -8.813  1.00  0.00     0.124 S 
ATOM     99  O   UNL     1     -18.358   1.652  -8.136  1.00  0.00    -0.237 OA
ATOM    100  O   UNL     1     -18.736   4.093  -8.000  1.00  0.00    -0.237 OA
ATOM    101  O   UNL     1     -19.913   2.752  -9.700  1.00  0.00    -0.744 OA
ENDBRANCH  94  98
ENDBRANCH  68  91
ENDBRANCH  42  43
ENDBRANCH  35  37
ENDBRANCH  34  35
ENDBRANCH  33  34
ENDBRANCH  32  33
ENDBRANCH  31  32
ENDBRANCH  30  31
ENDBRANCH  29  30
ENDBRANCH  28  29
ENDBRANCH   1  28
TORSDOF 28
