REMARK SMILES O=C(OCCOCCOCCOCCOC(=O)[C@@H]1[C@H](C(=O)Nc2cccc(Cl)c2F)[C@@H]2C=C[C@H]1C2)c1ccc(-c2c3nc(c(-c4cc(S(=O)(=O)[O-])ccc4F)c4ccc([nH]4)c(-c4cc(S(=O)(=O)[O-])ccc4F)c4nc(c(-c5cc(S(=O)(=O)[O-])ccc5F)c5ccc2[nH]5)C=C4)C=C3)cc1
REMARK SMILES IDX 8 1 7 2 6 3 5 4 4 5 3 6 2 7 1 8 36 9 37 10 98 11 38 12 97 13
REMARK SMILES IDX 39 14 40 15 41 16 91 17 42 18 96 19 90 20 92 21 43 22 95 23
REMARK SMILES IDX 89 24 88 25 44 27 76 28 56 29 75 30 57 31 60 32 74 33 93 34
REMARK SMILES IDX 58 35 59 36 73 38 94 39 61 40 45 41 46 42 54 43 47 44 53 45
REMARK SMILES IDX 55 46 52 47 48 48 49 49 50 50 51 51 77 52 78 53 86 54 79 55
REMARK SMILES IDX 85 56 87 57 84 58 80 59 81 60 82 61 83 62 62 63 63 64 71 65
REMARK SMILES IDX 64 66 70 67 72 68 69 69 65 70 66 71 67 72 68 73 9 74 10 75
REMARK SMILES IDX 11 76 12 77 13 78 14 79 15 80 16 81 17 82 18 83 19 84 34 85
REMARK SMILES IDX 31 86 33 87 35 88 32 89 20 90 21 91 22 92 23 94 24 95 29 96
REMARK SMILES IDX 25 97 27 98 30 99 26 100 28 101
REMARK H PARENT 92 26 60 37 22 93
REMARK Flexibility Score: inf
ROOT
ATOM      1  C   UNL     1       2.006  -1.002  -2.139  1.00  0.00     0.188 C 
ENDROOT
BRANCH   1   2
ATOM      2  C   UNL     1       2.347  -0.849  -0.667  1.00  0.00     0.188 C 
BRANCH   2   3
ATOM      3  O   UNL     1       3.703  -0.423  -0.529  1.00  0.00    -0.376 OA
BRANCH   3   4
ATOM      4  C   UNL     1       4.441  -1.072   0.505  1.00  0.00     0.202 C 
BRANCH   4   5
ATOM      5  C   UNL     1       4.265  -0.434   1.881  1.00  0.00     0.261 C 
BRANCH   5   6
ATOM      6  O   UNL     1       2.920   0.004   2.115  1.00  0.00    -0.460 OA
BRANCH   6   7
ATOM      7  C   UNL     1       2.357   1.197   1.794  1.00  0.00     0.338 C 
ATOM      8  O   UNL     1       1.195   1.384   2.158  1.00  0.00    -0.246 OA
BRANCH   7   9
ATOM      9  C   UNL     1       3.010   2.278   0.972  1.00  0.00     0.060 A 
ATOM     10  C   UNL     1       4.220   2.180   0.279  1.00  0.00     0.016 A 
ATOM     11  C   UNL     1       2.302   3.490   0.855  1.00  0.00     0.016 A 
ATOM     12  C   UNL     1       4.712   3.211  -0.506  1.00  0.00     0.010 A 
ATOM     13  C   UNL     1       2.813   4.563   0.116  1.00  0.00     0.010 A 
ATOM     14  C   UNL     1       4.039   4.424  -0.540  1.00  0.00    -0.014 A 
BRANCH  14  15
ATOM     15  C   UNL     1       4.828   5.586  -0.975  1.00  0.00     0.031 A 
ATOM     16  C   UNL     1       5.576   6.321   0.100  1.00  0.00     0.074 A 
ATOM     17  C   UNL     1       5.020   5.833  -2.280  1.00  0.00     0.049 A 
ATOM     18  N   UNL     1       6.314   7.391   0.023  1.00  0.00    -0.248 NA
ATOM     19  C   UNL     1       5.494   5.742   1.454  1.00  0.00     0.031 C 
ATOM     20  C   UNL     1       4.485   5.025  -3.378  1.00  0.00     0.029 A 
ATOM     21  N   UNL     1       5.744   6.812  -2.903  1.00  0.00    -0.354 N 
ATOM     22  C   UNL     1       6.763   7.627   1.319  1.00  0.00     0.074 A 
ATOM     23  C   UNL     1       6.214   6.592   2.162  1.00  0.00     0.031 C 
ATOM     24  C   UNL     1       4.896   5.551  -4.544  1.00  0.00     0.029 A 
ATOM     25  C   UNL     1       5.660   6.765  -4.274  1.00  0.00     0.049 A 
ATOM     26  H   UNL     1       6.273   7.484  -2.417  1.00  0.00     0.167 HD
ATOM     27  C   UNL     1       7.552   8.636   1.756  1.00  0.00     0.034 A 
ATOM     28  C   UNL     1       6.115   7.646  -5.188  1.00  0.00     0.034 A 
ATOM     29  C   UNL     1       8.037   9.661   0.870  1.00  0.00     0.049 A 
ATOM     30  C   UNL     1       6.859   8.853  -4.666  1.00  0.00     0.074 A 
ATOM     31  C   UNL     1       8.740  10.811   1.168  1.00  0.00     0.029 A 
ATOM     32  N   UNL     1       7.846   9.652  -0.511  1.00  0.00    -0.354 N 
ATOM     33  N   UNL     1       7.185   9.150  -3.425  1.00  0.00    -0.248 NA
ATOM     34  C   UNL     1       7.286   9.847  -5.655  1.00  0.00     0.031 C 
ATOM     35  C   UNL     1       8.912  11.529  -0.021  1.00  0.00     0.029 A 
ATOM     36  C   UNL     1       8.394  10.788  -1.076  1.00  0.00     0.049 A 
ATOM     37  H   UNL     1       7.387   8.940  -1.011  1.00  0.00     0.167 HD
ATOM     38  C   UNL     1       7.876  10.355  -3.488  1.00  0.00     0.074 A 
ATOM     39  C   UNL     1       7.933  10.718  -4.893  1.00  0.00     0.031 C 
ATOM     40  C   UNL     1       8.417  11.100  -2.488  1.00  0.00     0.034 A 
BRANCH  27  41
ATOM     41  C   UNL     1       7.785   8.716   3.245  1.00  0.00     0.023 A 
ATOM     42  C   UNL     1       8.461   7.703   3.952  1.00  0.00     0.031 A 
ATOM     43  C   UNL     1       7.196   9.753   3.989  1.00  0.00     0.131 A 
ATOM     44  C   UNL     1       8.442   7.698   5.358  1.00  0.00     0.055 A 
ATOM     45  C   UNL     1       7.258   9.789   5.384  1.00  0.00     0.041 A 
ATOM     46  F   UNL     1       6.504  10.726   3.376  1.00  0.00    -0.206 F 
ATOM     47  C   UNL     1       7.866   8.747   6.077  1.00  0.00     0.022 A 
BRANCH  44  48
ATOM     48  S   UNL     1       9.021   6.210   6.226  1.00  0.00     0.124 S 
ATOM     49  O   UNL     1       8.097   5.192   5.707  1.00  0.00    -0.237 OA
ATOM     50  O   UNL     1      10.393   6.102   5.806  1.00  0.00    -0.237 OA
ATOM     51  O   UNL     1       8.814   6.543   7.644  1.00  0.00    -0.744 OA
ENDBRANCH  44  48
ENDBRANCH  27  41
BRANCH  28  52
ATOM     52  C   UNL     1       5.806   7.474  -6.639  1.00  0.00     0.023 A 
ATOM     53  C   UNL     1       6.820   7.372  -7.605  1.00  0.00     0.031 A 
ATOM     54  C   UNL     1       4.471   7.457  -7.091  1.00  0.00     0.131 A 
ATOM     55  C   UNL     1       6.486   7.291  -8.969  1.00  0.00     0.055 A 
ATOM     56  C   UNL     1       4.144   7.319  -8.442  1.00  0.00     0.041 A 
ATOM     57  F   UNL     1       3.455   7.566  -6.220  1.00  0.00    -0.206 F 
ATOM     58  C   UNL     1       5.155   7.248  -9.392  1.00  0.00     0.022 A 
BRANCH  55  59
ATOM     59  S   UNL     1       7.819   7.333 -10.200  1.00  0.00     0.124 S 
ATOM     60  O   UNL     1       8.487   8.588  -9.873  1.00  0.00    -0.237 OA
ATOM     61  O   UNL     1       8.557   6.114  -9.890  1.00  0.00    -0.237 OA
ATOM     62  O   UNL     1       7.106   7.321 -11.476  1.00  0.00    -0.744 OA
ENDBRANCH  55  59
ENDBRANCH  28  52
BRANCH  40  63
ATOM     63  C   UNL     1       9.154  12.346  -2.900  1.00  0.00     0.023 A 
ATOM     64  C   UNL     1       8.484  13.453  -3.445  1.00  0.00     0.031 A 
ATOM     65  C   UNL     1      10.547  12.425  -2.728  1.00  0.00     0.131 A 
ATOM     66  C   UNL     1       9.218  14.576  -3.850  1.00  0.00     0.055 A 
ATOM     67  C   UNL     1      11.262  13.570  -3.071  1.00  0.00     0.041 A 
ATOM     68  F   UNL     1      11.232  11.392  -2.210  1.00  0.00    -0.206 F 
ATOM     69  C   UNL     1      10.599  14.650  -3.648  1.00  0.00     0.022 A 
BRANCH  66  70
ATOM     70  S   UNL     1       8.354  15.903  -4.731  1.00  0.00     0.124 S 
ATOM     71  O   UNL     1       7.814  15.196  -5.888  1.00  0.00    -0.237 OA
ATOM     72  O   UNL     1       7.378  16.350  -3.744  1.00  0.00    -0.237 OA
ATOM     73  O   UNL     1       9.416  16.862  -5.031  1.00  0.00    -0.744 OA
ENDBRANCH  66  70
ENDBRANCH  40  63
ENDBRANCH  14  15
ENDBRANCH   7   9
ENDBRANCH   6   7
ENDBRANCH   5   6
ENDBRANCH   4   5
ENDBRANCH   3   4
ENDBRANCH   2   3
ENDBRANCH   1   2
BRANCH   1  74
ATOM     74  O   UNL     1       2.713  -2.061  -2.767  1.00  0.00    -0.377 OA
BRANCH  74  75
ATOM     75  C   UNL     1       4.134  -2.047  -2.686  1.00  0.00     0.188 C 
BRANCH  75  76
ATOM     76  C   UNL     1       4.862  -0.873  -3.345  1.00  0.00     0.188 C 
BRANCH  76  77
ATOM     77  O   UNL     1       3.975   0.016  -4.001  1.00  0.00    -0.376 OA
BRANCH  77  78
ATOM     78  C   UNL     1       3.797  -0.198  -5.393  1.00  0.00     0.202 C 
BRANCH  78  79
ATOM     79  C   UNL     1       3.143  -1.511  -5.879  1.00  0.00     0.261 C 
BRANCH  79  80
ATOM     80  O   UNL     1       3.606  -2.777  -5.355  1.00  0.00    -0.463 OA
BRANCH  80  81
ATOM     81  C   UNL     1       4.840  -3.200  -5.665  1.00  0.00     0.310 C 
ATOM     82  O   UNL     1       5.608  -2.540  -6.361  1.00  0.00    -0.252 OA
BRANCH  81  83
ATOM     83  C   UNL     1       5.231  -4.596  -5.155  1.00  0.00     0.119 C 
ATOM     84  C   UNL     1       4.654  -5.795  -5.918  1.00  0.00     0.100 C 
ATOM     85  C   UNL     1       5.515  -5.204  -3.734  1.00  0.00     0.027 C 
ATOM     86  C   UNL     1       4.999  -7.003  -5.003  1.00  0.00     0.025 C 
ATOM     87  C   UNL     1       4.407  -5.997  -3.058  1.00  0.00    -0.027 C 
ATOM     88  C   UNL     1       6.238  -6.487  -4.222  1.00  0.00     0.017 C 
ATOM     89  C   UNL     1       4.092  -7.056  -3.821  1.00  0.00    -0.027 C 
BRANCH  84  90
ATOM     90  C   UNL     1       3.294  -5.670  -6.612  1.00  0.00     0.229 C 
ATOM     91  O   UNL     1       3.332  -5.517  -7.849  1.00  0.00    -0.274 OA
ATOM     92  N   UNL     1       2.029  -5.803  -6.147  1.00  0.00    -0.323 N 
ATOM     93  H   UNL     1       1.412  -5.950  -6.900  1.00  0.00     0.170 HD
BRANCH  92  94
ATOM     94  C   UNL     1       1.309  -5.799  -4.936  1.00  0.00     0.078 A 
ATOM     95  C   UNL     1       0.092  -6.497  -4.933  1.00  0.00     0.029 A 
ATOM     96  C   UNL     1       1.641  -5.112  -3.775  1.00  0.00     0.165 A 
ATOM     97  C   UNL     1      -0.697  -6.589  -3.777  1.00  0.00     0.004 A 
ATOM     98  C   UNL     1       0.874  -5.213  -2.607  1.00  0.00     0.078 A 
ATOM     99  F   UNL     1       2.706  -4.322  -3.781  1.00  0.00    -0.203 F 
ATOM    100  C   UNL     1      -0.295  -5.960  -2.604  1.00  0.00     0.024 A 
ATOM    101  Cl  UNL     1       1.366  -4.474  -1.129  1.00  0.00    -0.081 Cl
ENDBRANCH  92  94
ENDBRANCH  84  90
ENDBRANCH  81  83
ENDBRANCH  80  81
ENDBRANCH  79  80
ENDBRANCH  78  79
ENDBRANCH  77  78
ENDBRANCH  76  77
ENDBRANCH  75  76
ENDBRANCH  74  75
ENDBRANCH   1  74
TORSDOF 25
