REMARK SMILES O=C(OCCOCCOCCOCCOC(=O)[C@H]1[C@H]2CC[C@H](C2)[C@@H]1C(=O)Nc1sc2c(c1C(=O)NC1CCCCC1)CCCC2)c1ccc(-c2c3nc(c(-c4cc(S(=O)(=O)[O-])ccc4F)c4ccc([nH]4)c(-c4cc(S(=O)(=O)[O-])ccc4F)c4nc(c(-c5cc(S(=O)(=O)[O-])ccc5F)c5ccc2[nH]5)C=C4)C=C3)cc1
REMARK SMILES IDX 10 1 9 2 8 3 7 4 6 5 5 6 4 7 3 8 2 9 1 10 46 11 47 12 108 13
REMARK SMILES IDX 48 14 107 15 49 16 50 17 51 18 101 19 52 20 106 21 100 22
REMARK SMILES IDX 102 23 53 24 105 25 99 26 98 27 54 29 86 30 66 31 85 32
REMARK SMILES IDX 67 33 70 34 84 35 103 36 68 37 69 38 83 40 104 41 71 42
REMARK SMILES IDX 55 43 56 44 64 45 57 46 63 47 65 48 62 49 58 50 59 51 60 52
REMARK SMILES IDX 61 53 87 54 88 55 96 56 89 57 95 58 97 59 94 60 90 61 91 62
REMARK SMILES IDX 92 63 93 64 72 65 73 66 81 67 74 68 80 69 82 70 79 71 75 72
REMARK SMILES IDX 76 73 77 74 78 75 11 76 12 77 13 78 14 79 15 80 16 81 17 82
REMARK SMILES IDX 18 83 19 84 24 85 20 86 23 87 22 88 21 89 25 90 26 91 27 92
REMARK SMILES IDX 28 94 29 95 32 96 30 97 31 98 45 99 42 100 44 101 43 102
REMARK SMILES IDX 33 103 34 104 35 105 36 107 37 108 41 109 38 110 40 111
REMARK SMILES IDX 39 112
REMARK H PARENT 102 28 70 39 27 93 35 106
REMARK Flexibility Score: inf
ROOT
ATOM      1  C   UNL     1       6.998   2.198  -5.059  1.00  0.00     0.188 C 
ENDROOT
BRANCH   1   2
ATOM      2  O   UNL     1       7.068   3.618  -4.987  1.00  0.00    -0.377 OA
BRANCH   2   3
ATOM      3  C   UNL     1       8.381   4.154  -4.891  1.00  0.00     0.188 C 
BRANCH   3   4
ATOM      4  C   UNL     1       9.294   3.460  -3.881  1.00  0.00     0.188 C 
BRANCH   4   5
ATOM      5  O   UNL     1       9.655   2.137  -4.290  1.00  0.00    -0.376 OA
BRANCH   5   6
ATOM      6  C   UNL     1       9.587   1.128  -3.276  1.00  0.00     0.202 C 
BRANCH   6   7
ATOM      7  C   UNL     1      10.784   1.097  -2.325  1.00  0.00     0.261 C 
BRANCH   7   8
ATOM      8  O   UNL     1      11.351   2.394  -2.095  1.00  0.00    -0.460 OA
BRANCH   8   9
ATOM      9  C   UNL     1      12.211   3.088  -2.883  1.00  0.00     0.338 C 
ATOM     10  O   UNL     1      12.526   4.222  -2.516  1.00  0.00    -0.246 OA
BRANCH   9  11
ATOM     11  C   UNL     1      12.776   2.599  -4.188  1.00  0.00     0.060 A 
ATOM     12  C   UNL     1      12.362   1.466  -4.891  1.00  0.00     0.016 A 
ATOM     13  C   UNL     1      13.810   3.368  -4.757  1.00  0.00     0.016 A 
ATOM     14  C   UNL     1      12.981   1.057  -6.058  1.00  0.00     0.010 A 
ATOM     15  C   UNL     1      14.464   2.956  -5.923  1.00  0.00     0.010 A 
ATOM     16  C   UNL     1      14.079   1.760  -6.534  1.00  0.00    -0.014 A 
BRANCH  16  17
ATOM     17  C   UNL     1      14.971   0.999  -7.425  1.00  0.00     0.031 A 
ATOM     18  C   UNL     1      16.117   0.281  -6.766  1.00  0.00     0.074 A 
ATOM     19  C   UNL     1      14.605   0.755  -8.694  1.00  0.00     0.049 A 
ATOM     20  N   UNL     1      17.027  -0.493  -7.287  1.00  0.00    -0.248 NA
ATOM     21  C   UNL     1      16.230   0.439  -5.304  1.00  0.00     0.031 C 
ATOM     22  C   UNL     1      13.382   1.256  -9.326  1.00  0.00     0.029 A 
ATOM     23  N   UNL     1      15.188  -0.019  -9.657  1.00  0.00    -0.354 N 
ATOM     24  C   UNL     1      17.837  -0.883  -6.224  1.00  0.00     0.074 A 
ATOM     25  C   UNL     1      17.317  -0.260  -5.032  1.00  0.00     0.031 C 
ATOM     26  C   UNL     1      13.298   0.755 -10.570  1.00  0.00     0.029 A 
ATOM     27  C   UNL     1      14.492  -0.038 -10.842  1.00  0.00     0.049 A 
ATOM     28  H   UNL     1      16.026  -0.517  -9.515  1.00  0.00     0.167 HD
ATOM     29  C   UNL     1      18.926  -1.686  -6.255  1.00  0.00     0.034 A 
ATOM     30  C   UNL     1      14.819  -0.610 -12.017  1.00  0.00     0.034 A 
ATOM     31  C   UNL     1      19.404  -2.275  -7.479  1.00  0.00     0.049 A 
ATOM     32  C   UNL     1      16.115  -1.385 -12.063  1.00  0.00     0.074 A 
ATOM     33  C   UNL     1      20.546  -3.019  -7.699  1.00  0.00     0.029 A 
ATOM     34  N   UNL     1      18.748  -2.171  -8.704  1.00  0.00    -0.354 N 
ATOM     35  N   UNL     1      16.953  -1.653 -11.084  1.00  0.00    -0.248 NA
ATOM     36  C   UNL     1      16.512  -1.929 -13.364  1.00  0.00     0.031 C 
ATOM     37  C   UNL     1      20.617  -3.301  -9.069  1.00  0.00     0.029 A 
ATOM     38  C   UNL     1      19.474  -2.815  -9.689  1.00  0.00     0.049 A 
ATOM     39  H   UNL     1      17.892  -1.707  -8.847  1.00  0.00     0.167 HD
ATOM     40  C   UNL     1      17.964  -2.425 -11.647  1.00  0.00     0.074 A 
ATOM     41  C   UNL     1      17.614  -2.592 -13.046  1.00  0.00     0.031 C 
ATOM     42  C   UNL     1      19.078  -2.952 -11.073  1.00  0.00     0.034 A 
BRANCH  29  43
ATOM     43  C   UNL     1      19.707  -1.829  -4.970  1.00  0.00     0.023 A 
ATOM     44  C   UNL     1      19.161  -2.421  -3.816  1.00  0.00     0.031 A 
ATOM     45  C   UNL     1      20.980  -1.240  -4.865  1.00  0.00     0.131 A 
ATOM     46  C   UNL     1      19.845  -2.327  -2.591  1.00  0.00     0.055 A 
ATOM     47  C   UNL     1      21.692  -1.229  -3.665  1.00  0.00     0.041 A 
ATOM     48  F   UNL     1      21.537  -0.625  -5.920  1.00  0.00    -0.206 F 
ATOM     49  C   UNL     1      21.117  -1.757  -2.514  1.00  0.00     0.022 A 
BRANCH  46  50
ATOM     50  S   UNL     1      18.975  -2.796  -1.067  1.00  0.00     0.124 S 
ATOM     51  O   UNL     1      17.837  -1.879  -1.083  1.00  0.00    -0.237 OA
ATOM     52  O   UNL     1      18.665  -4.202  -1.298  1.00  0.00    -0.237 OA
ATOM     53  O   UNL     1      19.958  -2.538  -0.017  1.00  0.00    -0.744 OA
ENDBRANCH  46  50
ENDBRANCH  29  43
BRANCH  30  54
ATOM     54  C   UNL     1      13.975  -0.414 -13.234  1.00  0.00     0.023 A 
ATOM     55  C   UNL     1      13.441  -1.502 -13.944  1.00  0.00     0.031 A 
ATOM     56  C   UNL     1      13.740   0.877 -13.746  1.00  0.00     0.131 A 
ATOM     57  C   UNL     1      12.743  -1.283 -15.145  1.00  0.00     0.055 A 
ATOM     58  C   UNL     1      12.993   1.093 -14.906  1.00  0.00     0.041 A 
ATOM     59  F   UNL     1      14.234   1.958 -13.122  1.00  0.00    -0.206 F 
ATOM     60  C   UNL     1      12.503   0.007 -15.622  1.00  0.00     0.022 A 
BRANCH  57  61
ATOM     61  S   UNL     1      12.240  -2.717 -16.136  1.00  0.00     0.124 S 
ATOM     62  O   UNL     1      13.513  -3.399 -16.341  1.00  0.00    -0.237 OA
ATOM     63  O   UNL     1      11.291  -3.381 -15.249  1.00  0.00    -0.237 OA
ATOM     64  O   UNL     1      11.655  -2.116 -17.333  1.00  0.00    -0.744 OA
ENDBRANCH  57  61
ENDBRANCH  30  54
BRANCH  42  65
ATOM     65  C   UNL     1      19.949  -3.805 -11.957  1.00  0.00     0.023 A 
ATOM     66  C   UNL     1      20.647  -3.265 -13.050  1.00  0.00     0.031 A 
ATOM     67  C   UNL     1      20.068  -5.183 -11.703  1.00  0.00     0.131 A 
ATOM     68  C   UNL     1      21.376  -4.114 -13.893  1.00  0.00     0.055 A 
ATOM     69  C   UNL     1      20.858  -6.008 -12.501  1.00  0.00     0.041 A 
ATOM     70  F   UNL     1      19.420  -5.746 -10.670  1.00  0.00    -0.206 F 
ATOM     71  C   UNL     1      21.503  -5.477 -13.614  1.00  0.00     0.022 A 
BRANCH  68  72
ATOM     72  S   UNL     1      22.053  -3.431 -15.429  1.00  0.00     0.124 S 
ATOM     73  O   UNL     1      20.858  -2.894 -16.074  1.00  0.00    -0.237 OA
ATOM     74  O   UNL     1      23.009  -2.445 -14.938  1.00  0.00    -0.237 OA
ATOM     75  O   UNL     1      22.644  -4.594 -16.089  1.00  0.00    -0.744 OA
ENDBRANCH  68  72
ENDBRANCH  42  65
ENDBRANCH  16  17
ENDBRANCH   9  11
ENDBRANCH   8   9
ENDBRANCH   7   8
ENDBRANCH   6   7
ENDBRANCH   5   6
ENDBRANCH   4   5
ENDBRANCH   3   4
ENDBRANCH   2   3
ENDBRANCH   1   2
BRANCH   1  76
ATOM     76  C   UNL     1       7.705   1.485  -6.240  1.00  0.00     0.188 C 
BRANCH  76  77
ATOM     77  O   UNL     1       8.346   2.376  -7.135  1.00  0.00    -0.376 OA
BRANCH  77  78
ATOM     78  C   UNL     1       7.562   2.802  -8.243  1.00  0.00     0.202 C 
BRANCH  78  79
ATOM     79  C   UNL     1       6.145   3.350  -7.967  1.00  0.00     0.261 C 
BRANCH  79  80
ATOM     80  O   UNL     1       5.316   2.539  -7.093  1.00  0.00    -0.463 OA
BRANCH  80  81
ATOM     81  C   UNL     1       4.740   1.432  -7.602  1.00  0.00     0.310 C 
ATOM     82  O   UNL     1       4.709   1.224  -8.813  1.00  0.00    -0.252 OA
BRANCH  81  83
ATOM     83  C   UNL     1       4.038   0.545  -6.529  1.00  0.00     0.115 C 
ATOM     84  C   UNL     1       3.325  -0.570  -7.368  1.00  0.00     0.004 C 
ATOM     85  C   UNL     1       4.782  -0.355  -5.468  1.00  0.00     0.096 C 
ATOM     86  C   UNL     1       4.327  -1.545  -8.039  1.00  0.00     0.005 C 
ATOM     87  C   UNL     1       2.783  -1.455  -6.279  1.00  0.00     0.009 C 
ATOM     88  C   UNL     1       4.147  -1.754  -5.673  1.00  0.00     0.003 C 
ATOM     89  C   UNL     1       4.839  -2.404  -6.875  1.00  0.00     0.005 C 
BRANCH  85  90
ATOM     90  C   UNL     1       4.957  -0.058  -3.945  1.00  0.00     0.229 C 
ATOM     91  O   UNL     1       6.098  -0.207  -3.470  1.00  0.00    -0.274 OA
ATOM     92  N   UNL     1       4.013   0.328  -3.048  1.00  0.00    -0.317 N 
ATOM     93  H   UNL     1       4.333   0.565  -2.147  1.00  0.00     0.170 HD
BRANCH  92  94
ATOM     94  C   UNL     1       2.672   0.423  -3.259  1.00  0.00     0.108 A 
ATOM     95  S   UNL     1       1.787  -1.035  -3.086  1.00  0.00    -0.122 S 
ATOM     96  C   UNL     1       1.786   1.487  -3.118  1.00  0.00     0.078 A 
ATOM     97  C   UNL     1       0.525  -0.293  -3.959  1.00  0.00     0.011 A 
ATOM     98  C   UNL     1       0.668   1.096  -3.972  1.00  0.00    -0.019 A 
ATOM     99  C   UNL     1      -0.461  -1.112  -4.737  1.00  0.00     0.047 C 
ATOM    100  C   UNL     1      -0.165   1.888  -4.946  1.00  0.00     0.037 C 
ATOM    101  C   UNL     1      -1.094  -0.270  -5.852  1.00  0.00     0.006 C 
ATOM    102  C   UNL     1      -1.441   1.130  -5.347  1.00  0.00     0.005 C 
BRANCH  96 103
ATOM    103  C   UNL     1       2.231   2.714  -2.432  1.00  0.00     0.254 C 
ATOM    104  O   UNL     1       3.426   2.925  -2.209  1.00  0.00    -0.269 OA
ATOM    105  N   UNL     1       1.351   3.593  -1.841  1.00  0.00    -0.349 N 
ATOM    106  H   UNL     1       1.760   4.257  -1.240  1.00  0.00     0.164 HD
BRANCH 105 107
ATOM    107  C   UNL     1      -0.077   3.683  -1.975  1.00  0.00     0.082 C 
ATOM    108  C   UNL     1      -0.864   2.613  -1.222  1.00  0.00     0.025 C 
ATOM    109  C   UNL     1      -0.649   5.067  -1.662  1.00  0.00     0.025 C 
ATOM    110  C   UNL     1      -2.311   2.623  -1.713  1.00  0.00     0.002 C 
ATOM    111  C   UNL     1      -2.086   5.123  -2.191  1.00  0.00     0.002 C 
ATOM    112  C   UNL     1      -2.957   4.005  -1.612  1.00  0.00     0.000 C 
ENDBRANCH 105 107
ENDBRANCH  96 103
ENDBRANCH  92  94
ENDBRANCH  85  90
ENDBRANCH  81  83
ENDBRANCH  80  81
ENDBRANCH  79  80
ENDBRANCH  78  79
ENDBRANCH  77  78
ENDBRANCH  76  77
ENDBRANCH   1  76
TORSDOF 27
