REMARK SMILES Cc1cc(Br)cc([N+](=O)[O-])c1OCCC[C@@](C)([NH3+])C(=O)OCCOCCOCCOCCOC(=O)c1ccc(-c2c3nc(c(-c4cc(S(=O)(=O)[O-])ccc4F)c4ccc([nH]4)c(-c4cc(S(=O)(=O)[O-])ccc4F)c4nc(c(-c5cc(S(=O)(=O)[O-])ccc5F)c5ccc2[nH]5)C=C4)C=C3)cc1
REMARK SMILES IDX 25 1 24 2 23 3 22 4 21 5 19 6 20 7 16 8 17 9 15 10 14 11
REMARK SMILES IDX 13 12 12 13 11 14 1 15 2 16 3 17 4 18 7 19 5 20 6 21 8 22
REMARK SMILES IDX 9 23 10 24 18 25 26 29 27 30 28 31 29 32 30 33 31 34 32 35
REMARK SMILES IDX 33 36 34 37 35 38 36 39 37 40 98 41 38 42 97 43 39 44 40 45
REMARK SMILES IDX 41 46 91 47 42 48 96 49 90 50 92 51 43 52 95 53 89 54 88 55
REMARK SMILES IDX 44 57 76 58 56 59 75 60 57 61 60 62 74 63 93 64 58 65 59 66
REMARK SMILES IDX 73 68 94 69 61 70 45 71 46 72 54 73 47 74 53 75 55 76 52 77
REMARK SMILES IDX 48 78 49 79 50 80 51 81 77 82 78 83 86 84 79 85 85 86 87 87
REMARK SMILES IDX 84 88 80 89 81 90 82 91 83 92 62 93 63 94 71 95 64 96 70 97
REMARK SMILES IDX 72 98 69 99 65 100 66 101 67 102 68 103
REMARK H PARENT 18 26 18 27 18 28 92 56 60 67
REMARK Flexibility Score: inf
ROOT
ATOM      1  C   UNL     1      -2.430  -0.433   2.026  1.00  0.00     0.188 C 
ENDROOT
BRANCH   1   2
ATOM      2  O   UNL     1      -3.316   0.268   2.875  1.00  0.00    -0.376 OA
BRANCH   2   3
ATOM      3  C   UNL     1      -4.308  -0.416   3.630  1.00  0.00     0.202 C 
BRANCH   3   4
ATOM      4  C   UNL     1      -4.509  -1.933   3.541  1.00  0.00     0.261 C 
BRANCH   4   5
ATOM      5  O   UNL     1      -4.329  -2.514   2.242  1.00  0.00    -0.459 OA
BRANCH   5   6
ATOM      6  C   UNL     1      -5.306  -2.344   1.309  1.00  0.00     0.367 C 
ATOM      7  O   UNL     1      -6.314  -1.674   1.475  1.00  0.00    -0.245 OA
BRANCH   6   8
ATOM      8  C   UNL     1      -4.974  -3.171   0.030  1.00  0.00     0.190 C 
ATOM      9  C   UNL     1      -5.944  -4.366   0.050  1.00  0.00     0.092 C 
BRANCH   8  10
ATOM     10  C   UNL     1      -5.081  -2.398  -1.326  1.00  0.00     0.084 C 
BRANCH  10  11
ATOM     11  C   UNL     1      -5.559  -0.929  -1.379  1.00  0.00     0.049 C 
BRANCH  11  12
ATOM     12  C   UNL     1      -4.661   0.203  -0.831  1.00  0.00     0.230 C 
BRANCH  12  13
ATOM     13  O   UNL     1      -3.663   0.582  -1.794  1.00  0.00    -0.487 OA
BRANCH  13  14
ATOM     14  C   UNL     1      -2.409   0.947  -1.349  1.00  0.00     0.200 A 
ATOM     15  C   UNL     1      -1.741  -1.502  -1.436  1.00  0.00     0.049 C 
ATOM     16  C   UNL     1      -1.408  -0.048  -1.429  1.00  0.00    -0.001 A 
ATOM     17  C   UNL     1      -0.050   0.294  -1.514  1.00  0.00     0.023 A 
ATOM     18  C   UNL     1       0.339   1.621  -1.460  1.00  0.00     0.025 A 
ATOM     19  C   UNL     1      -1.987   2.282  -1.183  1.00  0.00     0.312 A 
ATOM     20  Br  UNL     1       2.162   2.064  -1.674  1.00  0.00    -0.051 Br
ATOM     21  C   UNL     1      -0.611   2.612  -1.245  1.00  0.00     0.105 A 
BRANCH  19  22
ATOM     22  N   UNL     1      -2.914   3.389  -0.909  1.00  0.00     0.066 N 
ATOM     23  O   UNL     1      -2.422   4.520  -0.759  1.00  0.00    -0.258 OA
ATOM     24  O   UNL     1      -4.123   3.156  -0.819  1.00  0.00    -0.258 OA
ENDBRANCH  19  22
ENDBRANCH  13  14
ENDBRANCH  12  13
ENDBRANCH  11  12
ENDBRANCH  10  11
ENDBRANCH   8  10
BRANCH   8  25
ATOM     25  N   UNL     1      -3.651  -3.860   0.146  1.00  0.00    -0.344 N 
ATOM     26  H   UNL     1      -3.467  -4.390  -0.706  1.00  0.00     0.345 HD
ATOM     27  H   UNL     1      -3.667  -4.494   0.945  1.00  0.00     0.345 HD
ATOM     28  H   UNL     1      -2.916  -3.165   0.279  1.00  0.00     0.345 HD
ENDBRANCH   8  25
ENDBRANCH   6   8
ENDBRANCH   5   6
ENDBRANCH   4   5
ENDBRANCH   3   4
ENDBRANCH   2   3
ENDBRANCH   1   2
BRANCH   1  29
ATOM     29  C   UNL     1      -1.482  -1.448   2.655  1.00  0.00     0.188 C 
BRANCH  29  30
ATOM     30  O   UNL     1      -1.488  -1.368   4.069  1.00  0.00    -0.377 OA
BRANCH  30  31
ATOM     31  C   UNL     1      -0.371  -0.659   4.591  1.00  0.00     0.188 C 
BRANCH  31  32
ATOM     32  C   UNL     1      -0.294   0.826   4.200  1.00  0.00     0.188 C 
BRANCH  32  33
ATOM     33  O   UNL     1      -0.077   1.016   2.796  1.00  0.00    -0.376 OA
BRANCH  33  34
ATOM     34  C   UNL     1       1.190   1.540   2.412  1.00  0.00     0.202 C 
BRANCH  34  35
ATOM     35  C   UNL     1       2.184   0.428   2.053  1.00  0.00     0.261 C 
BRANCH  35  36
ATOM     36  O   UNL     1       2.498  -0.442   3.149  1.00  0.00    -0.460 OA
BRANCH  36  37
ATOM     37  C   UNL     1       3.073   0.146   4.224  1.00  0.00     0.338 C 
ATOM     38  O   UNL     1       3.458   1.300   4.305  1.00  0.00    -0.246 OA
BRANCH  37  39
ATOM     39  C   UNL     1       2.918  -0.774   5.366  1.00  0.00     0.060 A 
ATOM     40  C   UNL     1       2.352  -0.269   6.543  1.00  0.00     0.016 A 
ATOM     41  C   UNL     1       3.243  -2.131   5.254  1.00  0.00     0.016 A 
ATOM     42  C   UNL     1       2.133  -1.118   7.623  1.00  0.00     0.010 A 
ATOM     43  C   UNL     1       3.047  -2.977   6.346  1.00  0.00     0.010 A 
ATOM     44  C   UNL     1       2.525  -2.462   7.544  1.00  0.00    -0.014 A 
BRANCH  44  45
ATOM     45  C   UNL     1       2.640  -3.228   8.803  1.00  0.00     0.031 A 
ATOM     46  C   UNL     1       3.955  -3.156   9.530  1.00  0.00     0.074 A 
ATOM     47  C   UNL     1       1.594  -3.897   9.318  1.00  0.00     0.049 A 
ATOM     48  N   UNL     1       4.292  -3.641  10.694  1.00  0.00    -0.248 NA
ATOM     49  C   UNL     1       5.035  -2.427   8.843  1.00  0.00     0.031 C 
ATOM     50  C   UNL     1       0.272  -4.003   8.703  1.00  0.00     0.029 A 
ATOM     51  N   UNL     1       1.480  -4.604  10.486  1.00  0.00    -0.354 N 
ATOM     52  C   UNL     1       5.614  -3.254  10.891  1.00  0.00     0.074 A 
ATOM     53  C   UNL     1       6.033  -2.546   9.702  1.00  0.00     0.031 C 
ATOM     54  C   UNL     1      -0.524  -4.732   9.506  1.00  0.00     0.029 A 
ATOM     55  C   UNL     1       0.235  -5.156  10.681  1.00  0.00     0.049 A 
ATOM     56  H   UNL     1       2.220  -4.708  11.127  1.00  0.00     0.167 HD
ATOM     57  C   UNL     1       6.401  -3.456  11.974  1.00  0.00     0.034 A 
ATOM     58  C   UNL     1      -0.226  -5.914  11.696  1.00  0.00     0.034 A 
ATOM     59  C   UNL     1       5.975  -4.206  13.128  1.00  0.00     0.049 A 
ATOM     60  C   UNL     1       0.697  -6.199  12.859  1.00  0.00     0.074 A 
ATOM     61  C   UNL     1       6.685  -4.505  14.276  1.00  0.00     0.029 A 
ATOM     62  N   UNL     1       4.722  -4.793  13.270  1.00  0.00    -0.354 N 
ATOM     63  N   UNL     1       1.938  -5.806  13.049  1.00  0.00    -0.248 NA
ATOM     64  C   UNL     1       0.150  -7.009  13.954  1.00  0.00     0.031 C 
ATOM     65  C   UNL     1       5.889  -5.330  15.079  1.00  0.00     0.029 A 
ATOM     66  C   UNL     1       4.650  -5.476  14.473  1.00  0.00     0.049 A 
ATOM     67  H   UNL     1       3.993  -4.732  12.612  1.00  0.00     0.167 HD
ATOM     68  C   UNL     1       2.304  -6.293  14.302  1.00  0.00     0.074 A 
ATOM     69  C   UNL     1       1.146  -6.990  14.826  1.00  0.00     0.031 C 
ATOM     70  C   UNL     1       3.484  -6.173  14.966  1.00  0.00     0.034 A 
BRANCH  57  71
ATOM     71  C   UNL     1       7.805  -2.908  11.912  1.00  0.00     0.023 A 
ATOM     72  C   UNL     1       8.055  -1.526  11.812  1.00  0.00     0.031 A 
ATOM     73  C   UNL     1       8.908  -3.779  11.882  1.00  0.00     0.131 A 
ATOM     74  C   UNL     1       9.364  -1.063  11.609  1.00  0.00     0.055 A 
ATOM     75  C   UNL     1      10.216  -3.306  11.763  1.00  0.00     0.041 A 
ATOM     76  F   UNL     1       8.730  -5.108  11.940  1.00  0.00    -0.206 F 
ATOM     77  C   UNL     1      10.449  -1.942  11.609  1.00  0.00     0.022 A 
BRANCH  74  78
ATOM     78  S   UNL     1       9.613   0.684  11.188  1.00  0.00     0.124 S 
ATOM     79  O   UNL     1       8.826   0.807   9.963  1.00  0.00    -0.237 OA
ATOM     80  O   UNL     1       9.082   1.370  12.360  1.00  0.00    -0.237 OA
ATOM     81  O   UNL     1      11.059   0.790  11.004  1.00  0.00    -0.744 OA
ENDBRANCH  74  78
ENDBRANCH  57  71
BRANCH  58  82
ATOM     82  C   UNL     1      -1.611  -6.471  11.664  1.00  0.00     0.023 A 
ATOM     83  C   UNL     1      -2.566  -6.120  12.633  1.00  0.00     0.031 A 
ATOM     84  C   UNL     1      -1.981  -7.418  10.692  1.00  0.00     0.131 A 
ATOM     85  C   UNL     1      -3.824  -6.746  12.638  1.00  0.00     0.055 A 
ATOM     86  C   UNL     1      -3.250  -7.999  10.669  1.00  0.00     0.041 A 
ATOM     87  F   UNL     1      -1.108  -7.793   9.742  1.00  0.00    -0.206 F 
ATOM     88  C   UNL     1      -4.176  -7.674  11.655  1.00  0.00     0.022 A 
BRANCH  85  89
ATOM     89  S   UNL     1      -4.967  -6.397  14.003  1.00  0.00     0.124 S 
ATOM     90  O   UNL     1      -4.171  -6.781  15.163  1.00  0.00    -0.237 OA
ATOM     91  O   UNL     1      -5.209  -4.968  13.835  1.00  0.00    -0.237 OA
ATOM     92  O   UNL     1      -6.112  -7.258  13.717  1.00  0.00    -0.744 OA
ENDBRANCH  85  89
ENDBRANCH  58  82
BRANCH  70  93
ATOM     93  C   UNL     1       3.552  -6.773  16.351  1.00  0.00     0.023 A 
ATOM     94  C   UNL     1       3.446  -8.158  16.564  1.00  0.00     0.031 A 
ATOM     95  C   UNL     1       3.704  -5.940  17.474  1.00  0.00     0.131 A 
ATOM     96  C   UNL     1       3.418  -8.662  17.873  1.00  0.00     0.055 A 
ATOM     97  C   UNL     1       3.746  -6.455  18.770  1.00  0.00     0.041 A 
ATOM     98  F   UNL     1       3.811  -4.610  17.329  1.00  0.00    -0.206 F 
ATOM     99  C   UNL     1       3.585  -7.822  18.976  1.00  0.00     0.022 A 
BRANCH  96 100
ATOM    100  S   UNL     1       3.036 -10.418  18.118  1.00  0.00     0.124 S 
ATOM    101  O   UNL     1       1.760 -10.551  17.423  1.00  0.00    -0.237 OA
ATOM    102  O   UNL     1       4.176 -11.075  17.487  1.00  0.00    -0.237 OA
ATOM    103  O   UNL     1       2.968 -10.555  19.572  1.00  0.00    -0.744 OA
ENDBRANCH  96 100
ENDBRANCH  70  93
ENDBRANCH  44  45
ENDBRANCH  37  39
ENDBRANCH  36  37
ENDBRANCH  35  36
ENDBRANCH  34  35
ENDBRANCH  33  34
ENDBRANCH  32  33
ENDBRANCH  31  32
ENDBRANCH  30  31
ENDBRANCH  29  30
ENDBRANCH   1  29
TORSDOF 30
