REMARK SMILES C[C@@H]1CCC[C@H]1NC(=O)c1csc(/C=C/C(=O)OCCOCCOCCOCCOC(=O)c2ccc(-c3c4nc(c(-c5cc(S(=O)(=O)[O-])ccc5F)c5ccc([nH]5)c(-c5cc(S(=O)(=O)[O-])ccc5F)c5nc(c(-c6cc(S(=O)(=O)[O-])ccc6F)c6ccc3[nH]6)C=C5)C=C4)cc2)c1
REMARK SMILES IDX 24 1 23 2 22 3 21 4 20 5 19 6 18 7 16 8 17 9 15 10 14 11
REMARK SMILES IDX 13 12 10 13 11 14 96 15 12 16 8 17 7 18 9 20 6 21 1 22 2 23
REMARK SMILES IDX 3 24 4 25 5 26 25 27 26 28 27 29 28 30 29 31 30 32 31 33
REMARK SMILES IDX 32 34 33 35 34 36 95 37 35 38 94 39 36 40 37 41 38 42 88 43
REMARK SMILES IDX 39 44 93 45 87 46 89 47 40 48 92 49 86 50 85 51 41 53 73 54
REMARK SMILES IDX 53 55 72 56 54 57 57 58 71 59 90 60 55 61 56 62 70 64 91 65
REMARK SMILES IDX 58 66 42 67 43 68 51 69 44 70 50 71 52 72 49 73 45 74 46 75
REMARK SMILES IDX 47 76 48 77 74 78 75 79 83 80 76 81 82 82 84 83 81 84 77 85
REMARK SMILES IDX 78 86 79 87 80 88 59 89 60 90 68 91 61 92 67 93 69 94 66 95
REMARK SMILES IDX 62 96 63 97 64 98 65 99
REMARK H PARENT 7 19 89 52 57 63
REMARK Flexibility Score: inf
ROOT
ATOM      1  O   UNL     1       6.061   7.529   2.714  1.00  0.00    -0.377 OA
ENDROOT
BRANCH   1   2
ATOM      2  C   UNL     1       5.606   7.637   1.377  1.00  0.00     0.188 C 
BRANCH   2   3
ATOM      3  C   UNL     1       5.416   9.076   0.863  1.00  0.00     0.188 C 
BRANCH   3   4
ATOM      4  O   UNL     1       6.169  10.049   1.561  1.00  0.00    -0.376 OA
BRANCH   4   5
ATOM      5  C   UNL     1       5.643  10.752   2.672  1.00  0.00     0.202 C 
BRANCH   5   6
ATOM      6  C   UNL     1       4.635  10.178   3.685  1.00  0.00     0.261 C 
BRANCH   6   7
ATOM      7  O   UNL     1       3.786   9.119   3.247  1.00  0.00    -0.460 OA
BRANCH   7   8
ATOM      8  C   UNL     1       2.691   9.462   2.545  1.00  0.00     0.330 C 
ATOM      9  O   UNL     1       2.351  10.592   2.232  1.00  0.00    -0.247 OA
BRANCH   8  10
ATOM     10  C   UNL     1       1.996   8.257   2.043  1.00  0.00     0.095 C 
ATOM     11  C   UNL     1       2.148   7.024   2.555  1.00  0.00     0.026 C 
BRANCH  11  12
ATOM     12  C   UNL     1       1.441   5.891   2.048  1.00  0.00     0.028 A 
ATOM     13  C   UNL     1       0.289   3.816   1.982  1.00  0.00     0.051 A 
ATOM     14  C   UNL     1       0.047   4.328   0.724  1.00  0.00     0.079 A 
ATOM     15  C   UNL     1       1.111   4.731   2.732  1.00  0.00     0.033 A 
ATOM     16  S   UNL     1       0.883   5.782   0.423  1.00  0.00    -0.144 S 
BRANCH  13  17
ATOM     17  C   UNL     1      -0.298   2.605   2.547  1.00  0.00     0.252 C 
ATOM     18  N   UNL     1      -0.497   1.486   1.781  1.00  0.00    -0.349 N 
ATOM     19  H   UNL     1      -1.043   0.790   2.212  1.00  0.00     0.164 HD
ATOM     20  O   UNL     1      -0.629   2.552   3.731  1.00  0.00    -0.269 OA
BRANCH  18  21
ATOM     21  C   UNL     1      -0.042   1.147   0.437  1.00  0.00     0.085 C 
ATOM     22  C   UNL     1       1.794  -0.117  -0.764  1.00  0.00     0.010 C 
ATOM     23  C   UNL     1       0.879  -0.081   0.461  1.00  0.00     0.008 C 
ATOM     24  C   UNL     1      -0.101  -1.254   0.473  1.00  0.00     0.005 C 
ATOM     25  C   UNL     1      -1.278  -0.806  -0.388  1.00  0.00     0.002 C 
ATOM     26  C   UNL     1      -1.232   0.723  -0.430  1.00  0.00     0.025 C 
ENDBRANCH  18  21
ENDBRANCH  13  17
ENDBRANCH  11  12
ENDBRANCH   8  10
ENDBRANCH   7   8
ENDBRANCH   6   7
ENDBRANCH   5   6
ENDBRANCH   4   5
ENDBRANCH   3   4
ENDBRANCH   2   3
ENDBRANCH   1   2
BRANCH   1  27
ATOM     27  C   UNL     1       7.422   7.838   3.020  1.00  0.00     0.188 C 
BRANCH  27  28
ATOM     28  C   UNL     1       8.405   8.445   1.988  1.00  0.00     0.188 C 
BRANCH  28  29
ATOM     29  O   UNL     1       8.135   8.107   0.635  1.00  0.00    -0.376 OA
BRANCH  29  30
ATOM     30  C   UNL     1       9.005   7.193  -0.007  1.00  0.00     0.202 C 
BRANCH  30  31
ATOM     31  C   UNL     1       8.961   5.747   0.506  1.00  0.00     0.261 C 
BRANCH  31  32
ATOM     32  O   UNL     1       9.214   5.573   1.908  1.00  0.00    -0.460 OA
BRANCH  32  33
ATOM     33  C   UNL     1      10.448   5.900   2.349  1.00  0.00     0.338 C 
ATOM     34  O   UNL     1      11.376   6.319   1.674  1.00  0.00    -0.246 OA
BRANCH  33  35
ATOM     35  C   UNL     1      10.433   5.848   3.825  1.00  0.00     0.060 A 
ATOM     36  C   UNL     1      10.738   7.008   4.549  1.00  0.00     0.016 A 
ATOM     37  C   UNL     1      10.119   4.660   4.490  1.00  0.00     0.016 A 
ATOM     38  C   UNL     1      10.772   6.970   5.943  1.00  0.00     0.010 A 
ATOM     39  C   UNL     1      10.169   4.620   5.887  1.00  0.00     0.010 A 
ATOM     40  C   UNL     1      10.533   5.765   6.619  1.00  0.00    -0.014 A 
BRANCH  40  41
ATOM     41  C   UNL     1      10.860   5.657   8.064  1.00  0.00     0.031 A 
ATOM     42  C   UNL     1      12.172   5.026   8.453  1.00  0.00     0.074 A 
ATOM     43  C   UNL     1      10.037   6.143   9.011  1.00  0.00     0.049 A 
ATOM     44  N   UNL     1      12.665   4.792   9.640  1.00  0.00    -0.248 NA
ATOM     45  C   UNL     1      13.040   4.598   7.345  1.00  0.00     0.031 C 
ATOM     46  C   UNL     1       8.766   6.820   8.757  1.00  0.00     0.029 A 
ATOM     47  N   UNL     1      10.149   6.139  10.379  1.00  0.00    -0.354 N 
ATOM     48  C   UNL     1      13.900   4.189   9.425  1.00  0.00     0.074 A 
ATOM     49  C   UNL     1      14.057   4.052   7.993  1.00  0.00     0.031 C 
ATOM     50  C   UNL     1       8.215   7.166   9.934  1.00  0.00     0.029 A 
ATOM     51  C   UNL     1       9.070   6.698  11.025  1.00  0.00     0.049 A 
ATOM     52  H   UNL     1      10.929   5.771  10.854  1.00  0.00     0.167 HD
ATOM     53  C   UNL     1      14.825   3.798  10.336  1.00  0.00     0.034 A 
ATOM     54  C   UNL     1       8.795   6.797  12.342  1.00  0.00     0.034 A 
ATOM     55  C   UNL     1      14.648   3.928  11.762  1.00  0.00     0.049 A 
ATOM     56  C   UNL     1       9.795   6.258  13.342  1.00  0.00     0.074 A 
ATOM     57  C   UNL     1      15.521   3.569  12.774  1.00  0.00     0.029 A 
ATOM     58  N   UNL     1      13.516   4.444  12.380  1.00  0.00    -0.354 N 
ATOM     59  N   UNL     1      10.962   5.695  13.126  1.00  0.00    -0.248 NA
ATOM     60  C   UNL     1       9.442   6.378  14.763  1.00  0.00     0.031 C 
ATOM     61  C   UNL     1      14.885   3.788  14.000  1.00  0.00     0.029 A 
ATOM     62  C   UNL     1      13.654   4.377  13.759  1.00  0.00     0.049 A 
ATOM     63  H   UNL     1      12.731   4.805  11.909  1.00  0.00     0.167 HD
ATOM     64  C   UNL     1      11.497   5.431  14.386  1.00  0.00     0.074 A 
ATOM     65  C   UNL     1      10.532   5.910  15.353  1.00  0.00     0.031 C 
ATOM     66  C   UNL     1      12.681   4.852  14.716  1.00  0.00     0.034 A 
BRANCH  53  67
ATOM     67  C   UNL     1      16.082   3.144   9.813  1.00  0.00     0.023 A 
ATOM     68  C   UNL     1      16.990   3.832   8.989  1.00  0.00     0.031 A 
ATOM     69  C   UNL     1      16.363   1.801  10.122  1.00  0.00     0.131 A 
ATOM     70  C   UNL     1      18.093   3.156   8.444  1.00  0.00     0.055 A 
ATOM     71  C   UNL     1      17.509   1.160   9.648  1.00  0.00     0.041 A 
ATOM     72  F   UNL     1      15.521   1.083  10.881  1.00  0.00    -0.206 F 
ATOM     73  C   UNL     1      18.374   1.833   8.791  1.00  0.00     0.022 A 
BRANCH  70  74
ATOM     74  S   UNL     1      19.067   3.984   7.157  1.00  0.00     0.124 S 
ATOM     75  O   UNL     1      18.048   4.258   6.146  1.00  0.00    -0.237 OA
ATOM     76  O   UNL     1      19.598   5.145   7.861  1.00  0.00    -0.237 OA
ATOM     77  O   UNL     1      20.056   2.977   6.776  1.00  0.00    -0.744 OA
ENDBRANCH  70  74
ENDBRANCH  53  67
BRANCH  54  78
ATOM     78  C   UNL     1       7.507   7.391  12.810  1.00  0.00     0.023 A 
ATOM     79  C   UNL     1       7.486   8.534  13.625  1.00  0.00     0.031 A 
ATOM     80  C   UNL     1       6.277   6.778  12.507  1.00  0.00     0.131 A 
ATOM     81  C   UNL     1       6.269   8.996  14.153  1.00  0.00     0.055 A 
ATOM     82  C   UNL     1       5.064   7.279  12.983  1.00  0.00     0.041 A 
ATOM     83  F   UNL     1       6.237   5.677  11.740  1.00  0.00    -0.206 F 
ATOM     84  C   UNL     1       5.057   8.386  13.825  1.00  0.00     0.022 A 
BRANCH  81  85
ATOM     85  S   UNL     1       6.306  10.344  15.368  1.00  0.00     0.124 S 
ATOM     86  O   UNL     1       7.162   9.783  16.407  1.00  0.00    -0.237 OA
ATOM     87  O   UNL     1       6.874  11.438  14.588  1.00  0.00    -0.237 OA
ATOM     88  O   UNL     1       4.901  10.508  15.736  1.00  0.00    -0.744 OA
ENDBRANCH  81  85
ENDBRANCH  54  78
BRANCH  66  89
ATOM     89  C   UNL     1      13.022   4.758  16.186  1.00  0.00     0.023 A 
ATOM     90  C   UNL     1      12.268   3.977  17.079  1.00  0.00     0.031 A 
ATOM     91  C   UNL     1      14.117   5.475  16.703  1.00  0.00     0.131 A 
ATOM     92  C   UNL     1      12.577   3.984  18.448  1.00  0.00     0.055 A 
ATOM     93  C   UNL     1      14.465   5.419  18.053  1.00  0.00     0.041 A 
ATOM     94  F   UNL     1      14.873   6.242  15.901  1.00  0.00    -0.206 F 
ATOM     95  C   UNL     1      13.683   4.683  18.938  1.00  0.00     0.022 A 
BRANCH  92  96
ATOM     96  S   UNL     1      11.445   3.158  19.601  1.00  0.00     0.124 S 
ATOM     97  O   UNL     1      10.183   3.835  19.322  1.00  0.00    -0.237 OA
ATOM     98  O   UNL     1      11.529   1.764  19.177  1.00  0.00    -0.237 OA
ATOM     99  O   UNL     1      12.024   3.442  20.913  1.00  0.00    -0.744 OA
ENDBRANCH  92  96
ENDBRANCH  66  89
ENDBRANCH  40  41
ENDBRANCH  33  35
ENDBRANCH  32  33
ENDBRANCH  31  32
ENDBRANCH  30  31
ENDBRANCH  29  30
ENDBRANCH  28  29
ENDBRANCH  27  28
ENDBRANCH   1  27
TORSDOF 26
