REMARK SMILES CC(C)(C[NH+]1CCC(C(N)=S)CC1)C(=O)OCCOCCOCCOCCOC(=O)c1ccc(-c2c3nc(c(-c4cc(S(=O)(=O)[O-])ccc4F)c4ccc([nH]4)c(-c4cc(S(=O)(=O)[O-])ccc4F)c4nc(c(-c5cc(S(=O)(=O)[O-])ccc5F)c5ccc2[nH]5)C=C4)C=C3)cc1
REMARK SMILES IDX 21 1 20 2 19 3 18 4 17 5 16 6 14 7 15 8 2 9 1 10 3 11 4 12
REMARK SMILES IDX 5 13 6 14 13 15 7 17 12 18 8 19 9 20 11 21 10 22 22 25 23 26
REMARK SMILES IDX 24 27 25 28 26 29 27 30 28 31 29 32 30 33 31 34 32 35 93 36
REMARK SMILES IDX 33 37 92 38 34 39 35 40 36 41 86 42 37 43 91 44 85 45 87 46
REMARK SMILES IDX 38 47 90 48 84 49 83 50 39 52 71 53 51 54 70 55 52 56 55 57
REMARK SMILES IDX 69 58 88 59 53 60 54 61 68 63 89 64 56 65 40 66 41 67 49 68
REMARK SMILES IDX 42 69 48 70 50 71 47 72 43 73 44 74 45 75 46 76 72 77 73 78
REMARK SMILES IDX 81 79 74 80 80 81 82 82 79 83 75 84 76 85 77 86 78 87 57 88
REMARK SMILES IDX 58 89 66 90 59 91 65 92 67 93 64 94 60 95 61 96 62 97 63 98
REMARK H PARENT 5 16 10 23 10 24 87 51 55 62
REMARK Flexibility Score: inf
ROOT
ATOM      1  C   UNL     1       0.384   3.308   2.074  1.00  0.00     0.188 C 
ENDROOT
BRANCH   1   2
ATOM      2  C   UNL     1       1.896   3.182   1.851  1.00  0.00     0.188 C 
BRANCH   2   3
ATOM      3  O   UNL     1       2.620   4.349   1.488  1.00  0.00    -0.376 OA
BRANCH   3   4
ATOM      4  C   UNL     1       2.175   5.102   0.361  1.00  0.00     0.202 C 
BRANCH   4   5
ATOM      5  C   UNL     1       1.958   4.412  -1.005  1.00  0.00     0.261 C 
BRANCH   5   6
ATOM      6  O   UNL     1       1.001   3.320  -1.065  1.00  0.00    -0.463 OA
BRANCH   6   7
ATOM      7  C   UNL     1       1.539   2.084  -1.181  1.00  0.00     0.317 C 
ATOM      8  O   UNL     1       2.757   1.891  -1.191  1.00  0.00    -0.251 OA
BRANCH   7   9
ATOM      9  C   UNL     1       0.560   0.899  -1.339  1.00  0.00     0.111 C 
ATOM     10  C   UNL     1       0.984  -0.163  -0.308  1.00  0.00     0.029 C 
ATOM     11  C   UNL     1       0.902   0.382  -2.761  1.00  0.00     0.029 C 
BRANCH   9  12
ATOM     12  C   UNL     1      -0.991   1.139  -1.326  1.00  0.00     0.280 C 
BRANCH  12  13
ATOM     13  N   UNL     1      -1.706   1.063  -0.026  1.00  0.00    -0.334 N 
ATOM     14  C   UNL     1      -2.733   2.113   0.066  1.00  0.00     0.262 C 
ATOM     15  C   UNL     1      -2.385  -0.230   0.210  1.00  0.00     0.262 C 
ATOM     16  H   UNL     1      -0.977   1.181   0.679  1.00  0.00     0.348 HD
ATOM     17  C   UNL     1      -3.215   2.180   1.509  1.00  0.00     0.072 C 
ATOM     18  C   UNL     1      -2.951  -0.312   1.640  1.00  0.00     0.072 C 
ATOM     19  C   UNL     1      -3.842   0.883   2.021  1.00  0.00     0.058 C 
BRANCH  19  20
ATOM     20  C   UNL     1      -4.130   1.044   3.524  1.00  0.00     0.076 C 
ATOM     21  S   UNL     1      -3.160   0.521   4.780  1.00  0.00    -0.066 S 
BRANCH  20  22
ATOM     22  N   UNL     1      -5.245   1.767   3.845  1.00  0.00    -0.393 N 
ATOM     23  H   UNL     1      -5.842   2.093   3.134  1.00  0.00     0.157 HD
ATOM     24  H   UNL     1      -5.451   1.961   4.788  1.00  0.00     0.157 HD
ENDBRANCH  20  22
ENDBRANCH  19  20
ENDBRANCH  12  13
ENDBRANCH   9  12
ENDBRANCH   7   9
ENDBRANCH   6   7
ENDBRANCH   5   6
ENDBRANCH   4   5
ENDBRANCH   3   4
ENDBRANCH   2   3
ENDBRANCH   1   2
BRANCH   1  25
ATOM     25  O   UNL     1      -0.255   4.109   1.099  1.00  0.00    -0.377 OA
BRANCH  25  26
ATOM     26  C   UNL     1      -1.102   5.184   1.487  1.00  0.00     0.188 C 
BRANCH  26  27
ATOM     27  C   UNL     1      -0.748   5.975   2.756  1.00  0.00     0.188 C 
BRANCH  27  28
ATOM     28  O   UNL     1      -0.967   5.375   4.036  1.00  0.00    -0.376 OA
BRANCH  28  29
ATOM     29  C   UNL     1      -2.016   4.424   4.171  1.00  0.00     0.202 C 
BRANCH  29  30
ATOM     30  C   UNL     1      -3.424   4.985   4.322  1.00  0.00     0.261 C 
BRANCH  30  31
ATOM     31  O   UNL     1      -3.873   5.586   3.099  1.00  0.00    -0.460 OA
BRANCH  31  32
ATOM     32  C   UNL     1      -4.004   6.931   3.160  1.00  0.00     0.338 C 
ATOM     33  O   UNL     1      -3.890   7.638   4.142  1.00  0.00    -0.246 OA
BRANCH  32  34
ATOM     34  C   UNL     1      -4.122   7.468   1.796  1.00  0.00     0.060 A 
ATOM     35  C   UNL     1      -3.214   8.470   1.435  1.00  0.00     0.016 A 
ATOM     36  C   UNL     1      -5.139   7.067   0.926  1.00  0.00     0.016 A 
ATOM     37  C   UNL     1      -3.347   9.117   0.216  1.00  0.00     0.010 A 
ATOM     38  C   UNL     1      -5.288   7.737  -0.290  1.00  0.00     0.010 A 
ATOM     39  C   UNL     1      -4.417   8.790  -0.623  1.00  0.00    -0.014 A 
BRANCH  39  40
ATOM     40  C   UNL     1      -4.739   9.707  -1.734  1.00  0.00     0.031 A 
ATOM     41  C   UNL     1      -5.775  10.769  -1.496  1.00  0.00     0.074 A 
ATOM     42  C   UNL     1      -4.064   9.633  -2.891  1.00  0.00     0.049 A 
ATOM     43  N   UNL     1      -6.249  11.666  -2.316  1.00  0.00    -0.248 NA
ATOM     44  C   UNL     1      -6.351  10.821  -0.142  1.00  0.00     0.031 C 
ATOM     45  C   UNL     1      -2.980   8.693  -3.172  1.00  0.00     0.029 A 
ATOM     46  N   UNL     1      -4.187  10.364  -4.042  1.00  0.00    -0.354 N 
ATOM     47  C   UNL     1      -7.181  12.392  -1.580  1.00  0.00     0.074 A 
ATOM     48  C   UNL     1      -7.233  11.800  -0.261  1.00  0.00     0.031 C 
ATOM     49  C   UNL     1      -2.539   8.902  -4.424  1.00  0.00     0.029 A 
ATOM     50  C   UNL     1      -3.344   9.951  -5.045  1.00  0.00     0.049 A 
ATOM     51  H   UNL     1      -4.818  11.113  -4.141  1.00  0.00     0.167 HD
ATOM     52  C   UNL     1      -7.916  13.460  -1.974  1.00  0.00     0.034 A 
ATOM     53  C   UNL     1      -3.264  10.358  -6.327  1.00  0.00     0.034 A 
ATOM     54  C   UNL     1      -7.853  14.006  -3.307  1.00  0.00     0.049 A 
ATOM     55  C   UNL     1      -4.196  11.452  -6.787  1.00  0.00     0.074 A 
ATOM     56  C   UNL     1      -8.547  15.077  -3.837  1.00  0.00     0.029 A 
ATOM     57  N   UNL     1      -7.056  13.502  -4.330  1.00  0.00    -0.354 N 
ATOM     58  N   UNL     1      -5.080  12.132  -6.090  1.00  0.00    -0.248 NA
ATOM     59  C   UNL     1      -4.127  11.829  -8.204  1.00  0.00     0.031 C 
ATOM     60  C   UNL     1      -8.238  15.164  -5.199  1.00  0.00     0.029 A 
ATOM     61  C   UNL     1      -7.282  14.205  -5.501  1.00  0.00     0.049 A 
ATOM     62  H   UNL     1      -6.422  12.755  -4.235  1.00  0.00     0.167 HD
ATOM     63  C   UNL     1      -5.657  13.032  -6.981  1.00  0.00     0.074 A 
ATOM     64  C   UNL     1      -5.007  12.819  -8.260  1.00  0.00     0.031 C 
ATOM     65  C   UNL     1      -6.633  13.952  -6.768  1.00  0.00     0.034 A 
BRANCH  52  66
ATOM     66  C   UNL     1      -8.888  14.040  -0.974  1.00  0.00     0.023 A 
ATOM     67  C   UNL     1      -8.457  14.590   0.246  1.00  0.00     0.031 A 
ATOM     68  C   UNL     1     -10.272  13.986  -1.216  1.00  0.00     0.131 A 
ATOM     69  C   UNL     1      -9.399  14.977   1.212  1.00  0.00     0.055 A 
ATOM     70  C   UNL     1     -11.203  14.458  -0.288  1.00  0.00     0.041 A 
ATOM     71  F   UNL     1     -10.748  13.446  -2.349  1.00  0.00    -0.206 F 
ATOM     72  C   UNL     1     -10.769  14.940   0.943  1.00  0.00     0.022 A 
BRANCH  69  73
ATOM     73  S   UNL     1      -8.814  15.356   2.888  1.00  0.00     0.124 S 
ATOM     74  O   UNL     1      -8.120  14.120   3.242  1.00  0.00    -0.237 OA
ATOM     75  O   UNL     1      -7.970  16.524   2.670  1.00  0.00    -0.237 OA
ATOM     76  O   UNL     1     -10.047  15.604   3.633  1.00  0.00    -0.744 OA
ENDBRANCH  69  73
ENDBRANCH  52  66
BRANCH  53  77
ATOM     77  C   UNL     1      -2.313   9.701  -7.267  1.00  0.00     0.023 A 
ATOM     78  C   UNL     1      -1.281  10.428  -7.877  1.00  0.00     0.031 A 
ATOM     79  C   UNL     1      -2.439   8.337  -7.591  1.00  0.00     0.131 A 
ATOM     80  C   UNL     1      -0.435   9.798  -8.803  1.00  0.00     0.055 A 
ATOM     81  C   UNL     1      -1.561   7.702  -8.470  1.00  0.00     0.041 A 
ATOM     82  F   UNL     1      -3.413   7.594  -7.041  1.00  0.00    -0.206 F 
ATOM     83  C   UNL     1      -0.556   8.437  -9.090  1.00  0.00     0.022 A 
BRANCH  80  84
ATOM     84  S   UNL     1       0.781  10.808  -9.691  1.00  0.00     0.124 S 
ATOM     85  O   UNL     1      -0.073  11.793 -10.344  1.00  0.00    -0.237 OA
ATOM     86  O   UNL     1       1.616  11.303  -8.601  1.00  0.00    -0.237 OA
ATOM     87  O   UNL     1       1.429   9.851 -10.585  1.00  0.00    -0.744 OA
ENDBRANCH  80  84
ENDBRANCH  53  77
BRANCH  65  88
ATOM     88  C   UNL     1      -7.040  14.803  -7.943  1.00  0.00     0.023 A 
ATOM     89  C   UNL     1      -7.710  14.253  -9.049  1.00  0.00     0.031 A 
ATOM     90  C   UNL     1      -6.777  16.185  -7.946  1.00  0.00     0.131 A 
ATOM     91  C   UNL     1      -8.056  15.072 -10.132  1.00  0.00     0.055 A 
ATOM     92  C   UNL     1      -7.183  17.006  -8.998  1.00  0.00     0.041 A 
ATOM     93  F   UNL     1      -6.137  16.761  -6.916  1.00  0.00    -0.206 F 
ATOM     94  C   UNL     1      -7.818  16.449 -10.104  1.00  0.00     0.022 A 
BRANCH  91  95
ATOM     95  S   UNL     1      -8.757  14.300 -11.615  1.00  0.00     0.124 S 
ATOM     96  O   UNL     1      -7.682  13.400 -12.023  1.00  0.00    -0.237 OA
ATOM     97  O   UNL     1      -9.961  13.660 -11.097  1.00  0.00    -0.237 OA
ATOM     98  O   UNL     1      -8.992  15.431 -12.511  1.00  0.00    -0.744 OA
ENDBRANCH  91  95
ENDBRANCH  65  88
ENDBRANCH  39  40
ENDBRANCH  32  34
ENDBRANCH  31  32
ENDBRANCH  30  31
ENDBRANCH  29  30
ENDBRANCH  28  29
ENDBRANCH  27  28
ENDBRANCH  26  27
ENDBRANCH  25  26
ENDBRANCH   1  25
TORSDOF 27
