REMARK SMILES O=C(COc1ccc(Br)cc1/C=C1\C(=O)Nc2ccc(Br)cc21)OCCOCCOCCOCCOC(=O)c1ccc(-c2c3nc(c(-c4cc(S(=O)(=O)[O-])ccc4F)c4ccc([nH]4)c(-c4cc(S(=O)(=O)[O-])ccc4F)c4nc(c(-c5cc(S(=O)(=O)[O-])ccc5F)c5ccc2[nH]5)C=C4)C=C3)cc1
REMARK SMILES IDX 30 1 29 2 28 3 27 4 26 5 25 6 24 7 2 8 1 9 3 10 4 11 5 12
REMARK SMILES IDX 6 13 11 14 7 15 10 16 8 17 9 18 12 19 13 20 14 21 23 22
REMARK SMILES IDX 15 23 16 24 17 25 22 26 18 28 20 29 19 30 21 31 31 32 32 33
REMARK SMILES IDX 33 34 34 35 35 36 36 37 37 38 38 39 39 40 40 41 101 42 41 43
REMARK SMILES IDX 100 44 42 45 43 46 44 47 94 48 45 49 99 50 93 51 95 52 46 53
REMARK SMILES IDX 98 54 92 55 91 56 47 58 79 59 59 60 78 61 60 62 63 63 77 64
REMARK SMILES IDX 96 65 61 66 62 67 76 69 97 70 64 71 48 72 49 73 57 74 50 75
REMARK SMILES IDX 56 76 58 77 55 78 51 79 52 80 53 81 54 82 80 83 81 84 89 85
REMARK SMILES IDX 82 86 88 87 90 88 87 89 83 90 84 91 85 92 86 93 65 94 66 95
REMARK SMILES IDX 74 96 67 97 73 98 75 99 72 100 68 101 69 102 70 103 71 104
REMARK H PARENT 16 27 95 57 63 68
REMARK Flexibility Score: inf
ROOT
ATOM      1  O   UNL     1       2.666   3.062   1.662  1.00  0.00    -0.377 OA
ENDROOT
BRANCH   1   2
ATOM      2  C   UNL     1       2.216   1.763   1.282  1.00  0.00     0.188 C 
BRANCH   2   3
ATOM      3  C   UNL     1       2.963   0.628   1.994  1.00  0.00     0.188 C 
BRANCH   3   4
ATOM      4  O   UNL     1       4.352   0.588   1.695  1.00  0.00    -0.376 OA
BRANCH   4   5
ATOM      5  C   UNL     1       4.871  -0.083   0.561  1.00  0.00     0.202 C 
BRANCH   5   6
ATOM      6  C   UNL     1       4.109  -0.049  -0.762  1.00  0.00     0.261 C 
BRANCH   6   7
ATOM      7  O   UNL     1       2.727  -0.464  -0.711  1.00  0.00    -0.461 OA
BRANCH   7   8
ATOM      8  C   UNL     1       2.246  -1.620  -0.206  1.00  0.00     0.344 C 
ATOM      9  O   UNL     1       1.039  -1.740   0.001  1.00  0.00    -0.248 OA
BRANCH   8  10
ATOM     10  C   UNL     1       3.226  -2.733   0.145  1.00  0.00     0.351 C 
BRANCH  10  11
ATOM     11  O   UNL     1       4.214  -3.066  -0.842  1.00  0.00    -0.481 OA
BRANCH  11  12
ATOM     12  C   UNL     1       3.568  -3.801  -1.820  1.00  0.00     0.127 A 
ATOM     13  C   UNL     1       2.832  -3.069  -2.768  1.00  0.00     0.048 A 
ATOM     14  C   UNL     1       3.455  -5.199  -1.685  1.00  0.00     0.018 A 
ATOM     15  C   UNL     1       1.789  -3.679  -3.446  1.00  0.00     0.019 A 
ATOM     16  C   UNL     1       2.346  -5.754  -2.330  1.00  0.00     0.027 A 
ATOM     17  C   UNL     1       1.517  -5.009  -3.179  1.00  0.00     0.018 A 
ATOM     18  Br  UNL     1      -0.015  -5.825  -3.931  1.00  0.00    -0.051 Br
BRANCH  14  19
ATOM     19  C   UNL     1       4.409  -5.962  -0.820  1.00  0.00     0.026 C 
ATOM     20  C   UNL     1       4.454  -7.271  -0.495  1.00  0.00     0.050 C 
ATOM     21  C   UNL     1       3.469  -8.344  -0.864  1.00  0.00     0.256 C 
ATOM     22  C   UNL     1       5.205  -7.828   0.647  1.00  0.00     0.012 A 
ATOM     23  O   UNL     1       2.999  -8.622  -1.948  1.00  0.00    -0.269 OA
ATOM     24  N   UNL     1       3.311  -9.075   0.298  1.00  0.00    -0.321 N 
ATOM     25  C   UNL     1       4.357  -8.814   1.175  1.00  0.00     0.049 A 
ATOM     26  C   UNL     1       6.480  -7.678   1.162  1.00  0.00     0.026 A 
ATOM     27  H   UNL     1       2.565  -9.691   0.479  1.00  0.00     0.170 HD
ATOM     28  C   UNL     1       4.643  -9.537   2.312  1.00  0.00     0.028 A 
ATOM     29  C   UNL     1       6.830  -8.481   2.260  1.00  0.00     0.018 A 
ATOM     30  C   UNL     1       5.908  -9.359   2.864  1.00  0.00     0.018 A 
ATOM     31  Br  UNL     1       8.611  -8.464   2.908  1.00  0.00    -0.051 Br
ENDBRANCH  14  19
ENDBRANCH  11  12
ENDBRANCH  10  11
ENDBRANCH   8  10
ENDBRANCH   7   8
ENDBRANCH   6   7
ENDBRANCH   5   6
ENDBRANCH   4   5
ENDBRANCH   3   4
ENDBRANCH   2   3
ENDBRANCH   1   2
BRANCH   1  32
ATOM     32  C   UNL     1       4.013   3.344   1.308  1.00  0.00     0.188 C 
BRANCH  32  33
ATOM     33  C   UNL     1       5.059   3.236   2.443  1.00  0.00     0.188 C 
BRANCH  33  34
ATOM     34  O   UNL     1       4.691   2.885   3.773  1.00  0.00    -0.376 OA
BRANCH  34  35
ATOM     35  C   UNL     1       3.506   3.412   4.350  1.00  0.00     0.202 C 
BRANCH  35  36
ATOM     36  C   UNL     1       3.374   4.928   4.511  1.00  0.00     0.261 C 
BRANCH  36  37
ATOM     37  O   UNL     1       3.494   5.651   3.280  1.00  0.00    -0.460 OA
BRANCH  37  38
ATOM     38  C   UNL     1       4.638   6.362   3.124  1.00  0.00     0.338 C 
ATOM     39  O   UNL     1       5.540   6.491   3.936  1.00  0.00    -0.246 OA
BRANCH  38  40
ATOM     40  C   UNL     1       4.733   6.787   1.712  1.00  0.00     0.060 A 
ATOM     41  C   UNL     1       3.641   7.359   1.053  1.00  0.00     0.016 A 
ATOM     42  C   UNL     1       5.930   6.544   1.024  1.00  0.00     0.016 A 
ATOM     43  C   UNL     1       3.761   7.718  -0.290  1.00  0.00     0.010 A 
ATOM     44  C   UNL     1       6.039   6.878  -0.325  1.00  0.00     0.010 A 
ATOM     45  C   UNL     1       4.964   7.494  -0.982  1.00  0.00    -0.014 A 
BRANCH  45  46
ATOM     46  C   UNL     1       5.176   8.122  -2.305  1.00  0.00     0.031 A 
ATOM     47  C   UNL     1       4.953   7.391  -3.589  1.00  0.00     0.074 A 
ATOM     48  C   UNL     1       5.608   9.398  -2.307  1.00  0.00     0.049 A 
ATOM     49  N   UNL     1       5.026   7.853  -4.809  1.00  0.00    -0.248 NA
ATOM     50  C   UNL     1       4.611   5.963  -3.504  1.00  0.00     0.031 C 
ATOM     51  C   UNL     1       5.895  10.175  -1.100  1.00  0.00     0.029 A 
ATOM     52  N   UNL     1       5.894  10.256  -3.336  1.00  0.00    -0.354 N 
ATOM     53  C   UNL     1       4.714   6.788  -5.643  1.00  0.00     0.074 A 
ATOM     54  C   UNL     1       4.494   5.639  -4.788  1.00  0.00     0.031 C 
ATOM     55  C   UNL     1       6.328  11.391  -1.456  1.00  0.00     0.029 A 
ATOM     56  C   UNL     1       6.363  11.478  -2.913  1.00  0.00     0.049 A 
ATOM     57  H   UNL     1       5.776  10.021  -4.284  1.00  0.00     0.167 HD
ATOM     58  C   UNL     1       4.608   6.790  -6.993  1.00  0.00     0.034 A 
ATOM     59  C   UNL     1       6.778  12.550  -3.616  1.00  0.00     0.034 A 
ATOM     60  C   UNL     1       4.842   7.953  -7.816  1.00  0.00     0.049 A 
ATOM     61  C   UNL     1       6.657  12.520  -5.115  1.00  0.00     0.074 A 
ATOM     62  C   UNL     1       4.676   8.074  -9.185  1.00  0.00     0.029 A 
ATOM     63  N   UNL     1       5.304   9.181  -7.363  1.00  0.00    -0.354 N 
ATOM     64  N   UNL     1       6.217  11.550  -5.882  1.00  0.00    -0.248 NA
ATOM     65  C   UNL     1       7.059  13.728  -5.848  1.00  0.00     0.031 C 
ATOM     66  C   UNL     1       5.106   9.344  -9.568  1.00  0.00     0.029 A 
ATOM     67  C   UNL     1       5.470  10.048  -8.431  1.00  0.00     0.049 A 
ATOM     68  H   UNL     1       5.487   9.403  -6.421  1.00  0.00     0.167 HD
ATOM     69  C   UNL     1       6.274  12.035  -7.184  1.00  0.00     0.074 A 
ATOM     70  C   UNL     1       6.762  13.396  -7.098  1.00  0.00     0.031 C 
ATOM     71  C   UNL     1       5.955  11.405  -8.342  1.00  0.00     0.034 A 
BRANCH  58  72
ATOM     72  C   UNL     1       4.182   5.530  -7.704  1.00  0.00     0.023 A 
ATOM     73  C   UNL     1       5.044   4.920  -8.636  1.00  0.00     0.031 A 
ATOM     74  C   UNL     1       2.858   5.065  -7.617  1.00  0.00     0.131 A 
ATOM     75  C   UNL     1       4.555   3.916  -9.481  1.00  0.00     0.055 A 
ATOM     76  C   UNL     1       2.386   4.040  -8.438  1.00  0.00     0.041 A 
ATOM     77  F   UNL     1       1.997   5.621  -6.749  1.00  0.00    -0.206 F 
ATOM     78  C   UNL     1       3.232   3.471  -9.386  1.00  0.00     0.022 A 
BRANCH  75  79
ATOM     79  S   UNL     1       5.592   3.199 -10.786  1.00  0.00     0.124 S 
ATOM     80  O   UNL     1       5.520   1.773 -10.476  1.00  0.00    -0.237 OA
ATOM     81  O   UNL     1       4.889   3.612 -11.996  1.00  0.00    -0.237 OA
ATOM     82  O   UNL     1       6.898   3.812 -10.570  1.00  0.00    -0.744 OA
ENDBRANCH  75  79
ENDBRANCH  58  72
BRANCH  59  83
ATOM     83  C   UNL     1       7.281  13.740  -2.873  1.00  0.00     0.023 A 
ATOM     84  C   UNL     1       8.421  13.639  -2.052  1.00  0.00     0.031 A 
ATOM     85  C   UNL     1       6.561  14.944  -2.861  1.00  0.00     0.131 A 
ATOM     86  C   UNL     1       8.765  14.698  -1.204  1.00  0.00     0.055 A 
ATOM     87  C   UNL     1       6.949  16.024  -2.065  1.00  0.00     0.041 A 
ATOM     88  F   UNL     1       5.456  15.080  -3.610  1.00  0.00    -0.206 F 
ATOM     89  C   UNL     1       8.046  15.896  -1.217  1.00  0.00     0.022 A 
BRANCH  86  90
ATOM     90  S   UNL     1      10.060  14.496   0.052  1.00  0.00     0.124 S 
ATOM     91  O   UNL     1      11.060  15.463  -0.386  1.00  0.00    -0.237 OA
ATOM     92  O   UNL     1       9.344  14.838   1.279  1.00  0.00    -0.237 OA
ATOM     93  O   UNL     1      10.441  13.092  -0.069  1.00  0.00    -0.744 OA
ENDBRANCH  86  90
ENDBRANCH  59  83
BRANCH  71  94
ATOM     94  C   UNL     1       6.132  12.151  -9.643  1.00  0.00     0.023 A 
ATOM     95  C   UNL     1       5.020  12.412 -10.466  1.00  0.00     0.031 A 
ATOM     96  C   UNL     1       7.413  12.450 -10.139  1.00  0.00     0.131 A 
ATOM     97  C   UNL     1       5.214  12.905 -11.762  1.00  0.00     0.055 A 
ATOM     98  C   UNL     1       7.597  12.988 -11.413  1.00  0.00     0.041 A 
ATOM     99  F   UNL     1       8.505  12.211  -9.395  1.00  0.00    -0.206 F 
ATOM    100  C   UNL     1       6.495  13.202 -12.237  1.00  0.00     0.022 A 
BRANCH  97 101
ATOM    101  S   UNL     1       3.822  13.093 -12.911  1.00  0.00     0.124 S 
ATOM    102  O   UNL     1       3.885  14.517 -13.233  1.00  0.00    -0.237 OA
ATOM    103  O   UNL     1       4.196  12.191 -13.997  1.00  0.00    -0.237 OA
ATOM    104  O   UNL     1       2.660  12.686 -12.127  1.00  0.00    -0.744 OA
ENDBRANCH  97 101
ENDBRANCH  71  94
ENDBRANCH  45  46
ENDBRANCH  38  40
ENDBRANCH  37  38
ENDBRANCH  36  37
ENDBRANCH  35  36
ENDBRANCH  34  35
ENDBRANCH  33  34
ENDBRANCH  32  33
ENDBRANCH   1  32
TORSDOF 26
