REMARK SMILES COc1ccc([C@H](C(=O)OCCOCCOCCOCCOC(=O)c2ccc(-c3c4nc(c(-c5cc(S(=O)(=O)[O-])ccc5F)c5ccc([nH]5)c(-c5cc(S(=O)(=O)[O-])ccc5F)c5nc(c(-c6cc(S(=O)(=O)[O-])ccc6F)c6ccc3[nH]6)C=C5)C=C4)cc2)[NH+]2CCOCC2)c(OC)n1
REMARK SMILES IDX 17 1 16 2 15 3 14 4 13 5 12 6 11 7 10 8 8 9 9 10 7 11 6 12
REMARK SMILES IDX 3 13 4 14 97 15 5 16 94 17 2 18 1 19 95 20 96 21 88 22 89 23
REMARK SMILES IDX 93 24 90 26 92 27 91 28 18 29 19 30 20 31 21 32 22 33 23 34
REMARK SMILES IDX 24 35 25 36 26 37 87 38 27 39 86 40 28 41 29 42 30 43 80 44
REMARK SMILES IDX 31 45 85 46 79 47 81 48 32 49 84 50 78 51 77 52 33 54 65 55
REMARK SMILES IDX 45 56 64 57 46 58 49 59 63 60 82 61 47 62 48 63 62 65 83 66
REMARK SMILES IDX 50 67 34 68 35 69 43 70 36 71 42 72 44 73 41 74 37 75 38 76
REMARK SMILES IDX 39 77 40 78 66 79 67 80 75 81 68 82 74 83 76 84 73 85 69 86
REMARK SMILES IDX 70 87 71 88 72 89 51 90 52 91 60 92 53 93 59 94 61 95 58 96
REMARK SMILES IDX 54 97 55 98 56 99 57 100
REMARK H PARENT 88 25 81 53 49 64
REMARK Flexibility Score: inf
ROOT
ATOM      1  C   UNL     1       4.833   1.162   3.071  1.00  0.00     0.188 C 
ENDROOT
BRANCH   1   2
ATOM      2  O   UNL     1       5.178   0.112   3.958  1.00  0.00    -0.377 OA
BRANCH   2   3
ATOM      3  C   UNL     1       4.335  -1.030   3.938  1.00  0.00     0.188 C 
BRANCH   3   4
ATOM      4  C   UNL     1       3.703  -1.446   2.598  1.00  0.00     0.188 C 
BRANCH   4   5
ATOM      5  O   UNL     1       2.953  -0.422   1.948  1.00  0.00    -0.376 OA
BRANCH   5   6
ATOM      6  C   UNL     1       1.577  -0.262   2.233  1.00  0.00     0.202 C 
BRANCH   6   7
ATOM      7  C   UNL     1       1.197   0.543   3.490  1.00  0.00     0.261 C 
BRANCH   7   8
ATOM      8  O   UNL     1       1.538   0.073   4.810  1.00  0.00    -0.459 OA
BRANCH   8   9
ATOM      9  C   UNL     1       1.395  -1.229   5.080  1.00  0.00     0.370 C 
ATOM     10  O   UNL     1       1.540  -2.070   4.203  1.00  0.00    -0.245 OA
BRANCH   9  11
ATOM     11  C   UNL     1       1.182  -1.654   6.526  1.00  0.00     0.332 C 
BRANCH  11  12
ATOM     12  C   UNL     1       0.906  -0.617   7.620  1.00  0.00     0.083 A 
ATOM     13  C   UNL     1       0.659   1.235   9.692  1.00  0.00     0.216 A 
ATOM     14  C   UNL     1       1.271   0.026   9.958  1.00  0.00     0.069 A 
ATOM     15  N   UNL     1       0.137   1.525   8.487  1.00  0.00    -0.177 NA
ATOM     16  C   UNL     1       1.376  -0.905   8.921  1.00  0.00     0.022 A 
ATOM     17  C   UNL     1       0.276   0.621   7.487  1.00  0.00     0.226 A 
BRANCH  13  18
ATOM     18  O   UNL     1       0.463   2.205  10.636  1.00  0.00    -0.481 OA
ATOM     19  C   UNL     1       1.590   2.468  11.465  1.00  0.00     0.280 C 
ENDBRANCH  13  18
BRANCH  17  20
ATOM     20  O   UNL     1      -0.072   1.127   6.273  1.00  0.00    -0.481 OA
ATOM     21  C   UNL     1      -1.432   0.918   5.945  1.00  0.00     0.280 C 
ENDBRANCH  17  20
ENDBRANCH  11  12
BRANCH  11  22
ATOM     22  N   UNL     1       0.293  -2.872   6.622  1.00  0.00    -0.315 N 
ATOM     23  C   UNL     1       0.924  -4.150   6.207  1.00  0.00     0.292 C 
ATOM     24  C   UNL     1      -1.021  -2.765   5.956  1.00  0.00     0.292 C 
ATOM     25  H   UNL     1       0.136  -2.893   7.630  1.00  0.00     0.349 HD
ATOM     26  C   UNL     1       0.744  -4.639   4.745  1.00  0.00     0.221 C 
ATOM     27  C   UNL     1      -1.067  -3.121   4.456  1.00  0.00     0.221 C 
ATOM     28  O   UNL     1      -0.580  -4.446   4.233  1.00  0.00    -0.370 OA
ENDBRANCH  11  22
ENDBRANCH   9  11
ENDBRANCH   8   9
ENDBRANCH   7   8
ENDBRANCH   6   7
ENDBRANCH   5   6
ENDBRANCH   4   5
ENDBRANCH   3   4
ENDBRANCH   2   3
ENDBRANCH   1   2
BRANCH   1  29
ATOM     29  C   UNL     1       5.393   0.993   1.641  1.00  0.00     0.188 C 
BRANCH  29  30
ATOM     30  O   UNL     1       6.378   0.013   1.331  1.00  0.00    -0.376 OA
BRANCH  30  31
ATOM     31  C   UNL     1       7.248  -0.495   2.324  1.00  0.00     0.202 C 
BRANCH  31  32
ATOM     32  C   UNL     1       8.100   0.436   3.208  1.00  0.00     0.261 C 
BRANCH  32  33
ATOM     33  O   UNL     1       7.577   1.733   3.521  1.00  0.00    -0.460 OA
BRANCH  33  34
ATOM     34  C   UNL     1       7.818   2.703   2.609  1.00  0.00     0.338 C 
ATOM     35  O   UNL     1       8.465   2.588   1.578  1.00  0.00    -0.246 OA
BRANCH  34  36
ATOM     36  C   UNL     1       7.008   3.897   2.950  1.00  0.00     0.060 A 
ATOM     37  C   UNL     1       6.109   4.401   1.996  1.00  0.00     0.016 A 
ATOM     38  C   UNL     1       7.128   4.520   4.194  1.00  0.00     0.016 A 
ATOM     39  C   UNL     1       5.352   5.537   2.264  1.00  0.00     0.010 A 
ATOM     40  C   UNL     1       6.417   5.700   4.440  1.00  0.00     0.010 A 
ATOM     41  C   UNL     1       5.564   6.234   3.455  1.00  0.00    -0.014 A 
BRANCH  41  42
ATOM     42  C   UNL     1       5.174   7.664   3.507  1.00  0.00     0.031 A 
ATOM     43  C   UNL     1       6.217   8.670   3.095  1.00  0.00     0.074 A 
ATOM     44  C   UNL     1       3.933   8.059   3.835  1.00  0.00     0.049 A 
ATOM     45  N   UNL     1       6.178   9.975   3.126  1.00  0.00    -0.248 NA
ATOM     46  C   UNL     1       7.482   8.118   2.580  1.00  0.00     0.031 C 
ATOM     47  C   UNL     1       2.815   7.172   4.150  1.00  0.00     0.029 A 
ATOM     48  N   UNL     1       3.408   9.321   3.959  1.00  0.00    -0.354 N 
ATOM     49  C   UNL     1       7.414  10.398   2.647  1.00  0.00     0.074 A 
ATOM     50  C   UNL     1       8.191   9.213   2.366  1.00  0.00     0.031 C 
ATOM     51  C   UNL     1       1.738   7.921   4.450  1.00  0.00     0.029 A 
ATOM     52  C   UNL     1       2.104   9.336   4.396  1.00  0.00     0.049 A 
ATOM     53  H   UNL     1       3.917  10.139   3.755  1.00  0.00     0.167 HD
ATOM     54  C   UNL     1       7.857  11.663   2.453  1.00  0.00     0.034 A 
ATOM     55  C   UNL     1       1.318  10.376   4.747  1.00  0.00     0.034 A 
ATOM     56  C   UNL     1       7.071  12.832   2.754  1.00  0.00     0.049 A 
ATOM     57  C   UNL     1       1.879  11.779   4.647  1.00  0.00     0.074 A 
ATOM     58  C   UNL     1       7.420  14.163   2.620  1.00  0.00     0.029 A 
ATOM     59  N   UNL     1       5.778  12.808   3.261  1.00  0.00    -0.354 N 
ATOM     60  N   UNL     1       3.060  12.173   4.226  1.00  0.00    -0.248 NA
ATOM     61  C   UNL     1       0.999  12.877   5.068  1.00  0.00     0.031 C 
ATOM     62  C   UNL     1       6.372  14.941   3.120  1.00  0.00     0.029 A 
ATOM     63  C   UNL     1       5.329  14.101   3.475  1.00  0.00     0.049 A 
ATOM     64  H   UNL     1       5.257  11.992   3.441  1.00  0.00     0.167 HD
ATOM     65  C   UNL     1       3.044  13.565   4.290  1.00  0.00     0.074 A 
ATOM     66  C   UNL     1       1.735  13.940   4.782  1.00  0.00     0.031 C 
ATOM     67  C   UNL     1       4.016  14.456   3.964  1.00  0.00     0.034 A 
BRANCH  54  68
ATOM     68  C   UNL     1       9.273  11.834   1.959  1.00  0.00     0.023 A 
ATOM     69  C   UNL     1       9.682  11.365   0.698  1.00  0.00     0.031 A 
ATOM     70  C   UNL     1      10.239  12.441   2.781  1.00  0.00     0.131 A 
ATOM     71  C   UNL     1      11.032  11.450   0.325  1.00  0.00     0.055 A 
ATOM     72  C   UNL     1      11.562  12.600   2.368  1.00  0.00     0.041 A 
ATOM     73  F   UNL     1       9.915  12.879   4.008  1.00  0.00    -0.206 F 
ATOM     74  C   UNL     1      11.969  12.090   1.139  1.00  0.00     0.022 A 
BRANCH  71  75
ATOM     75  S   UNL     1      11.575  10.581  -1.172  1.00  0.00     0.124 S 
ATOM     76  O   UNL     1      11.201   9.203  -0.864  1.00  0.00    -0.237 OA
ATOM     77  O   UNL     1      10.797  11.236  -2.217  1.00  0.00    -0.237 OA
ATOM     78  O   UNL     1      13.014  10.835  -1.212  1.00  0.00    -0.744 OA
ENDBRANCH  71  75
ENDBRANCH  54  68
BRANCH  55  79
ATOM     79  C   UNL     1      -0.059  10.149   5.276  1.00  0.00     0.023 A 
ATOM     80  C   UNL     1      -1.184  10.686   4.629  1.00  0.00     0.031 A 
ATOM     81  C   UNL     1      -0.266   9.459   6.485  1.00  0.00     0.131 A 
ATOM     82  C   UNL     1      -2.453  10.576   5.220  1.00  0.00     0.055 A 
ATOM     83  C   UNL     1      -1.538   9.295   7.035  1.00  0.00     0.041 A 
ATOM     84  F   UNL     1       0.773   8.936   7.155  1.00  0.00    -0.206 F 
ATOM     85  C   UNL     1      -2.640   9.870   6.410  1.00  0.00     0.022 A 
BRANCH  82  86
ATOM     86  S   UNL     1      -3.840  11.472   4.470  1.00  0.00     0.124 S 
ATOM     87  O   UNL     1      -3.349  12.845   4.486  1.00  0.00    -0.237 OA
ATOM     88  O   UNL     1      -3.935  10.840   3.158  1.00  0.00    -0.237 OA
ATOM     89  O   UNL     1      -4.954  11.196   5.375  1.00  0.00    -0.744 OA
ENDBRANCH  82  86
ENDBRANCH  55  79
BRANCH  67  90
ATOM     90  C   UNL     1       3.676  15.925   4.062  1.00  0.00     0.023 A 
ATOM     91  C   UNL     1       3.402  16.549   5.290  1.00  0.00     0.031 A 
ATOM     92  C   UNL     1       3.633  16.713   2.896  1.00  0.00     0.131 A 
ATOM     93  C   UNL     1       3.042  17.905   5.319  1.00  0.00     0.055 A 
ATOM     94  C   UNL     1       3.343  18.076   2.939  1.00  0.00     0.041 A 
ATOM     95  F   UNL     1       3.883  16.170   1.694  1.00  0.00    -0.206 F 
ATOM     96  C   UNL     1       3.031  18.677   4.155  1.00  0.00     0.022 A 
BRANCH  93  97
ATOM     97  S   UNL     1       2.487  18.626   6.889  1.00  0.00     0.124 S 
ATOM     98  O   UNL     1       1.359  17.768   7.235  1.00  0.00    -0.237 OA
ATOM     99  O   UNL     1       3.672  18.492   7.730  1.00  0.00    -0.237 OA
ATOM    100  O   UNL     1       2.135  19.999   6.530  1.00  0.00    -0.744 OA
ENDBRANCH  93  97
ENDBRANCH  67  90
ENDBRANCH  41  42
ENDBRANCH  34  36
ENDBRANCH  33  34
ENDBRANCH  32  33
ENDBRANCH  31  32
ENDBRANCH  30  31
ENDBRANCH  29  30
ENDBRANCH   1  29
TORSDOF 27
