REMARK SMILES COc1cc(OC)cc(-c2ccc([C@@H](C)C(=O)OCCOCCOCCOCCOC(=O)c3ccc(-c4c5nc(c(-c6cc(S(=O)(=O)[O-])ccc6F)c6ccc([nH]6)c(-c6cc(S(=O)(=O)[O-])ccc6F)c6nc(c(-c7cc(S(=O)(=O)[O-])ccc7F)c7ccc4[nH]7)C=C6)C=C5)cc3)cc2F)c1
REMARK SMILES IDX 24 1 23 2 22 3 21 4 20 5 19 6 18 7 16 8 17 9 14 10 15 11
REMARK SMILES IDX 13 12 10 13 11 14 97 15 12 16 96 17 98 18 9 19 3 20 4 21
REMARK SMILES IDX 99 22 5 23 8 24 2 25 1 26 6 27 7 28 25 29 26 30 27 31 28 32
REMARK SMILES IDX 29 33 30 34 31 35 32 36 33 37 34 38 95 39 35 40 94 41 36 42
REMARK SMILES IDX 37 43 38 44 88 45 39 46 93 47 87 48 89 49 40 50 92 51 86 52
REMARK SMILES IDX 85 53 41 55 73 56 53 57 72 58 54 59 57 60 71 61 90 62 55 63
REMARK SMILES IDX 56 64 70 66 91 67 58 68 42 69 43 70 51 71 44 72 50 73 52 74
REMARK SMILES IDX 49 75 45 76 46 77 47 78 48 79 74 80 75 81 83 82 76 83 82 84
REMARK SMILES IDX 84 85 81 86 77 87 78 88 79 89 80 90 59 91 60 92 68 93 61 94
REMARK SMILES IDX 67 95 69 96 66 97 62 98 63 99 64 100 65 101
REMARK H PARENT 89 54 57 65
REMARK Flexibility Score: inf
ROOT
ATOM      1  O   UNL     1       7.011   3.984  -1.725  1.00  0.00    -0.377 OA
ENDROOT
BRANCH   1   2
ATOM      2  C   UNL     1       7.569   2.689  -1.778  1.00  0.00     0.188 C 
BRANCH   2   3
ATOM      3  C   UNL     1       9.082   2.610  -1.536  1.00  0.00     0.188 C 
BRANCH   3   4
ATOM      4  O   UNL     1       9.821   3.740  -1.094  1.00  0.00    -0.376 OA
BRANCH   4   5
ATOM      5  C   UNL     1       9.496   5.045  -1.551  1.00  0.00     0.202 C 
BRANCH   5   6
ATOM      6  C   UNL     1       9.381   5.356  -3.056  1.00  0.00     0.261 C 
BRANCH   6   7
ATOM      7  O   UNL     1       8.556   4.473  -3.845  1.00  0.00    -0.463 OA
BRANCH   7   8
ATOM      8  C   UNL     1       9.201   3.605  -4.655  1.00  0.00     0.313 C 
ATOM      9  O   UNL     1      10.427   3.552  -4.755  1.00  0.00    -0.252 OA
BRANCH   8  10
ATOM     10  C   UNL     1       8.312   2.679  -5.485  1.00  0.00     0.126 C 
ATOM     11  C   UNL     1       8.394   3.110  -6.945  1.00  0.00     0.025 C 
BRANCH  10  12
ATOM     12  C   UNL     1       6.869   2.386  -5.072  1.00  0.00    -0.031 A 
ATOM     13  C   UNL     1       4.201   1.712  -4.246  1.00  0.00     0.018 A 
ATOM     14  C   UNL     1       4.580   3.041  -4.511  1.00  0.00     0.012 A 
ATOM     15  C   UNL     1       5.189   0.733  -4.394  1.00  0.00     0.131 A 
ATOM     16  C   UNL     1       5.888   3.374  -4.920  1.00  0.00     0.005 A 
ATOM     17  C   UNL     1       6.487   1.053  -4.813  1.00  0.00     0.044 A 
ATOM     18  F   UNL     1       4.903  -0.558  -4.160  1.00  0.00    -0.206 F 
BRANCH  13  19
ATOM     19  C   UNL     1       2.799   1.358  -3.943  1.00  0.00    -0.008 A 
ATOM     20  C   UNL     1       1.075   0.329  -2.558  1.00  0.00     0.123 A 
ATOM     21  C   UNL     1       0.123   0.585  -3.545  1.00  0.00     0.092 A 
ATOM     22  C   UNL     1       2.412   0.698  -2.761  1.00  0.00     0.055 A 
ATOM     23  C   UNL     1       0.484   1.229  -4.726  1.00  0.00     0.123 A 
ATOM     24  C   UNL     1       1.809   1.627  -4.908  1.00  0.00     0.055 A 
BRANCH  20  25
ATOM     25  O   UNL     1       0.624  -0.382  -1.478  1.00  0.00    -0.497 OA
ATOM     26  C   UNL     1       1.083   0.096  -0.219  1.00  0.00     0.278 C 
ENDBRANCH  20  25
BRANCH  23  27
ATOM     27  O   UNL     1      -0.530   1.399  -5.629  1.00  0.00    -0.497 OA
ATOM     28  C   UNL     1      -0.152   1.843  -6.927  1.00  0.00     0.278 C 
ENDBRANCH  23  27
ENDBRANCH  13  19
ENDBRANCH  10  12
ENDBRANCH   8  10
ENDBRANCH   7   8
ENDBRANCH   6   7
ENDBRANCH   5   6
ENDBRANCH   4   5
ENDBRANCH   3   4
ENDBRANCH   2   3
ENDBRANCH   1   2
BRANCH   1  29
ATOM     29  C   UNL     1       6.313   4.332  -0.540  1.00  0.00     0.188 C 
BRANCH  29  30
ATOM     30  C   UNL     1       6.903   3.837   0.793  1.00  0.00     0.188 C 
BRANCH  30  31
ATOM     31  O   UNL     1       7.151   2.435   0.828  1.00  0.00    -0.376 OA
BRANCH  31  32
ATOM     32  C   UNL     1       6.160   1.583   1.386  1.00  0.00     0.202 C 
BRANCH  32  33
ATOM     33  C   UNL     1       4.803   1.465   0.667  1.00  0.00     0.261 C 
BRANCH  33  34
ATOM     34  O   UNL     1       4.039   2.668   0.492  1.00  0.00    -0.460 OA
BRANCH  34  35
ATOM     35  C   UNL     1       3.739   3.396   1.588  1.00  0.00     0.338 C 
ATOM     36  O   UNL     1       3.980   3.093   2.746  1.00  0.00    -0.246 OA
BRANCH  35  37
ATOM     37  C   UNL     1       3.255   4.722   1.143  1.00  0.00     0.060 A 
ATOM     38  C   UNL     1       3.944   5.869   1.560  1.00  0.00     0.016 A 
ATOM     39  C   UNL     1       2.132   4.838   0.320  1.00  0.00     0.016 A 
ATOM     40  C   UNL     1       3.491   7.136   1.189  1.00  0.00     0.010 A 
ATOM     41  C   UNL     1       1.663   6.110  -0.029  1.00  0.00     0.010 A 
ATOM     42  C   UNL     1       2.320   7.266   0.433  1.00  0.00    -0.014 A 
BRANCH  42  43
ATOM     43  C   UNL     1       1.668   8.595   0.310  1.00  0.00     0.031 A 
ATOM     44  C   UNL     1       0.532   8.919   1.244  1.00  0.00     0.074 A 
ATOM     45  C   UNL     1       2.087   9.508  -0.585  1.00  0.00     0.049 A 
ATOM     46  N   UNL     1      -0.231   9.979   1.294  1.00  0.00    -0.248 NA
ATOM     47  C   UNL     1       0.216   7.899   2.255  1.00  0.00     0.031 C 
ATOM     48  C   UNL     1       3.212   9.338  -1.501  1.00  0.00     0.029 A 
ATOM     49  N   UNL     1       1.605  10.762  -0.873  1.00  0.00    -0.354 N 
ATOM     50  C   UNL     1      -1.126   9.750   2.335  1.00  0.00     0.074 A 
ATOM     51  C   UNL     1      -0.832   8.434   2.859  1.00  0.00     0.031 C 
ATOM     52  C   UNL     1       3.326  10.442  -2.260  1.00  0.00     0.029 A 
ATOM     53  C   UNL     1       2.256  11.378  -1.916  1.00  0.00     0.049 A 
ATOM     54  H   UNL     1       0.863  11.180  -0.379  1.00  0.00     0.167 HD
ATOM     55  C   UNL     1      -2.099  10.566   2.812  1.00  0.00     0.034 A 
ATOM     56  C   UNL     1       1.997  12.546  -2.540  1.00  0.00     0.034 A 
ATOM     57  C   UNL     1      -2.390  11.868   2.264  1.00  0.00     0.049 A 
ATOM     58  C   UNL     1       0.842  13.396  -2.061  1.00  0.00     0.074 A 
ATOM     59  C   UNL     1      -3.343  12.783   2.678  1.00  0.00     0.029 A 
ATOM     60  N   UNL     1      -1.746  12.436   1.172  1.00  0.00    -0.354 N 
ATOM     61  N   UNL     1       0.003  13.173  -1.074  1.00  0.00    -0.248 NA
ATOM     62  C   UNL     1       0.602  14.656  -2.777  1.00  0.00     0.031 C 
ATOM     63  C   UNL     1      -3.336  13.858   1.783  1.00  0.00     0.029 A 
ATOM     64  C   UNL     1      -2.310  13.666   0.871  1.00  0.00     0.049 A 
ATOM     65  H   UNL     1      -0.997  12.024   0.682  1.00  0.00     0.167 HD
ATOM     66  C   UNL     1      -0.839  14.284  -1.030  1.00  0.00     0.074 A 
ATOM     67  C   UNL     1      -0.399  15.177  -2.083  1.00  0.00     0.031 C 
ATOM     68  C   UNL     1      -1.874  14.546  -0.190  1.00  0.00     0.034 A 
BRANCH  55  69
ATOM     69  C   UNL     1      -2.957  10.035   3.937  1.00  0.00     0.023 A 
ATOM     70  C   UNL     1      -2.417   9.700   5.191  1.00  0.00     0.031 A 
ATOM     71  C   UNL     1      -4.333   9.820   3.737  1.00  0.00     0.131 A 
ATOM     72  C   UNL     1      -3.227   9.091   6.162  1.00  0.00     0.055 A 
ATOM     73  C   UNL     1      -5.152   9.300   4.740  1.00  0.00     0.041 A 
ATOM     74  F   UNL     1      -4.903  10.095   2.553  1.00  0.00    -0.206 F 
ATOM     75  C   UNL     1      -4.596   8.915   5.956  1.00  0.00     0.022 A 
BRANCH  72  76
ATOM     76  S   UNL     1      -2.431   8.377   7.628  1.00  0.00     0.124 S 
ATOM     77  O   UNL     1      -1.479   7.448   7.024  1.00  0.00    -0.237 OA
ATOM     78  O   UNL     1      -1.855   9.549   8.277  1.00  0.00    -0.237 OA
ATOM     79  O   UNL     1      -3.536   7.745   8.345  1.00  0.00    -0.744 OA
ENDBRANCH  72  76
ENDBRANCH  55  69
BRANCH  56  80
ATOM     80  C   UNL     1       2.811  12.967  -3.719  1.00  0.00     0.023 A 
ATOM     81  C   UNL     1       3.581  14.141  -3.695  1.00  0.00     0.031 A 
ATOM     82  C   UNL     1       2.789  12.220  -4.911  1.00  0.00     0.131 A 
ATOM     83  C   UNL     1       4.264  14.554  -4.850  1.00  0.00     0.055 A 
ATOM     84  C   UNL     1       3.516  12.605  -6.039  1.00  0.00     0.041 A 
ATOM     85  F   UNL     1       2.064  11.093  -4.994  1.00  0.00    -0.206 F 
ATOM     86  C   UNL     1       4.251  13.785  -6.016  1.00  0.00     0.022 A 
BRANCH  83  87
ATOM     87  S   UNL     1       5.107  16.161  -4.836  1.00  0.00     0.124 S 
ATOM     88  O   UNL     1       4.004  17.070  -4.545  1.00  0.00    -0.237 OA
ATOM     89  O   UNL     1       6.088  15.979  -3.771  1.00  0.00    -0.237 OA
ATOM     90  O   UNL     1       5.664  16.264  -6.183  1.00  0.00    -0.744 OA
ENDBRANCH  83  87
ENDBRANCH  56  80
BRANCH  68  91
ATOM     91  C   UNL     1      -2.571  15.880  -0.339  1.00  0.00     0.023 A 
ATOM     92  C   UNL     1      -3.300  16.218  -1.492  1.00  0.00     0.031 A 
ATOM     93  C   UNL     1      -2.503  16.829   0.698  1.00  0.00     0.131 A 
ATOM     94  C   UNL     1      -3.881  17.491  -1.605  1.00  0.00     0.055 A 
ATOM     95  C   UNL     1      -3.144  18.066   0.610  1.00  0.00     0.041 A 
ATOM     96  F   UNL     1      -1.817  16.566   1.822  1.00  0.00    -0.206 F 
ATOM     97  C   UNL     1      -3.826  18.408  -0.552  1.00  0.00     0.022 A 
BRANCH  94  98
ATOM     98  S   UNL     1      -4.622  17.975  -3.188  1.00  0.00     0.124 S 
ATOM     99  O   UNL     1      -3.501  17.813  -4.109  1.00  0.00    -0.237 OA
ATOM    100  O   UNL     1      -5.710  17.013  -3.332  1.00  0.00    -0.237 OA
ATOM    101  O   UNL     1      -5.043  19.357  -2.962  1.00  0.00    -0.744 OA
ENDBRANCH  94  98
ENDBRANCH  68  91
ENDBRANCH  42  43
ENDBRANCH  35  37
ENDBRANCH  34  35
ENDBRANCH  33  34
ENDBRANCH  32  33
ENDBRANCH  31  32
ENDBRANCH  30  31
ENDBRANCH  29  30
ENDBRANCH   1  29
TORSDOF 27
