REMARK SMILES CC(C)(C)OC(=O)N1C[C@@H](c2cccc(Cl)c2)CC[C@H]1C(=O)OCCOCCOCCOCCOC(=O)c1ccc(-c2c3nc(c(-c4cc(S(=O)(=O)[O-])ccc4F)c4ccc([nH]4)c(-c4cc(S(=O)(=O)[O-])ccc4F)c4nc(c(-c5cc(S(=O)(=O)[O-])ccc5F)c5ccc2[nH]5)C=C4)C=C3)cc1
REMARK SMILES IDX 29 1 28 2 27 3 26 4 25 5 24 6 23 7 21 8 22 9 20 10 8 11 9 12
REMARK SMILES IDX 10 13 19 14 18 15 6 16 7 17 5 18 2 19 1 20 3 21 4 22 11 23
REMARK SMILES IDX 12 24 17 25 13 26 15 27 14 28 16 29 30 30 31 31 32 32 33 33
REMARK SMILES IDX 34 34 35 35 36 36 37 37 38 38 39 39 100 40 40 41 99 42 41 43
REMARK SMILES IDX 42 44 43 45 93 46 44 47 98 48 92 49 94 50 45 51 97 52 91 53
REMARK SMILES IDX 90 54 46 56 78 57 58 58 77 59 59 60 62 61 76 62 95 63 60 64
REMARK SMILES IDX 61 65 75 67 96 68 63 69 47 70 48 71 56 72 49 73 55 74 57 75
REMARK SMILES IDX 54 76 50 77 51 78 52 79 53 80 79 81 80 82 88 83 81 84 87 85
REMARK SMILES IDX 89 86 86 87 82 88 83 89 84 90 85 91 64 92 65 93 73 94 66 95
REMARK SMILES IDX 72 96 74 97 71 98 67 99 68 100 69 101 70 102
REMARK H PARENT 94 55 62 66
REMARK Flexibility Score: inf
ROOT
ATOM      1  O   UNL     1       0.408   8.073  -1.946  1.00  0.00    -0.377 OA
ENDROOT
BRANCH   1   2
ATOM      2  C   UNL     1       0.104   6.707  -2.107  1.00  0.00     0.188 C 
BRANCH   2   3
ATOM      3  C   UNL     1       0.364   5.831  -0.871  1.00  0.00     0.188 C 
BRANCH   3   4
ATOM      4  O   UNL     1       1.376   6.162   0.075  1.00  0.00    -0.376 OA
BRANCH   4   5
ATOM      5  C   UNL     1       2.282   7.211  -0.205  1.00  0.00     0.202 C 
BRANCH   5   6
ATOM      6  C   UNL     1       3.313   6.960  -1.318  1.00  0.00     0.261 C 
BRANCH   6   7
ATOM      7  O   UNL     1       2.909   6.123  -2.423  1.00  0.00    -0.462 OA
BRANCH   7   8
ATOM      8  C   UNL     1       2.954   4.769  -2.258  1.00  0.00     0.329 C 
ATOM      9  O   UNL     1       3.271   4.211  -1.214  1.00  0.00    -0.250 OA
BRANCH   8  10
ATOM     10  C   UNL     1       2.536   4.007  -3.553  1.00  0.00     0.198 C 
ATOM     11  N   UNL     1       1.206   3.370  -3.697  1.00  0.00    -0.294 N 
ATOM     12  C   UNL     1       0.115   4.083  -4.346  1.00  0.00     0.132 C 
ATOM     13  C   UNL     1       0.456   4.925  -5.584  1.00  0.00     0.039 C 
ATOM     14  C   UNL     1       2.899   4.764  -4.844  1.00  0.00     0.038 C 
ATOM     15  C   UNL     1       1.790   5.672  -5.387  1.00  0.00     0.013 C 
BRANCH  11  16
ATOM     16  C   UNL     1       0.931   2.052  -3.380  1.00  0.00     0.411 C 
ATOM     17  O   UNL     1       0.223   1.358  -4.103  1.00  0.00    -0.224 OA
BRANCH  16  18
ATOM     18  O   UNL     1       1.350   1.674  -2.142  1.00  0.00    -0.444 OA
BRANCH  18  19
ATOM     19  C   UNL     1       0.740   0.472  -1.574  1.00  0.00     0.106 C 
ATOM     20  C   UNL     1       1.279   0.331  -0.141  1.00  0.00     0.056 C 
ATOM     21  C   UNL     1       1.148  -0.783  -2.360  1.00  0.00     0.056 C 
ATOM     22  C   UNL     1      -0.796   0.597  -1.467  1.00  0.00     0.056 C 
ENDBRANCH  18  19
ENDBRANCH  16  18
ENDBRANCH  11  16
BRANCH  13  23
ATOM     23  C   UNL     1      -0.706   5.828  -6.040  1.00  0.00    -0.042 A 
ATOM     24  C   UNL     1      -0.493   6.811  -7.023  1.00  0.00     0.004 A 
ATOM     25  C   UNL     1      -2.031   5.659  -5.585  1.00  0.00     0.024 A 
ATOM     26  C   UNL     1      -1.540   7.603  -7.510  1.00  0.00     0.002 A 
ATOM     27  C   UNL     1      -3.079   6.439  -6.091  1.00  0.00     0.041 A 
ATOM     28  C   UNL     1      -2.837   7.413  -7.048  1.00  0.00     0.020 A 
ATOM     29  Cl  UNL     1      -4.694   6.161  -5.562  1.00  0.00    -0.084 Cl
ENDBRANCH  13  23
ENDBRANCH   8  10
ENDBRANCH   7   8
ENDBRANCH   6   7
ENDBRANCH   5   6
ENDBRANCH   4   5
ENDBRANCH   3   4
ENDBRANCH   2   3
ENDBRANCH   1   2
BRANCH   1  30
ATOM     30  C   UNL     1      -0.727   8.909  -1.923  1.00  0.00     0.188 C 
BRANCH  30  31
ATOM     31  C   UNL     1      -1.603   8.771  -0.668  1.00  0.00     0.188 C 
BRANCH  31  32
ATOM     32  O   UNL     1      -2.109   7.501  -0.300  1.00  0.00    -0.376 OA
BRANCH  32  33
ATOM     33  C   UNL     1      -3.054   6.757  -1.046  1.00  0.00     0.202 C 
BRANCH  33  34
ATOM     34  C   UNL     1      -4.005   7.341  -2.093  1.00  0.00     0.261 C 
BRANCH  34  35
ATOM     35  O   UNL     1      -3.447   8.327  -2.963  1.00  0.00    -0.460 OA
BRANCH  35  36
ATOM     36  C   UNL     1      -3.990   9.564  -2.842  1.00  0.00     0.338 C 
ATOM     37  O   UNL     1      -4.901   9.892  -2.093  1.00  0.00    -0.246 OA
BRANCH  36  38
ATOM     38  C   UNL     1      -3.182  10.540  -3.591  1.00  0.00     0.060 A 
ATOM     39  C   UNL     1      -2.475  11.504  -2.860  1.00  0.00     0.016 A 
ATOM     40  C   UNL     1      -3.138  10.537  -4.985  1.00  0.00     0.016 A 
ATOM     41  C   UNL     1      -1.720  12.470  -3.520  1.00  0.00     0.010 A 
ATOM     42  C   UNL     1      -2.408  11.530  -5.649  1.00  0.00     0.010 A 
ATOM     43  C   UNL     1      -1.718  12.516  -4.918  1.00  0.00    -0.014 A 
BRANCH  43  44
ATOM     44  C   UNL     1      -1.185  13.727  -5.591  1.00  0.00     0.031 A 
ATOM     45  C   UNL     1      -2.159  14.807  -5.978  1.00  0.00     0.074 A 
ATOM     46  C   UNL     1       0.134  13.896  -5.797  1.00  0.00     0.049 A 
ATOM     47  N   UNL     1      -1.944  15.942  -6.589  1.00  0.00    -0.248 NA
ATOM     48  C   UNL     1      -3.568  14.568  -5.626  1.00  0.00     0.031 C 
ATOM     49  C   UNL     1       1.178  12.950  -5.406  1.00  0.00     0.029 A 
ATOM     50  N   UNL     1       0.819  14.928  -6.389  1.00  0.00    -0.354 N 
ATOM     51  C   UNL     1      -3.189  16.553  -6.699  1.00  0.00     0.074 A 
ATOM     52  C   UNL     1      -4.157  15.642  -6.126  1.00  0.00     0.031 C 
ATOM     53  C   UNL     1       2.372  13.443  -5.779  1.00  0.00     0.029 A 
ATOM     54  C   UNL     1       2.176  14.717  -6.470  1.00  0.00     0.049 A 
ATOM     55  H   UNL     1       0.380  15.742  -6.725  1.00  0.00     0.167 HD
ATOM     56  C   UNL     1      -3.494  17.765  -7.221  1.00  0.00     0.034 A 
ATOM     57  C   UNL     1       3.141  15.455  -7.059  1.00  0.00     0.034 A 
ATOM     58  C   UNL     1      -2.519  18.655  -7.800  1.00  0.00     0.049 A 
ATOM     59  C   UNL     1       2.760  16.756  -7.733  1.00  0.00     0.074 A 
ATOM     60  C   UNL     1      -2.719  19.911  -8.347  1.00  0.00     0.029 A 
ATOM     61  N   UNL     1      -1.163  18.381  -7.923  1.00  0.00    -0.354 N 
ATOM     62  N   UNL     1       1.580  17.328  -7.823  1.00  0.00    -0.248 NA
ATOM     63  C   UNL     1       3.841  17.513  -8.377  1.00  0.00     0.031 C 
ATOM     64  C   UNL     1      -1.505  20.354  -8.879  1.00  0.00     0.029 A 
ATOM     65  C   UNL     1      -0.525  19.422  -8.578  1.00  0.00     0.049 A 
ATOM     66  H   UNL     1      -0.721  17.565  -7.593  1.00  0.00     0.167 HD
ATOM     67  C   UNL     1       1.788  18.526  -8.505  1.00  0.00     0.074 A 
ATOM     68  C   UNL     1       3.206  18.601  -8.785  1.00  0.00     0.031 C 
ATOM     69  C   UNL     1       0.891  19.481  -8.862  1.00  0.00     0.034 A 
BRANCH  56  70
ATOM     70  C   UNL     1      -4.950  18.164  -7.246  1.00  0.00     0.023 A 
ATOM     71  C   UNL     1      -5.689  18.355  -6.066  1.00  0.00     0.031 A 
ATOM     72  C   UNL     1      -5.614  18.331  -8.474  1.00  0.00     0.131 A 
ATOM     73  C   UNL     1      -7.062  18.635  -6.140  1.00  0.00     0.055 A 
ATOM     74  C   UNL     1      -6.960  18.694  -8.540  1.00  0.00     0.041 A 
ATOM     75  F   UNL     1      -4.967  18.133  -9.634  1.00  0.00    -0.206 F 
ATOM     76  C   UNL     1      -7.697  18.834  -7.368  1.00  0.00     0.022 A 
BRANCH  73  77
ATOM     77  S   UNL     1      -8.039  18.591  -4.612  1.00  0.00     0.124 S 
ATOM     78  O   UNL     1      -7.792  17.230  -4.144  1.00  0.00    -0.237 OA
ATOM     79  O   UNL     1      -7.436  19.658  -3.821  1.00  0.00    -0.237 OA
ATOM     80  O   UNL     1      -9.403  18.847  -5.070  1.00  0.00    -0.744 OA
ENDBRANCH  73  77
ENDBRANCH  56  70
BRANCH  57  81
ATOM     81  C   UNL     1       4.553  14.971  -7.099  1.00  0.00     0.023 A 
ATOM     82  C   UNL     1       5.597  15.710  -6.518  1.00  0.00     0.031 A 
ATOM     83  C   UNL     1       4.891  13.794  -7.793  1.00  0.00     0.131 A 
ATOM     84  C   UNL     1       6.928  15.296  -6.689  1.00  0.00     0.055 A 
ATOM     85  C   UNL     1       6.210  13.353  -7.906  1.00  0.00     0.041 A 
ATOM     86  F   UNL     1       3.936  13.052  -8.378  1.00  0.00    -0.206 F 
ATOM     87  C   UNL     1       7.240  14.114  -7.365  1.00  0.00     0.022 A 
BRANCH  84  88
ATOM     88  S   UNL     1       8.259  16.384  -6.108  1.00  0.00     0.124 S 
ATOM     89  O   UNL     1       7.981  17.610  -6.847  1.00  0.00    -0.237 OA
ATOM     90  O   UNL     1       8.008  16.428  -4.672  1.00  0.00    -0.237 OA
ATOM     91  O   UNL     1       9.474  15.677  -6.506  1.00  0.00    -0.744 OA
ENDBRANCH  84  88
ENDBRANCH  57  81
BRANCH  69  92
ATOM     92  C   UNL     1       1.426  20.714  -9.555  1.00  0.00     0.023 A 
ATOM     93  C   UNL     1       2.017  20.653 -10.829  1.00  0.00     0.031 A 
ATOM     94  C   UNL     1       1.341  21.971  -8.928  1.00  0.00     0.131 A 
ATOM     95  C   UNL     1       2.553  21.814 -11.408  1.00  0.00     0.055 A 
ATOM     96  C   UNL     1       1.812  23.133  -9.539  1.00  0.00     0.041 A 
ATOM     97  F   UNL     1       0.791  22.091  -7.709  1.00  0.00    -0.206 F 
ATOM     98  C   UNL     1       2.436  23.057 -10.781  1.00  0.00     0.022 A 
BRANCH  95  99
ATOM     99  S   UNL     1       3.501  21.662 -12.947  1.00  0.00     0.124 S 
ATOM    100  O   UNL     1       4.551  20.723 -12.565  1.00  0.00    -0.237 OA
ATOM    101  O   UNL     1       2.502  21.155 -13.881  1.00  0.00    -0.237 OA
ATOM    102  O   UNL     1       3.955  23.027 -13.207  1.00  0.00    -0.744 OA
ENDBRANCH  95  99
ENDBRANCH  69  92
ENDBRANCH  43  44
ENDBRANCH  36  38
ENDBRANCH  35  36
ENDBRANCH  34  35
ENDBRANCH  33  34
ENDBRANCH  32  33
ENDBRANCH  31  32
ENDBRANCH  30  31
ENDBRANCH   1  30
TORSDOF 27
