REMARK SMILES NS(=O)(=O)c1ccc(-n2nc(C(=O)OCCOCCOCCOCCOC(=O)c3ccc(-c4c5nc(c(-c6cc(S(=O)(=O)[O-])ccc6F)c6ccc([nH]6)c(-c6cc(S(=O)(=O)[O-])ccc6F)c6nc(c(-c7cc(S(=O)(=O)[O-])ccc7F)c7ccc4[nH]7)C=C6)C=C5)cc3)c(Cl)c2-c2ccc(Cl)cc2)cc1
REMARK SMILES IDX 20 1 19 2 18 3 17 4 16 5 15 6 14 7 12 8 13 9 11 10 9 11
REMARK SMILES IDX 10 12 94 13 92 14 93 15 8 16 5 17 6 18 103 19 7 20 102 21
REMARK SMILES IDX 2 22 3 23 4 24 1 25 95 28 96 29 101 30 97 31 100 32 98 33
REMARK SMILES IDX 99 34 21 35 22 36 23 37 24 38 25 39 26 40 27 41 28 42 29 43
REMARK SMILES IDX 30 44 91 45 31 46 90 47 32 48 33 49 34 50 84 51 35 52 89 53
REMARK SMILES IDX 83 54 85 55 36 56 88 57 82 58 81 59 37 61 69 62 49 63 68 64
REMARK SMILES IDX 50 65 53 66 67 67 86 68 51 69 52 70 66 72 87 73 54 74 38 75
REMARK SMILES IDX 39 76 47 77 40 78 46 79 48 80 45 81 41 82 42 83 43 84 44 85
REMARK SMILES IDX 70 86 71 87 79 88 72 89 78 90 80 91 77 92 73 93 74 94 75 95
REMARK SMILES IDX 76 96 55 97 56 98 64 99 57 100 63 101 65 102 62 103 58 104
REMARK SMILES IDX 59 105 60 106 61 107
REMARK H PARENT 1 26 1 27 85 60 53 71
REMARK Flexibility Score: inf
ROOT
ATOM      1  O   UNL     1       2.474  -8.477   9.210  1.00  0.00    -0.377 OA
ENDROOT
BRANCH   1   2
ATOM      2  C   UNL     1       2.592  -7.956   7.896  1.00  0.00     0.188 C 
BRANCH   2   3
ATOM      3  C   UNL     1       4.037  -7.772   7.372  1.00  0.00     0.188 C 
BRANCH   3   4
ATOM      4  O   UNL     1       5.189  -8.021   8.177  1.00  0.00    -0.376 OA
BRANCH   4   5
ATOM      5  C   UNL     1       5.157  -7.867   9.585  1.00  0.00     0.202 C 
BRANCH   5   6
ATOM      6  C   UNL     1       4.983  -6.454  10.138  1.00  0.00     0.261 C 
BRANCH   6   7
ATOM      7  O   UNL     1       3.881  -5.748   9.563  1.00  0.00    -0.458 OA
BRANCH   7   8
ATOM      8  C   UNL     1       4.182  -4.864   8.568  1.00  0.00     0.360 C 
ATOM      9  O   UNL     1       5.323  -4.585   8.216  1.00  0.00    -0.244 OA
BRANCH   8  10
ATOM     10  C   UNL     1       2.979  -4.315   7.926  1.00  0.00     0.190 A 
ATOM     11  N   UNL     1       1.785  -3.342   6.441  1.00  0.00    -0.231 N 
ATOM     12  N   UNL     1       2.991  -3.914   6.637  1.00  0.00    -0.159 NA
ATOM     13  C   UNL     1       0.967  -3.414   7.554  1.00  0.00     0.094 A 
ATOM     14  C   UNL     1       1.695  -4.119   8.493  1.00  0.00     0.102 A 
ATOM     15  Cl  UNL     1       1.180  -4.549  10.060  1.00  0.00    -0.079 Cl
BRANCH  11  16
ATOM     16  C   UNL     1       1.588  -2.530   5.304  1.00  0.00     0.065 A 
ATOM     17  C   UNL     1       1.020  -0.901   3.138  1.00  0.00     0.082 A 
ATOM     18  C   UNL     1       1.059  -2.291   2.965  1.00  0.00     0.024 A 
ATOM     19  C   UNL     1       1.307  -0.322   4.379  1.00  0.00     0.024 A 
ATOM     20  C   UNL     1       1.367  -3.116   4.052  1.00  0.00     0.030 A 
ATOM     21  C   UNL     1       1.576  -1.140   5.471  1.00  0.00     0.030 A 
BRANCH  17  22
ATOM     22  S   UNL     1       0.578   0.161   1.795  1.00  0.00     0.238 S 
ATOM     23  O   UNL     1       1.199   1.453   1.994  1.00  0.00    -0.207 OA
ATOM     24  O   UNL     1      -0.831   0.008   1.534  1.00  0.00    -0.207 OA
BRANCH  22  25
ATOM     25  N   UNL     1       1.377  -0.501   0.474  1.00  0.00    -0.225 NA
ATOM     26  H   UNL     1       1.177   0.055  -0.357  1.00  0.00     0.137 HD
ATOM     27  H   UNL     1       1.057  -1.458   0.329  1.00  0.00     0.137 HD
ENDBRANCH  22  25
ENDBRANCH  17  22
ENDBRANCH  11  16
BRANCH  13  28
ATOM     28  C   UNL     1      -0.344  -2.783   7.684  1.00  0.00     0.002 A 
ATOM     29  C   UNL     1      -0.543  -1.858   8.719  1.00  0.00     0.012 A 
ATOM     30  C   UNL     1      -1.407  -3.086   6.824  1.00  0.00     0.012 A 
ATOM     31  C   UNL     1      -1.783  -1.252   8.905  1.00  0.00     0.021 A 
ATOM     32  C   UNL     1      -2.652  -2.474   7.008  1.00  0.00     0.021 A 
ATOM     33  C   UNL     1      -2.835  -1.564   8.049  1.00  0.00     0.041 A 
ATOM     34  Cl  UNL     1      -4.367  -0.820   8.286  1.00  0.00    -0.084 Cl
ENDBRANCH  13  28
ENDBRANCH   8  10
ENDBRANCH   7   8
ENDBRANCH   6   7
ENDBRANCH   5   6
ENDBRANCH   4   5
ENDBRANCH   3   4
ENDBRANCH   2   3
ENDBRANCH   1   2
BRANCH   1  35
ATOM     35  C   UNL     1       2.181  -9.873   9.263  1.00  0.00     0.188 C 
BRANCH  35  36
ATOM     36  C   UNL     1       3.226 -10.801   8.613  1.00  0.00     0.188 C 
BRANCH  36  37
ATOM     37  O   UNL     1       3.468 -10.493   7.239  1.00  0.00    -0.376 OA
BRANCH  37  38
ATOM     38  C   UNL     1       3.063 -11.445   6.263  1.00  0.00     0.202 C 
BRANCH  38  39
ATOM     39  C   UNL     1       1.621 -11.236   5.807  1.00  0.00     0.261 C 
BRANCH  39  40
ATOM     40  O   UNL     1       0.680 -11.252   6.873  1.00  0.00    -0.460 OA
BRANCH  40  41
ATOM     41  C   UNL     1       0.652 -12.374   7.621  1.00  0.00     0.338 C 
ATOM     42  O   UNL     1       1.384 -13.342   7.523  1.00  0.00    -0.246 OA
BRANCH  41  43
ATOM     43  C   UNL     1      -0.456 -12.271   8.577  1.00  0.00     0.060 A 
ATOM     44  C   UNL     1      -0.706 -13.412   9.339  1.00  0.00     0.016 A 
ATOM     45  C   UNL     1      -1.365 -11.203   8.501  1.00  0.00     0.016 A 
ATOM     46  C   UNL     1      -1.990 -13.618   9.776  1.00  0.00     0.010 A 
ATOM     47  C   UNL     1      -2.649 -11.407   8.941  1.00  0.00     0.010 A 
ATOM     48  C   UNL     1      -2.958 -12.665   9.448  1.00  0.00    -0.014 A 
BRANCH  48  49
ATOM     49  C   UNL     1      -4.329 -13.114   9.458  1.00  0.00     0.031 A 
ATOM     50  C   UNL     1      -4.997 -13.110  10.763  1.00  0.00     0.074 A 
ATOM     51  C   UNL     1      -4.945 -13.466   8.315  1.00  0.00     0.049 A 
ATOM     52  N   UNL     1      -5.439 -14.125  11.422  1.00  0.00    -0.248 NA
ATOM     53  C   UNL     1      -5.091 -11.829  11.471  1.00  0.00     0.031 C 
ATOM     54  C   UNL     1      -4.489 -13.244   6.939  1.00  0.00     0.029 A 
ATOM     55  N   UNL     1      -6.188 -13.987   8.156  1.00  0.00    -0.354 N 
ATOM     56  C   UNL     1      -6.059 -13.596  12.543  1.00  0.00     0.074 A 
ATOM     57  C   UNL     1      -5.674 -12.209  12.606  1.00  0.00     0.031 C 
ATOM     58  C   UNL     1      -5.539 -13.400   6.103  1.00  0.00     0.029 A 
ATOM     59  C   UNL     1      -6.689 -13.846   6.872  1.00  0.00     0.049 A 
ATOM     60  H   UNL     1      -6.687 -14.424   8.884  1.00  0.00     0.167 HD
ATOM     61  C   UNL     1      -7.014 -14.287  13.218  1.00  0.00     0.034 A 
ATOM     62  C   UNL     1      -7.989 -13.961   6.505  1.00  0.00     0.034 A 
ATOM     63  C   UNL     1      -6.970 -15.698  12.919  1.00  0.00     0.049 A 
ATOM     64  C   UNL     1      -8.666 -14.794   7.534  1.00  0.00     0.074 A 
ATOM     65  C   UNL     1      -5.989 -16.669  13.015  1.00  0.00     0.029 A 
ATOM     66  N   UNL     1      -7.935 -16.234  12.096  1.00  0.00    -0.354 N 
ATOM     67  N   UNL     1      -8.379 -16.051   7.748  1.00  0.00    -0.248 NA
ATOM     68  C   UNL     1      -9.339 -14.126   8.639  1.00  0.00     0.031 C 
ATOM     69  C   UNL     1      -6.174 -17.497  11.870  1.00  0.00     0.029 A 
ATOM     70  C   UNL     1      -7.279 -17.011  11.169  1.00  0.00     0.049 A 
ATOM     71  H   UNL     1      -8.906 -16.090  12.159  1.00  0.00     0.167 HD
ATOM     72  C   UNL     1      -8.438 -16.210   9.125  1.00  0.00     0.074 A 
ATOM     73  C   UNL     1      -9.145 -15.027   9.608  1.00  0.00     0.031 C 
ATOM     74  C   UNL     1      -7.666 -17.132   9.775  1.00  0.00     0.034 A 
BRANCH  61  75
ATOM     75  C   UNL     1      -8.165 -13.632  13.931  1.00  0.00     0.023 A 
ATOM     76  C   UNL     1      -8.982 -14.438  14.739  1.00  0.00     0.031 A 
ATOM     77  C   UNL     1      -8.646 -12.330  13.661  1.00  0.00     0.131 A 
ATOM     78  C   UNL     1     -10.222 -13.967  15.199  1.00  0.00     0.055 A 
ATOM     79  C   UNL     1      -9.840 -11.836  14.190  1.00  0.00     0.041 A 
ATOM     80  F   UNL     1      -8.044 -11.505  12.793  1.00  0.00    -0.206 F 
ATOM     81  C   UNL     1     -10.649 -12.665  14.945  1.00  0.00     0.022 A 
BRANCH  78  82
ATOM     82  S   UNL     1     -11.356 -15.149  15.971  1.00  0.00     0.124 S 
ATOM     83  O   UNL     1     -11.337 -16.251  15.014  1.00  0.00    -0.237 OA
ATOM     84  O   UNL     1     -10.702 -15.396  17.251  1.00  0.00    -0.237 OA
ATOM     85  O   UNL     1     -12.614 -14.410  16.043  1.00  0.00    -0.744 OA
ENDBRANCH  78  82
ENDBRANCH  61  75
BRANCH  62  86
ATOM     86  C   UNL     1      -8.677 -13.070   5.535  1.00  0.00     0.023 A 
ATOM     87  C   UNL     1      -9.890 -13.421   4.918  1.00  0.00     0.031 A 
ATOM     88  C   UNL     1      -8.229 -11.739   5.342  1.00  0.00     0.131 A 
ATOM     89  C   UNL     1     -10.583 -12.474   4.129  1.00  0.00     0.055 A 
ATOM     90  C   UNL     1      -8.900 -10.819   4.538  1.00  0.00     0.041 A 
ATOM     91  F   UNL     1      -7.159 -11.258   5.995  1.00  0.00    -0.206 F 
ATOM     92  C   UNL     1     -10.087 -11.183   3.929  1.00  0.00     0.022 A 
BRANCH  89  93
ATOM     93  S   UNL     1     -12.213 -12.887   3.438  1.00  0.00     0.124 S 
ATOM     94  O   UNL     1     -11.873 -13.856   2.403  1.00  0.00    -0.237 OA
ATOM     95  O   UNL     1     -12.924 -13.402   4.603  1.00  0.00    -0.237 OA
ATOM     96  O   UNL     1     -12.707 -11.601   2.941  1.00  0.00    -0.744 OA
ENDBRANCH  89  93
ENDBRANCH  62  86
BRANCH  74  97
ATOM     97  C   UNL     1      -6.936 -18.181   8.957  1.00  0.00     0.023 A 
ATOM     98  C   UNL     1      -6.008 -17.880   7.935  1.00  0.00     0.031 A 
ATOM     99  C   UNL     1      -7.071 -19.529   9.335  1.00  0.00     0.131 A 
ATOM    100  C   UNL     1      -5.266 -18.911   7.326  1.00  0.00     0.055 A 
ATOM    101  C   UNL     1      -6.321 -20.546   8.743  1.00  0.00     0.041 A 
ATOM    102  F   UNL     1      -7.907 -19.878  10.328  1.00  0.00    -0.206 F 
ATOM    103  C   UNL     1      -5.418 -20.240   7.730  1.00  0.00     0.022 A 
BRANCH 100 104
ATOM    104  S   UNL     1      -4.080 -18.528   5.998  1.00  0.00     0.124 S 
ATOM    105  O   UNL     1      -4.851 -17.697   5.082  1.00  0.00    -0.237 OA
ATOM    106  O   UNL     1      -3.003 -17.857   6.722  1.00  0.00    -0.237 OA
ATOM    107  O   UNL     1      -3.724 -19.847   5.470  1.00  0.00    -0.744 OA
ENDBRANCH 100 104
ENDBRANCH  74  97
ENDBRANCH  48  49
ENDBRANCH  41  43
ENDBRANCH  40  41
ENDBRANCH  39  40
ENDBRANCH  38  39
ENDBRANCH  37  38
ENDBRANCH  36  37
ENDBRANCH  35  36
ENDBRANCH   1  35
TORSDOF 27
