REMARK SMILES COC(=O)c1ccc2c(c1)=N[C@H](c1cn(CCC(=O)OCCOCCOCCOCCOC(=O)c3ccc(-c4c5nc(c(-c6cc(S(=O)(=O)[O-])ccc6F)c6ccc([nH]6)c(-c6cc(S(=O)(=O)[O-])ccc6F)c6nc(c(-c7cc(S(=O)(=O)[O-])ccc7F)c7ccc4[nH]7)C=C6)C=C5)cc3)c3ccccc13)N=2
REMARK SMILES IDX 25 1 24 2 23 3 22 4 21 5 20 6 18 7 19 8 17 9 16 10 15 11
REMARK SMILES IDX 13 12 14 13 103 14 98 15 102 16 99 17 101 18 100 19 12 20
REMARK SMILES IDX 5 21 6 22 10 23 7 24 9 25 8 26 11 27 104 28 3 29 4 30 2 31
REMARK SMILES IDX 1 32 26 33 27 34 28 35 29 36 30 37 31 38 32 39 33 40 34 41
REMARK SMILES IDX 35 42 36 43 97 44 37 45 96 46 38 47 39 48 40 49 90 50 41 51
REMARK SMILES IDX 95 52 89 53 91 54 42 55 94 56 88 57 87 58 43 60 75 61 55 62
REMARK SMILES IDX 74 63 56 64 59 65 73 66 92 67 57 68 58 69 72 71 93 72 60 73
REMARK SMILES IDX 44 74 45 75 53 76 46 77 52 78 54 79 51 80 47 81 48 82 49 83
REMARK SMILES IDX 50 84 76 85 77 86 85 87 78 88 84 89 86 90 83 91 79 92 80 93
REMARK SMILES IDX 81 94 82 95 61 96 62 97 70 98 63 99 69 100 71 101 68 102
REMARK SMILES IDX 64 103 65 104 66 105 67 106
REMARK H PARENT 91 59 59 70
REMARK Flexibility Score: inf
ROOT
ATOM      1  C   UNL     1       0.083  12.812  -5.643  1.00  0.00     0.188 C 
ENDROOT
BRANCH   1   2
ATOM      2  C   UNL     1      -0.344  13.876  -6.654  1.00  0.00     0.188 C 
BRANCH   2   3
ATOM      3  O   UNL     1      -1.694  13.959  -7.069  1.00  0.00    -0.376 OA
BRANCH   3   4
ATOM      4  C   UNL     1      -2.321  12.840  -7.696  1.00  0.00     0.202 C 
BRANCH   4   5
ATOM      5  C   UNL     1      -1.578  11.947  -8.702  1.00  0.00     0.261 C 
BRANCH   5   6
ATOM      6  O   UNL     1      -0.423  11.233  -8.192  1.00  0.00    -0.463 OA
BRANCH   6   7
ATOM      7  C   UNL     1       0.764  11.528  -8.759  1.00  0.00     0.307 C 
ATOM      8  O   UNL     1       0.918  12.414  -9.600  1.00  0.00    -0.252 OA
BRANCH   7   9
ATOM      9  C   UNL     1       1.943  10.655  -8.368  1.00  0.00     0.144 C 
BRANCH   9  10
ATOM     10  C   UNL     1       2.178  10.110  -6.957  1.00  0.00     0.134 C 
BRANCH  10  11
ATOM     11  N   UNL     1       1.558   8.834  -6.688  1.00  0.00    -0.346 N 
ATOM     12  C   UNL     1       1.014   6.741  -6.999  1.00  0.00     0.024 A 
ATOM     13  C   UNL     1       2.115   7.587  -6.820  1.00  0.00     0.094 A 
ATOM     14  C   UNL     1      -0.072   7.654  -7.339  1.00  0.00     0.007 A 
ATOM     15  C   UNL     1       0.251   8.599  -6.361  1.00  0.00     0.048 A 
ATOM     16  C   UNL     1      -1.442   7.464  -7.570  1.00  0.00     0.011 A 
ATOM     17  C   UNL     1      -0.478   8.609  -5.169  1.00  0.00     0.027 A 
ATOM     18  C   UNL     1      -2.252   7.524  -6.444  1.00  0.00     0.001 A 
ATOM     19  C   UNL     1      -1.705   7.939  -5.229  1.00  0.00     0.002 A 
BRANCH  12  20
ATOM     20  C   UNL     1       0.940   5.264  -6.706  1.00  0.00     0.255 C 
ATOM     21  C   UNL     1       0.579   3.146  -2.705  1.00  0.00     0.062 A 
ATOM     22  C   UNL     1      -0.812   3.080  -3.138  1.00  0.00     0.018 A 
ATOM     23  C   UNL     1       1.518   3.810  -3.403  1.00  0.00     0.046 A 
ATOM     24  C   UNL     1      -1.255   3.648  -4.272  1.00  0.00     0.031 A 
ATOM     25  C   UNL     1       1.134   4.387  -4.701  1.00  0.00     0.087 A 
ATOM     26  C   UNL     1      -0.270   4.310  -5.142  1.00  0.00     0.086 A 
ATOM     27  N   UNL     1       1.895   4.929  -5.587  1.00  0.00    -0.252 NA
ATOM     28  N   UNL     1      -0.429   4.815  -6.311  1.00  0.00    -0.252 NA
BRANCH  21  29
ATOM     29  C   UNL     1       1.053   2.459  -1.465  1.00  0.00     0.337 C 
ATOM     30  O   UNL     1       1.927   2.890  -0.728  1.00  0.00    -0.246 OA
BRANCH  29  31
ATOM     31  O   UNL     1       0.435   1.254  -1.339  1.00  0.00    -0.465 OA
ATOM     32  C   UNL     1       0.928   0.446  -0.267  1.00  0.00     0.282 C 
ENDBRANCH  29  31
ENDBRANCH  21  29
ENDBRANCH  12  20
ENDBRANCH  10  11
ENDBRANCH   9  10
ENDBRANCH   7   9
ENDBRANCH   6   7
ENDBRANCH   5   6
ENDBRANCH   4   5
ENDBRANCH   3   4
ENDBRANCH   2   3
ENDBRANCH   1   2
BRANCH   1  33
ATOM     33  O   UNL     1      -0.723  11.664  -5.597  1.00  0.00    -0.377 OA
BRANCH  33  34
ATOM     34  C   UNL     1      -1.842  11.633  -4.718  1.00  0.00     0.188 C 
BRANCH  34  35
ATOM     35  C   UNL     1      -2.355  12.942  -4.099  1.00  0.00     0.188 C 
BRANCH  35  36
ATOM     36  O   UNL     1      -1.335  13.703  -3.469  1.00  0.00    -0.376 OA
BRANCH  36  37
ATOM     37  C   UNL     1      -1.060  13.474  -2.093  1.00  0.00     0.202 C 
BRANCH  37  38
ATOM     38  C   UNL     1      -0.784  12.046  -1.587  1.00  0.00     0.261 C 
BRANCH  38  39
ATOM     39  O   UNL     1      -1.829  11.093  -1.845  1.00  0.00    -0.460 OA
BRANCH  39  40
ATOM     40  C   UNL     1      -2.994  11.128  -1.159  1.00  0.00     0.338 C 
ATOM     41  O   UNL     1      -3.202  11.711  -0.109  1.00  0.00    -0.246 OA
BRANCH  40  42
ATOM     42  C   UNL     1      -4.016  10.604  -2.108  1.00  0.00     0.060 A 
ATOM     43  C   UNL     1      -3.776   9.445  -2.838  1.00  0.00     0.016 A 
ATOM     44  C   UNL     1      -5.058  11.459  -2.492  1.00  0.00     0.016 A 
ATOM     45  C   UNL     1      -4.471   9.244  -4.031  1.00  0.00     0.010 A 
ATOM     46  C   UNL     1      -5.723  11.267  -3.713  1.00  0.00     0.010 A 
ATOM     47  C   UNL     1      -5.380  10.194  -4.532  1.00  0.00    -0.014 A 
BRANCH  47  48
ATOM     48  C   UNL     1      -6.075   9.859  -5.801  1.00  0.00     0.031 A 
ATOM     49  C   UNL     1      -6.740   8.526  -5.716  1.00  0.00     0.074 A 
ATOM     50  C   UNL     1      -6.229  10.642  -6.899  1.00  0.00     0.049 A 
ATOM     51  N   UNL     1      -6.552   7.478  -6.451  1.00  0.00    -0.248 NA
ATOM     52  C   UNL     1      -7.579   8.282  -4.527  1.00  0.00     0.031 C 
ATOM     53  C   UNL     1      -5.857  12.054  -7.013  1.00  0.00     0.029 A 
ATOM     54  N   UNL     1      -6.839  10.397  -8.115  1.00  0.00    -0.354 N 
ATOM     55  C   UNL     1      -7.435   6.522  -5.949  1.00  0.00     0.074 A 
ATOM     56  C   UNL     1      -7.854   6.987  -4.656  1.00  0.00     0.031 C 
ATOM     57  C   UNL     1      -6.446  12.594  -8.104  1.00  0.00     0.029 A 
ATOM     58  C   UNL     1      -7.152  11.554  -8.835  1.00  0.00     0.049 A 
ATOM     59  H   UNL     1      -7.035   9.491  -8.445  1.00  0.00     0.167 HD
ATOM     60  C   UNL     1      -8.006   5.588  -6.759  1.00  0.00     0.034 A 
ATOM     61  C   UNL     1      -7.981  11.701  -9.905  1.00  0.00     0.034 A 
ATOM     62  C   UNL     1      -7.284   5.445  -7.987  1.00  0.00     0.049 A 
ATOM     63  C   UNL     1      -8.228  10.393 -10.535  1.00  0.00     0.074 A 
ATOM     64  C   UNL     1      -6.172   4.764  -8.425  1.00  0.00     0.029 A 
ATOM     65  N   UNL     1      -7.590   6.389  -8.926  1.00  0.00    -0.354 N 
ATOM     66  N   UNL     1      -7.349   9.754 -11.248  1.00  0.00    -0.248 NA
ATOM     67  C   UNL     1      -9.402   9.623 -10.134  1.00  0.00     0.031 C 
ATOM     68  C   UNL     1      -5.766   5.395  -9.633  1.00  0.00     0.029 A 
ATOM     69  C   UNL     1      -6.658   6.423  -9.925  1.00  0.00     0.049 A 
ATOM     70  H   UNL     1      -8.383   6.972  -8.888  1.00  0.00     0.167 HD
ATOM     71  C   UNL     1      -7.621   8.433 -10.976  1.00  0.00     0.074 A 
ATOM     72  C   UNL     1      -8.981   8.400 -10.459  1.00  0.00     0.031 C 
ATOM     73  C   UNL     1      -6.609   7.537 -10.843  1.00  0.00     0.034 A 
BRANCH  60  74
ATOM     74  C   UNL     1      -9.464   5.184  -6.649  1.00  0.00     0.023 A 
ATOM     75  C   UNL     1     -10.390   5.878  -5.845  1.00  0.00     0.031 A 
ATOM     76  C   UNL     1     -10.021   4.252  -7.548  1.00  0.00     0.131 A 
ATOM     77  C   UNL     1     -11.767   5.640  -5.918  1.00  0.00     0.055 A 
ATOM     78  C   UNL     1     -11.405   4.061  -7.672  1.00  0.00     0.041 A 
ATOM     79  F   UNL     1      -9.240   3.538  -8.373  1.00  0.00    -0.206 F 
ATOM     80  C   UNL     1     -12.288   4.756  -6.854  1.00  0.00     0.022 A 
BRANCH  77  81
ATOM     81  S   UNL     1     -12.895   6.503  -4.789  1.00  0.00     0.124 S 
ATOM     82  O   UNL     1     -13.782   7.196  -5.716  1.00  0.00    -0.237 OA
ATOM     83  O   UNL     1     -13.488   5.387  -4.057  1.00  0.00    -0.237 OA
ATOM     84  O   UNL     1     -12.007   7.354  -4.001  1.00  0.00    -0.744 OA
ENDBRANCH  77  81
ENDBRANCH  60  74
BRANCH  61  85
ATOM     85  C   UNL     1      -8.855  12.852 -10.255  1.00  0.00     0.023 A 
ATOM     86  C   UNL     1      -9.418  13.607  -9.214  1.00  0.00     0.031 A 
ATOM     87  C   UNL     1      -9.423  13.002 -11.537  1.00  0.00     0.131 A 
ATOM     88  C   UNL     1     -10.546  14.407  -9.441  1.00  0.00     0.055 A 
ATOM     89  C   UNL     1     -10.534  13.827 -11.769  1.00  0.00     0.041 A 
ATOM     90  F   UNL     1      -8.964  12.289 -12.577  1.00  0.00    -0.206 F 
ATOM     91  C   UNL     1     -11.114  14.520 -10.711  1.00  0.00     0.022 A 
BRANCH  88  92
ATOM     92  S   UNL     1     -11.372  15.218  -8.047  1.00  0.00     0.124 S 
ATOM     93  O   UNL     1     -11.557  16.579  -8.545  1.00  0.00    -0.237 OA
ATOM     94  O   UNL     1     -12.588  14.421  -7.923  1.00  0.00    -0.237 OA
ATOM     95  O   UNL     1     -10.409  15.084  -6.957  1.00  0.00    -0.744 OA
ENDBRANCH  88  92
ENDBRANCH  61  85
BRANCH  73  96
ATOM     96  C   UNL     1      -5.326   7.795 -11.564  1.00  0.00     0.023 A 
ATOM     97  C   UNL     1      -4.928   6.796 -12.465  1.00  0.00     0.031 A 
ATOM     98  C   UNL     1      -4.438   8.851 -11.302  1.00  0.00     0.131 A 
ATOM     99  C   UNL     1      -3.651   6.819 -13.021  1.00  0.00     0.055 A 
ATOM    100  C   UNL     1      -3.186   8.912 -11.922  1.00  0.00     0.041 A 
ATOM    101  F   UNL     1      -4.725   9.802 -10.399  1.00  0.00    -0.206 F 
ATOM    102  C   UNL     1      -2.778   7.880 -12.768  1.00  0.00     0.022 A 
BRANCH  99 103
ATOM    103  S   UNL     1      -3.054   5.382 -13.945  1.00  0.00     0.124 S 
ATOM    104  O   UNL     1      -2.862   5.931 -15.284  1.00  0.00    -0.237 OA
ATOM    105  O   UNL     1      -1.830   5.037 -13.225  1.00  0.00    -0.237 OA
ATOM    106  O   UNL     1      -4.135   4.407 -13.820  1.00  0.00    -0.744 OA
ENDBRANCH  99 103
ENDBRANCH  73  96
ENDBRANCH  47  48
ENDBRANCH  40  42
ENDBRANCH  39  40
ENDBRANCH  38  39
ENDBRANCH  37  38
ENDBRANCH  36  37
ENDBRANCH  35  36
ENDBRANCH  34  35
ENDBRANCH  33  34
ENDBRANCH   1  33
TORSDOF 28
