REMARK SMILES COc1ccc(N2C(=O)/C(=C/c3c(C(=O)OCCOCCOCCOCCOC(=O)c4ccc(-c5c6nc(c(-c7cc(S(=O)(=O)[O-])ccc7F)c7ccc([nH]7)c(-c7cc(S(=O)(=O)[O-])ccc7F)c7nc(c(-c8cc(S(=O)(=O)[O-])ccc8F)c8ccc5[nH]8)C=C7)C=C6)cc4)[nH]c4cc(OC)ccc34)SC2=S)cc1
REMARK SMILES IDX 22 1 21 2 20 3 19 4 18 5 17 6 16 7 14 8 15 9 13 10 12 11
REMARK SMILES IDX 102 12 94 13 95 14 101 15 96 17 100 18 97 19 11 20 7 21 8 22
REMARK SMILES IDX 104 23 9 24 10 25 103 26 105 27 6 28 3 29 4 30 107 31 5 32
REMARK SMILES IDX 106 33 2 34 1 35 98 36 99 37 23 38 24 39 25 40 26 41 27 42
REMARK SMILES IDX 28 43 29 44 30 45 31 46 32 47 93 48 33 49 92 50 34 51 35 52
REMARK SMILES IDX 36 53 86 54 37 55 91 56 85 57 87 58 38 59 90 60 84 61 83 62
REMARK SMILES IDX 39 64 71 65 51 66 70 67 52 68 55 69 69 70 88 71 53 72 54 73
REMARK SMILES IDX 68 75 89 76 56 77 40 78 41 79 49 80 42 81 48 82 50 83 47 84
REMARK SMILES IDX 43 85 44 86 45 87 46 88 72 89 73 90 81 91 74 92 80 93 82 94
REMARK SMILES IDX 79 95 75 96 76 97 77 98 78 99 57 100 58 101 66 102 59 103
REMARK SMILES IDX 65 104 67 105 64 106 60 107 61 108 62 109 63 110
REMARK H PARENT 94 16 87 63 55 74
REMARK Flexibility Score: inf
ROOT
ATOM      1  O   UNL     1       2.458  -4.048  -8.572  1.00  0.00    -0.377 OA
ENDROOT
BRANCH   1   2
ATOM      2  C   UNL     1       2.311  -4.088  -9.987  1.00  0.00     0.188 C 
BRANCH   2   3
ATOM      3  C   UNL     1       3.463  -4.718 -10.809  1.00  0.00     0.188 C 
BRANCH   3   4
ATOM      4  O   UNL     1       4.808  -4.884 -10.360  1.00  0.00    -0.376 OA
BRANCH   4   5
ATOM      5  C   UNL     1       5.121  -4.712  -8.990  1.00  0.00     0.202 C 
BRANCH   5   6
ATOM      6  C   UNL     1       5.438  -3.263  -8.614  1.00  0.00     0.261 C 
BRANCH   6   7
ATOM      7  O   UNL     1       4.712  -2.322  -9.416  1.00  0.00    -0.459 OA
BRANCH   7   8
ATOM      8  C   UNL     1       5.363  -1.902 -10.531  1.00  0.00     0.355 C 
ATOM      9  O   UNL     1       6.545  -2.105 -10.787  1.00  0.00    -0.244 OA
BRANCH   8  10
ATOM     10  C   UNL     1       4.436  -1.339 -11.485  1.00  0.00     0.133 A 
ATOM     11  C   UNL     1       3.227  -0.647 -11.420  1.00  0.00     0.016 A 
ATOM     12  C   UNL     1       2.694  -0.596 -12.760  1.00  0.00     0.008 A 
ATOM     13  N   UNL     1       4.681  -1.581 -12.816  1.00  0.00    -0.348 N 
ATOM     14  C   UNL     1       3.580  -1.298 -13.574  1.00  0.00     0.050 A 
ATOM     15  C   UNL     1       1.512  -0.102 -13.358  1.00  0.00     0.015 A 
ATOM     16  H   UNL     1       5.535  -1.914 -13.175  1.00  0.00     0.167 HD
ATOM     17  C   UNL     1       3.308  -1.642 -14.899  1.00  0.00     0.073 A 
ATOM     18  C   UNL     1       1.234  -0.403 -14.706  1.00  0.00     0.047 A 
ATOM     19  C   UNL     1       2.111  -1.190 -15.450  1.00  0.00     0.120 A 
BRANCH  11  20
ATOM     20  C   UNL     1       2.518  -0.266 -10.225  1.00  0.00     0.032 C 
ATOM     21  N   UNL     1       3.108   0.277  -6.716  1.00  0.00    -0.261 N 
ATOM     22  C   UNL     1       2.228   0.273  -7.813  1.00  0.00     0.270 C 
ATOM     23  C   UNL     1       4.454   0.277  -7.090  1.00  0.00     0.152 C 
ATOM     24  O   UNL     1       1.004   0.265  -7.841  1.00  0.00    -0.268 OA
ATOM     25  C   UNL     1       3.009   0.254  -9.089  1.00  0.00     0.081 C 
ATOM     26  S   UNL     1       4.596   0.794  -8.772  1.00  0.00    -0.054 SA
ATOM     27  S   UNL     1       5.853  -0.220  -6.309  1.00  0.00    -0.051 S 
BRANCH  21  28
ATOM     28  C   UNL     1       2.629   0.258  -5.345  1.00  0.00     0.051 A 
ATOM     29  C   UNL     1       1.737   0.198  -2.627  1.00  0.00     0.119 A 
ATOM     30  C   UNL     1       0.848   0.009  -3.681  1.00  0.00     0.048 A 
ATOM     31  C   UNL     1       3.053   0.491  -2.923  1.00  0.00     0.048 A 
ATOM     32  C   UNL     1       1.289   0.007  -5.014  1.00  0.00     0.030 A 
ATOM     33  C   UNL     1       3.474   0.549  -4.258  1.00  0.00     0.030 A 
BRANCH  29  34
ATOM     34  O   UNL     1       1.223   0.102  -1.372  1.00  0.00    -0.497 OA
ATOM     35  C   UNL     1       2.149  -0.094  -0.303  1.00  0.00     0.278 C 
ENDBRANCH  29  34
ENDBRANCH  21  28
ENDBRANCH  11  20
BRANCH  19  36
ATOM     36  O   UNL     1       1.821  -1.663 -16.702  1.00  0.00    -0.497 OA
ATOM     37  C   UNL     1       1.566  -0.629 -17.644  1.00  0.00     0.278 C 
ENDBRANCH  19  36
ENDBRANCH   8  10
ENDBRANCH   7   8
ENDBRANCH   6   7
ENDBRANCH   5   6
ENDBRANCH   4   5
ENDBRANCH   3   4
ENDBRANCH   2   3
ENDBRANCH   1   2
BRANCH   1  38
ATOM     38  C   UNL     1       1.558  -4.903  -7.863  1.00  0.00     0.188 C 
BRANCH  38  39
ATOM     39  C   UNL     1       1.945  -6.383  -7.957  1.00  0.00     0.188 C 
BRANCH  39  40
ATOM     40  O   UNL     1       1.950  -6.835  -9.312  1.00  0.00    -0.376 OA
BRANCH  40  41
ATOM     41  C   UNL     1       0.950  -7.797  -9.637  1.00  0.00     0.202 C 
BRANCH  41  42
ATOM     42  C   UNL     1      -0.434  -7.173  -9.867  1.00  0.00     0.261 C 
BRANCH  42  43
ATOM     43  O   UNL     1      -1.010  -6.564  -8.698  1.00  0.00    -0.460 OA
BRANCH  43  44
ATOM     44  C   UNL     1      -1.286  -7.410  -7.678  1.00  0.00     0.338 C 
ATOM     45  O   UNL     1      -1.129  -8.618  -7.675  1.00  0.00    -0.246 OA
BRANCH  44  46
ATOM     46  C   UNL     1      -1.653  -6.622  -6.487  1.00  0.00     0.060 A 
ATOM     47  C   UNL     1      -0.954  -6.852  -5.297  1.00  0.00     0.016 A 
ATOM     48  C   UNL     1      -2.720  -5.722  -6.524  1.00  0.00     0.016 A 
ATOM     49  C   UNL     1      -1.363  -6.226  -4.120  1.00  0.00     0.010 A 
ATOM     50  C   UNL     1      -3.136  -5.105  -5.341  1.00  0.00     0.010 A 
ATOM     51  C   UNL     1      -2.487  -5.388  -4.126  1.00  0.00    -0.014 A 
BRANCH  51  52
ATOM     52  C   UNL     1      -3.092  -4.965  -2.839  1.00  0.00     0.031 A 
ATOM     53  C   UNL     1      -4.221  -5.771  -2.266  1.00  0.00     0.074 A 
ATOM     54  C   UNL     1      -2.631  -3.904  -2.157  1.00  0.00     0.049 A 
ATOM     55  N   UNL     1      -4.875  -5.597  -1.147  1.00  0.00    -0.248 NA
ATOM     56  C   UNL     1      -4.656  -6.934  -3.051  1.00  0.00     0.031 C 
ATOM     57  C   UNL     1      -1.500  -3.076  -2.560  1.00  0.00     0.029 A 
ATOM     58  N   UNL     1      -3.068  -3.338  -0.983  1.00  0.00    -0.354 N 
ATOM     59  C   UNL     1      -5.770  -6.654  -1.068  1.00  0.00     0.074 A 
ATOM     60  C   UNL     1      -5.624  -7.419  -2.291  1.00  0.00     0.031 C 
ATOM     61  C   UNL     1      -1.363  -2.088  -1.662  1.00  0.00     0.029 A 
ATOM     62  C   UNL     1      -2.407  -2.180  -0.655  1.00  0.00     0.049 A 
ATOM     63  H   UNL     1      -3.784  -3.726  -0.431  1.00  0.00     0.167 HD
ATOM     64  C   UNL     1      -6.610  -6.980  -0.056  1.00  0.00     0.034 A 
ATOM     65  C   UNL     1      -2.623  -1.276   0.320  1.00  0.00     0.034 A 
ATOM     66  C   UNL     1      -6.782  -6.197   1.143  1.00  0.00     0.049 A 
ATOM     67  C   UNL     1      -3.684  -1.560   1.345  1.00  0.00     0.074 A 
ATOM     68  C   UNL     1      -7.591  -6.457   2.236  1.00  0.00     0.029 A 
ATOM     69  N   UNL     1      -6.155  -4.985   1.398  1.00  0.00    -0.354 N 
ATOM     70  N   UNL     1      -4.481  -2.598   1.440  1.00  0.00    -0.248 NA
ATOM     71  C   UNL     1      -3.844  -0.571   2.417  1.00  0.00     0.031 C 
ATOM     72  C   UNL     1      -7.499  -5.374   3.122  1.00  0.00     0.029 A 
ATOM     73  C   UNL     1      -6.589  -4.464   2.609  1.00  0.00     0.049 A 
ATOM     74  H   UNL     1      -5.497  -4.556   0.804  1.00  0.00     0.167 HD
ATOM     75  C   UNL     1      -5.201  -2.411   2.614  1.00  0.00     0.074 A 
ATOM     76  C   UNL     1      -4.740  -1.163   3.190  1.00  0.00     0.031 C 
ATOM     77  C   UNL     1      -6.143  -3.212   3.174  1.00  0.00     0.034 A 
BRANCH  64  78
ATOM     78  C   UNL     1      -7.425  -8.231  -0.245  1.00  0.00     0.023 A 
ATOM     79  C   UNL     1      -6.813  -9.497  -0.302  1.00  0.00     0.031 A 
ATOM     80  C   UNL     1      -8.812  -8.154  -0.450  1.00  0.00     0.131 A 
ATOM     81  C   UNL     1      -7.575 -10.625  -0.636  1.00  0.00     0.055 A 
ATOM     82  C   UNL     1      -9.577  -9.292  -0.710  1.00  0.00     0.041 A 
ATOM     83  F   UNL     1      -9.440  -6.968  -0.432  1.00  0.00    -0.206 F 
ATOM     84  C   UNL     1      -8.957 -10.534  -0.821  1.00  0.00     0.022 A 
BRANCH  81  85
ATOM     85  S   UNL     1      -6.713 -12.185  -0.972  1.00  0.00     0.124 S 
ATOM     86  O   UNL     1      -5.862 -11.815  -2.100  1.00  0.00    -0.237 OA
ATOM     87  O   UNL     1      -6.026 -12.444   0.289  1.00  0.00    -0.237 OA
ATOM     88  O   UNL     1      -7.795 -13.112  -1.294  1.00  0.00    -0.744 OA
ENDBRANCH  81  85
ENDBRANCH  64  78
BRANCH  65  89
ATOM     89  C   UNL     1      -1.867   0.010   0.356  1.00  0.00     0.023 A 
ATOM     90  C   UNL     1      -0.986   0.324   1.404  1.00  0.00     0.031 A 
ATOM     91  C   UNL     1      -2.074   0.978  -0.644  1.00  0.00     0.131 A 
ATOM     92  C   UNL     1      -0.365   1.584   1.444  1.00  0.00     0.055 A 
ATOM     93  C   UNL     1      -1.434   2.218  -0.615  1.00  0.00     0.041 A 
ATOM     94  F   UNL     1      -2.906   0.728  -1.668  1.00  0.00    -0.206 F 
ATOM     95  C   UNL     1      -0.580   2.530   0.438  1.00  0.00     0.022 A 
BRANCH  92  96
ATOM     96  S   UNL     1       0.740   1.973   2.830  1.00  0.00     0.124 S 
ATOM     97  O   UNL     1      -0.166   1.900   3.969  1.00  0.00    -0.237 OA
ATOM     98  O   UNL     1       1.737   0.910   2.736  1.00  0.00    -0.237 OA
ATOM     99  O   UNL     1       1.238   3.308   2.506  1.00  0.00    -0.744 OA
ENDBRANCH  92  96
ENDBRANCH  65  89
BRANCH  77 100
ATOM    100  C   UNL     1      -6.681  -2.770   4.511  1.00  0.00     0.023 A 
ATOM    101  C   UNL     1      -7.438  -1.593   4.647  1.00  0.00     0.031 A 
ATOM    102  C   UNL     1      -6.346  -3.481   5.676  1.00  0.00     0.131 A 
ATOM    103  C   UNL     1      -7.756  -1.113   5.926  1.00  0.00     0.055 A 
ATOM    104  C   UNL     1      -6.725  -3.034   6.943  1.00  0.00     0.041 A 
ATOM    105  F   UNL     1      -5.619  -4.607   5.605  1.00  0.00    -0.206 F 
ATOM    106  C   UNL     1      -7.417  -1.833   7.074  1.00  0.00     0.022 A 
BRANCH 103 107
ATOM    107  S   UNL     1      -8.502   0.535   6.073  1.00  0.00     0.124 S 
ATOM    108  O   UNL     1      -7.476   1.383   5.473  1.00  0.00    -0.237 OA
ATOM    109  O   UNL     1      -9.736   0.389   5.308  1.00  0.00    -0.237 OA
ATOM    110  O   UNL     1      -8.682   0.702   7.513  1.00  0.00    -0.744 OA
ENDBRANCH 103 107
ENDBRANCH  77 100
ENDBRANCH  51  52
ENDBRANCH  44  46
ENDBRANCH  43  44
ENDBRANCH  42  43
ENDBRANCH  41  42
ENDBRANCH  40  41
ENDBRANCH  39  40
ENDBRANCH  38  39
ENDBRANCH   1  38
TORSDOF 27
