REMARK SMILES CC[C@@H]1SC[C@H](C(=O)OCCOCCOCCOCCOC(=O)c2ccc(-c3c4nc(c(-c5cc(S(=O)(=O)[O-])ccc5F)c5ccc([nH]5)c(-c5cc(S(=O)(=O)[O-])ccc5F)c5nc(c(-c6cc(S(=O)(=O)[O-])ccc6F)c6ccc3[nH]6)C=C5)C=C4)cc2)N1C(=O)[C@](C)([NH3+])C(F)(F)F
REMARK SMILES IDX 15 1 14 2 13 3 12 4 11 5 10 6 9 7 7 8 8 9 6 10 3 11 4 12
REMARK SMILES IDX 87 13 5 14 2 15 1 16 88 17 89 18 90 19 91 20 92 21 93 25
REMARK SMILES IDX 94 26 95 27 96 28 16 29 17 30 18 31 19 32 20 33 21 34 22 35
REMARK SMILES IDX 23 36 24 37 25 38 86 39 26 40 85 41 27 42 28 43 29 44 79 45
REMARK SMILES IDX 30 46 84 47 78 48 80 49 31 50 83 51 77 52 76 53 32 55 64 56
REMARK SMILES IDX 44 57 63 58 45 59 48 60 62 61 81 62 46 63 47 64 61 66 82 67
REMARK SMILES IDX 49 68 33 69 34 70 42 71 35 72 41 73 43 74 40 75 36 76 37 77
REMARK SMILES IDX 38 78 39 79 65 80 66 81 74 82 67 83 73 84 75 85 72 86 68 87
REMARK SMILES IDX 69 88 70 89 71 90 50 91 51 92 59 93 52 94 58 95 60 96 57 97
REMARK SMILES IDX 53 98 54 99 55 100 56 101
REMARK H PARENT 92 22 92 23 92 24 80 54 48 65
REMARK Flexibility Score: inf
ROOT
ATOM      1  O   UNL     1      -1.679   4.385  -3.010  1.00  0.00    -0.377 OA
ENDROOT
BRANCH   1   2
ATOM      2  C   UNL     1      -0.678   3.826  -3.841  1.00  0.00     0.188 C 
BRANCH   2   3
ATOM      3  C   UNL     1      -1.061   2.441  -4.406  1.00  0.00     0.188 C 
BRANCH   3   4
ATOM      4  O   UNL     1      -2.397   1.962  -4.324  1.00  0.00    -0.376 OA
BRANCH   4   5
ATOM      5  C   UNL     1      -3.127   1.994  -3.105  1.00  0.00     0.202 C 
BRANCH   5   6
ATOM      6  C   UNL     1      -2.497   1.715  -1.724  1.00  0.00     0.261 C 
BRANCH   6   7
ATOM      7  O   UNL     1      -1.101   1.996  -1.590  1.00  0.00    -0.462 OA
BRANCH   7   8
ATOM      8  C   UNL     1      -0.233   0.945  -1.630  1.00  0.00     0.329 C 
ATOM      9  O   UNL     1      -0.543  -0.239  -1.631  1.00  0.00    -0.250 OA
BRANCH   8  10
ATOM     10  C   UNL     1       1.196   1.486  -1.770  1.00  0.00     0.206 C 
ATOM     11  C   UNL     1       3.199   0.107  -1.465  1.00  0.00     0.144 C 
ATOM     12  S   UNL     1       2.997   1.020   0.105  1.00  0.00    -0.134 SA
ATOM     13  N   UNL     1       2.137   0.521  -2.377  1.00  0.00    -0.310 N 
ATOM     14  C   UNL     1       1.716   2.118  -0.499  1.00  0.00     0.109 C 
BRANCH  11  15
ATOM     15  C   UNL     1       3.360  -1.395  -1.199  1.00  0.00     0.033 C 
ATOM     16  C   UNL     1       2.535  -2.038  -0.096  1.00  0.00     0.007 C 
ENDBRANCH  11  15
BRANCH  13  17
ATOM     17  C   UNL     1       2.230   0.542  -3.781  1.00  0.00     0.294 C 
ATOM     18  O   UNL     1       1.857   1.557  -4.382  1.00  0.00    -0.267 OA
BRANCH  17  19
ATOM     19  C   UNL     1       2.719  -0.679  -4.610  1.00  0.00     0.267 C 
ATOM     20  C   UNL     1       1.748  -1.857  -4.412  1.00  0.00     0.100 C 
BRANCH  19  21
ATOM     21  N   UNL     1       4.124  -1.052  -4.263  1.00  0.00    -0.337 N 
ATOM     22  H   UNL     1       4.411  -1.854  -4.824  1.00  0.00     0.345 HD
ATOM     23  H   UNL     1       4.178  -1.292  -3.273  1.00  0.00     0.345 HD
ATOM     24  H   UNL     1       4.743  -0.264  -4.456  1.00  0.00     0.345 HD
ENDBRANCH  19  21
BRANCH  19  25
ATOM     25  C   UNL     1       2.630  -0.284  -6.124  1.00  0.00     0.453 C 
ATOM     26  F   UNL     1       3.046  -1.325  -6.902  1.00  0.00    -0.164 F 
ATOM     27  F   UNL     1       1.374   0.005  -6.529  1.00  0.00    -0.164 F 
ATOM     28  F   UNL     1       3.432   0.763  -6.435  1.00  0.00    -0.164 F 
ENDBRANCH  19  25
ENDBRANCH  17  19
ENDBRANCH  13  17
ENDBRANCH   8  10
ENDBRANCH   7   8
ENDBRANCH   6   7
ENDBRANCH   5   6
ENDBRANCH   4   5
ENDBRANCH   3   4
ENDBRANCH   2   3
ENDBRANCH   1   2
BRANCH   1  29
ATOM     29  C   UNL     1      -2.518   5.341  -3.652  1.00  0.00     0.188 C 
BRANCH  29  30
ATOM     30  C   UNL     1      -3.005   5.021  -5.085  1.00  0.00     0.188 C 
BRANCH  30  31
ATOM     31  O   UNL     1      -1.968   4.666  -5.995  1.00  0.00    -0.376 OA
BRANCH  31  32
ATOM     32  C   UNL     1      -1.476   5.639  -6.903  1.00  0.00     0.202 C 
BRANCH  32  33
ATOM     33  C   UNL     1      -0.708   6.837  -6.319  1.00  0.00     0.261 C 
BRANCH  33  34
ATOM     34  O   UNL     1      -1.410   7.617  -5.340  1.00  0.00    -0.460 OA
BRANCH  34  35
ATOM     35  C   UNL     1      -2.552   8.214  -5.741  1.00  0.00     0.338 C 
ATOM     36  O   UNL     1      -3.012   8.217  -6.872  1.00  0.00    -0.246 OA
BRANCH  35  37
ATOM     37  C   UNL     1      -3.277   8.676  -4.539  1.00  0.00     0.060 A 
ATOM     38  C   UNL     1      -4.573   8.195  -4.317  1.00  0.00     0.016 A 
ATOM     39  C   UNL     1      -2.690   9.564  -3.634  1.00  0.00     0.016 A 
ATOM     40  C   UNL     1      -5.301   8.629  -3.212  1.00  0.00     0.010 A 
ATOM     41  C   UNL     1      -3.432  10.021  -2.538  1.00  0.00     0.010 A 
ATOM     42  C   UNL     1      -4.754   9.582  -2.343  1.00  0.00    -0.014 A 
BRANCH  42  43
ATOM     43  C   UNL     1      -5.645  10.242  -1.356  1.00  0.00     0.031 A 
ATOM     44  C   UNL     1      -6.227  11.587  -1.706  1.00  0.00     0.074 A 
ATOM     45  C   UNL     1      -5.987   9.627  -0.208  1.00  0.00     0.049 A 
ATOM     46  N   UNL     1      -7.046  12.340  -1.020  1.00  0.00    -0.248 NA
ATOM     47  C   UNL     1      -5.837  12.155  -3.007  1.00  0.00     0.031 C 
ATOM     48  C   UNL     1      -5.525   8.303   0.210  1.00  0.00     0.029 A 
ATOM     49  N   UNL     1      -6.809  10.032   0.814  1.00  0.00    -0.354 N 
ATOM     50  C   UNL     1      -7.262  13.473  -1.798  1.00  0.00     0.074 A 
ATOM     51  C   UNL     1      -6.469  13.319  -2.998  1.00  0.00     0.031 C 
ATOM     52  C   UNL     1      -6.067   8.009   1.405  1.00  0.00     0.029 A 
ATOM     53  C   UNL     1      -6.882   9.136   1.856  1.00  0.00     0.049 A 
ATOM     54  H   UNL     1      -7.300  10.885   0.803  1.00  0.00     0.167 HD
ATOM     55  C   UNL     1      -8.052  14.541  -1.533  1.00  0.00     0.034 A 
ATOM     56  C   UNL     1      -7.513   9.229   3.046  1.00  0.00     0.034 A 
ATOM     57  C   UNL     1      -8.840  14.677  -0.334  1.00  0.00     0.049 A 
ATOM     58  C   UNL     1      -8.327  10.471   3.341  1.00  0.00     0.074 A 
ATOM     59  C   UNL     1      -9.705  15.701   0.012  1.00  0.00     0.029 A 
ATOM     60  N   UNL     1      -8.848  13.777   0.723  1.00  0.00    -0.354 N 
ATOM     61  N   UNL     1      -8.554  11.516   2.576  1.00  0.00    -0.248 NA
ATOM     62  C   UNL     1      -8.981  10.539   4.655  1.00  0.00     0.031 C 
ATOM     63  C   UNL     1     -10.162  15.467   1.312  1.00  0.00     0.029 A 
ATOM     64  C   UNL     1      -9.664  14.248   1.740  1.00  0.00     0.049 A 
ATOM     65  H   UNL     1      -8.349  12.929   0.746  1.00  0.00     0.167 HD
ATOM     66  C   UNL     1      -9.405  12.344   3.308  1.00  0.00     0.074 A 
ATOM     67  C   UNL     1      -9.675  11.661   4.555  1.00  0.00     0.031 C 
ATOM     68  C   UNL     1      -9.917  13.560   2.984  1.00  0.00     0.034 A 
BRANCH  55  69
ATOM     69  C   UNL     1      -8.060  15.679  -2.523  1.00  0.00     0.023 A 
ATOM     70  C   UNL     1      -8.598  15.549  -3.814  1.00  0.00     0.031 A 
ATOM     71  C   UNL     1      -7.548  16.934  -2.143  1.00  0.00     0.131 A 
ATOM     72  C   UNL     1      -8.583  16.647  -4.690  1.00  0.00     0.055 A 
ATOM     73  C   UNL     1      -7.598  18.038  -2.994  1.00  0.00     0.041 A 
ATOM     74  F   UNL     1      -6.996  17.107  -0.932  1.00  0.00    -0.206 F 
ATOM     75  C   UNL     1      -8.114  17.897  -4.278  1.00  0.00     0.022 A 
BRANCH  72  76
ATOM     76  S   UNL     1      -9.100  16.399  -6.411  1.00  0.00     0.124 S 
ATOM     77  O   UNL     1      -8.142  15.395  -6.865  1.00  0.00    -0.237 OA
ATOM     78  O   UNL     1     -10.479  15.947  -6.265  1.00  0.00    -0.237 OA
ATOM     79  O   UNL     1      -8.938  17.721  -7.011  1.00  0.00    -0.744 OA
ENDBRANCH  72  76
ENDBRANCH  55  69
BRANCH  56  80
ATOM     80  C   UNL     1      -7.370   8.162   4.083  1.00  0.00     0.023 A 
ATOM     81  C   UNL     1      -8.492   7.503   4.613  1.00  0.00     0.031 A 
ATOM     82  C   UNL     1      -6.115   7.871   4.648  1.00  0.00     0.131 A 
ATOM     83  C   UNL     1      -8.348   6.655   5.723  1.00  0.00     0.055 A 
ATOM     84  C   UNL     1      -5.967   6.967   5.702  1.00  0.00     0.041 A 
ATOM     85  F   UNL     1      -5.006   8.475   4.191  1.00  0.00    -0.206 F 
ATOM     86  C   UNL     1      -7.092   6.370   6.261  1.00  0.00     0.022 A 
BRANCH  83  87
ATOM     87  S   UNL     1      -9.846   6.051   6.553  1.00  0.00     0.124 S 
ATOM     88  O   UNL     1     -10.547   7.298   6.839  1.00  0.00    -0.237 OA
ATOM     89  O   UNL     1     -10.438   5.203   5.524  1.00  0.00    -0.237 OA
ATOM     90  O   UNL     1      -9.325   5.343   7.720  1.00  0.00    -0.744 OA
ENDBRANCH  83  87
ENDBRANCH  56  80
BRANCH  68  91
ATOM     91  C   UNL     1     -10.856  14.199   3.982  1.00  0.00     0.023 A 
ATOM     92  C   UNL     1     -10.428  14.567   5.270  1.00  0.00     0.031 A 
ATOM     93  C   UNL     1     -12.206  14.413   3.651  1.00  0.00     0.131 A 
ATOM     94  C   UNL     1     -11.357  15.047   6.205  1.00  0.00     0.055 A 
ATOM     95  C   UNL     1     -13.108  14.969   4.559  1.00  0.00     0.041 A 
ATOM     96  F   UNL     1     -12.675  14.082   2.437  1.00  0.00    -0.206 F 
ATOM     97  C   UNL     1     -12.690  15.270   5.852  1.00  0.00     0.022 A 
BRANCH  94  98
ATOM     98  S   UNL     1     -10.828  15.249   7.928  1.00  0.00     0.124 S 
ATOM     99  O   UNL     1     -10.344  13.911   8.254  1.00  0.00    -0.237 OA
ATOM    100  O   UNL     1      -9.808  16.287   7.822  1.00  0.00    -0.237 OA
ATOM    101  O   UNL     1     -12.052  15.651   8.618  1.00  0.00    -0.744 OA
ENDBRANCH  94  98
ENDBRANCH  68  91
ENDBRANCH  42  43
ENDBRANCH  35  37
ENDBRANCH  34  35
ENDBRANCH  33  34
ENDBRANCH  32  33
ENDBRANCH  31  32
ENDBRANCH  30  31
ENDBRANCH  29  30
ENDBRANCH   1  29
TORSDOF 28
