REMARK SMILES NC(=O)c1ccsc1NS(=O)(=O)c1ccc(C(=O)OCCOCCOCCOCCOC(=O)c2ccc(-c3c4nc(c(-c5cc(S(=O)(=O)[O-])ccc5F)c5ccc([nH]5)c(-c5cc(S(=O)(=O)[O-])ccc5F)c5nc(c(-c6cc(S(=O)(=O)[O-])ccc6F)c6ccc3[nH]6)C=C5)C=C4)cc2)cc1
REMARK SMILES IDX 24 1 23 2 22 3 21 4 20 5 19 6 17 7 18 8 16 9 13 10 14 11
REMARK SMILES IDX 98 12 15 13 97 14 10 15 11 16 12 17 9 18 8 20 4 21 5 22 6 23
REMARK SMILES IDX 7 24 2 25 1 26 3 29 25 30 26 31 27 32 28 33 29 34 30 35
REMARK SMILES IDX 31 36 32 37 33 38 34 39 35 40 96 41 36 42 95 43 37 44 38 45
REMARK SMILES IDX 39 46 89 47 40 48 94 49 88 50 90 51 41 52 93 53 87 54 86 55
REMARK SMILES IDX 42 57 74 58 54 59 73 60 55 61 58 62 72 63 91 64 56 65 57 66
REMARK SMILES IDX 71 68 92 69 59 70 43 71 44 72 52 73 45 74 51 75 53 76 50 77
REMARK SMILES IDX 46 78 47 79 48 80 49 81 75 82 76 83 84 84 77 85 83 86 85 87
REMARK SMILES IDX 82 88 78 89 79 90 80 91 81 92 60 93 61 94 69 95 62 96 68 97
REMARK SMILES IDX 70 98 67 99 63 100 64 101 65 102 66 103
REMARK H PARENT 9 19 1 27 1 28 90 56 58 67
REMARK Flexibility Score: inf
ROOT
ATOM      1  C   UNL     1       3.091   8.900   6.229  1.00  0.00     0.188 C 
ENDROOT
BRANCH   1   2
ATOM      2  C   UNL     1       4.476   8.683   5.587  1.00  0.00     0.188 C 
BRANCH   2   3
ATOM      3  O   UNL     1       5.170   9.883   5.303  1.00  0.00    -0.376 OA
BRANCH   3   4
ATOM      4  C   UNL     1       5.115  10.479   4.020  1.00  0.00     0.202 C 
BRANCH   4   5
ATOM      5  C   UNL     1       3.836  10.576   3.168  1.00  0.00     0.261 C 
BRANCH   5   6
ATOM      6  O   UNL     1       2.852   9.558   3.340  1.00  0.00    -0.460 OA
BRANCH   6   7
ATOM      7  C   UNL     1       3.094   8.370   2.758  1.00  0.00     0.338 C 
ATOM      8  O   UNL     1       4.051   8.060   2.072  1.00  0.00    -0.246 OA
BRANCH   7   9
ATOM      9  C   UNL     1       2.091   7.407   3.262  1.00  0.00     0.060 A 
ATOM     10  C   UNL     1       0.271   5.421   3.859  1.00  0.00     0.087 A 
ATOM     11  C   UNL     1       1.631   5.172   4.072  1.00  0.00     0.023 A 
ATOM     12  C   UNL     1      -0.195   6.707   3.554  1.00  0.00     0.023 A 
ATOM     13  C   UNL     1       2.547   6.163   3.730  1.00  0.00     0.017 A 
ATOM     14  C   UNL     1       0.725   7.712   3.258  1.00  0.00     0.017 A 
BRANCH  10  15
ATOM     15  S   UNL     1      -0.859   4.060   3.828  1.00  0.00     0.262 S 
ATOM     16  O   UNL     1      -2.201   4.599   3.909  1.00  0.00    -0.201 OA
ATOM     17  O   UNL     1      -0.398   3.112   4.825  1.00  0.00    -0.201 OA
BRANCH  15  18
ATOM     18  N   UNL     1      -0.739   3.273   2.334  1.00  0.00    -0.270 N 
ATOM     19  H   UNL     1      -1.480   2.679   2.075  1.00  0.00     0.181 HD
BRANCH  18  20
ATOM     20  C   UNL     1       0.361   3.401   1.408  1.00  0.00     0.115 A 
ATOM     21  C   UNL     1       0.855   2.318   0.679  1.00  0.00     0.074 A 
ATOM     22  C   UNL     1       2.008   2.712  -0.100  1.00  0.00     0.028 A 
ATOM     23  C   UNL     1       2.280   4.056  -0.004  1.00  0.00     0.068 A 
ATOM     24  S   UNL     1       1.050   4.858   0.850  1.00  0.00    -0.125 S 
BRANCH  21  25
ATOM     25  C   UNL     1       0.257   0.987   0.724  1.00  0.00     0.251 C 
ATOM     26  N   UNL     1       0.933  -0.017   0.098  1.00  0.00    -0.366 N 
ATOM     27  H   UNL     1       0.570  -0.932   0.101  1.00  0.00     0.159 HD
ATOM     28  H   UNL     1       1.786   0.173  -0.357  1.00  0.00     0.159 HD
ATOM     29  O   UNL     1      -0.807   0.747   1.295  1.00  0.00    -0.269 OA
ENDBRANCH  21  25
ENDBRANCH  18  20
ENDBRANCH  15  18
ENDBRANCH  10  15
ENDBRANCH   7   9
ENDBRANCH   6   7
ENDBRANCH   5   6
ENDBRANCH   4   5
ENDBRANCH   3   4
ENDBRANCH   2   3
ENDBRANCH   1   2
BRANCH   1  30
ATOM     30  O   UNL     1       2.554  10.201   6.077  1.00  0.00    -0.377 OA
BRANCH  30  31
ATOM     31  C   UNL     1       3.149  11.288   6.785  1.00  0.00     0.188 C 
BRANCH  31  32
ATOM     32  C   UNL     1       4.423  11.131   7.654  1.00  0.00     0.188 C 
BRANCH  32  33
ATOM     33  O   UNL     1       4.631   9.834   8.195  1.00  0.00    -0.376 OA
BRANCH  33  34
ATOM     34  C   UNL     1       4.388   9.641   9.576  1.00  0.00     0.202 C 
BRANCH  34  35
ATOM     35  C   UNL     1       2.927   9.755  10.030  1.00  0.00     0.261 C 
BRANCH  35  36
ATOM     36  O   UNL     1       2.273  10.995   9.729  1.00  0.00    -0.460 OA
BRANCH  36  37
ATOM     37  C   UNL     1       2.780  12.112  10.302  1.00  0.00     0.338 C 
ATOM     38  O   UNL     1       3.724  12.177  11.062  1.00  0.00    -0.246 OA
BRANCH  37  39
ATOM     39  C   UNL     1       2.100  13.271   9.683  1.00  0.00     0.060 A 
ATOM     40  C   UNL     1       2.864  14.220   8.992  1.00  0.00     0.016 A 
ATOM     41  C   UNL     1       0.713  13.401   9.768  1.00  0.00     0.016 A 
ATOM     42  C   UNL     1       2.240  15.322   8.406  1.00  0.00     0.010 A 
ATOM     43  C   UNL     1       0.093  14.516   9.199  1.00  0.00     0.010 A 
ATOM     44  C   UNL     1       0.857  15.497   8.542  1.00  0.00    -0.014 A 
BRANCH  44  45
ATOM     45  C   UNL     1       0.235  16.792   8.172  1.00  0.00     0.031 A 
ATOM     46  C   UNL     1      -0.035  17.789   9.266  1.00  0.00     0.074 A 
ATOM     47  C   UNL     1      -0.073  17.085   6.896  1.00  0.00     0.049 A 
ATOM     48  N   UNL     1      -0.626  18.953   9.206  1.00  0.00    -0.248 NA
ATOM     49  C   UNL     1       0.423  17.411  10.611  1.00  0.00     0.031 C 
ATOM     50  C   UNL     1       0.183  16.220   5.747  1.00  0.00     0.029 A 
ATOM     51  N   UNL     1      -0.678  18.193   6.357  1.00  0.00    -0.354 N 
ATOM     52  C   UNL     1      -0.617  19.447  10.507  1.00  0.00     0.074 A 
ATOM     53  C   UNL     1      -0.002  18.433  11.336  1.00  0.00     0.031 C 
ATOM     54  C   UNL     1      -0.276  16.826   4.637  1.00  0.00     0.029 A 
ATOM     55  C   UNL     1      -0.896  18.099   5.003  1.00  0.00     0.049 A 
ATOM     56  H   UNL     1      -0.933  18.981   6.890  1.00  0.00     0.167 HD
ATOM     57  C   UNL     1      -1.069  20.641  10.964  1.00  0.00     0.034 A 
ATOM     58  C   UNL     1      -1.550  18.929   4.164  1.00  0.00     0.034 A 
ATOM     59  C   UNL     1      -1.702  21.629  10.125  1.00  0.00     0.049 A 
ATOM     60  C   UNL     1      -2.143  20.207   4.711  1.00  0.00     0.074 A 
ATOM     61  C   UNL     1      -2.192  22.874  10.478  1.00  0.00     0.029 A 
ATOM     62  N   UNL     1      -1.953  21.477   8.766  1.00  0.00    -0.354 N 
ATOM     63  N   UNL     1      -2.122  20.671   5.940  1.00  0.00    -0.248 NA
ATOM     64  C   UNL     1      -2.844  21.075   3.755  1.00  0.00     0.031 C 
ATOM     65  C   UNL     1      -2.813  23.435   9.357  1.00  0.00     0.029 A 
ATOM     66  C   UNL     1      -2.627  22.587   8.277  1.00  0.00     0.049 A 
ATOM     67  H   UNL     1      -1.690  20.695   8.228  1.00  0.00     0.167 HD
ATOM     68  C   UNL     1      -2.779  21.899   5.896  1.00  0.00     0.074 A 
ATOM     69  C   UNL     1      -3.171  22.108   4.517  1.00  0.00     0.031 C 
ATOM     70  C   UNL     1      -3.029  22.778   6.902  1.00  0.00     0.034 A 
BRANCH  57  71
ATOM     71  C   UNL     1      -0.945  20.903  12.447  1.00  0.00     0.023 A 
ATOM     72  C   UNL     1       0.305  20.947  13.089  1.00  0.00     0.031 A 
ATOM     73  C   UNL     1      -2.095  21.058  13.240  1.00  0.00     0.131 A 
ATOM     74  C   UNL     1       0.372  21.051  14.487  1.00  0.00     0.055 A 
ATOM     75  C   UNL     1      -2.019  21.255  14.620  1.00  0.00     0.041 A 
ATOM     76  F   UNL     1      -3.319  20.999  12.690  1.00  0.00    -0.206 F 
ATOM     77  C   UNL     1      -0.780  21.233  15.255  1.00  0.00     0.022 A 
BRANCH  74  78
ATOM     78  S   UNL     1       1.969  20.767  15.300  1.00  0.00     0.124 S 
ATOM     79  O   UNL     1       2.313  19.432  14.816  1.00  0.00    -0.237 OA
ATOM     80  O   UNL     1       2.783  21.863  14.788  1.00  0.00    -0.237 OA
ATOM     81  O   UNL     1       1.646  20.841  16.724  1.00  0.00    -0.744 OA
ENDBRANCH  74  78
ENDBRANCH  57  71
BRANCH  58  82
ATOM     82  C   UNL     1      -1.726  18.561   2.728  1.00  0.00     0.023 A 
ATOM     83  C   UNL     1      -1.171  19.340   1.700  1.00  0.00     0.031 A 
ATOM     84  C   UNL     1      -2.496  17.441   2.362  1.00  0.00     0.131 A 
ATOM     85  C   UNL     1      -1.425  19.011   0.358  1.00  0.00     0.055 A 
ATOM     86  C   UNL     1      -2.699  17.087   1.028  1.00  0.00     0.041 A 
ATOM     87  F   UNL     1      -3.057  16.666   3.304  1.00  0.00    -0.206 F 
ATOM     88  C   UNL     1      -2.170  17.881   0.016  1.00  0.00     0.022 A 
BRANCH  85  89
ATOM     89  S   UNL     1      -0.831  20.130  -0.940  1.00  0.00     0.124 S 
ATOM     90  O   UNL     1      -1.505  21.375  -0.590  1.00  0.00    -0.237 OA
ATOM     91  O   UNL     1       0.613  20.100  -0.729  1.00  0.00    -0.237 OA
ATOM     92  O   UNL     1      -1.291  19.496  -2.173  1.00  0.00    -0.744 OA
ENDBRANCH  85  89
ENDBRANCH  58  82
BRANCH  70  93
ATOM     93  C   UNL     1      -3.723  24.071   6.536  1.00  0.00     0.023 A 
ATOM     94  C   UNL     1      -5.043  24.098   6.053  1.00  0.00     0.031 A 
ATOM     95  C   UNL     1      -3.047  25.298   6.670  1.00  0.00     0.131 A 
ATOM     96  C   UNL     1      -5.623  25.317   5.668  1.00  0.00     0.055 A 
ATOM     97  C   UNL     1      -3.654  26.514   6.353  1.00  0.00     0.041 A 
ATOM     98  F   UNL     1      -1.782  25.336   7.121  1.00  0.00    -0.206 F 
ATOM     99  C   UNL     1      -4.945  26.526   5.835  1.00  0.00     0.022 A 
BRANCH  96 100
ATOM    100  S   UNL     1      -7.240  25.292   4.846  1.00  0.00     0.124 S 
ATOM    101  O   UNL     1      -6.980  24.436   3.692  1.00  0.00    -0.237 OA
ATOM    102  O   UNL     1      -8.107  24.728   5.876  1.00  0.00    -0.237 OA
ATOM    103  O   UNL     1      -7.487  26.698   4.531  1.00  0.00    -0.744 OA
ENDBRANCH  96 100
ENDBRANCH  70  93
ENDBRANCH  44  45
ENDBRANCH  37  39
ENDBRANCH  36  37
ENDBRANCH  35  36
ENDBRANCH  34  35
ENDBRANCH  33  34
ENDBRANCH  32  33
ENDBRANCH  31  32
ENDBRANCH  30  31
ENDBRANCH   1  30
TORSDOF 27
