REMARK SMILES CC[C@H]1CCCCN1S(=O)(=O)c1ccc2oc(C(=O)OCCOCCOCCOCCOC(=O)c3ccc(-c4c5nc(c(-c6cc(S(=O)(=O)[O-])ccc6F)c6ccc([nH]6)c(-c6cc(S(=O)(=O)[O-])ccc6F)c6nc(c(-c7cc(S(=O)(=O)[O-])ccc7F)c7ccc4[nH]7)C=C6)C=C5)cc3)c(C)c2c1
REMARK SMILES IDX 26 1 25 2 24 3 23 4 22 5 21 6 20 7 18 8 19 9 17 10 12 11
REMARK SMILES IDX 13 12 101 13 14 14 100 15 15 16 98 17 16 18 99 19 9 20 10 21
REMARK SMILES IDX 11 22 8 23 3 24 4 25 5 26 7 27 6 28 2 29 1 30 27 31 28 32
REMARK SMILES IDX 29 33 30 34 31 35 32 36 33 37 34 38 35 39 36 40 97 41 37 42
REMARK SMILES IDX 96 43 38 44 39 45 40 46 90 47 41 48 95 49 89 50 91 51 42 52
REMARK SMILES IDX 94 53 88 54 87 55 43 57 75 58 55 59 74 60 56 61 59 62 73 63
REMARK SMILES IDX 92 64 57 65 58 66 72 68 93 69 60 70 44 71 45 72 53 73 46 74
REMARK SMILES IDX 52 75 54 76 51 77 47 78 48 79 49 80 50 81 76 82 77 83 85 84
REMARK SMILES IDX 78 85 84 86 86 87 83 88 79 89 80 90 81 91 82 92 61 93 62 94
REMARK SMILES IDX 70 95 63 96 69 97 71 98 68 99 64 100 65 101 66 102 67 103
REMARK H PARENT 91 56 59 67
REMARK Flexibility Score: inf
ROOT
ATOM      1  O   UNL     1       2.931  11.008  -1.548  1.00  0.00    -0.377 OA
ENDROOT
BRANCH   1   2
ATOM      2  C   UNL     1       2.541  10.001  -2.462  1.00  0.00     0.188 C 
BRANCH   2   3
ATOM      3  C   UNL     1       1.396  10.383  -3.422  1.00  0.00     0.188 C 
BRANCH   3   4
ATOM      4  O   UNL     1       0.660  11.602  -3.341  1.00  0.00    -0.376 OA
BRANCH   4   5
ATOM      5  C   UNL     1       0.647  12.402  -2.171  1.00  0.00     0.202 C 
BRANCH   5   6
ATOM      6  C   UNL     1      -0.065  11.864  -0.926  1.00  0.00     0.261 C 
BRANCH   6   7
ATOM      7  O   UNL     1       0.157  10.474  -0.678  1.00  0.00    -0.457 OA
BRANCH   7   8
ATOM      8  C   UNL     1      -0.804   9.628  -1.136  1.00  0.00     0.374 C 
ATOM      9  O   UNL     1      -1.874   9.979  -1.621  1.00  0.00    -0.242 OA
BRANCH   8  10
ATOM     10  C   UNL     1      -0.333   8.262  -1.048  1.00  0.00     0.215 A 
ATOM     11  C   UNL     1       0.895   3.871  -0.849  1.00  0.00     0.083 A 
ATOM     12  C   UNL     1      -0.089   3.792  -1.840  1.00  0.00     0.025 A 
ATOM     13  C   UNL     1       1.357   5.110  -0.380  1.00  0.00     0.034 A 
ATOM     14  C   UNL     1      -0.715   4.956  -2.310  1.00  0.00     0.049 A 
ATOM     15  C   UNL     1       0.642   6.260  -0.731  1.00  0.00     0.025 A 
ATOM     16  C   UNL     1      -0.357   6.149  -1.683  1.00  0.00     0.135 A 
ATOM     17  C   UNL     1       0.658   7.622  -0.304  1.00  0.00     0.010 A 
ATOM     18  O   UNL     1      -0.930   7.357  -1.892  1.00  0.00    -0.449 OA
ATOM     19  C   UNL     1       1.540   8.170   0.765  1.00  0.00     0.049 C 
BRANCH  11  20
ATOM     20  S   UNL     1       1.677   2.408  -0.203  1.00  0.00     0.243 S 
ATOM     21  O   UNL     1       3.093   2.693  -0.217  1.00  0.00    -0.207 OA
ATOM     22  O   UNL     1       1.140   1.274  -0.930  1.00  0.00    -0.207 OA
BRANCH  20  23
ATOM     23  N   UNL     1       1.143   2.266   1.423  1.00  0.00    -0.195 NA
ATOM     24  C   UNL     1       1.381   0.934   2.084  1.00  0.00     0.073 C 
ATOM     25  C   UNL     1       0.323   0.791   3.203  1.00  0.00     0.020 C 
ATOM     26  C   UNL     1       0.409   1.923   4.227  1.00  0.00     0.003 C 
ATOM     27  C   UNL     1       1.309   3.403   2.361  1.00  0.00     0.103 C 
ATOM     28  C   UNL     1       0.336   3.275   3.535  1.00  0.00     0.017 C 
BRANCH  24  29
ATOM     29  C   UNL     1       2.789   0.722   2.686  1.00  0.00     0.017 C 
ATOM     30  C   UNL     1       3.950   0.654   1.712  1.00  0.00     0.005 C 
ENDBRANCH  24  29
ENDBRANCH  20  23
ENDBRANCH  11  20
ENDBRANCH   8  10
ENDBRANCH   7   8
ENDBRANCH   6   7
ENDBRANCH   5   6
ENDBRANCH   4   5
ENDBRANCH   3   4
ENDBRANCH   2   3
ENDBRANCH   1   2
BRANCH   1  31
ATOM     31  C   UNL     1       4.149  11.676  -1.870  1.00  0.00     0.188 C 
BRANCH  31  32
ATOM     32  C   UNL     1       4.207  12.296  -3.276  1.00  0.00     0.188 C 
BRANCH  32  33
ATOM     33  O   UNL     1       4.238  11.301  -4.304  1.00  0.00    -0.376 OA
BRANCH  33  34
ATOM     34  C   UNL     1       5.502  11.109  -4.937  1.00  0.00     0.202 C 
BRANCH  34  35
ATOM     35  C   UNL     1       6.457  10.205  -4.142  1.00  0.00     0.261 C 
BRANCH  35  36
ATOM     36  O   UNL     1       6.895  10.744  -2.883  1.00  0.00    -0.460 OA
BRANCH  36  37
ATOM     37  C   UNL     1       7.561  11.919  -2.931  1.00  0.00     0.338 C 
ATOM     38  O   UNL     1       7.895  12.524  -3.933  1.00  0.00    -0.246 OA
BRANCH  37  39
ATOM     39  C   UNL     1       7.651  12.464  -1.561  1.00  0.00     0.060 A 
ATOM     40  C   UNL     1       7.255  13.791  -1.352  1.00  0.00     0.016 A 
ATOM     41  C   UNL     1       8.161  11.700  -0.508  1.00  0.00     0.016 A 
ATOM     42  C   UNL     1       7.437  14.380  -0.102  1.00  0.00     0.010 A 
ATOM     43  C   UNL     1       8.354  12.296   0.742  1.00  0.00     0.010 A 
ATOM     44  C   UNL     1       8.041  13.653   0.932  1.00  0.00    -0.014 A 
BRANCH  44  45
ATOM     45  C   UNL     1       8.569  14.385   2.110  1.00  0.00     0.031 A 
ATOM     46  C   UNL     1      10.008  14.828   2.077  1.00  0.00     0.074 A 
ATOM     47  C   UNL     1       7.785  14.693   3.158  1.00  0.00     0.049 A 
ATOM     48  N   UNL     1      10.694  15.505   2.961  1.00  0.00    -0.248 NA
ATOM     49  C   UNL     1      10.777  14.448   0.881  1.00  0.00     0.031 C 
ATOM     50  C   UNL     1       6.372  14.343   3.288  1.00  0.00     0.029 A 
ATOM     51  N   UNL     1       8.072  15.376   4.312  1.00  0.00    -0.354 N 
ATOM     52  C   UNL     1      11.970  15.643   2.423  1.00  0.00     0.074 A 
ATOM     53  C   UNL     1      11.975  14.933   1.162  1.00  0.00     0.031 C 
ATOM     54  C   UNL     1       5.915  14.811   4.464  1.00  0.00     0.029 A 
ATOM     55  C   UNL     1       7.007  15.475   5.176  1.00  0.00     0.049 A 
ATOM     56  H   UNL     1       8.958  15.759   4.505  1.00  0.00     0.167 HD
ATOM     57  C   UNL     1      13.037  16.311   2.926  1.00  0.00     0.034 A 
ATOM     58  C   UNL     1       6.930  16.032   6.401  1.00  0.00     0.034 A 
ATOM     59  C   UNL     1      13.028  16.990   4.197  1.00  0.00     0.049 A 
ATOM     60  C   UNL     1       8.149  16.718   6.972  1.00  0.00     0.074 A 
ATOM     61  C   UNL     1      14.053  17.685   4.814  1.00  0.00     0.029 A 
ATOM     62  N   UNL     1      11.937  17.050   5.056  1.00  0.00    -0.354 N 
ATOM     63  N   UNL     1       9.346  16.856   6.447  1.00  0.00    -0.248 NA
ATOM     64  C   UNL     1       7.998  17.342   8.293  1.00  0.00     0.031 C 
ATOM     65  C   UNL     1      13.602  18.112   6.069  1.00  0.00     0.029 A 
ATOM     66  C   UNL     1      12.271  17.750   6.204  1.00  0.00     0.049 A 
ATOM     67  H   UNL     1      11.054  16.653   4.874  1.00  0.00     0.167 HD
ATOM     68  C   UNL     1      10.076  17.616   7.359  1.00  0.00     0.074 A 
ATOM     69  C   UNL     1       9.181  17.915   8.458  1.00  0.00     0.031 C 
ATOM     70  C   UNL     1      11.366  18.036   7.293  1.00  0.00     0.034 A 
BRANCH  57  71
ATOM     71  C   UNL     1      14.307  16.284   2.111  1.00  0.00     0.023 A 
ATOM     72  C   UNL     1      14.377  16.873   0.835  1.00  0.00     0.031 A 
ATOM     73  C   UNL     1      15.445  15.612   2.589  1.00  0.00     0.131 A 
ATOM     74  C   UNL     1      15.529  16.711   0.051  1.00  0.00     0.055 A 
ATOM     75  C   UNL     1      16.617  15.523   1.836  1.00  0.00     0.041 A 
ATOM     76  F   UNL     1      15.428  15.008   3.787  1.00  0.00    -0.206 F 
ATOM     77  C   UNL     1      16.659  16.061   0.552  1.00  0.00     0.022 A 
BRANCH  74  78
ATOM     78  S   UNL     1      15.476  17.228  -1.687  1.00  0.00     0.124 S 
ATOM     79  O   UNL     1      14.378  16.414  -2.203  1.00  0.00    -0.237 OA
ATOM     80  O   UNL     1      15.217  18.659  -1.583  1.00  0.00    -0.237 OA
ATOM     81  O   UNL     1      16.799  16.868  -2.192  1.00  0.00    -0.744 OA
ENDBRANCH  74  78
ENDBRANCH  57  71
BRANCH  58  82
ATOM     82  C   UNL     1       5.667  15.957   7.190  1.00  0.00     0.023 A 
ATOM     83  C   UNL     1       4.947  17.114   7.528  1.00  0.00     0.031 A 
ATOM     84  C   UNL     1       5.196  14.723   7.673  1.00  0.00     0.131 A 
ATOM     85  C   UNL     1       3.827  17.020   8.369  1.00  0.00     0.055 A 
ATOM     86  C   UNL     1       4.053  14.629   8.469  1.00  0.00     0.041 A 
ATOM     87  F   UNL     1       5.845  13.586   7.377  1.00  0.00    -0.206 F 
ATOM     88  C   UNL     1       3.369  15.785   8.833  1.00  0.00     0.022 A 
BRANCH  85  89
ATOM     89  S   UNL     1       3.021  18.550   8.919  1.00  0.00     0.124 S 
ATOM     90  O   UNL     1       4.118  19.239   9.589  1.00  0.00    -0.237 OA
ATOM     91  O   UNL     1       2.577  19.127   7.654  1.00  0.00    -0.237 OA
ATOM     92  O   UNL     1       1.952  18.075   9.794  1.00  0.00    -0.744 OA
ENDBRANCH  85  89
ENDBRANCH  58  82
BRANCH  70  93
ATOM     93  C   UNL     1      11.860  18.915   8.418  1.00  0.00     0.023 A 
ATOM     94  C   UNL     1      11.992  18.437   9.733  1.00  0.00     0.031 A 
ATOM     95  C   UNL     1      12.181  20.262   8.169  1.00  0.00     0.131 A 
ATOM     96  C   UNL     1      12.368  19.314  10.762  1.00  0.00     0.055 A 
ATOM     97  C   UNL     1      12.615  21.114   9.185  1.00  0.00     0.041 A 
ATOM     98  F   UNL     1      12.075  20.773   6.932  1.00  0.00    -0.206 F 
ATOM     99  C   UNL     1      12.694  20.646  10.493  1.00  0.00     0.022 A 
BRANCH  96 100
ATOM    100  S   UNL     1      12.317  18.721  12.475  1.00  0.00     0.124 S 
ATOM    101  O   UNL     1      10.945  18.238  12.590  1.00  0.00    -0.237 OA
ATOM    102  O   UNL     1      13.356  17.696  12.480  1.00  0.00    -0.237 OA
ATOM    103  O   UNL     1      12.622  19.915  13.261  1.00  0.00    -0.744 OA
ENDBRANCH  96 100
ENDBRANCH  70  93
ENDBRANCH  44  45
ENDBRANCH  37  39
ENDBRANCH  36  37
ENDBRANCH  35  36
ENDBRANCH  34  35
ENDBRANCH  33  34
ENDBRANCH  32  33
ENDBRANCH  31  32
ENDBRANCH   1  31
TORSDOF 26
