REMARK SMILES COc1ccc(/C=C(/Sc2nc(C)n[nH]2)C(=O)OCCOCCOCCOCCOC(=O)c2ccc(-c3c4nc(c(-c5cc(S(=O)(=O)[O-])ccc5F)c5ccc([nH]5)c(-c5cc(S(=O)(=O)[O-])ccc5F)c5nc(c(-c6cc(S(=O)(=O)[O-])ccc6F)c6ccc3[nH]6)C=C5)C=C4)cc2)cc1OC
REMARK SMILES IDX 25 1 24 2 23 3 22 4 21 5 20 6 19 7 18 8 16 9 17 10 8 11 7 12
REMARK SMILES IDX 6 13 3 14 4 15 97 16 5 17 96 18 2 19 1 20 98 21 99 22 9 23
REMARK SMILES IDX 10 24 11 25 15 26 12 27 14 28 13 30 26 31 27 32 28 33 29 34
REMARK SMILES IDX 30 35 31 36 32 37 33 38 34 39 95 40 35 41 94 42 36 43 37 44
REMARK SMILES IDX 38 45 88 46 39 47 93 48 87 49 89 50 40 51 92 52 86 53 85 54
REMARK SMILES IDX 41 56 73 57 53 58 72 59 54 60 57 61 71 62 90 63 55 64 56 65
REMARK SMILES IDX 70 67 91 68 58 69 42 70 43 71 51 72 44 73 50 74 52 75 49 76
REMARK SMILES IDX 45 77 46 78 47 79 48 80 74 81 75 82 83 83 76 84 82 85 84 86
REMARK SMILES IDX 81 87 77 88 78 89 79 90 80 91 59 92 60 93 68 94 61 95 67 96
REMARK SMILES IDX 69 97 66 98 62 99 63 100 64 101 65 102
REMARK H PARENT 15 29 89 55 57 66
REMARK Flexibility Score: inf
ROOT
ATOM      1  C   UNL     1      -1.741   2.119   9.105  1.00  0.00     0.188 C 
ENDROOT
BRANCH   1   2
ATOM      2  O   UNL     1      -0.874   0.986   9.168  1.00  0.00    -0.377 OA
BRANCH   2   3
ATOM      3  C   UNL     1       0.134   0.866   8.182  1.00  0.00     0.188 C 
BRANCH   3   4
ATOM      4  C   UNL     1      -0.417   0.508   6.795  1.00  0.00     0.188 C 
BRANCH   4   5
ATOM      5  O   UNL     1      -1.836   0.570   6.696  1.00  0.00    -0.376 OA
BRANCH   5   6
ATOM      6  C   UNL     1      -2.597  -0.624   6.758  1.00  0.00     0.202 C 
BRANCH   6   7
ATOM      7  C   UNL     1      -2.288  -1.655   7.850  1.00  0.00     0.261 C 
BRANCH   7   8
ATOM      8  O   UNL     1      -0.909  -2.040   7.905  1.00  0.00    -0.459 OA
BRANCH   8   9
ATOM      9  C   UNL     1      -0.409  -2.864   6.954  1.00  0.00     0.345 C 
ATOM     10  O   UNL     1      -1.058  -3.494   6.125  1.00  0.00    -0.246 OA
BRANCH   9  11
ATOM     11  C   UNL     1       1.087  -2.799   7.029  1.00  0.00     0.101 C 
ATOM     12  C   UNL     1       1.858  -2.330   6.020  1.00  0.00     0.031 C 
BRANCH  12  13
ATOM     13  C   UNL     1       1.568  -1.757   4.669  1.00  0.00    -0.020 A 
ATOM     14  C   UNL     1       1.252  -0.350   2.208  1.00  0.00     0.160 A 
ATOM     15  C   UNL     1       0.145  -0.709   2.973  1.00  0.00     0.051 A 
ATOM     16  C   UNL     1       2.527  -0.715   2.648  1.00  0.00     0.161 A 
ATOM     17  C   UNL     1       0.304  -1.435   4.163  1.00  0.00     0.012 A 
ATOM     18  C   UNL     1       2.671  -1.389   3.875  1.00  0.00     0.058 A 
BRANCH  14  19
ATOM     19  O   UNL     1       1.110   0.448   1.106  1.00  0.00    -0.493 OA
ATOM     20  C   UNL     1       0.167  -0.039   0.157  1.00  0.00     0.278 C 
ENDBRANCH  14  19
BRANCH  16  21
ATOM     21  O   UNL     1       3.718  -0.453   2.019  1.00  0.00    -0.493 OA
ATOM     22  C   UNL     1       3.671  -0.343   0.601  1.00  0.00     0.278 C 
ENDBRANCH  16  21
ENDBRANCH  12  13
BRANCH  11  23
ATOM     23  S   UNL     1       1.645  -3.235   8.635  1.00  0.00    -0.043 SA
BRANCH  23  24
ATOM     24  C   UNL     1       3.351  -3.286   8.521  1.00  0.00     0.188 A 
ATOM     25  N   UNL     1       4.218  -2.310   8.409  1.00  0.00    -0.206 NA
ATOM     26  N   UNL     1       4.000  -4.455   8.754  1.00  0.00    -0.254 N 
ATOM     27  C   UNL     1       5.422  -2.955   8.584  1.00  0.00     0.148 A 
ATOM     28  N   UNL     1       5.330  -4.281   8.766  1.00  0.00    -0.158 NA
ATOM     29  H   UNL     1       3.552  -5.320   8.895  1.00  0.00     0.192 HD
ATOM     30  C   UNL     1       6.716  -2.241   8.617  1.00  0.00     0.092 C 
ENDBRANCH  23  24
ENDBRANCH  11  23
ENDBRANCH   9  11
ENDBRANCH   8   9
ENDBRANCH   7   8
ENDBRANCH   6   7
ENDBRANCH   5   6
ENDBRANCH   4   5
ENDBRANCH   3   4
ENDBRANCH   2   3
ENDBRANCH   1   2
BRANCH   1  31
ATOM     31  C   UNL     1      -1.838   3.092   7.889  1.00  0.00     0.188 C 
BRANCH  31  32
ATOM     32  O   UNL     1      -0.723   3.115   7.003  1.00  0.00    -0.376 OA
BRANCH  32  33
ATOM     33  C   UNL     1      -0.050   4.338   6.751  1.00  0.00     0.202 C 
BRANCH  33  34
ATOM     34  C   UNL     1       1.093   4.557   7.737  1.00  0.00     0.261 C 
BRANCH  34  35
ATOM     35  O   UNL     1       0.675   4.370   9.080  1.00  0.00    -0.460 OA
BRANCH  35  36
ATOM     36  C   UNL     1      -0.283   5.207   9.498  1.00  0.00     0.338 C 
ATOM     37  O   UNL     1      -0.865   6.068   8.826  1.00  0.00    -0.246 OA
BRANCH  36  38
ATOM     38  C   UNL     1      -0.501   5.005  10.921  1.00  0.00     0.060 A 
ATOM     39  C   UNL     1      -1.411   5.875  11.522  1.00  0.00     0.016 A 
ATOM     40  C   UNL     1       0.450   4.270  11.646  1.00  0.00     0.016 A 
ATOM     41  C   UNL     1      -1.137   6.279  12.799  1.00  0.00     0.010 A 
ATOM     42  C   UNL     1       0.742   4.698  12.910  1.00  0.00     0.010 A 
ATOM     43  C   UNL     1       0.015   5.776  13.407  1.00  0.00    -0.014 A 
BRANCH  43  44
ATOM     44  C   UNL     1       0.502   6.474  14.566  1.00  0.00     0.031 A 
ATOM     45  C   UNL     1      -0.141   6.057  15.815  1.00  0.00     0.074 A 
ATOM     46  C   UNL     1       1.511   7.356  14.474  1.00  0.00     0.049 A 
ATOM     47  N   UNL     1      -0.937   6.743  16.560  1.00  0.00    -0.248 NA
ATOM     48  C   UNL     1      -0.028   4.638  16.182  1.00  0.00     0.031 C 
ATOM     49  C   UNL     1       2.390   7.607  13.327  1.00  0.00     0.029 A 
ATOM     50  N   UNL     1       2.041   8.131  15.452  1.00  0.00    -0.354 N 
ATOM     51  C   UNL     1      -1.242   5.907  17.623  1.00  0.00     0.074 A 
ATOM     52  C   UNL     1      -0.860   4.583  17.219  1.00  0.00     0.031 C 
ATOM     53  C   UNL     1       3.472   8.297  13.750  1.00  0.00     0.029 A 
ATOM     54  C   UNL     1       3.299   8.631  15.155  1.00  0.00     0.049 A 
ATOM     55  H   UNL     1       1.574   8.321  16.298  1.00  0.00     0.167 HD
ATOM     56  C   UNL     1      -1.532   6.414  18.848  1.00  0.00     0.034 A 
ATOM     57  C   UNL     1       4.170   9.178  16.039  1.00  0.00     0.034 A 
ATOM     58  C   UNL     1      -1.918   7.805  18.760  1.00  0.00     0.049 A 
ATOM     59  C   UNL     1       3.377   9.624  17.215  1.00  0.00     0.074 A 
ATOM     60  C   UNL     1      -2.920   8.483  18.090  1.00  0.00     0.029 A 
ATOM     61  N   UNL     1      -0.996   8.765  19.115  1.00  0.00    -0.354 N 
ATOM     62  N   UNL     1       2.482  10.573  17.163  1.00  0.00    -0.248 NA
ATOM     63  C   UNL     1       3.233   8.713  18.344  1.00  0.00     0.031 C 
ATOM     64  C   UNL     1      -2.329   9.711  17.672  1.00  0.00     0.029 A 
ATOM     65  C   UNL     1      -1.017   9.744  18.149  1.00  0.00     0.049 A 
ATOM     66  H   UNL     1      -0.425   8.753  19.917  1.00  0.00     0.167 HD
ATOM     67  C   UNL     1       1.440  10.138  17.970  1.00  0.00     0.074 A 
ATOM     68  C   UNL     1       2.009   9.053  18.763  1.00  0.00     0.031 C 
ATOM     69  C   UNL     1       0.146  10.502  17.718  1.00  0.00     0.034 A 
BRANCH  56  70
ATOM     70  C   UNL     1      -1.127   5.747  20.141  1.00  0.00     0.023 A 
ATOM     71  C   UNL     1      -1.514   6.382  21.333  1.00  0.00     0.031 A 
ATOM     72  C   UNL     1      -0.182   4.700  20.284  1.00  0.00     0.131 A 
ATOM     73  C   UNL     1      -0.917   6.042  22.557  1.00  0.00     0.055 A 
ATOM     74  C   UNL     1       0.350   4.314  21.515  1.00  0.00     0.041 A 
ATOM     75  F   UNL     1       0.358   4.053  19.245  1.00  0.00    -0.206 F 
ATOM     76  C   UNL     1       0.008   5.007  22.659  1.00  0.00     0.022 A 
BRANCH  73  77
ATOM     77  S   UNL     1      -1.233   7.108  23.983  1.00  0.00     0.124 S 
ATOM     78  O   UNL     1      -0.953   8.430  23.433  1.00  0.00    -0.237 OA
ATOM     79  O   UNL     1      -2.633   6.811  24.270  1.00  0.00    -0.237 OA
ATOM     80  O   UNL     1      -0.276   6.632  24.978  1.00  0.00    -0.744 OA
ENDBRANCH  73  77
ENDBRANCH  56  70
BRANCH  57  81
ATOM     81  C   UNL     1       5.644   8.994  16.035  1.00  0.00     0.023 A 
ATOM     82  C   UNL     1       6.516   9.858  16.722  1.00  0.00     0.031 A 
ATOM     83  C   UNL     1       6.210   7.809  15.507  1.00  0.00     0.131 A 
ATOM     84  C   UNL     1       7.887   9.533  16.844  1.00  0.00     0.055 A 
ATOM     85  C   UNL     1       7.567   7.502  15.612  1.00  0.00     0.041 A 
ATOM     86  F   UNL     1       5.446   6.862  14.939  1.00  0.00    -0.206 F 
ATOM     87  C   UNL     1       8.413   8.363  16.289  1.00  0.00     0.022 A 
BRANCH  84  88
ATOM     88  S   UNL     1       8.992  10.591  17.828  1.00  0.00     0.124 S 
ATOM     89  O   UNL     1       9.083  11.793  17.007  1.00  0.00    -0.237 OA
ATOM     90  O   UNL     1       8.265  10.717  19.086  1.00  0.00    -0.237 OA
ATOM     91  O   UNL     1      10.227   9.809  17.912  1.00  0.00    -0.744 OA
ENDBRANCH  84  88
ENDBRANCH  57  81
BRANCH  69  92
ATOM     92  C   UNL     1      -0.098  11.623  16.724  1.00  0.00     0.023 A 
ATOM     93  C   UNL     1       0.305  11.589  15.369  1.00  0.00     0.031 A 
ATOM     94  C   UNL     1      -0.887  12.710  17.139  1.00  0.00     0.131 A 
ATOM     95  C   UNL     1      -0.072  12.625  14.492  1.00  0.00     0.055 A 
ATOM     96  C   UNL     1      -1.275  13.724  16.263  1.00  0.00     0.041 A 
ATOM     97  F   UNL     1      -1.333  12.783  18.404  1.00  0.00    -0.206 F 
ATOM     98  C   UNL     1      -0.863  13.688  14.935  1.00  0.00     0.022 A 
BRANCH  95  99
ATOM     99  S   UNL     1       0.461  12.600  12.749  1.00  0.00     0.124 S 
ATOM    100  O   UNL     1       1.900  12.380  12.837  1.00  0.00    -0.237 OA
ATOM    101  O   UNL     1      -0.324  11.501  12.195  1.00  0.00    -0.237 OA
ATOM    102  O   UNL     1       0.078  13.925  12.257  1.00  0.00    -0.744 OA
ENDBRANCH  95  99
ENDBRANCH  69  92
ENDBRANCH  43  44
ENDBRANCH  36  38
ENDBRANCH  35  36
ENDBRANCH  34  35
ENDBRANCH  33  34
ENDBRANCH  32  33
ENDBRANCH  31  32
ENDBRANCH   1  31
TORSDOF 28
