REMARK SMILES CCc1cc(OC[C@@H]2C[N@@H+](CC)CCO2)c(C(=O)OCCOCCOCCOCCOC(=O)c2ccc(-c3c4nc(c(-c5cc(S(=O)(=O)[O-])ccc5F)c5ccc([nH]5)c(-c5cc(S(=O)(=O)[O-])ccc5F)c5nc(c(-c6cc(S(=O)(=O)[O-])ccc6F)c6ccc3[nH]6)C=C5)C=C4)cc2)s1
REMARK SMILES IDX 24 1 23 2 22 3 21 4 20 5 19 6 17 7 18 8 16 9 3 10 4 11 97 12
REMARK SMILES IDX 5 13 2 14 1 15 6 16 7 17 8 18 9 19 15 20 10 21 14 22 13 23
REMARK SMILES IDX 11 25 12 26 25 27 26 28 27 29 28 30 29 31 30 32 31 33 32 34
REMARK SMILES IDX 33 35 34 36 35 37 96 38 36 39 95 40 37 41 38 42 39 43 89 44
REMARK SMILES IDX 40 45 94 46 88 47 90 48 41 49 93 50 87 51 86 52 42 54 74 55
REMARK SMILES IDX 54 56 73 57 55 58 58 59 72 60 91 61 56 62 57 63 71 65 92 66
REMARK SMILES IDX 59 67 43 68 44 69 52 70 45 71 51 72 53 73 50 74 46 75 47 76
REMARK SMILES IDX 48 77 49 78 75 79 76 80 84 81 77 82 83 83 85 84 82 85 78 86
REMARK SMILES IDX 79 87 80 88 81 89 60 90 61 91 69 92 62 93 68 94 70 95 67 96
REMARK SMILES IDX 63 97 64 98 65 99 66 100
REMARK H PARENT 10 24 90 53 58 64
REMARK Flexibility Score: inf
ROOT
ATOM      1  C   UNL     1       4.326   1.254  -5.011  1.00  0.00     0.188 C 
ENDROOT
BRANCH   1   2
ATOM      2  C   UNL     1       3.756   0.073  -5.811  1.00  0.00     0.188 C 
BRANCH   2   3
ATOM      3  O   UNL     1       3.857   0.239  -7.222  1.00  0.00    -0.376 OA
BRANCH   3   4
ATOM      4  C   UNL     1       2.631   0.414  -7.923  1.00  0.00     0.202 C 
BRANCH   4   5
ATOM      5  C   UNL     1       1.941   1.774  -7.745  1.00  0.00     0.261 C 
BRANCH   5   6
ATOM      6  O   UNL     1       1.676   2.126  -6.381  1.00  0.00    -0.459 OA
BRANCH   6   7
ATOM      7  C   UNL     1       0.686   1.480  -5.716  1.00  0.00     0.352 C 
ATOM      8  O   UNL     1      -0.085   0.683  -6.244  1.00  0.00    -0.245 OA
BRANCH   7   9
ATOM      9  C   UNL     1       0.810   1.757  -4.297  1.00  0.00     0.155 A 
ATOM     10  C   UNL     1       0.864   1.484  -1.831  1.00  0.00     0.009 A 
ATOM     11  C   UNL     1       1.559   2.596  -2.255  1.00  0.00     0.062 A 
ATOM     12  S   UNL     1       0.228   0.608  -3.158  1.00  0.00    -0.130 S 
ATOM     13  C   UNL     1       1.366   2.842  -3.645  1.00  0.00     0.145 A 
BRANCH  10  14
ATOM     14  C   UNL     1       0.572   1.092  -0.415  1.00  0.00     0.043 C 
ATOM     15  C   UNL     1       1.266  -0.187   0.015  1.00  0.00     0.010 C 
ENDBRANCH  10  14
BRANCH  13  16
ATOM     16  O   UNL     1       1.692   3.978  -4.311  1.00  0.00    -0.489 OA
BRANCH  16  17
ATOM     17  C   UNL     1       1.331   5.194  -3.620  1.00  0.00     0.267 C 
BRANCH  17  18
ATOM     18  C   UNL     1      -0.182   5.288  -3.319  1.00  0.00     0.210 C 
ATOM     19  C   UNL     1      -0.621   6.730  -2.993  1.00  0.00     0.298 C 
ATOM     20  O   UNL     1      -0.484   4.463  -2.174  1.00  0.00    -0.363 OA
ATOM     21  N   UNL     1      -2.027   6.862  -2.556  1.00  0.00    -0.331 N 
ATOM     22  C   UNL     1      -1.889   4.405  -1.952  1.00  0.00     0.222 C 
ATOM     23  C   UNL     1      -2.415   5.801  -1.613  1.00  0.00     0.291 C 
ATOM     24  H   UNL     1      -2.062   7.732  -2.024  1.00  0.00     0.348 HD
BRANCH  21  25
ATOM     25  C   UNL     1      -2.993   7.130  -3.618  1.00  0.00     0.258 C 
ATOM     26  C   UNL     1      -3.172   6.088  -4.713  1.00  0.00     0.071 C 
ENDBRANCH  21  25
ENDBRANCH  17  18
ENDBRANCH  16  17
ENDBRANCH  13  16
ENDBRANCH   7   9
ENDBRANCH   6   7
ENDBRANCH   5   6
ENDBRANCH   4   5
ENDBRANCH   3   4
ENDBRANCH   2   3
ENDBRANCH   1   2
BRANCH   1  27
ATOM     27  O   UNL     1       4.566   2.431  -5.755  1.00  0.00    -0.377 OA
BRANCH  27  28
ATOM     28  C   UNL     1       5.639   2.456  -6.691  1.00  0.00     0.188 C 
BRANCH  28  29
ATOM     29  C   UNL     1       6.568   1.243  -6.929  1.00  0.00     0.188 C 
BRANCH  29  30
ATOM     30  O   UNL     1       6.817   0.427  -5.788  1.00  0.00    -0.376 OA
BRANCH  30  31
ATOM     31  C   UNL     1       8.094   0.562  -5.178  1.00  0.00     0.202 C 
BRANCH  31  32
ATOM     32  C   UNL     1       8.249   1.830  -4.329  1.00  0.00     0.261 C 
BRANCH  32  33
ATOM     33  O   UNL     1       8.223   3.059  -5.068  1.00  0.00    -0.460 OA
BRANCH  33  34
ATOM     34  C   UNL     1       9.166   3.219  -6.024  1.00  0.00     0.338 C 
ATOM     35  O   UNL     1      10.069   2.454  -6.304  1.00  0.00    -0.246 OA
BRANCH  34  36
ATOM     36  C   UNL     1       8.815   4.423  -6.798  1.00  0.00     0.060 A 
ATOM     37  C   UNL     1       8.627   4.313  -8.181  1.00  0.00     0.016 A 
ATOM     38  C   UNL     1       8.681   5.654  -6.153  1.00  0.00     0.016 A 
ATOM     39  C   UNL     1       8.342   5.453  -8.934  1.00  0.00     0.010 A 
ATOM     40  C   UNL     1       8.414   6.794  -6.908  1.00  0.00     0.010 A 
ATOM     41  C   UNL     1       8.278   6.703  -8.304  1.00  0.00    -0.014 A 
BRANCH  41  42
ATOM     42  C   UNL     1       8.288   7.949  -9.107  1.00  0.00     0.031 A 
ATOM     43  C   UNL     1       9.615   8.608  -9.361  1.00  0.00     0.074 A 
ATOM     44  C   UNL     1       7.150   8.497  -9.567  1.00  0.00     0.049 A 
ATOM     45  N   UNL     1       9.879   9.759  -9.920  1.00  0.00    -0.248 NA
ATOM     46  C   UNL     1      10.803   7.867  -8.910  1.00  0.00     0.031 C 
ATOM     47  C   UNL     1       5.814   7.923  -9.417  1.00  0.00     0.029 A 
ATOM     48  N   UNL     1       6.939   9.675 -10.238  1.00  0.00    -0.354 N 
ATOM     49  C   UNL     1      11.264   9.884  -9.884  1.00  0.00     0.074 A 
ATOM     50  C   UNL     1      11.778   8.707  -9.217  1.00  0.00     0.031 C 
ATOM     51  C   UNL     1       4.918   8.764  -9.963  1.00  0.00     0.029 A 
ATOM     52  C   UNL     1       5.611   9.951 -10.461  1.00  0.00     0.049 A 
ATOM     53  H   UNL     1       7.670  10.265 -10.532  1.00  0.00     0.167 HD
ATOM     54  C   UNL     1      12.036  10.889 -10.365  1.00  0.00     0.034 A 
ATOM     55  C   UNL     1       5.027  11.053 -10.976  1.00  0.00     0.034 A 
ATOM     56  C   UNL     1      11.504  12.068 -11.001  1.00  0.00     0.049 A 
ATOM     57  C   UNL     1       5.899  12.204 -11.422  1.00  0.00     0.074 A 
ATOM     58  C   UNL     1      12.189  13.152 -11.521  1.00  0.00     0.029 A 
ATOM     59  N   UNL     1      10.152  12.325 -11.189  1.00  0.00    -0.354 N 
ATOM     60  N   UNL     1       7.208  12.315 -11.383  1.00  0.00    -0.248 NA
ATOM     61  C   UNL     1       5.216  13.377 -11.986  1.00  0.00     0.031 C 
ATOM     62  C   UNL     1      11.251  14.091 -11.963  1.00  0.00     0.029 A 
ATOM     63  C   UNL     1       9.982  13.560 -11.792  1.00  0.00     0.049 A 
ATOM     64  H   UNL     1       9.421  11.717 -10.932  1.00  0.00     0.167 HD
ATOM     65  C   UNL     1       7.503  13.552 -11.954  1.00  0.00     0.074 A 
ATOM     66  C   UNL     1       6.238  14.148 -12.328  1.00  0.00     0.031 C 
ATOM     67  C   UNL     1       8.710  14.138 -12.160  1.00  0.00     0.034 A 
BRANCH  54  68
ATOM     68  C   UNL     1      13.525  10.771 -10.158  1.00  0.00     0.023 A 
ATOM     69  C   UNL     1      14.275   9.745 -10.761  1.00  0.00     0.031 A 
ATOM     70  C   UNL     1      14.197  11.666  -9.308  1.00  0.00     0.131 A 
ATOM     71  C   UNL     1      15.634   9.597 -10.448  1.00  0.00     0.055 A 
ATOM     72  C   UNL     1      15.567  11.561  -9.063  1.00  0.00     0.041 A 
ATOM     73  F   UNL     1      13.527  12.648  -8.684  1.00  0.00    -0.206 F 
ATOM     74  C   UNL     1      16.291  10.512  -9.622  1.00  0.00     0.022 A 
BRANCH  71  75
ATOM     75  S   UNL     1      16.498   8.107 -11.019  1.00  0.00     0.124 S 
ATOM     76  O   UNL     1      15.700   7.049 -10.403  1.00  0.00    -0.237 OA
ATOM     77  O   UNL     1      16.398   8.220 -12.469  1.00  0.00    -0.237 OA
ATOM     78  O   UNL     1      17.844   8.261 -10.472  1.00  0.00    -0.744 OA
ENDBRANCH  71  75
ENDBRANCH  54  68
BRANCH  55  79
ATOM     79  C   UNL     1       3.541  11.154 -11.057  1.00  0.00     0.023 A 
ATOM     80  C   UNL     1       2.886  11.254 -12.295  1.00  0.00     0.031 A 
ATOM     81  C   UNL     1       2.757  11.214  -9.891  1.00  0.00     0.131 A 
ATOM     82  C   UNL     1       1.497  11.455 -12.338  1.00  0.00     0.055 A 
ATOM     83  C   UNL     1       1.370  11.362  -9.940  1.00  0.00     0.041 A 
ATOM     84  F   UNL     1       3.332  11.125  -8.681  1.00  0.00    -0.206 F 
ATOM     85  C   UNL     1       0.734  11.497 -11.169  1.00  0.00     0.022 A 
BRANCH  82  86
ATOM     86  S   UNL     1       0.710  11.747 -13.946  1.00  0.00     0.124 S 
ATOM     87  O   UNL     1       1.418  12.934 -14.412  1.00  0.00    -0.237 OA
ATOM     88  O   UNL     1       1.001  10.506 -14.655  1.00  0.00    -0.237 OA
ATOM     89  O   UNL     1      -0.696  11.952 -13.604  1.00  0.00    -0.744 OA
ENDBRANCH  82  86
ENDBRANCH  55  79
BRANCH  67  90
ATOM     90  C   UNL     1       8.723  15.461 -12.885  1.00  0.00     0.023 A 
ATOM     91  C   UNL     1       8.222  16.637 -12.301  1.00  0.00     0.031 A 
ATOM     92  C   UNL     1       9.263  15.542 -14.182  1.00  0.00     0.131 A 
ATOM     93  C   UNL     1       8.233  17.837 -13.030  1.00  0.00     0.055 A 
ATOM     94  C   UNL     1       9.320  16.748 -14.881  1.00  0.00     0.041 A 
ATOM     95  F   UNL     1       9.755  14.449 -14.786  1.00  0.00    -0.206 F 
ATOM     96  C   UNL     1       8.794  17.902 -14.309  1.00  0.00     0.022 A 
BRANCH  93  97
ATOM     97  S   UNL     1       7.441  19.303 -12.314  1.00  0.00     0.124 S 
ATOM     98  O   UNL     1       6.068  18.847 -12.127  1.00  0.00    -0.237 OA
ATOM     99  O   UNL     1       8.215  19.512 -11.094  1.00  0.00    -0.237 OA
ATOM    100  O   UNL     1       7.620  20.327 -13.342  1.00  0.00    -0.744 OA
ENDBRANCH  93  97
ENDBRANCH  67  90
ENDBRANCH  41  42
ENDBRANCH  34  36
ENDBRANCH  33  34
ENDBRANCH  32  33
ENDBRANCH  31  32
ENDBRANCH  30  31
ENDBRANCH  29  30
ENDBRANCH  28  29
ENDBRANCH  27  28
ENDBRANCH   1  27
TORSDOF 28
