REMARK SMILES O=C(OCCOCCOCCOCCOC(=O)c1nsc2c1N=C(O)C[C@@H]2c1ccc(F)cc1Cl)c1ccc(-c2c3nc(c(-c4cc(S(=O)(=O)[O-])ccc4F)c4ccc([nH]4)c(-c4cc(S(=O)(=O)[O-])ccc4F)c4nc(c(-c5cc(S(=O)(=O)[O-])ccc5F)c5ccc2[nH]5)C=C4)C=C3)cc1
REMARK SMILES IDX 8 1 7 2 6 3 5 4 4 5 3 6 2 7 1 8 36 9 37 10 98 11 38 12 97 13
REMARK SMILES IDX 39 14 40 15 41 16 91 17 42 18 96 19 90 20 92 21 43 22 95 23
REMARK SMILES IDX 89 24 88 25 44 27 76 28 56 29 75 30 57 31 60 32 74 33 93 34
REMARK SMILES IDX 58 35 59 36 73 38 94 39 61 40 45 41 46 42 54 43 47 44 53 45
REMARK SMILES IDX 55 46 52 47 48 48 49 49 50 50 51 51 77 52 78 53 86 54 79 55
REMARK SMILES IDX 85 56 87 57 84 58 80 59 81 60 82 61 83 62 62 63 63 64 71 65
REMARK SMILES IDX 64 66 70 67 72 68 69 69 65 70 66 71 67 72 68 73 9 74 10 75
REMARK SMILES IDX 11 76 12 77 13 78 14 79 15 80 16 81 17 82 18 83 19 84 22 85
REMARK SMILES IDX 20 86 21 87 23 88 27 89 24 90 26 91 28 92 29 93 34 94 30 95
REMARK SMILES IDX 33 96 35 97 31 98 32 99 25 100
REMARK H PARENT 92 26 60 37 25 101
REMARK Flexibility Score: inf
ROOT
ATOM      1  C   UNL     1       2.309  -1.427  -1.299  1.00  0.00     0.188 C 
ENDROOT
BRANCH   1   2
ATOM      2  C   UNL     1       2.957  -0.042  -1.459  1.00  0.00     0.188 C 
BRANCH   2   3
ATOM      3  O   UNL     1       4.276   0.287  -1.050  1.00  0.00    -0.376 OA
BRANCH   3   4
ATOM      4  C   UNL     1       5.021  -0.285   0.004  1.00  0.00     0.202 C 
BRANCH   4   5
ATOM      5  C   UNL     1       4.501  -0.461   1.433  1.00  0.00     0.261 C 
BRANCH   5   6
ATOM      6  O   UNL     1       3.140  -0.854   1.552  1.00  0.00    -0.460 OA
BRANCH   6   7
ATOM      7  C   UNL     1       2.024  -0.098   1.567  1.00  0.00     0.338 C 
ATOM      8  O   UNL     1       0.943  -0.688   1.605  1.00  0.00    -0.246 OA
BRANCH   7   9
ATOM      9  C   UNL     1       2.004   1.389   1.470  1.00  0.00     0.060 A 
ATOM     10  C   UNL     1       3.110   2.242   1.493  1.00  0.00     0.016 A 
ATOM     11  C   UNL     1       0.720   1.958   1.362  1.00  0.00     0.016 A 
ATOM     12  C   UNL     1       2.937   3.608   1.621  1.00  0.00     0.010 A 
ATOM     13  C   UNL     1       0.540   3.327   1.444  1.00  0.00     0.010 A 
ATOM     14  C   UNL     1       1.651   4.130   1.666  1.00  0.00    -0.014 A 
BRANCH  14  15
ATOM     15  C   UNL     1       1.522   5.538   1.979  1.00  0.00     0.031 A 
ATOM     16  C   UNL     1       2.037   6.476   0.957  1.00  0.00     0.074 A 
ATOM     17  C   UNL     1       0.930   5.943   3.118  1.00  0.00     0.049 A 
ATOM     18  N   UNL     1       3.003   7.325   1.073  1.00  0.00    -0.248 NA
ATOM     19  C   UNL     1       1.488   6.373  -0.402  1.00  0.00     0.031 C 
ATOM     20  C   UNL     1       0.188   5.121   4.077  1.00  0.00     0.029 A 
ATOM     21  N   UNL     1       0.763   7.206   3.592  1.00  0.00    -0.354 N 
ATOM     22  C   UNL     1       3.038   8.028  -0.127  1.00  0.00     0.074 A 
ATOM     23  C   UNL     1       2.212   7.289  -1.045  1.00  0.00     0.031 C 
ATOM     24  C   UNL     1      -0.549   5.927   4.870  1.00  0.00     0.029 A 
ATOM     25  C   UNL     1      -0.230   7.310   4.558  1.00  0.00     0.049 A 
ATOM     26  H   UNL     1       1.295   7.974   3.282  1.00  0.00     0.167 HD
ATOM     27  C   UNL     1       3.561   9.283  -0.197  1.00  0.00     0.034 A 
ATOM     28  C   UNL     1      -0.819   8.450   4.999  1.00  0.00     0.034 A 
ATOM     29  C   UNL     1       4.436   9.548   0.922  1.00  0.00     0.049 A 
ATOM     30  C   UNL     1       0.117   9.567   4.716  1.00  0.00     0.074 A 
ATOM     31  C   UNL     1       5.580   8.950   1.417  1.00  0.00     0.029 A 
ATOM     32  N   UNL     1       3.985  10.366   1.934  1.00  0.00    -0.354 N 
ATOM     33  N   UNL     1       1.280   9.693   5.295  1.00  0.00    -0.248 NA
ATOM     34  C   UNL     1      -0.023  10.288   3.459  1.00  0.00     0.031 C 
ATOM     35  C   UNL     1       5.463   9.043   2.834  1.00  0.00     0.029 A 
ATOM     36  C   UNL     1       4.294   9.749   3.122  1.00  0.00     0.049 A 
ATOM     37  H   UNL     1       3.526  11.230   1.827  1.00  0.00     0.167 HD
ATOM     38  C   UNL     1       2.136  10.125   4.295  1.00  0.00     0.074 A 
ATOM     39  C   UNL     1       1.259  10.584   3.221  1.00  0.00     0.031 C 
ATOM     40  C   UNL     1       3.467   9.811   4.312  1.00  0.00     0.034 A 
BRANCH  27  41
ATOM     41  C   UNL     1       3.009  10.390  -1.069  1.00  0.00     0.023 A 
ATOM     42  C   UNL     1       3.649  11.643  -0.998  1.00  0.00     0.031 A 
ATOM     43  C   UNL     1       1.748  10.383  -1.708  1.00  0.00     0.131 A 
ATOM     44  C   UNL     1       2.997  12.813  -1.423  1.00  0.00     0.055 A 
ATOM     45  C   UNL     1       1.137  11.541  -2.199  1.00  0.00     0.041 A 
ATOM     46  F   UNL     1       0.991   9.285  -1.811  1.00  0.00    -0.206 F 
ATOM     47  C   UNL     1       1.743  12.771  -2.023  1.00  0.00     0.022 A 
BRANCH  44  48
ATOM     48  S   UNL     1       3.733  14.408  -0.981  1.00  0.00     0.124 S 
ATOM     49  O   UNL     1       3.907  14.258   0.460  1.00  0.00    -0.237 OA
ATOM     50  O   UNL     1       4.952  14.407  -1.782  1.00  0.00    -0.237 OA
ATOM     51  O   UNL     1       2.716  15.374  -1.391  1.00  0.00    -0.744 OA
ENDBRANCH  44  48
ENDBRANCH  27  41
BRANCH  28  52
ATOM     52  C   UNL     1      -2.258   8.615   5.331  1.00  0.00     0.023 A 
ATOM     53  C   UNL     1      -2.738   9.683   6.112  1.00  0.00     0.031 A 
ATOM     54  C   UNL     1      -3.231   7.812   4.688  1.00  0.00     0.131 A 
ATOM     55  C   UNL     1      -4.129   9.903   6.235  1.00  0.00     0.055 A 
ATOM     56  C   UNL     1      -4.603   8.023   4.828  1.00  0.00     0.041 A 
ATOM     57  F   UNL     1      -2.880   6.841   3.831  1.00  0.00    -0.206 F 
ATOM     58  C   UNL     1      -5.059   9.077   5.598  1.00  0.00     0.022 A 
BRANCH  55  59
ATOM     59  S   UNL     1      -4.751  11.348   7.151  1.00  0.00     0.124 S 
ATOM     60  O   UNL     1      -4.449  10.992   8.533  1.00  0.00    -0.237 OA
ATOM     61  O   UNL     1      -3.974  12.441   6.577  1.00  0.00    -0.237 OA
ATOM     62  O   UNL     1      -6.176  11.373   6.820  1.00  0.00    -0.744 OA
ENDBRANCH  55  59
ENDBRANCH  28  52
BRANCH  40  63
ATOM     63  C   UNL     1       4.069   9.262   5.590  1.00  0.00     0.023 A 
ATOM     64  C   UNL     1       3.625   8.094   6.250  1.00  0.00     0.031 A 
ATOM     65  C   UNL     1       5.231   9.885   6.078  1.00  0.00     0.131 A 
ATOM     66  C   UNL     1       4.334   7.602   7.364  1.00  0.00     0.055 A 
ATOM     67  C   UNL     1       5.941   9.385   7.169  1.00  0.00     0.041 A 
ATOM     68  F   UNL     1       5.724  10.979   5.473  1.00  0.00    -0.206 F 
ATOM     69  C   UNL     1       5.490   8.243   7.821  1.00  0.00     0.022 A 
BRANCH  66  70
ATOM     70  S   UNL     1       3.761   6.116   8.248  1.00  0.00     0.124 S 
ATOM     71  O   UNL     1       2.331   6.345   8.414  1.00  0.00    -0.237 OA
ATOM     72  O   UNL     1       4.136   5.041   7.333  1.00  0.00    -0.237 OA
ATOM     73  O   UNL     1       4.530   6.146   9.494  1.00  0.00    -0.744 OA
ENDBRANCH  66  70
ENDBRANCH  40  63
ENDBRANCH  14  15
ENDBRANCH   7   9
ENDBRANCH   6   7
ENDBRANCH   5   6
ENDBRANCH   4   5
ENDBRANCH   3   4
ENDBRANCH   2   3
ENDBRANCH   1   2
BRANCH   1  74
ATOM     74  O   UNL     1       2.761  -2.426  -2.196  1.00  0.00    -0.377 OA
BRANCH  74  75
ATOM     75  C   UNL     1       4.053  -2.921  -1.918  1.00  0.00     0.188 C 
BRANCH  75  76
ATOM     76  C   UNL     1       5.152  -2.400  -2.864  1.00  0.00     0.188 C 
BRANCH  76  77
ATOM     77  O   UNL     1       4.885  -1.827  -4.141  1.00  0.00    -0.376 OA
BRANCH  77  78
ATOM     78  C   UNL     1       3.592  -1.859  -4.715  1.00  0.00     0.202 C 
BRANCH  78  79
ATOM     79  C   UNL     1       3.071  -3.217  -5.202  1.00  0.00     0.261 C 
BRANCH  79  80
ATOM     80  O   UNL     1       3.472  -4.338  -4.410  1.00  0.00    -0.458 OA
BRANCH  80  81
ATOM     81  C   UNL     1       4.659  -4.921  -4.743  1.00  0.00     0.360 C 
ATOM     82  O   UNL     1       5.334  -4.611  -5.724  1.00  0.00    -0.244 OA
BRANCH  81  83
ATOM     83  C   UNL     1       5.082  -5.918  -3.752  1.00  0.00     0.188 A 
ATOM     84  N   UNL     1       6.351  -5.929  -3.305  1.00  0.00    -0.183 NA
ATOM     85  C   UNL     1       4.260  -6.943  -3.185  1.00  0.00     0.116 A 
ATOM     86  S   UNL     1       6.543  -7.145  -2.194  1.00  0.00    -0.038 S 
ATOM     87  C   UNL     1       4.955  -7.734  -2.303  1.00  0.00     0.060 A 
ATOM     88  N   UNL     1       2.932  -7.196  -3.554  1.00  0.00    -0.214 NA
ATOM     89  C   UNL     1       4.458  -9.005  -1.721  1.00  0.00     0.074 C 
ATOM     90  C   UNL     1       2.517  -8.380  -3.256  1.00  0.00     0.187 C 
ATOM     91  C   UNL     1       3.307  -9.504  -2.625  1.00  0.00     0.111 C 
BRANCH  89  92
ATOM     92  C   UNL     1       4.114  -9.123  -0.233  1.00  0.00    -0.020 A 
ATOM     93  C   UNL     1       3.973 -10.460   0.233  1.00  0.00     0.009 A 
ATOM     94  C   UNL     1       3.926  -8.098   0.713  1.00  0.00     0.047 A 
ATOM     95  C   UNL     1       3.657 -10.759   1.557  1.00  0.00     0.039 A 
ATOM     96  C   UNL     1       3.632  -8.405   2.053  1.00  0.00     0.060 A 
ATOM     97  Cl  UNL     1       4.014  -6.416   0.345  1.00  0.00    -0.084 Cl
ATOM     98  C   UNL     1       3.497  -9.725   2.459  1.00  0.00     0.124 A 
ATOM     99  F   UNL     1       3.206 -10.006   3.736  1.00  0.00    -0.207 F 
ENDBRANCH  89  92
BRANCH  90 100
ATOM    100  O   UNL     1       1.271  -8.727  -3.634  1.00  0.00    -0.496 OA
ATOM    101  H   UNL     1       0.709  -8.094  -4.034  1.00  0.00     0.294 HD
ENDBRANCH  90 100
ENDBRANCH  81  83
ENDBRANCH  80  81
ENDBRANCH  79  80
ENDBRANCH  78  79
ENDBRANCH  77  78
ENDBRANCH  76  77
ENDBRANCH  75  76
ENDBRANCH  74  75
ENDBRANCH   1  74
TORSDOF 25
