REMARK SMILES O=C(OCCOCCOCCOCCOC(=O)c1ccc(C[NH2+][C@H]2CCCNC2=O)nc1)c1ccc(-c2c3nc(c(-c4cc(S(=O)(=O)[O-])ccc4F)c4ccc([nH]4)c(-c4cc(S(=O)(=O)[O-])ccc4F)c4nc(c(-c5cc(S(=O)(=O)[O-])ccc5F)c5ccc2[nH]5)C=C4)C=C3)cc1
REMARK SMILES IDX 9 1 8 2 7 3 6 4 5 5 4 6 3 7 2 8 1 9 33 10 34 11 95 12 35 13
REMARK SMILES IDX 94 14 36 15 37 16 38 17 88 18 39 19 93 20 87 21 89 22 40 23
REMARK SMILES IDX 92 24 86 25 85 26 41 28 73 29 53 30 72 31 54 32 57 33 71 34
REMARK SMILES IDX 90 35 55 36 56 37 70 39 91 40 58 41 42 42 43 43 51 44 44 45
REMARK SMILES IDX 50 46 52 47 49 48 45 49 46 50 47 51 48 52 74 53 75 54 83 55
REMARK SMILES IDX 76 56 82 57 84 58 81 59 77 60 78 61 79 62 80 63 59 64 60 65
REMARK SMILES IDX 68 66 61 67 67 68 69 69 66 70 62 71 63 72 64 73 65 74 10 75
REMARK SMILES IDX 11 76 12 77 13 78 14 79 15 80 16 81 17 82 18 83 19 84 32 85
REMARK SMILES IDX 20 86 31 87 21 88 22 89 23 90 24 93 25 94 29 95 26 96 28 97
REMARK SMILES IDX 30 98 27 99
REMARK H PARENT 89 27 57 38 23 91 23 92 28 100
REMARK Flexibility Score: inf
ROOT
ATOM      1  O   UNL     1       2.616   2.661   3.068  1.00  0.00    -0.377 OA
ENDROOT
BRANCH   1   2
ATOM      2  C   UNL     1       1.931   1.620   2.371  1.00  0.00     0.188 C 
BRANCH   2   3
ATOM      3  C   UNL     1       2.361   1.413   0.919  1.00  0.00     0.188 C 
BRANCH   3   4
ATOM      4  O   UNL     1       3.702   0.927   0.845  1.00  0.00    -0.376 OA
BRANCH   4   5
ATOM      5  C   UNL     1       4.491   1.474  -0.213  1.00  0.00     0.202 C 
BRANCH   5   6
ATOM      6  C   UNL     1       4.290   0.796  -1.571  1.00  0.00     0.261 C 
BRANCH   6   7
ATOM      7  O   UNL     1       2.924   0.412  -1.786  1.00  0.00    -0.460 OA
BRANCH   7   8
ATOM      8  C   UNL     1       2.353  -0.791  -1.518  1.00  0.00     0.338 C 
ATOM      9  O   UNL     1       1.166  -0.943  -1.807  1.00  0.00    -0.246 OA
BRANCH   8  10
ATOM     10  C   UNL     1       3.074  -1.949  -0.895  1.00  0.00     0.060 A 
ATOM     11  C   UNL     1       4.208  -1.861  -0.085  1.00  0.00     0.016 A 
ATOM     12  C   UNL     1       2.521  -3.225  -1.102  1.00  0.00     0.016 A 
ATOM     13  C   UNL     1       4.827  -2.989   0.434  1.00  0.00     0.010 A 
ATOM     14  C   UNL     1       3.118  -4.368  -0.560  1.00  0.00     0.010 A 
ATOM     15  C   UNL     1       4.297  -4.249   0.183  1.00  0.00    -0.014 A 
BRANCH  15  16
ATOM     16  C   UNL     1       5.120  -5.415   0.548  1.00  0.00     0.031 A 
ATOM     17  C   UNL     1       5.896  -6.082  -0.548  1.00  0.00     0.074 A 
ATOM     18  C   UNL     1       5.288  -5.745   1.841  1.00  0.00     0.049 A 
ATOM     19  N   UNL     1       6.653  -7.142  -0.506  1.00  0.00    -0.248 NA
ATOM     20  C   UNL     1       5.815  -5.450  -1.877  1.00  0.00     0.031 C 
ATOM     21  C   UNL     1       4.691  -5.033   2.974  1.00  0.00     0.029 A 
ATOM     22  N   UNL     1       6.033  -6.733   2.423  1.00  0.00    -0.354 N 
ATOM     23  C   UNL     1       7.119  -7.320  -1.804  1.00  0.00     0.074 A 
ATOM     24  C   UNL     1       6.548  -6.268  -2.613  1.00  0.00     0.031 C 
ATOM     25  C   UNL     1       5.107  -5.603   4.117  1.00  0.00     0.029 A 
ATOM     26  C   UNL     1       5.933  -6.762   3.795  1.00  0.00     0.049 A 
ATOM     27  H   UNL     1       6.587  -7.364   1.910  1.00  0.00     0.167 HD
ATOM     28  C   UNL     1       7.944  -8.288  -2.269  1.00  0.00     0.034 A 
ATOM     29  C   UNL     1       6.423  -7.657   4.675  1.00  0.00     0.034 A 
ATOM     30  C   UNL     1       8.470  -9.327  -1.421  1.00  0.00     0.049 A 
ATOM     31  C   UNL     1       7.230  -8.805   4.116  1.00  0.00     0.074 A 
ATOM     32  C   UNL     1       9.234 -10.426  -1.764  1.00  0.00     0.029 A 
ATOM     33  N   UNL     1       8.274  -9.389  -0.044  1.00  0.00    -0.354 N 
ATOM     34  N   UNL     1       7.586  -9.033   2.869  1.00  0.00    -0.248 NA
ATOM     35  C   UNL     1       7.691  -9.818   5.069  1.00  0.00     0.031 C 
ATOM     36  C   UNL     1       9.443 -11.184  -0.605  1.00  0.00     0.029 A 
ATOM     37  C   UNL     1       8.879 -10.520   0.475  1.00  0.00     0.049 A 
ATOM     38  H   UNL     1       7.776  -8.723   0.484  1.00  0.00     0.167 HD
ATOM     39  C   UNL     1       8.328 -10.209   2.894  1.00  0.00     0.074 A 
ATOM     40  C   UNL     1       8.389 -10.624   4.283  1.00  0.00     0.031 C 
ATOM     41  C   UNL     1       8.905 -10.893   1.871  1.00  0.00     0.034 A 
BRANCH  28  42
ATOM     42  C   UNL     1       8.204  -8.305  -3.755  1.00  0.00     0.023 A 
ATOM     43  C   UNL     1       8.879  -7.256  -4.408  1.00  0.00     0.031 A 
ATOM     44  C   UNL     1       7.665  -9.334  -4.548  1.00  0.00     0.131 A 
ATOM     45  C   UNL     1       8.919  -7.217  -5.812  1.00  0.00     0.055 A 
ATOM     46  C   UNL     1       7.781  -9.331  -5.940  1.00  0.00     0.041 A 
ATOM     47  F   UNL     1       6.980 -10.342  -3.986  1.00  0.00    -0.206 F 
ATOM     48  C   UNL     1       8.395  -8.259  -6.581  1.00  0.00     0.022 A 
BRANCH  45  49
ATOM     49  S   UNL     1       9.512  -5.706  -6.624  1.00  0.00     0.124 S 
ATOM     50  O   UNL     1       8.563  -4.712  -6.128  1.00  0.00    -0.237 OA
ATOM     51  O   UNL     1      10.877  -5.591  -6.123  1.00  0.00    -0.237 OA
ATOM     52  O   UNL     1       9.394  -6.012  -8.049  1.00  0.00    -0.744 OA
ENDBRANCH  45  49
ENDBRANCH  28  42
BRANCH  29  53
ATOM     53  C   UNL     1       6.099  -7.564   6.132  1.00  0.00     0.023 A 
ATOM     54  C   UNL     1       7.106  -7.473   7.106  1.00  0.00     0.031 A 
ATOM     55  C   UNL     1       4.765  -7.628   6.578  1.00  0.00     0.131 A 
ATOM     56  C   UNL     1       6.767  -7.492   8.471  1.00  0.00     0.055 A 
ATOM     57  C   UNL     1       4.429  -7.585   7.933  1.00  0.00     0.041 A 
ATOM     58  F   UNL     1       3.756  -7.731   5.698  1.00  0.00    -0.206 F 
ATOM     59  C   UNL     1       5.436  -7.531   8.890  1.00  0.00     0.022 A 
BRANCH  56  60
ATOM     60  S   UNL     1       8.100  -7.570   9.701  1.00  0.00     0.124 S 
ATOM     61  O   UNL     1       8.827  -8.761   9.277  1.00  0.00    -0.237 OA
ATOM     62  O   UNL     1       8.778  -6.295   9.494  1.00  0.00    -0.237 OA
ATOM     63  O   UNL     1       7.385  -7.694  10.970  1.00  0.00    -0.744 OA
ENDBRANCH  56  60
ENDBRANCH  29  53
BRANCH  41  64
ATOM     64  C   UNL     1       9.677 -12.131   2.243  1.00  0.00     0.023 A 
ATOM     65  C   UNL     1       9.034 -13.277   2.740  1.00  0.00     0.031 A 
ATOM     66  C   UNL     1      11.075 -12.159   2.099  1.00  0.00     0.131 A 
ATOM     67  C   UNL     1       9.797 -14.385   3.132  1.00  0.00     0.055 A 
ATOM     68  C   UNL     1      11.822 -13.289   2.428  1.00  0.00     0.041 A 
ATOM     69  F   UNL     1      11.735 -11.089   1.627  1.00  0.00    -0.206 F 
ATOM     70  C   UNL     1      11.184 -14.406   2.961  1.00  0.00     0.022 A 
BRANCH  67  71
ATOM     71  S   UNL     1       8.959 -15.766   3.955  1.00  0.00     0.124 S 
ATOM     72  O   UNL     1       8.371 -15.112   5.120  1.00  0.00    -0.237 OA
ATOM     73  O   UNL     1       8.018 -16.215   2.933  1.00  0.00    -0.237 OA
ATOM     74  O   UNL     1      10.045 -16.699   4.249  1.00  0.00    -0.744 OA
ENDBRANCH  67  71
ENDBRANCH  41  64
ENDBRANCH  15  16
ENDBRANCH   8  10
ENDBRANCH   7   8
ENDBRANCH   6   7
ENDBRANCH   5   6
ENDBRANCH   4   5
ENDBRANCH   3   4
ENDBRANCH   2   3
ENDBRANCH   1   2
BRANCH   1  75
ATOM     75  C   UNL     1       4.040   2.625   3.033  1.00  0.00     0.188 C 
BRANCH  75  76
ATOM     76  C   UNL     1       4.774   1.371   3.558  1.00  0.00     0.188 C 
BRANCH  76  77
ATOM     77  O   UNL     1       3.927   0.324   4.011  1.00  0.00    -0.376 OA
BRANCH  77  78
ATOM     78  C   UNL     1       3.879   0.143   5.423  1.00  0.00     0.202 C 
BRANCH  78  79
ATOM     79  C   UNL     1       3.016   1.181   6.154  1.00  0.00     0.261 C 
BRANCH  79  80
ATOM     80  O   UNL     1       3.474   2.542   6.036  1.00  0.00    -0.460 OA
BRANCH  80  81
ATOM     81  C   UNL     1       4.676   2.843   6.573  1.00  0.00     0.339 C 
ATOM     82  O   UNL     1       5.390   2.110   7.235  1.00  0.00    -0.246 OA
BRANCH  81  83
ATOM     83  C   UNL     1       5.096   4.153   6.048  1.00  0.00     0.078 A 
ATOM     84  C   UNL     1       4.239   5.250   5.958  1.00  0.00     0.019 A 
ATOM     85  C   UNL     1       6.365   4.265   5.505  1.00  0.00     0.127 A 
ATOM     86  C   UNL     1       4.688   6.417   5.334  1.00  0.00     0.031 A 
ATOM     87  N   UNL     1       6.818   5.382   4.888  1.00  0.00    -0.254 NA
ATOM     88  C   UNL     1       5.982   6.454   4.812  1.00  0.00     0.094 A 
BRANCH  88  89
ATOM     89  C   UNL     1       6.508   7.726   4.143  1.00  0.00     0.318 C 
BRANCH  89  90
ATOM     90  N   UNL     1       7.971   7.715   4.025  1.00  0.00    -0.331 N 
ATOM     91  H   UNL     1       8.210   7.193   3.182  1.00  0.00     0.347 HD
ATOM     92  H   UNL     1       8.309   7.297   4.891  1.00  0.00     0.347 HD
BRANCH  90  93
ATOM     93  C   UNL     1       8.633   9.027   3.940  1.00  0.00     0.272 C 
ATOM     94  C   UNL     1       8.306   9.774   2.638  1.00  0.00     0.077 C 
ATOM     95  C   UNL     1       8.449   9.828   5.252  1.00  0.00     0.278 C 
ATOM     96  C   UNL     1       7.439  11.009   2.840  1.00  0.00     0.028 C 
ATOM     97  N   UNL     1       8.155  11.159   5.157  1.00  0.00    -0.351 N 
ATOM     98  O   UNL     1       8.546   9.315   6.367  1.00  0.00    -0.268 OA
ATOM     99  C   UNL     1       8.057  11.880   3.917  1.00  0.00     0.116 C 
ATOM    100  H   UNL     1       7.999  11.657   5.992  1.00  0.00     0.163 HD
ENDBRANCH  90  93
ENDBRANCH  89  90
ENDBRANCH  88  89
ENDBRANCH  81  83
ENDBRANCH  80  81
ENDBRANCH  79  80
ENDBRANCH  78  79
ENDBRANCH  77  78
ENDBRANCH  76  77
ENDBRANCH  75  76
ENDBRANCH   1  75
TORSDOF 26
