REMARK SMILES C[C@@H]1Cc2ccccc2N1c1ccc(F)cc1C(=O)OCCOCCOCCOCCOC(=O)c1ccc(-c2c3nc(c(-c4cc(S(=O)(=O)[O-])ccc4F)c4ccc([nH]4)c(-c4cc(S(=O)(=O)[O-])ccc4F)c4nc(c(-c5cc(S(=O)(=O)[O-])ccc5F)c5ccc2[nH]5)C=C4)C=C3)cc1
REMARK SMILES IDX 27 1 26 2 25 3 24 4 23 5 22 6 21 7 20 8 18 9 19 10 17 11
REMARK SMILES IDX 11 12 12 13 13 14 16 15 14 16 15 17 10 18 1 19 2 20 3 21
REMARK SMILES IDX 4 22 9 23 5 24 8 25 6 26 7 27 28 28 29 29 30 30 31 31 32 32
REMARK SMILES IDX 33 33 34 34 35 35 36 36 97 37 37 38 96 39 38 40 39 41 40 42
REMARK SMILES IDX 90 43 41 44 95 45 89 46 91 47 42 48 94 49 88 50 87 51 43 53
REMARK SMILES IDX 75 54 55 55 74 56 56 57 59 58 73 59 92 60 57 61 58 62 72 64
REMARK SMILES IDX 93 65 60 66 44 67 45 68 53 69 46 70 52 71 54 72 51 73 47 74
REMARK SMILES IDX 48 75 49 76 50 77 76 78 77 79 85 80 78 81 84 82 86 83 83 84
REMARK SMILES IDX 79 85 80 86 81 87 82 88 61 89 62 90 70 91 63 92 69 93 71 94
REMARK SMILES IDX 68 95 64 96 65 97 66 98 67 99
REMARK H PARENT 91 52 59 63
REMARK Flexibility Score: inf
ROOT
ATOM      1  C   UNL     1      -2.886   4.256   3.277  1.00  0.00     0.188 C 
ENDROOT
BRANCH   1   2
ATOM      2  O   UNL     1      -3.274   4.490   1.931  1.00  0.00    -0.377 OA
BRANCH   2   3
ATOM      3  C   UNL     1      -3.411   3.319   1.143  1.00  0.00     0.188 C 
BRANCH   3   4
ATOM      4  C   UNL     1      -4.490   2.330   1.609  1.00  0.00     0.188 C 
BRANCH   4   5
ATOM      5  O   UNL     1      -4.238   1.790   2.906  1.00  0.00    -0.376 OA
BRANCH   5   6
ATOM      6  C   UNL     1      -3.845   0.423   2.964  1.00  0.00     0.202 C 
BRANCH   6   7
ATOM      7  C   UNL     1      -2.349   0.214   2.739  1.00  0.00     0.261 C 
BRANCH   7   8
ATOM      8  O   UNL     1      -1.886   0.768   1.501  1.00  0.00    -0.460 OA
BRANCH   8   9
ATOM      9  C   UNL     1      -2.205   0.125   0.364  1.00  0.00     0.340 C 
ATOM     10  O   UNL     1      -2.858  -0.906   0.289  1.00  0.00    -0.246 OA
BRANCH   9  11
ATOM     11  C   UNL     1      -1.803   0.925  -0.826  1.00  0.00     0.086 A 
ATOM     12  C   UNL     1      -0.657   1.753  -0.922  1.00  0.00     0.056 A 
ATOM     13  C   UNL     1      -0.450   2.424  -2.151  1.00  0.00     0.030 A 
ATOM     14  C   UNL     1      -1.379   2.374  -3.192  1.00  0.00     0.041 A 
ATOM     15  C   UNL     1      -2.733   0.876  -1.885  1.00  0.00     0.057 A 
ATOM     16  C   UNL     1      -2.526   1.618  -3.037  1.00  0.00     0.124 A 
ATOM     17  F   UNL     1      -3.453   1.614  -4.004  1.00  0.00    -0.207 F 
BRANCH  12  18
ATOM     18  N   UNL     1       0.205   2.042   0.150  1.00  0.00    -0.337 N 
ATOM     19  C   UNL     1       0.931  -0.242   1.024  1.00  0.00     0.032 C 
ATOM     20  C   UNL     1       1.337   1.134   0.520  1.00  0.00     0.089 C 
ATOM     21  C   UNL     1       2.155   1.862   1.622  1.00  0.00     0.063 C 
ATOM     22  C   UNL     1       1.837   3.281   1.317  1.00  0.00    -0.022 A 
ATOM     23  C   UNL     1       0.703   3.339   0.506  1.00  0.00     0.045 A 
ATOM     24  C   UNL     1       2.486   4.422   1.765  1.00  0.00     0.006 A 
ATOM     25  C   UNL     1       0.193   4.578   0.135  1.00  0.00     0.026 A 
ATOM     26  C   UNL     1       1.997   5.662   1.356  1.00  0.00     0.000 A 
ATOM     27  C   UNL     1       0.857   5.740   0.545  1.00  0.00     0.002 A 
ENDBRANCH  12  18
ENDBRANCH   9  11
ENDBRANCH   8   9
ENDBRANCH   7   8
ENDBRANCH   6   7
ENDBRANCH   5   6
ENDBRANCH   4   5
ENDBRANCH   3   4
ENDBRANCH   2   3
ENDBRANCH   1   2
BRANCH   1  28
ATOM     28  C   UNL     1      -4.039   4.366   4.299  1.00  0.00     0.188 C 
BRANCH  28  29
ATOM     29  O   UNL     1      -5.247   5.081   4.036  1.00  0.00    -0.376 OA
BRANCH  29  30
ATOM     30  C   UNL     1      -5.363   5.928   2.909  1.00  0.00     0.202 C 
BRANCH  30  31
ATOM     31  C   UNL     1      -4.566   7.240   2.909  1.00  0.00     0.261 C 
BRANCH  31  32
ATOM     32  O   UNL     1      -3.262   7.177   3.495  1.00  0.00    -0.460 OA
BRANCH  32  33
ATOM     33  C   UNL     1      -3.212   7.426   4.828  1.00  0.00     0.338 C 
ATOM     34  O   UNL     1      -4.141   7.738   5.552  1.00  0.00    -0.246 OA
BRANCH  33  35
ATOM     35  C   UNL     1      -1.850   7.114   5.318  1.00  0.00     0.060 A 
ATOM     36  C   UNL     1      -0.715   7.589   4.655  1.00  0.00     0.016 A 
ATOM     37  C   UNL     1      -1.718   6.328   6.470  1.00  0.00     0.016 A 
ATOM     38  C   UNL     1       0.553   7.309   5.172  1.00  0.00     0.010 A 
ATOM     39  C   UNL     1      -0.451   6.029   6.972  1.00  0.00     0.010 A 
ATOM     40  C   UNL     1       0.691   6.546   6.345  1.00  0.00    -0.014 A 
BRANCH  40  41
ATOM     41  C   UNL     1       1.998   6.488   7.041  1.00  0.00     0.031 A 
ATOM     42  C   UNL     1       2.928   5.325   6.901  1.00  0.00     0.074 A 
ATOM     43  C   UNL     1       2.316   7.529   7.836  1.00  0.00     0.049 A 
ATOM     44  N   UNL     1       4.137   5.188   7.381  1.00  0.00    -0.248 NA
ATOM     45  C   UNL     1       2.449   4.167   6.133  1.00  0.00     0.031 C 
ATOM     46  C   UNL     1       1.457   8.693   8.060  1.00  0.00     0.029 A 
ATOM     47  N   UNL     1       3.430   7.786   8.593  1.00  0.00    -0.354 N 
ATOM     48  C   UNL     1       4.579   3.941   6.959  1.00  0.00     0.074 A 
ATOM     49  C   UNL     1       3.487   3.341   6.220  1.00  0.00     0.031 C 
ATOM     50  C   UNL     1       2.086   9.552   8.874  1.00  0.00     0.029 A 
ATOM     51  C   UNL     1       3.381   8.994   9.250  1.00  0.00     0.049 A 
ATOM     52  H   UNL     1       4.192   7.166   8.660  1.00  0.00     0.167 HD
ATOM     53  C   UNL     1       5.791   3.372   7.161  1.00  0.00     0.034 A 
ATOM     54  C   UNL     1       4.283   9.594  10.052  1.00  0.00     0.034 A 
ATOM     55  C   UNL     1       6.856   3.990   7.917  1.00  0.00     0.049 A 
ATOM     56  C   UNL     1       5.608   8.918  10.282  1.00  0.00     0.074 A 
ATOM     57  C   UNL     1       8.138   3.513   8.131  1.00  0.00     0.029 A 
ATOM     58  N   UNL     1       6.768   5.201   8.590  1.00  0.00    -0.354 N 
ATOM     59  N   UNL     1       6.058   7.793   9.777  1.00  0.00    -0.248 NA
ATOM     60  C   UNL     1       6.558   9.595  11.175  1.00  0.00     0.031 C 
ATOM     61  C   UNL     1       8.800   4.398   8.983  1.00  0.00     0.029 A 
ATOM     62  C   UNL     1       7.961   5.469   9.243  1.00  0.00     0.049 A 
ATOM     63  H   UNL     1       5.975   5.785   8.601  1.00  0.00     0.167 HD
ATOM     64  C   UNL     1       7.353   7.646  10.263  1.00  0.00     0.074 A 
ATOM     65  C   UNL     1       7.622   8.807  11.085  1.00  0.00     0.031 C 
ATOM     66  C   UNL     1       8.235   6.638  10.047  1.00  0.00     0.034 A 
BRANCH  53  67
ATOM     67  C   UNL     1       6.086   2.030   6.536  1.00  0.00     0.023 A 
ATOM     68  C   UNL     1       6.401   0.923   7.347  1.00  0.00     0.031 A 
ATOM     69  C   UNL     1       6.245   1.903   5.144  1.00  0.00     0.131 A 
ATOM     70  C   UNL     1       6.910  -0.245   6.763  1.00  0.00     0.055 A 
ATOM     71  C   UNL     1       6.718   0.724   4.565  1.00  0.00     0.041 A 
ATOM     72  F   UNL     1       5.958   2.930   4.327  1.00  0.00    -0.206 F 
ATOM     73  C   UNL     1       7.068  -0.350   5.377  1.00  0.00     0.022 A 
BRANCH  70  74
ATOM     74  S   UNL     1       7.454  -1.646   7.779  1.00  0.00     0.124 S 
ATOM     75  O   UNL     1       6.654  -2.740   7.232  1.00  0.00    -0.237 OA
ATOM     76  O   UNL     1       8.881  -1.705   7.477  1.00  0.00    -0.237 OA
ATOM     77  O   UNL     1       7.109  -1.246   9.139  1.00  0.00    -0.744 OA
ENDBRANCH  70  74
ENDBRANCH  53  67
BRANCH  54  78
ATOM     78  C   UNL     1       3.983  10.948  10.601  1.00  0.00     0.023 A 
ATOM     79  C   UNL     1       2.894  11.164  11.463  1.00  0.00     0.031 A 
ATOM     80  C   UNL     1       4.728  12.065  10.184  1.00  0.00     0.131 A 
ATOM     81  C   UNL     1       2.548  12.470  11.835  1.00  0.00     0.055 A 
ATOM     82  C   UNL     1       4.420  13.357  10.610  1.00  0.00     0.041 A 
ATOM     83  F   UNL     1       5.765  11.911   9.346  1.00  0.00    -0.206 F 
ATOM     84  C   UNL     1       3.314  13.566  11.427  1.00  0.00     0.022 A 
BRANCH  81  85
ATOM     85  S   UNL     1       1.018  12.802  12.752  1.00  0.00     0.124 S 
ATOM     86  O   UNL     1       1.527  13.370  13.996  1.00  0.00    -0.237 OA
ATOM     87  O   UNL     1       0.334  13.739  11.864  1.00  0.00    -0.237 OA
ATOM     88  O   UNL     1       0.393  11.488  12.866  1.00  0.00    -0.744 OA
ENDBRANCH  81  85
ENDBRANCH  54  78
BRANCH  66  89
ATOM     89  C   UNL     1       9.599   6.721  10.691  1.00  0.00     0.023 A 
ATOM     90  C   UNL     1      10.755   6.769   9.888  1.00  0.00     0.031 A 
ATOM     91  C   UNL     1       9.762   6.602  12.082  1.00  0.00     0.131 A 
ATOM     92  C   UNL     1      12.020   6.653  10.477  1.00  0.00     0.055 A 
ATOM     93  C   UNL     1      11.026   6.539  12.669  1.00  0.00     0.041 A 
ATOM     94  F   UNL     1       8.691   6.542  12.891  1.00  0.00    -0.206 F 
ATOM     95  C   UNL     1      12.162   6.548  11.864  1.00  0.00     0.022 A 
BRANCH  92  96
ATOM     96  S   UNL     1      13.520   6.541   9.463  1.00  0.00     0.124 S 
ATOM     97  O   UNL     1      14.276   7.708   9.911  1.00  0.00    -0.237 OA
ATOM     98  O   UNL     1      14.069   5.249   9.868  1.00  0.00    -0.237 OA
ATOM     99  O   UNL     1      13.025   6.610   8.092  1.00  0.00    -0.744 OA
ENDBRANCH  92  96
ENDBRANCH  66  89
ENDBRANCH  40  41
ENDBRANCH  33  35
ENDBRANCH  32  33
ENDBRANCH  31  32
ENDBRANCH  30  31
ENDBRANCH  29  30
ENDBRANCH  28  29
ENDBRANCH   1  28
TORSDOF 24
