REMARK SMILES Cc1ccc(S(=O)(=O)n2cc(C(=O)C(=O)N[C@@H](Cc3c[nH]c4ccccc34)C(=O)OCCOCCOCCOCCOC(=O)c3ccc(-c4c5nc(c(-c6cc(S(=O)(=O)[O-])ccc6F)c6ccc([nH]6)c(-c6cc(S(=O)(=O)[O-])ccc6F)c6nc(c(-c7cc(S(=O)(=O)[O-])ccc7F)c7ccc4[nH]7)C=C6)C=C5)cc3)c3ccccc32)cc1
REMARK SMILES IDX 35 1 34 2 33 3 32 4 31 5 30 6 28 7 29 8 17 9 16 10 14 11
REMARK SMILES IDX 15 12 12 14 13 15 11 16 9 17 10 18 113 19 108 20 112 21
REMARK SMILES IDX 109 22 111 23 110 24 6 25 7 26 8 27 5 28 1 29 2 30 3 31
REMARK SMILES IDX 115 32 4 33 114 34 18 35 19 36 20 37 27 38 21 39 22 40 26 41
REMARK SMILES IDX 23 43 25 44 24 45 36 46 37 47 38 48 39 49 40 50 41 51 42 52
REMARK SMILES IDX 43 53 44 54 45 55 46 56 107 57 47 58 106 59 48 60 49 61
REMARK SMILES IDX 50 62 100 63 51 64 105 65 99 66 101 67 52 68 104 69 98 70
REMARK SMILES IDX 97 71 53 73 85 74 65 75 84 76 66 77 69 78 83 79 102 80 67 81
REMARK SMILES IDX 68 82 82 84 103 85 70 86 54 87 55 88 63 89 56 90 62 91 64 92
REMARK SMILES IDX 61 93 57 94 58 95 59 96 60 97 86 98 87 99 95 100 88 101
REMARK SMILES IDX 94 102 96 103 93 104 89 105 90 106 91 107 92 108 71 109
REMARK SMILES IDX 72 110 80 111 73 112 79 113 81 114 78 115 74 116 75 117
REMARK SMILES IDX 76 118 77 119
REMARK H PARENT 16 13 21 42 101 72 69 83
REMARK Flexibility Score: inf
ROOT
ATOM      1  C   UNL     1      -8.635   1.809  -2.043  1.00  0.00     0.188 C 
ENDROOT
BRANCH   1   2
ATOM      2  C   UNL     1      -9.044   0.498  -2.699  1.00  0.00     0.188 C 
BRANCH   2   3
ATOM      3  O   UNL     1     -10.289   0.583  -3.367  1.00  0.00    -0.376 OA
BRANCH   3   4
ATOM      4  C   UNL     1     -11.226  -0.378  -2.889  1.00  0.00     0.202 C 
BRANCH   4   5
ATOM      5  C   UNL     1     -11.888  -0.100  -1.523  1.00  0.00     0.261 C 
BRANCH   5   6
ATOM      6  O   UNL     1     -11.137   0.697  -0.600  1.00  0.00    -0.462 OA
BRANCH   6   7
ATOM      7  C   UNL     1     -11.332   0.345   0.698  1.00  0.00     0.329 C 
ATOM      8  O   UNL     1     -11.954  -0.648   1.070  1.00  0.00    -0.250 OA
BRANCH   7   9
ATOM      9  C   UNL     1     -10.669   1.295   1.714  1.00  0.00     0.197 C 
BRANCH   9  10
ATOM     10  N   UNL     1      -9.731   2.357   1.268  1.00  0.00    -0.335 N 
ATOM     11  C   UNL     1      -8.355   2.225   1.071  1.00  0.00     0.293 C 
ATOM     12  O   UNL     1      -7.580   3.171   1.096  1.00  0.00    -0.265 OA
ATOM     13  H   UNL     1     -10.119   3.245   1.095  1.00  0.00     0.164 HD
BRANCH  11  14
ATOM     14  C   UNL     1      -7.840   0.834   0.711  1.00  0.00     0.252 C 
ATOM     15  O   UNL     1      -8.717  -0.022   0.594  1.00  0.00    -0.283 OA
BRANCH  14  16
ATOM     16  C   UNL     1      -6.470   0.377   0.471  1.00  0.00     0.054 A 
ATOM     17  N   UNL     1      -4.382  -0.274   0.817  1.00  0.00    -0.240 N 
ATOM     18  C   UNL     1      -5.163   0.867   0.592  1.00  0.00     0.117 A 
ATOM     19  C   UNL     1      -5.260  -1.373   0.850  1.00  0.00     0.065 A 
ATOM     20  C   UNL     1      -6.290  -0.964   0.037  1.00  0.00     0.012 A 
ATOM     21  C   UNL     1      -5.086  -2.724   1.186  1.00  0.00     0.028 A 
ATOM     22  C   UNL     1      -7.024  -1.931  -0.676  1.00  0.00     0.011 A 
ATOM     23  C   UNL     1      -5.804  -3.667   0.449  1.00  0.00     0.002 A 
ATOM     24  C   UNL     1      -6.718  -3.278  -0.518  1.00  0.00     0.001 A 
BRANCH  17  25
ATOM     25  S   UNL     1      -2.882  -0.786   0.161  1.00  0.00     0.268 S 
ATOM     26  O   UNL     1      -3.221  -1.186  -1.197  1.00  0.00    -0.201 OA
ATOM     27  O   UNL     1      -2.512  -1.783   1.166  1.00  0.00    -0.201 OA
BRANCH  25  28
ATOM     28  C   UNL     1      -1.332  -0.010  -0.011  1.00  0.00     0.088 A 
ATOM     29  C   UNL     1       2.915   0.682  -0.042  1.00  0.00     0.044 C 
ATOM     30  C   UNL     1       1.429   0.505  -0.114  1.00  0.00    -0.051 A 
ATOM     31  C   UNL     1       0.979  -0.785  -0.332  1.00  0.00     0.005 A 
ATOM     32  C   UNL     1       0.486   1.543   0.086  1.00  0.00     0.005 A 
ATOM     33  C   UNL     1      -0.375  -1.020  -0.308  1.00  0.00     0.022 A 
ATOM     34  C   UNL     1      -0.912   1.294   0.147  1.00  0.00     0.022 A 
ENDBRANCH  25  28
ENDBRANCH  17  25
ENDBRANCH  14  16
ENDBRANCH  11  14
ENDBRANCH   9  10
BRANCH   9  35
ATOM     35  C   UNL     1     -11.732   1.745   2.742  1.00  0.00     0.074 C 
BRANCH  35  36
ATOM     36  C   UNL     1     -12.534   2.976   2.458  1.00  0.00    -0.020 A 
ATOM     37  C   UNL     1     -13.897   3.008   2.238  1.00  0.00     0.087 A 
ATOM     38  C   UNL     1     -12.089   4.340   2.449  1.00  0.00     0.003 A 
ATOM     39  N   UNL     1     -14.285   4.311   2.095  1.00  0.00    -0.361 N 
ATOM     40  C   UNL     1     -13.195   5.143   2.170  1.00  0.00     0.046 A 
ATOM     41  C   UNL     1     -10.840   4.970   2.629  1.00  0.00     0.010 A 
ATOM     42  H   UNL     1     -15.213   4.611   1.958  1.00  0.00     0.166 HD
ATOM     43  C   UNL     1     -13.104   6.531   2.008  1.00  0.00     0.026 A 
ATOM     44  C   UNL     1     -10.716   6.341   2.395  1.00  0.00     0.001 A 
ATOM     45  C   UNL     1     -11.835   7.110   2.093  1.00  0.00     0.002 A 
ENDBRANCH  35  36
ENDBRANCH   9  35
ENDBRANCH   7   9
ENDBRANCH   6   7
ENDBRANCH   5   6
ENDBRANCH   4   5
ENDBRANCH   3   4
ENDBRANCH   2   3
ENDBRANCH   1   2
BRANCH   1  46
ATOM     46  O   UNL     1      -8.232   2.836  -2.911  1.00  0.00    -0.377 OA
BRANCH  46  47
ATOM     47  C   UNL     1      -9.347   3.606  -3.352  1.00  0.00     0.188 C 
BRANCH  47  48
ATOM     48  C   UNL     1      -8.891   4.291  -4.601  1.00  0.00     0.188 C 
BRANCH  48  49
ATOM     49  O   UNL     1      -8.511   3.220  -5.476  1.00  0.00    -0.376 OA
BRANCH  49  50
ATOM     50  C   UNL     1      -7.127   3.192  -5.782  1.00  0.00     0.202 C 
BRANCH  50  51
ATOM     51  C   UNL     1      -6.858   4.264  -6.835  1.00  0.00     0.261 C 
BRANCH  51  52
ATOM     52  O   UNL     1      -7.768   4.043  -7.945  1.00  0.00    -0.460 OA
BRANCH  52  53
ATOM     53  C   UNL     1      -8.812   4.912  -8.004  1.00  0.00     0.338 C 
ATOM     54  O   UNL     1      -8.686   6.135  -8.106  1.00  0.00    -0.246 OA
BRANCH  53  55
ATOM     55  C   UNL     1     -10.135   4.240  -7.804  1.00  0.00     0.060 A 
ATOM     56  C   UNL     1     -11.268   5.024  -7.522  1.00  0.00     0.016 A 
ATOM     57  C   UNL     1     -10.191   2.864  -7.582  1.00  0.00     0.016 A 
ATOM     58  C   UNL     1     -12.381   4.463  -6.873  1.00  0.00     0.010 A 
ATOM     59  C   UNL     1     -11.235   2.345  -6.822  1.00  0.00     0.010 A 
ATOM     60  C   UNL     1     -12.326   3.137  -6.426  1.00  0.00    -0.014 A 
BRANCH  60  61
ATOM     61  C   UNL     1     -13.142   2.614  -5.302  1.00  0.00     0.031 A 
ATOM     62  C   UNL     1     -13.629   1.176  -5.239  1.00  0.00     0.074 A 
ATOM     63  C   UNL     1     -12.996   3.303  -4.146  1.00  0.00     0.049 A 
ATOM     64  N   UNL     1     -14.231   0.595  -4.241  1.00  0.00    -0.248 NA
ATOM     65  C   UNL     1     -13.530   0.279  -6.393  1.00  0.00     0.031 C 
ATOM     66  C   UNL     1     -12.598   2.668  -2.916  1.00  0.00     0.029 A 
ATOM     67  N   UNL     1     -12.823   4.633  -3.834  1.00  0.00    -0.354 N 
ATOM     68  C   UNL     1     -14.311  -0.777  -4.501  1.00  0.00     0.074 A 
ATOM     69  C   UNL     1     -13.981  -0.880  -5.901  1.00  0.00     0.031 C 
ATOM     70  C   UNL     1     -12.393   3.530  -1.924  1.00  0.00     0.029 A 
ATOM     71  C   UNL     1     -12.757   4.805  -2.440  1.00  0.00     0.049 A 
ATOM     72  H   UNL     1     -12.754   5.361  -4.493  1.00  0.00     0.167 HD
ATOM     73  C   UNL     1     -14.499  -1.701  -3.494  1.00  0.00     0.034 A 
ATOM     74  C   UNL     1     -13.623   5.612  -1.791  1.00  0.00     0.034 A 
ATOM     75  C   UNL     1     -14.895  -1.077  -2.207  1.00  0.00     0.049 A 
ATOM     76  C   UNL     1     -14.834   4.822  -1.263  1.00  0.00     0.074 A 
ATOM     77  C   UNL     1     -14.665  -1.329  -0.862  1.00  0.00     0.029 A 
ATOM     78  N   UNL     1     -15.630   0.115  -2.213  1.00  0.00    -0.354 N 
ATOM     79  N   UNL     1     -14.921   3.501  -1.199  1.00  0.00    -0.248 NA
ATOM     80  C   UNL     1     -16.040   5.448  -0.732  1.00  0.00     0.031 C 
ATOM     81  C   UNL     1     -15.091  -0.190  -0.105  1.00  0.00     0.029 A 
ATOM     82  C   UNL     1     -15.715   0.699  -0.967  1.00  0.00     0.049 A 
ATOM     83  H   UNL     1     -16.043   0.495  -3.022  1.00  0.00     0.167 HD
ATOM     84  C   UNL     1     -16.174   3.105  -0.768  1.00  0.00     0.074 A 
ATOM     85  C   UNL     1     -16.789   4.378  -0.407  1.00  0.00     0.031 C 
ATOM     86  C   UNL     1     -16.648   1.804  -0.759  1.00  0.00     0.034 A 
BRANCH  73  87
ATOM     87  C   UNL     1     -14.154  -3.226  -3.597  1.00  0.00     0.023 A 
ATOM     88  C   UNL     1     -14.495  -4.122  -2.546  1.00  0.00     0.031 A 
ATOM     89  C   UNL     1     -13.382  -3.833  -4.620  1.00  0.00     0.131 A 
ATOM     90  C   UNL     1     -14.065  -5.479  -2.528  1.00  0.00     0.055 A 
ATOM     91  C   UNL     1     -13.038  -5.201  -4.647  1.00  0.00     0.041 A 
ATOM     92  F   UNL     1     -12.845  -3.134  -5.625  1.00  0.00    -0.206 F 
ATOM     93  C   UNL     1     -13.365  -6.030  -3.592  1.00  0.00     0.022 A 
BRANCH  90  94
ATOM     94  S   UNL     1     -14.370  -6.525  -1.065  1.00  0.00     0.124 S 
ATOM     95  O   UNL     1     -13.459  -5.948  -0.083  1.00  0.00    -0.237 OA
ATOM     96  O   UNL     1     -15.794  -6.328  -0.825  1.00  0.00    -0.237 OA
ATOM     97  O   UNL     1     -14.007  -7.867  -1.523  1.00  0.00    -0.744 OA
ENDBRANCH  90  94
ENDBRANCH  73  87
BRANCH  74  98
ATOM     98  C   UNL     1     -13.251   7.018  -2.215  1.00  0.00     0.023 A 
ATOM     99  C   UNL     1     -11.939   7.370  -1.759  1.00  0.00     0.031 A 
ATOM    100  C   UNL     1     -13.579   7.439  -3.521  1.00  0.00     0.131 A 
ATOM    101  C   UNL     1     -10.938   7.765  -2.675  1.00  0.00     0.055 A 
ATOM    102  C   UNL     1     -12.581   7.868  -4.423  1.00  0.00     0.041 A 
ATOM    103  F   UNL     1     -14.796   7.184  -4.024  1.00  0.00    -0.206 F 
ATOM    104  C   UNL     1     -11.247   7.961  -4.021  1.00  0.00     0.022 A 
BRANCH 101 105
ATOM    105  S   UNL     1      -9.177   7.698  -2.173  1.00  0.00     0.124 S 
ATOM    106  O   UNL     1      -8.974   9.028  -1.610  1.00  0.00    -0.237 OA
ATOM    107  O   UNL     1      -9.152   6.593  -1.222  1.00  0.00    -0.237 OA
ATOM    108  O   UNL     1      -8.482   7.435  -3.432  1.00  0.00    -0.744 OA
ENDBRANCH 101 105
ENDBRANCH  74  98
BRANCH  86 109
ATOM    109  C   UNL     1     -18.112   1.359  -0.554  1.00  0.00     0.023 A 
ATOM    110  C   UNL     1     -19.173   2.253  -0.435  1.00  0.00     0.031 A 
ATOM    111  C   UNL     1     -18.507  -0.015  -0.554  1.00  0.00     0.131 A 
ATOM    112  C   UNL     1     -20.495   1.818  -0.222  1.00  0.00     0.055 A 
ATOM    113  C   UNL     1     -19.834  -0.448  -0.431  1.00  0.00     0.041 A 
ATOM    114  F   UNL     1     -17.637  -1.023  -0.698  1.00  0.00    -0.206 F 
ATOM    115  C   UNL     1     -20.843   0.474  -0.243  1.00  0.00     0.022 A 
BRANCH 112 116
ATOM    116  S   UNL     1     -21.725   3.084   0.160  1.00  0.00     0.124 S 
ATOM    117  O   UNL     1     -21.214   3.618   1.420  1.00  0.00    -0.237 OA
ATOM    118  O   UNL     1     -21.619   3.977  -0.990  1.00  0.00    -0.237 OA
ATOM    119  O   UNL     1     -22.975   2.336   0.259  1.00  0.00    -0.744 OA
ENDBRANCH 112 116
ENDBRANCH  86 109
ENDBRANCH  60  61
ENDBRANCH  53  55
ENDBRANCH  52  53
ENDBRANCH  51  52
ENDBRANCH  50  51
ENDBRANCH  49  50
ENDBRANCH  48  49
ENDBRANCH  47  48
ENDBRANCH  46  47
ENDBRANCH   1  46
TORSDOF 30
