REMARK SMILES C[C@H]1CCCN1c1cccc(OCC(=O)OCCOCCOCCOCCOC(=O)c2ccc(-c3c4nc(c(-c5cc(S(=O)(=O)[O-])ccc5F)c5ccc([nH]5)c(-c5cc(S(=O)(=O)[O-])ccc5F)c5nc(c(-c6cc(S(=O)(=O)[O-])ccc6F)c6ccc3[nH]6)C=C5)C=C4)cc2)c1
REMARK SMILES IDX 22 1 21 2 20 3 19 4 18 5 17 6 16 7 14 8 15 9 13 10 12 11
REMARK SMILES IDX 11 12 7 13 8 14 94 15 9 16 10 17 6 18 1 19 2 20 3 21 4 22
REMARK SMILES IDX 5 23 23 24 24 25 25 26 26 27 27 28 28 29 29 30 30 31 31 32
REMARK SMILES IDX 32 33 93 34 33 35 92 36 34 37 35 38 36 39 86 40 37 41 91 42
REMARK SMILES IDX 85 43 87 44 38 45 90 46 84 47 83 48 39 50 71 51 51 52 70 53
REMARK SMILES IDX 52 54 55 55 69 56 88 57 53 58 54 59 68 61 89 62 56 63 40 64
REMARK SMILES IDX 41 65 49 66 42 67 48 68 50 69 47 70 43 71 44 72 45 73 46 74
REMARK SMILES IDX 72 75 73 76 81 77 74 78 80 79 82 80 79 81 75 82 76 83 77 84
REMARK SMILES IDX 78 85 57 86 58 87 66 88 59 89 65 90 67 91 64 92 60 93 61 94
REMARK SMILES IDX 62 95 63 96
REMARK H PARENT 87 49 55 60
REMARK Flexibility Score: inf
ROOT
ATOM      1  O   UNL     1       4.503  -3.283   2.287  1.00  0.00    -0.377 OA
ENDROOT
BRANCH   1   2
ATOM      2  C   UNL     1       3.102  -3.105   2.432  1.00  0.00     0.188 C 
BRANCH   2   3
ATOM      3  C   UNL     1       2.677  -1.637   2.680  1.00  0.00     0.188 C 
BRANCH   3   4
ATOM      4  O   UNL     1       3.545  -0.686   3.276  1.00  0.00    -0.376 OA
BRANCH   4   5
ATOM      5  C   UNL     1       4.485  -1.160   4.217  1.00  0.00     0.202 C 
BRANCH   5   6
ATOM      6  C   UNL     1       3.976  -1.959   5.434  1.00  0.00     0.261 C 
BRANCH   6   7
ATOM      7  O   UNL     1       2.760  -2.716   5.249  1.00  0.00    -0.461 OA
BRANCH   7   8
ATOM      8  C   UNL     1       1.588  -2.129   5.612  1.00  0.00     0.344 C 
ATOM      9  O   UNL     1       1.504  -1.073   6.230  1.00  0.00    -0.248 OA
BRANCH   8  10
ATOM     10  C   UNL     1       0.342  -2.946   5.190  1.00  0.00     0.351 C 
BRANCH  10  11
ATOM     11  O   UNL     1       0.352  -3.845   4.093  1.00  0.00    -0.482 OA
BRANCH  11  12
ATOM     12  C   UNL     1      -0.176  -3.525   2.867  1.00  0.00     0.122 A 
ATOM     13  C   UNL     1      -0.700  -2.039   0.972  1.00  0.00     0.041 A 
ATOM     14  C   UNL     1      -0.909  -3.190   0.193  1.00  0.00     0.026 A 
ATOM     15  C   UNL     1      -0.399  -2.240   2.337  1.00  0.00     0.072 A 
ATOM     16  C   UNL     1      -0.759  -4.475   0.717  1.00  0.00     0.006 A 
ATOM     17  C   UNL     1      -0.369  -4.636   2.042  1.00  0.00     0.046 A 
BRANCH  13  18
ATOM     18  N   UNL     1      -0.787  -0.795   0.380  1.00  0.00    -0.369 N 
ATOM     19  C   UNL     1       1.157   0.643  -0.242  1.00  0.00     0.031 C 
ATOM     20  C   UNL     1      -0.032   0.430   0.702  1.00  0.00     0.079 C 
ATOM     21  C   UNL     1      -1.036   1.569   0.430  1.00  0.00     0.026 C 
ATOM     22  C   UNL     1      -2.336   0.892   0.024  1.00  0.00     0.023 C 
ATOM     23  C   UNL     1      -1.914  -0.477  -0.486  1.00  0.00     0.117 C 
ENDBRANCH  13  18
ENDBRANCH  11  12
ENDBRANCH  10  11
ENDBRANCH   8  10
ENDBRANCH   7   8
ENDBRANCH   6   7
ENDBRANCH   5   6
ENDBRANCH   4   5
ENDBRANCH   3   4
ENDBRANCH   2   3
ENDBRANCH   1   2
BRANCH   1  24
ATOM     24  C   UNL     1       4.933  -3.379   0.933  1.00  0.00     0.188 C 
BRANCH  24  25
ATOM     25  C   UNL     1       4.596  -2.135   0.102  1.00  0.00     0.188 C 
BRANCH  25  26
ATOM     26  O   UNL     1       3.189  -1.999  -0.052  1.00  0.00    -0.376 OA
BRANCH  26  27
ATOM     27  C   UNL     1       2.572  -2.246  -1.300  1.00  0.00     0.202 C 
BRANCH  27  28
ATOM     28  C   UNL     1       2.333  -3.716  -1.618  1.00  0.00     0.261 C 
BRANCH  28  29
ATOM     29  O   UNL     1       3.513  -4.500  -1.744  1.00  0.00    -0.460 OA
BRANCH  29  30
ATOM     30  C   UNL     1       4.496  -4.052  -2.552  1.00  0.00     0.338 C 
ATOM     31  O   UNL     1       4.469  -3.110  -3.321  1.00  0.00    -0.246 OA
BRANCH  30  32
ATOM     32  C   UNL     1       5.693  -4.769  -2.094  1.00  0.00     0.060 A 
ATOM     33  C   UNL     1       6.845  -4.036  -1.785  1.00  0.00     0.016 A 
ATOM     34  C   UNL     1       5.605  -6.142  -1.832  1.00  0.00     0.016 A 
ATOM     35  C   UNL     1       7.926  -4.686  -1.208  1.00  0.00     0.010 A 
ATOM     36  C   UNL     1       6.689  -6.795  -1.276  1.00  0.00     0.010 A 
ATOM     37  C   UNL     1       7.858  -6.070  -1.003  1.00  0.00    -0.014 A 
BRANCH  37  38
ATOM     38  C   UNL     1       9.109  -6.817  -0.821  1.00  0.00     0.031 A 
ATOM     39  C   UNL     1       9.766  -7.318  -2.074  1.00  0.00     0.074 A 
ATOM     40  C   UNL     1       9.614  -7.026   0.403  1.00  0.00     0.049 A 
ATOM     41  N   UNL     1      10.839  -8.042  -2.216  1.00  0.00    -0.248 NA
ATOM     42  C   UNL     1       9.107  -6.958  -3.344  1.00  0.00     0.031 C 
ATOM     43  C   UNL     1       9.034  -6.535   1.653  1.00  0.00     0.029 A 
ATOM     44  N   UNL     1      10.729  -7.714   0.791  1.00  0.00    -0.354 N 
ATOM     45  C   UNL     1      10.986  -8.217  -3.587  1.00  0.00     0.074 A 
ATOM     46  C   UNL     1       9.867  -7.573  -4.231  1.00  0.00     0.031 C 
ATOM     47  C   UNL     1       9.802  -6.948   2.677  1.00  0.00     0.029 A 
ATOM     48  C   UNL     1      10.898  -7.760   2.153  1.00  0.00     0.049 A 
ATOM     49  H   UNL     1      11.351  -8.136   0.156  1.00  0.00     0.167 HD
ATOM     50  C   UNL     1      11.981  -8.854  -4.244  1.00  0.00     0.034 A 
ATOM     51  C   UNL     1      11.829  -8.411   2.876  1.00  0.00     0.034 A 
ATOM     52  C   UNL     1      13.058  -9.515  -3.556  1.00  0.00     0.049 A 
ATOM     53  C   UNL     1      12.884  -9.189   2.123  1.00  0.00     0.074 A 
ATOM     54  C   UNL     1      14.125 -10.212  -4.087  1.00  0.00     0.029 A 
ATOM     55  N   UNL     1      13.189  -9.570  -2.171  1.00  0.00    -0.354 N 
ATOM     56  N   UNL     1      13.031  -9.342   0.824  1.00  0.00    -0.248 NA
ATOM     57  C   UNL     1      13.902  -9.871   2.928  1.00  0.00     0.031 C 
ATOM     58  C   UNL     1      14.858 -10.750  -3.025  1.00  0.00     0.029 A 
ATOM     59  C   UNL     1      14.302 -10.315  -1.829  1.00  0.00     0.049 A 
ATOM     60  H   UNL     1      12.578  -9.141  -1.530  1.00  0.00     0.167 HD
ATOM     61  C   UNL     1      14.180 -10.109   0.657  1.00  0.00     0.074 A 
ATOM     62  C   UNL     1      14.691 -10.373   1.989  1.00  0.00     0.031 C 
ATOM     63  C   UNL     1      14.769 -10.556  -0.483  1.00  0.00     0.034 A 
BRANCH  50  64
ATOM     64  C   UNL     1      11.892  -8.907  -5.748  1.00  0.00     0.023 A 
ATOM     65  C   UNL     1      11.920  -7.740  -6.534  1.00  0.00     0.031 A 
ATOM     66  C   UNL     1      11.707 -10.136  -6.403  1.00  0.00     0.131 A 
ATOM     67  C   UNL     1      11.693  -7.820  -7.916  1.00  0.00     0.055 A 
ATOM     68  C   UNL     1      11.566 -10.217  -7.790  1.00  0.00     0.041 A 
ATOM     69  F   UNL     1      11.632 -11.279  -5.704  1.00  0.00    -0.206 F 
ATOM     70  C   UNL     1      11.544  -9.053  -8.553  1.00  0.00     0.022 A 
BRANCH  67  71
ATOM     71  S   UNL     1      11.446  -6.282  -8.847  1.00  0.00     0.124 S 
ATOM     72  O   UNL     1      10.274  -5.719  -8.180  1.00  0.00    -0.237 OA
ATOM     73  O   UNL     1      12.703  -5.576  -8.632  1.00  0.00    -0.237 OA
ATOM     74  O   UNL     1      11.214  -6.743 -10.214  1.00  0.00    -0.744 OA
ENDBRANCH  67  71
ENDBRANCH  50  64
BRANCH  51  75
ATOM     75  C   UNL     1      11.797  -8.381   4.365  1.00  0.00     0.023 A 
ATOM     76  C   UNL     1      12.855  -7.833   5.105  1.00  0.00     0.031 A 
ATOM     77  C   UNL     1      10.720  -8.943   5.077  1.00  0.00     0.131 A 
ATOM     78  C   UNL     1      12.841  -7.902   6.508  1.00  0.00     0.055 A 
ATOM     79  C   UNL     1      10.683  -8.958   6.473  1.00  0.00     0.041 A 
ATOM     80  F   UNL     1       9.680  -9.483   4.422  1.00  0.00    -0.206 F 
ATOM     81  C   UNL     1      11.756  -8.448   7.197  1.00  0.00     0.022 A 
BRANCH  78  82
ATOM     82  S   UNL     1      14.310  -7.353   7.419  1.00  0.00     0.124 S 
ATOM     83  O   UNL     1      15.353  -8.184   6.829  1.00  0.00    -0.237 OA
ATOM     84  O   UNL     1      14.357  -5.932   7.089  1.00  0.00    -0.237 OA
ATOM     85  O   UNL     1      13.982  -7.657   8.810  1.00  0.00    -0.744 OA
ENDBRANCH  78  82
ENDBRANCH  51  75
BRANCH  63  86
ATOM     86  C   UNL     1      16.053 -11.329  -0.327  1.00  0.00     0.023 A 
ATOM     87  C   UNL     1      16.085 -12.592   0.286  1.00  0.00     0.031 A 
ATOM     88  C   UNL     1      17.261 -10.790  -0.805  1.00  0.00     0.131 A 
ATOM     89  C   UNL     1      17.311 -13.249   0.460  1.00  0.00     0.055 A 
ATOM     90  C   UNL     1      18.466 -11.481  -0.694  1.00  0.00     0.041 A 
ATOM     91  F   UNL     1      17.285  -9.586  -1.399  1.00  0.00    -0.206 F 
ATOM     92  C   UNL     1      18.498 -12.712  -0.045  1.00  0.00     0.022 A 
BRANCH  89  93
ATOM     93  S   UNL     1      17.346 -14.768   1.447  1.00  0.00     0.124 S 
ATOM     94  O   UNL     1      16.804 -14.312   2.723  1.00  0.00    -0.237 OA
ATOM     95  O   UNL     1      16.491 -15.663   0.675  1.00  0.00    -0.237 OA
ATOM     96  O   UNL     1      18.762 -15.130   1.468  1.00  0.00    -0.744 OA
ENDBRANCH  89  93
ENDBRANCH  63  86
ENDBRANCH  37  38
ENDBRANCH  30  32
ENDBRANCH  29  30
ENDBRANCH  28  29
ENDBRANCH  27  28
ENDBRANCH  26  27
ENDBRANCH  25  26
ENDBRANCH  24  25
ENDBRANCH   1  24
TORSDOF 26
