REMARK SMILES COc1ccc2c(c1)c(CC(=O)OCCOCCOCCOCCOC(=O)c1ccc(-c3c4nc(c(-c5cc(S(=O)(=O)[O-])ccc5F)c5ccc([nH]5)c(-c5cc(S(=O)(=O)[O-])ccc5F)c5nc(c(-c6cc(S(=O)(=O)[O-])ccc6F)c6ccc3[nH]6)C=C5)C=C4)cc1)c(C)n2Cc1ccn(C(F)F)c(=O)c1
REMARK SMILES IDX 18 1 17 2 16 3 15 4 14 5 13 6 11 7 12 8 10 9 9 10 3 11 4 12
REMARK SMILES IDX 8 13 5 14 7 15 6 16 93 17 91 18 92 19 2 20 1 21 94 22 95 23
REMARK SMILES IDX 96 24 104 25 97 26 102 27 98 28 103 29 99 30 100 31 101 32
REMARK SMILES IDX 19 33 20 34 21 35 22 36 23 37 24 38 25 39 26 40 27 41 28 42
REMARK SMILES IDX 29 43 90 44 30 45 89 46 31 47 32 48 33 49 83 50 34 51 88 52
REMARK SMILES IDX 82 53 84 54 35 55 87 56 81 57 80 58 36 60 68 61 48 62 67 63
REMARK SMILES IDX 49 64 52 65 66 66 85 67 50 68 51 69 65 71 86 72 53 73 37 74
REMARK SMILES IDX 38 75 46 76 39 77 45 78 47 79 44 80 40 81 41 82 42 83 43 84
REMARK SMILES IDX 69 85 70 86 78 87 71 88 77 89 79 90 76 91 72 92 73 93 74 94
REMARK SMILES IDX 75 95 54 96 55 97 63 98 56 99 62 100 64 101 61 102 57 103
REMARK SMILES IDX 58 104 59 105 60 106
REMARK H PARENT 84 59 52 70
REMARK Flexibility Score: inf
ROOT
ATOM      1  C   UNL     1      -1.135   2.622  -3.424  1.00  0.00     0.188 C 
ENDROOT
BRANCH   1   2
ATOM      2  C   UNL     1      -2.568   2.205  -3.730  1.00  0.00     0.188 C 
BRANCH   2   3
ATOM      3  O   UNL     1      -2.824   2.136  -5.116  1.00  0.00    -0.376 OA
BRANCH   3   4
ATOM      4  C   UNL     1      -3.357   3.266  -5.788  1.00  0.00     0.202 C 
BRANCH   4   5
ATOM      5  C   UNL     1      -2.739   4.680  -5.669  1.00  0.00     0.261 C 
BRANCH   5   6
ATOM      6  O   UNL     1      -2.177   5.091  -4.404  1.00  0.00    -0.463 OA
BRANCH   6   7
ATOM      7  C   UNL     1      -2.980   5.558  -3.425  1.00  0.00     0.310 C 
ATOM      8  O   UNL     1      -4.198   5.663  -3.553  1.00  0.00    -0.252 OA
BRANCH   7   9
ATOM      9  C   UNL     1      -2.289   5.853  -2.088  1.00  0.00     0.160 C 
BRANCH   9  10
ATOM     10  C   UNL     1      -0.774   5.798  -1.965  1.00  0.00    -0.008 A 
ATOM     11  C   UNL     1       0.645   2.756  -0.088  1.00  0.00     0.119 A 
ATOM     12  C   UNL     1       1.975   2.991  -0.406  1.00  0.00     0.048 A 
ATOM     13  C   UNL     1      -0.330   3.694  -0.454  1.00  0.00     0.057 A 
ATOM     14  C   UNL     1       2.351   4.148  -1.107  1.00  0.00     0.031 A 
ATOM     15  C   UNL     1       0.001   4.812  -1.258  1.00  0.00     0.007 A 
ATOM     16  C   UNL     1       1.352   5.054  -1.520  1.00  0.00     0.049 A 
ATOM     17  N   UNL     1       1.423   6.279  -2.173  1.00  0.00    -0.340 N 
ATOM     18  C   UNL     1       0.136   6.776  -2.351  1.00  0.00     0.020 A 
ATOM     19  C   UNL     1      -0.172   8.145  -2.847  1.00  0.00     0.065 C 
BRANCH  11  20
ATOM     20  O   UNL     1       0.154   1.648   0.549  1.00  0.00    -0.497 OA
ATOM     21  C   UNL     1       0.952   0.469   0.534  1.00  0.00     0.278 C 
ENDBRANCH  11  20
BRANCH  17  22
ATOM     22  C   UNL     1       2.686   7.008  -2.396  1.00  0.00     0.158 C 
BRANCH  22  23
ATOM     23  C   UNL     1       3.100   7.177  -3.839  1.00  0.00    -0.021 A 
ATOM     24  C   UNL     1       2.574   8.303  -4.584  1.00  0.00     0.024 A 
ATOM     25  C   UNL     1       4.006   6.387  -4.444  1.00  0.00     0.077 A 
ATOM     26  C   UNL     1       2.801   8.426  -5.895  1.00  0.00     0.095 A 
ATOM     27  C   UNL     1       4.375   6.592  -5.880  1.00  0.00     0.255 A 
ATOM     28  N   UNL     1       3.639   7.551  -6.555  1.00  0.00    -0.258 N 
ATOM     29  O   UNL     1       5.283   5.912  -6.347  1.00  0.00    -0.269 OA
BRANCH  28  30
ATOM     30  C   UNL     1       3.869   7.714  -7.971  1.00  0.00     0.451 C 
ATOM     31  F   UNL     1       5.049   8.349  -8.182  1.00  0.00    -0.185 F 
ATOM     32  F   UNL     1       3.918   6.521  -8.608  1.00  0.00    -0.185 F 
ENDBRANCH  28  30
ENDBRANCH  22  23
ENDBRANCH  17  22
ENDBRANCH   9  10
ENDBRANCH   7   9
ENDBRANCH   6   7
ENDBRANCH   5   6
ENDBRANCH   4   5
ENDBRANCH   3   4
ENDBRANCH   2   3
ENDBRANCH   1   2
BRANCH   1  33
ATOM     33  O   UNL     1      -0.055   1.890  -3.933  1.00  0.00    -0.377 OA
BRANCH  33  34
ATOM     34  C   UNL     1      -0.179   1.369  -5.229  1.00  0.00     0.188 C 
BRANCH  34  35
ATOM     35  C   UNL     1      -0.550  -0.115  -5.199  1.00  0.00     0.188 C 
BRANCH  35  36
ATOM     36  O   UNL     1      -0.043  -0.998  -4.187  1.00  0.00    -0.376 OA
BRANCH  36  37
ATOM     37  C   UNL     1       0.871  -0.536  -3.202  1.00  0.00     0.202 C 
BRANCH  37  38
ATOM     38  C   UNL     1       2.339  -0.396  -3.642  1.00  0.00     0.261 C 
BRANCH  38  39
ATOM     39  O   UNL     1       2.504   0.323  -4.868  1.00  0.00    -0.460 OA
BRANCH  39  40
ATOM     40  C   UNL     1       3.109  -0.318  -5.899  1.00  0.00     0.338 C 
ATOM     41  O   UNL     1       3.814  -1.313  -5.842  1.00  0.00    -0.246 OA
BRANCH  40  42
ATOM     42  C   UNL     1       2.493   0.225  -7.130  1.00  0.00     0.060 A 
ATOM     43  C   UNL     1       2.477   1.602  -7.375  1.00  0.00     0.016 A 
ATOM     44  C   UNL     1       1.652  -0.640  -7.843  1.00  0.00     0.016 A 
ATOM     45  C   UNL     1       1.503   2.116  -8.229  1.00  0.00     0.010 A 
ATOM     46  C   UNL     1       0.675  -0.118  -8.692  1.00  0.00     0.010 A 
ATOM     47  C   UNL     1       0.563   1.265  -8.845  1.00  0.00    -0.014 A 
BRANCH  47  48
ATOM     48  C   UNL     1      -0.335   1.866  -9.842  1.00  0.00     0.031 A 
ATOM     49  C   UNL     1       0.418   2.433 -10.993  1.00  0.00     0.074 A 
ATOM     50  C   UNL     1      -1.680   1.808  -9.930  1.00  0.00     0.049 A 
ATOM     51  N   UNL     1       0.461   3.655 -11.414  1.00  0.00    -0.248 NA
ATOM     52  C   UNL     1       1.355   1.516 -11.660  1.00  0.00     0.031 C 
ATOM     53  C   UNL     1      -2.606   0.997  -9.141  1.00  0.00     0.029 A 
ATOM     54  N   UNL     1      -2.497   2.402 -10.859  1.00  0.00    -0.354 N 
ATOM     55  C   UNL     1       1.326   3.633 -12.505  1.00  0.00     0.074 A 
ATOM     56  C   UNL     1       1.974   2.345 -12.492  1.00  0.00     0.031 C 
ATOM     57  C   UNL     1      -3.810   0.977  -9.761  1.00  0.00     0.029 A 
ATOM     58  C   UNL     1      -3.772   1.857 -10.922  1.00  0.00     0.049 A 
ATOM     59  H   UNL     1      -2.204   3.148 -11.431  1.00  0.00     0.167 HD
ATOM     60  C   UNL     1       1.325   4.590 -13.472  1.00  0.00     0.034 A 
ATOM     61  C   UNL     1      -4.690   2.034 -11.907  1.00  0.00     0.034 A 
ATOM     62  C   UNL     1       0.657   5.788 -13.051  1.00  0.00     0.049 A 
ATOM     63  C   UNL     1      -4.322   3.217 -12.719  1.00  0.00     0.074 A 
ATOM     64  C   UNL     1       0.850   6.702 -12.034  1.00  0.00     0.029 A 
ATOM     65  N   UNL     1      -0.600   6.033 -13.543  1.00  0.00    -0.354 N 
ATOM     66  N   UNL     1      -4.445   4.456 -12.339  1.00  0.00    -0.248 NA
ATOM     67  C   UNL     1      -3.494   3.008 -13.897  1.00  0.00     0.031 C 
ATOM     68  C   UNL     1      -0.453   7.154 -11.679  1.00  0.00     0.029 A 
ATOM     69  C   UNL     1      -1.367   6.495 -12.503  1.00  0.00     0.049 A 
ATOM     70  H   UNL     1      -0.897   5.902 -14.472  1.00  0.00     0.167 HD
ATOM     71  C   UNL     1      -3.372   5.106 -12.926  1.00  0.00     0.074 A 
ATOM     72  C   UNL     1      -2.925   4.211 -13.986  1.00  0.00     0.031 C 
ATOM     73  C   UNL     1      -2.767   6.167 -12.313  1.00  0.00     0.034 A 
BRANCH  60  74
ATOM     74  C   UNL     1       1.692   4.293 -14.904  1.00  0.00     0.023 A 
ATOM     75  C   UNL     1       1.734   2.979 -15.415  1.00  0.00     0.031 A 
ATOM     76  C   UNL     1       1.821   5.321 -15.854  1.00  0.00     0.131 A 
ATOM     77  C   UNL     1       1.968   2.715 -16.767  1.00  0.00     0.055 A 
ATOM     78  C   UNL     1       1.971   5.061 -17.223  1.00  0.00     0.041 A 
ATOM     79  F   UNL     1       1.751   6.610 -15.487  1.00  0.00    -0.206 F 
ATOM     80  C   UNL     1       2.060   3.752 -17.686  1.00  0.00     0.022 A 
BRANCH  77  81
ATOM     81  S   UNL     1       2.177   1.005 -17.335  1.00  0.00     0.124 S 
ATOM     82  O   UNL     1       1.011   0.833 -18.194  1.00  0.00    -0.237 OA
ATOM     83  O   UNL     1       3.466   1.072 -18.018  1.00  0.00    -0.237 OA
ATOM     84  O   UNL     1       2.176   0.232 -16.096  1.00  0.00    -0.744 OA
ENDBRANCH  77  81
ENDBRANCH  60  74
BRANCH  61  85
ATOM     85  C   UNL     1      -5.679   1.050 -12.411  1.00  0.00     0.023 A 
ATOM     86  C   UNL     1      -5.415  -0.325 -12.296  1.00  0.00     0.031 A 
ATOM     87  C   UNL     1      -6.730   1.432 -13.266  1.00  0.00     0.131 A 
ATOM     88  C   UNL     1      -6.145  -1.260 -13.040  1.00  0.00     0.055 A 
ATOM     89  C   UNL     1      -7.466   0.495 -14.003  1.00  0.00     0.041 A 
ATOM     90  F   UNL     1      -7.022   2.728 -13.455  1.00  0.00    -0.206 F 
ATOM     91  C   UNL     1      -7.167  -0.860 -13.900  1.00  0.00     0.022 A 
BRANCH  88  92
ATOM     92  S   UNL     1      -5.721  -3.019 -12.930  1.00  0.00     0.124 S 
ATOM     93  O   UNL     1      -7.032  -3.663 -12.959  1.00  0.00    -0.237 OA
ATOM     94  O   UNL     1      -4.903  -3.202 -14.123  1.00  0.00    -0.237 OA
ATOM     95  O   UNL     1      -5.018  -3.115 -11.654  1.00  0.00    -0.744 OA
ENDBRANCH  88  92
ENDBRANCH  61  85
BRANCH  73  96
ATOM     96  C   UNL     1      -3.479   6.852 -11.164  1.00  0.00     0.023 A 
ATOM     97  C   UNL     1      -3.502   8.260 -11.156  1.00  0.00     0.031 A 
ATOM     98  C   UNL     1      -3.970   6.193 -10.019  1.00  0.00     0.131 A 
ATOM     99  C   UNL     1      -3.986   8.957 -10.040  1.00  0.00     0.055 A 
ATOM    100  C   UNL     1      -4.533   6.891  -8.946  1.00  0.00     0.041 A 
ATOM    101  F   UNL     1      -3.844   4.868  -9.858  1.00  0.00    -0.206 F 
ATOM    102  C   UNL     1      -4.530   8.280  -8.947  1.00  0.00     0.022 A 
BRANCH  99 103
ATOM    103  S   UNL     1      -3.768  10.751  -9.907  1.00  0.00     0.124 S 
ATOM    104  O   UNL     1      -5.145  11.235  -9.952  1.00  0.00    -0.237 OA
ATOM    105  O   UNL     1      -3.098  10.886  -8.614  1.00  0.00    -0.237 OA
ATOM    106  O   UNL     1      -2.943  11.094 -11.061  1.00  0.00    -0.744 OA
ENDBRANCH  99 103
ENDBRANCH  73  96
ENDBRANCH  47  48
ENDBRANCH  40  42
ENDBRANCH  39  40
ENDBRANCH  38  39
ENDBRANCH  37  38
ENDBRANCH  36  37
ENDBRANCH  35  36
ENDBRANCH  34  35
ENDBRANCH  33  34
ENDBRANCH   1  33
TORSDOF 28
