REMARK SMILES CCN(C(=O)C[N@@H+]1CCC[C@@H]1C(=O)OCCOCCOCCOCCOC(=O)c1ccc(-c2c3nc(c(-c4cc(S(=O)(=O)[O-])ccc4F)c4ccc([nH]4)c(-c4cc(S(=O)(=O)[O-])ccc4F)c4nc(c(-c5cc(S(=O)(=O)[O-])ccc5F)c5ccc2[nH]5)C=C4)C=C3)cc1)c1ccccc1C
REMARK SMILES IDX 19 1 18 2 17 3 16 4 15 5 14 6 12 7 13 8 11 9 7 10 8 11 9 13
REMARK SMILES IDX 10 14 6 15 4 16 5 17 3 18 2 19 1 20 92 21 93 22 97 23 94 24
REMARK SMILES IDX 96 25 98 26 95 27 20 28 21 29 22 30 23 31 24 32 25 33 26 34
REMARK SMILES IDX 27 35 28 36 29 37 30 38 91 39 31 40 90 41 32 42 33 43 34 44
REMARK SMILES IDX 84 45 35 46 89 47 83 48 85 49 36 50 88 51 82 52 81 53 37 55
REMARK SMILES IDX 69 56 49 57 68 58 50 59 53 60 67 61 86 62 51 63 52 64 66 66
REMARK SMILES IDX 87 67 54 68 38 69 39 70 47 71 40 72 46 73 48 74 45 75 41 76
REMARK SMILES IDX 42 77 43 78 44 79 70 80 71 81 79 82 72 83 78 84 80 85 77 86
REMARK SMILES IDX 73 87 74 88 75 89 76 90 55 91 56 92 64 93 57 94 63 95 65 96
REMARK SMILES IDX 62 97 58 98 59 99 60 100 61 101
REMARK H PARENT 7 12 85 54 53 65
REMARK Flexibility Score: inf
ROOT
ATOM      1  C   UNL     1       1.412   2.474   0.535  1.00  0.00     0.188 C 
ENDROOT
BRANCH   1   2
ATOM      2  C   UNL     1       2.372   1.843   1.546  1.00  0.00     0.188 C 
BRANCH   2   3
ATOM      3  O   UNL     1       3.520   1.327   0.922  1.00  0.00    -0.376 OA
BRANCH   3   4
ATOM      4  C   UNL     1       3.454  -0.036   0.571  1.00  0.00     0.202 C 
BRANCH   4   5
ATOM      5  C   UNL     1       2.143  -0.741   0.179  1.00  0.00     0.261 C 
BRANCH   5   6
ATOM      6  O   UNL     1       0.781  -0.380   0.537  1.00  0.00    -0.459 OA
BRANCH   6   7
ATOM      7  C   UNL     1       0.073  -0.665   1.653  1.00  0.00     0.365 C 
ATOM      8  O   UNL     1       0.523  -0.846   2.774  1.00  0.00    -0.245 OA
BRANCH   7   9
ATOM      9  C   UNL     1      -1.431  -0.686   1.433  1.00  0.00     0.295 C 
ATOM     10  N   UNL     1      -2.122  -2.008   1.504  1.00  0.00    -0.315 N 
ATOM     11  C   UNL     1      -3.400  -1.764   0.797  1.00  0.00     0.263 C 
ATOM     12  H   UNL     1      -2.163  -2.256   2.492  1.00  0.00     0.349 HD
ATOM     13  C   UNL     1      -3.074  -0.788  -0.326  1.00  0.00     0.068 C 
ATOM     14  C   UNL     1      -1.999   0.106   0.259  1.00  0.00     0.083 C 
BRANCH  10  15
ATOM     15  C   UNL     1      -1.473  -3.244   0.991  1.00  0.00     0.364 C 
BRANCH  15  16
ATOM     16  C   UNL     1      -0.058  -3.596   1.565  1.00  0.00     0.282 C 
ATOM     17  O   UNL     1       0.060  -3.924   2.749  1.00  0.00    -0.268 OA
BRANCH  16  18
ATOM     18  N   UNL     1       1.025  -3.613   0.655  1.00  0.00    -0.308 N 
BRANCH  18  19
ATOM     19  C   UNL     1       0.787  -3.677  -0.837  1.00  0.00     0.122 C 
ATOM     20  C   UNL     1       0.153  -2.490  -1.579  1.00  0.00     0.028 C 
ENDBRANCH  18  19
BRANCH  18  21
ATOM     21  C   UNL     1       2.388  -4.041   1.092  1.00  0.00     0.047 A 
ATOM     22  C   UNL     1       2.947  -5.081   0.321  1.00  0.00     0.026 A 
ATOM     23  C   UNL     1       3.280  -3.406   2.019  1.00  0.00    -0.027 A 
ATOM     24  C   UNL     1       4.311  -5.381   0.315  1.00  0.00     0.002 A 
ATOM     25  C   UNL     1       4.664  -3.728   1.982  1.00  0.00     0.005 A 
ATOM     26  C   UNL     1       3.036  -2.358   3.069  1.00  0.00     0.046 C 
ATOM     27  C   UNL     1       5.180  -4.673   1.117  1.00  0.00     0.000 A 
ENDBRANCH  18  21
ENDBRANCH  16  18
ENDBRANCH  15  16
ENDBRANCH  10  15
ENDBRANCH   7   9
ENDBRANCH   6   7
ENDBRANCH   5   6
ENDBRANCH   4   5
ENDBRANCH   3   4
ENDBRANCH   2   3
ENDBRANCH   1   2
BRANCH   1  28
ATOM     28  O   UNL     1       1.217   1.814  -0.712  1.00  0.00    -0.377 OA
BRANCH  28  29
ATOM     29  C   UNL     1       2.195   1.875  -1.750  1.00  0.00     0.188 C 
BRANCH  29  30
ATOM     30  C   UNL     1       3.364   2.858  -1.663  1.00  0.00     0.188 C 
BRANCH  30  31
ATOM     31  O   UNL     1       3.046   4.231  -1.473  1.00  0.00    -0.376 OA
BRANCH  31  32
ATOM     32  C   UNL     1       1.821   4.704  -2.019  1.00  0.00     0.202 C 
BRANCH  32  33
ATOM     33  C   UNL     1       1.811   4.934  -3.530  1.00  0.00     0.261 C 
BRANCH  33  34
ATOM     34  O   UNL     1       1.856   3.713  -4.291  1.00  0.00    -0.460 OA
BRANCH  34  35
ATOM     35  C   UNL     1       3.069   3.391  -4.811  1.00  0.00     0.338 C 
ATOM     36  O   UNL     1       4.099   4.021  -4.707  1.00  0.00    -0.246 OA
BRANCH  35  37
ATOM     37  C   UNL     1       3.001   2.050  -5.437  1.00  0.00     0.060 A 
ATOM     38  C   UNL     1       3.996   1.109  -5.135  1.00  0.00     0.016 A 
ATOM     39  C   UNL     1       2.033   1.770  -6.401  1.00  0.00     0.016 A 
ATOM     40  C   UNL     1       4.069  -0.089  -5.852  1.00  0.00     0.010 A 
ATOM     41  C   UNL     1       2.115   0.579  -7.126  1.00  0.00     0.010 A 
ATOM     42  C   UNL     1       3.162  -0.331  -6.891  1.00  0.00    -0.014 A 
BRANCH  42  43
ATOM     43  C   UNL     1       3.411  -1.404  -7.887  1.00  0.00     0.031 A 
ATOM     44  C   UNL     1       4.011  -1.010  -9.212  1.00  0.00     0.074 A 
ATOM     45  C   UNL     1       3.065  -2.681  -7.646  1.00  0.00     0.049 A 
ATOM     46  N   UNL     1       4.142  -1.710 -10.307  1.00  0.00    -0.248 NA
ATOM     47  C   UNL     1       4.518   0.369  -9.316  1.00  0.00     0.031 C 
ATOM     48  C   UNL     1       2.531  -3.188  -6.383  1.00  0.00     0.029 A 
ATOM     49  N   UNL     1       3.080  -3.780  -8.470  1.00  0.00    -0.354 N 
ATOM     50  C   UNL     1       4.713  -0.849 -11.241  1.00  0.00     0.074 A 
ATOM     51  C   UNL     1       4.896   0.426 -10.584  1.00  0.00     0.031 C 
ATOM     52  C   UNL     1       2.232  -4.491  -6.529  1.00  0.00     0.029 A 
ATOM     53  C   UNL     1       2.500  -4.896  -7.909  1.00  0.00     0.049 A 
ATOM     54  H   UNL     1       3.468  -3.771  -9.375  1.00  0.00     0.167 HD
ATOM     55  C   UNL     1       5.041  -1.102 -12.530  1.00  0.00     0.034 A 
ATOM     56  C   UNL     1       2.175  -6.083  -8.463  1.00  0.00     0.034 A 
ATOM     57  C   UNL     1       4.856  -2.384 -13.163  1.00  0.00     0.049 A 
ATOM     58  C   UNL     1       2.488  -6.316  -9.927  1.00  0.00     0.074 A 
ATOM     59  C   UNL     1       5.200  -2.765 -14.447  1.00  0.00     0.029 A 
ATOM     60  N   UNL     1       4.260  -3.487 -12.567  1.00  0.00    -0.354 N 
ATOM     61  N   UNL     1       3.051  -5.503 -10.793  1.00  0.00    -0.248 NA
ATOM     62  C   UNL     1       2.125  -7.625 -10.486  1.00  0.00     0.031 C 
ATOM     63  C   UNL     1       4.729  -4.064 -14.658  1.00  0.00     0.029 A 
ATOM     64  C   UNL     1       4.182  -4.531 -13.474  1.00  0.00     0.049 A 
ATOM     65  H   UNL     1       3.939  -3.522 -11.636  1.00  0.00     0.167 HD
ATOM     66  C   UNL     1       3.141  -6.221 -11.986  1.00  0.00     0.074 A 
ATOM     67  C   UNL     1       2.594  -7.534 -11.721  1.00  0.00     0.031 C 
ATOM     68  C   UNL     1       3.632  -5.835 -13.192  1.00  0.00     0.034 A 
BRANCH  55  69
ATOM     69  C   UNL     1       5.569   0.037 -13.367  1.00  0.00     0.023 A 
ATOM     70  C   UNL     1       6.810   0.645 -13.114  1.00  0.00     0.031 A 
ATOM     71  C   UNL     1       4.818   0.502 -14.462  1.00  0.00     0.131 A 
ATOM     72  C   UNL     1       7.244   1.708 -13.922  1.00  0.00     0.055 A 
ATOM     73  C   UNL     1       5.287   1.510 -15.304  1.00  0.00     0.041 A 
ATOM     74  F   UNL     1       3.612  -0.022 -14.734  1.00  0.00    -0.206 F 
ATOM     75  C   UNL     1       6.505   2.125 -15.032  1.00  0.00     0.022 A 
BRANCH  72  76
ATOM     76  S   UNL     1       8.744   2.609 -13.445  1.00  0.00     0.124 S 
ATOM     77  O   UNL     1       8.381   3.105 -12.120  1.00  0.00    -0.237 OA
ATOM     78  O   UNL     1       9.763   1.567 -13.479  1.00  0.00    -0.237 OA
ATOM     79  O   UNL     1       8.869   3.638 -14.476  1.00  0.00    -0.744 OA
ENDBRANCH  72  76
ENDBRANCH  55  69
BRANCH  56  80
ATOM     80  C   UNL     1       1.449  -7.124  -7.675  1.00  0.00     0.023 A 
ATOM     81  C   UNL     1       1.992  -8.406  -7.493  1.00  0.00     0.031 A 
ATOM     82  C   UNL     1       0.154  -6.886  -7.178  1.00  0.00     0.131 A 
ATOM     83  C   UNL     1       1.218  -9.418  -6.902  1.00  0.00     0.055 A 
ATOM     84  C   UNL     1      -0.583  -7.876  -6.525  1.00  0.00     0.041 A 
ATOM     85  F   UNL     1      -0.421  -5.681  -7.325  1.00  0.00    -0.206 F 
ATOM     86  C   UNL     1      -0.059  -9.158  -6.402  1.00  0.00     0.022 A 
BRANCH  83  87
ATOM     87  S   UNL     1       1.854 -11.117  -6.924  1.00  0.00     0.124 S 
ATOM     88  O   UNL     1       2.099 -11.320  -8.347  1.00  0.00    -0.237 OA
ATOM     89  O   UNL     1       3.037 -11.005  -6.078  1.00  0.00    -0.237 OA
ATOM     90  O   UNL     1       0.755 -11.897  -6.359  1.00  0.00    -0.744 OA
ENDBRANCH  83  87
ENDBRANCH  56  80
BRANCH  68  91
ATOM     91  C   UNL     1       3.650  -6.866 -14.296  1.00  0.00     0.023 A 
ATOM     92  C   UNL     1       2.467  -7.394 -14.841  1.00  0.00     0.031 A 
ATOM     93  C   UNL     1       4.877  -7.329 -14.809  1.00  0.00     0.131 A 
ATOM     94  C   UNL     1       2.535  -8.396 -15.821  1.00  0.00     0.055 A 
ATOM     95  C   UNL     1       4.937  -8.272 -15.835  1.00  0.00     0.041 A 
ATOM     96  F   UNL     1       6.039  -6.863 -14.325  1.00  0.00    -0.206 F 
ATOM     97  C   UNL     1       3.762  -8.823 -16.336  1.00  0.00     0.022 A 
BRANCH  94  98
ATOM     98  S   UNL     1       1.001  -9.212 -16.339  1.00  0.00     0.124 S 
ATOM     99  O   UNL     1       0.496  -9.738 -15.075  1.00  0.00    -0.237 OA
ATOM    100  O   UNL     1       0.241  -8.109 -16.918  1.00  0.00    -0.237 OA
ATOM    101  O   UNL     1       1.454 -10.221 -17.294  1.00  0.00    -0.744 OA
ENDBRANCH  94  98
ENDBRANCH  68  91
ENDBRANCH  42  43
ENDBRANCH  35  37
ENDBRANCH  34  35
ENDBRANCH  33  34
ENDBRANCH  32  33
ENDBRANCH  31  32
ENDBRANCH  30  31
ENDBRANCH  29  30
ENDBRANCH  28  29
ENDBRANCH   1  28
TORSDOF 28
