REMARK SMILES COc1ccc(-n2c(SCc3cn(-c4ccc(C(=O)OCCOCCOCCOCCOC(=O)c5ccc(-c6c7nc(c(-c8cc(S(=O)(=O)[O-])ccc8F)c8ccc([nH]8)c(-c8cc(S(=O)(=O)[O-])ccc8F)c8nc(c(-c9cc(S(=O)(=O)[O-])ccc9F)c9ccc6[nH]9)C=C8)C=C7)cc5)cc4)nn3)nc3ccccc3c2=O)cc1
REMARK SMILES IDX 24 1 23 2 22 3 21 4 20 5 18 6 19 7 17 8 14 9 15 10 99 11
REMARK SMILES IDX 16 12 98 13 13 14 11 15 12 16 101 17 100 18 10 19 9 20 8 21
REMARK SMILES IDX 7 22 109 23 102 24 108 25 110 26 103 27 107 28 104 29 106 30
REMARK SMILES IDX 105 31 6 32 3 33 4 34 112 35 5 36 111 37 2 38 1 39 25 40
REMARK SMILES IDX 26 41 27 42 28 43 29 44 30 45 31 46 32 47 33 48 34 49 35 50
REMARK SMILES IDX 36 51 97 52 37 53 96 54 38 55 39 56 40 57 90 58 41 59 95 60
REMARK SMILES IDX 89 61 91 62 42 63 94 64 88 65 87 66 43 68 75 69 55 70 74 71
REMARK SMILES IDX 56 72 59 73 73 74 92 75 57 76 58 77 72 79 93 80 60 81 44 82
REMARK SMILES IDX 45 83 53 84 46 85 52 86 54 87 51 88 47 89 48 90 49 91 50 92
REMARK SMILES IDX 76 93 77 94 85 95 78 96 84 97 86 98 83 99 79 100 80 101
REMARK SMILES IDX 81 102 82 103 61 104 62 105 70 106 63 107 69 108 71 109
REMARK SMILES IDX 68 110 64 111 65 112 66 113 67 114
REMARK H PARENT 91 67 59 78
REMARK Flexibility Score: inf
ROOT
ATOM      1  C   UNL     1      -5.157   1.708  -5.935  1.00  0.00     0.188 C 
ENDROOT
BRANCH   1   2
ATOM      2  O   UNL     1      -6.316   1.398  -6.698  1.00  0.00    -0.376 OA
BRANCH   2   3
ATOM      3  C   UNL     1      -7.202   0.346  -6.354  1.00  0.00     0.202 C 
BRANCH   3   4
ATOM      4  C   UNL     1      -6.732  -1.038  -5.875  1.00  0.00     0.261 C 
BRANCH   4   5
ATOM      5  O   UNL     1      -5.414  -1.114  -5.341  1.00  0.00    -0.460 OA
BRANCH   5   6
ATOM      6  C   UNL     1      -4.438  -1.417  -6.224  1.00  0.00     0.338 C 
ATOM      7  O   UNL     1      -4.563  -1.745  -7.388  1.00  0.00    -0.246 OA
BRANCH   6   8
ATOM      8  C   UNL     1      -3.149  -1.056  -5.590  1.00  0.00     0.060 A 
ATOM      9  C   UNL     1      -0.803  -0.141  -4.460  1.00  0.00     0.066 A 
ATOM     10  C   UNL     1      -1.054   0.127  -5.807  1.00  0.00     0.029 A 
ATOM     11  C   UNL     1      -1.710  -0.852  -3.664  1.00  0.00     0.029 A 
ATOM     12  C   UNL     1      -2.230  -0.342  -6.373  1.00  0.00     0.018 A 
ATOM     13  C   UNL     1      -2.900  -1.300  -4.232  1.00  0.00     0.018 A 
BRANCH   9  14
ATOM     14  N   UNL     1       0.523  -0.076  -4.041  1.00  0.00    -0.220 N 
ATOM     15  C   UNL     1       2.607  -0.600  -3.796  1.00  0.00     0.093 A 
ATOM     16  C   UNL     1       1.423  -1.065  -4.301  1.00  0.00     0.141 A 
ATOM     17  N   UNL     1       2.403   0.671  -3.314  1.00  0.00    -0.134 NA
ATOM     18  N   UNL     1       1.127   0.996  -3.512  1.00  0.00    -0.062 NA
BRANCH  15  19
ATOM     19  C   UNL     1       3.921  -1.256  -3.694  1.00  0.00     0.138 C 
BRANCH  19  20
ATOM     20  S   UNL     1       4.385  -2.287  -5.074  1.00  0.00    -0.081 SA
BRANCH  20  21
ATOM     21  C   UNL     1       3.107  -3.497  -5.327  1.00  0.00     0.176 A 
ATOM     22  N   UNL     1       3.039  -4.529  -4.400  1.00  0.00    -0.255 N 
ATOM     23  C   UNL     1       3.341  -5.811  -4.843  1.00  0.00     0.266 A 
ATOM     24  N   UNL     1       2.853  -3.711  -6.583  1.00  0.00    -0.223 NA
ATOM     25  C   UNL     1       3.986  -5.826  -6.179  1.00  0.00     0.066 A 
ATOM     26  O   UNL     1       3.162  -6.862  -4.239  1.00  0.00    -0.268 OA
ATOM     27  C   UNL     1       3.614  -4.797  -7.056  1.00  0.00     0.079 A 
ATOM     28  C   UNL     1       5.077  -6.644  -6.460  1.00  0.00     0.016 A 
ATOM     29  C   UNL     1       4.275  -4.652  -8.273  1.00  0.00     0.029 A 
ATOM     30  C   UNL     1       5.799  -6.421  -7.635  1.00  0.00     0.001 A 
ATOM     31  C   UNL     1       5.385  -5.448  -8.551  1.00  0.00     0.002 A 
BRANCH  22  32
ATOM     32  C   UNL     1       2.296  -4.335  -3.208  1.00  0.00     0.052 A 
ATOM     33  C   UNL     1       0.965  -3.075  -1.115  1.00  0.00     0.119 A 
ATOM     34  C   UNL     1       0.230  -3.594  -2.177  1.00  0.00     0.048 A 
ATOM     35  C   UNL     1       2.324  -3.361  -1.002  1.00  0.00     0.048 A 
ATOM     36  C   UNL     1       0.898  -4.208  -3.243  1.00  0.00     0.030 A 
ATOM     37  C   UNL     1       2.988  -4.014  -2.042  1.00  0.00     0.030 A 
BRANCH  33  38
ATOM     38  O   UNL     1       0.319  -2.305  -0.188  1.00  0.00    -0.497 OA
ATOM     39  C   UNL     1       0.823  -0.960  -0.169  1.00  0.00     0.278 C 
ENDBRANCH  33  38
ENDBRANCH  22  32
ENDBRANCH  20  21
ENDBRANCH  19  20
ENDBRANCH  15  19
ENDBRANCH   9  14
ENDBRANCH   6   8
ENDBRANCH   5   6
ENDBRANCH   4   5
ENDBRANCH   3   4
ENDBRANCH   2   3
ENDBRANCH   1   2
BRANCH   1  40
ATOM     40  C   UNL     1      -5.149   1.656  -4.392  1.00  0.00     0.188 C 
BRANCH  40  41
ATOM     41  O   UNL     1      -6.332   1.108  -3.836  1.00  0.00    -0.377 OA
BRANCH  41  42
ATOM     42  C   UNL     1      -7.303   2.067  -3.422  1.00  0.00     0.188 C 
BRANCH  42  43
ATOM     43  C   UNL     1      -7.636   3.238  -4.384  1.00  0.00     0.188 C 
BRANCH  43  44
ATOM     44  O   UNL     1      -6.500   3.840  -5.001  1.00  0.00    -0.376 OA
BRANCH  44  45
ATOM     45  C   UNL     1      -6.089   5.158  -4.675  1.00  0.00     0.202 C 
BRANCH  45  46
ATOM     46  C   UNL     1      -5.365   5.317  -3.343  1.00  0.00     0.261 C 
BRANCH  46  47
ATOM     47  O   UNL     1      -5.997   4.618  -2.291  1.00  0.00    -0.460 OA
BRANCH  47  48
ATOM     48  C   UNL     1      -7.233   5.060  -1.978  1.00  0.00     0.338 C 
ATOM     49  O   UNL     1      -7.893   5.886  -2.576  1.00  0.00    -0.246 OA
BRANCH  48  50
ATOM     50  C   UNL     1      -7.617   4.433  -0.710  1.00  0.00     0.060 A 
ATOM     51  C   UNL     1      -8.785   4.943  -0.152  1.00  0.00     0.016 A 
ATOM     52  C   UNL     1      -6.612   3.807   0.046  1.00  0.00     0.016 A 
ATOM     53  C   UNL     1      -8.759   5.188   1.192  1.00  0.00     0.010 A 
ATOM     54  C   UNL     1      -6.575   4.080   1.382  1.00  0.00     0.010 A 
ATOM     55  C   UNL     1      -7.593   4.874   1.897  1.00  0.00    -0.014 A 
BRANCH  55  56
ATOM     56  C   UNL     1      -7.487   5.355   3.246  1.00  0.00     0.031 A 
ATOM     57  C   UNL     1      -8.284   4.536   4.167  1.00  0.00     0.074 A 
ATOM     58  C   UNL     1      -6.691   6.380   3.590  1.00  0.00     0.049 A 
ATOM     59  N   UNL     1      -9.431   4.830   4.675  1.00  0.00    -0.248 NA
ATOM     60  C   UNL     1      -7.898   3.123   4.310  1.00  0.00     0.031 C 
ATOM     61  C   UNL     1      -5.673   7.061   2.788  1.00  0.00     0.029 A 
ATOM     62  N   UNL     1      -6.569   6.963   4.805  1.00  0.00    -0.354 N 
ATOM     63  C   UNL     1      -9.773   3.721   5.433  1.00  0.00     0.074 A 
ATOM     64  C   UNL     1      -8.970   2.642   4.935  1.00  0.00     0.031 C 
ATOM     65  C   UNL     1      -4.886   7.794   3.612  1.00  0.00     0.029 A 
ATOM     66  C   UNL     1      -5.423   7.728   4.963  1.00  0.00     0.049 A 
ATOM     67  H   UNL     1      -7.238   6.854   5.519  1.00  0.00     0.167 HD
ATOM     68  C   UNL     1     -10.433   3.871   6.611  1.00  0.00     0.034 A 
ATOM     69  C   UNL     1      -4.920   8.172   6.146  1.00  0.00     0.034 A 
ATOM     70  C   UNL     1     -11.072   5.173   6.678  1.00  0.00     0.049 A 
ATOM     71  C   UNL     1      -6.045   8.155   7.123  1.00  0.00     0.074 A 
ATOM     72  C   UNL     1     -11.997   5.832   5.887  1.00  0.00     0.029 A 
ATOM     73  N   UNL     1     -10.476   6.156   7.441  1.00  0.00    -0.354 N 
ATOM     74  N   UNL     1      -7.096   8.924   7.013  1.00  0.00    -0.248 NA
ATOM     75  C   UNL     1      -6.252   6.950   7.917  1.00  0.00     0.031 C 
ATOM     76  C   UNL     1     -11.566   7.192   5.864  1.00  0.00     0.029 A 
ATOM     77  C   UNL     1     -10.451   7.312   6.696  1.00  0.00     0.049 A 
ATOM     78  H   UNL     1     -10.130   6.049   8.356  1.00  0.00     0.167 HD
ATOM     79  C   UNL     1      -8.177   8.114   7.337  1.00  0.00     0.074 A 
ATOM     80  C   UNL     1      -7.588   6.943   7.984  1.00  0.00     0.031 C 
ATOM     81  C   UNL     1      -9.413   8.326   6.790  1.00  0.00     0.034 A 
BRANCH  68  82
ATOM     82  C   UNL     1     -10.137   3.035   7.839  1.00  0.00     0.023 A 
ATOM     83  C   UNL     1     -10.839   3.381   9.004  1.00  0.00     0.031 A 
ATOM     84  C   UNL     1      -9.048   2.148   8.024  1.00  0.00     0.131 A 
ATOM     85  C   UNL     1     -10.374   2.987  10.269  1.00  0.00     0.055 A 
ATOM     86  C   UNL     1      -8.629   1.706   9.281  1.00  0.00     0.041 A 
ATOM     87  F   UNL     1      -8.268   1.711   7.031  1.00  0.00    -0.206 F 
ATOM     88  C   UNL     1      -9.267   2.158  10.418  1.00  0.00     0.022 A 
BRANCH  85  89
ATOM     89  S   UNL     1     -11.135   3.749  11.719  1.00  0.00     0.124 S 
ATOM     90  O   UNL     1     -11.029   5.166  11.390  1.00  0.00    -0.237 OA
ATOM     91  O   UNL     1     -12.476   3.176  11.683  1.00  0.00    -0.237 OA
ATOM     92  O   UNL     1     -10.289   3.296  12.819  1.00  0.00    -0.744 OA
ENDBRANCH  85  89
ENDBRANCH  68  82
BRANCH  69  93
ATOM     93  C   UNL     1      -3.480   8.218   6.527  1.00  0.00     0.023 A 
ATOM     94  C   UNL     1      -2.993   8.998   7.597  1.00  0.00     0.031 A 
ATOM     95  C   UNL     1      -2.573   7.292   5.958  1.00  0.00     0.131 A 
ATOM     96  C   UNL     1      -1.658   8.841   8.043  1.00  0.00     0.055 A 
ATOM     97  C   UNL     1      -1.256   7.148   6.396  1.00  0.00     0.041 A 
ATOM     98  F   UNL     1      -2.962   6.430   5.005  1.00  0.00    -0.206 F 
ATOM     99  C   UNL     1      -0.794   7.918   7.449  1.00  0.00     0.022 A 
BRANCH  96 100
ATOM    100  S   UNL     1      -1.042   9.785   9.476  1.00  0.00     0.124 S 
ATOM    101  O   UNL     1      -1.033  11.152   8.967  1.00  0.00    -0.237 OA
ATOM    102  O   UNL     1      -2.034   9.480  10.501  1.00  0.00    -0.237 OA
ATOM    103  O   UNL     1       0.283   9.213   9.719  1.00  0.00    -0.744 OA
ENDBRANCH  96 100
ENDBRANCH  69  93
BRANCH  81 104
ATOM    104  C   UNL     1      -9.653   9.626   6.042  1.00  0.00     0.023 A 
ATOM    105  C   UNL     1      -8.920  10.053   4.910  1.00  0.00     0.031 A 
ATOM    106  C   UNL     1     -10.758  10.403   6.430  1.00  0.00     0.131 A 
ATOM    107  C   UNL     1      -9.297  11.226   4.224  1.00  0.00     0.055 A 
ATOM    108  C   UNL     1     -11.140  11.552   5.737  1.00  0.00     0.041 A 
ATOM    109  F   UNL     1     -11.514  10.036   7.478  1.00  0.00    -0.206 F 
ATOM    110  C   UNL     1     -10.407  11.971   4.633  1.00  0.00     0.022 A 
BRANCH 107 111
ATOM    111  S   UNL     1      -8.342  11.812   2.785  1.00  0.00     0.124 S 
ATOM    112  O   UNL     1      -6.962  11.776   3.255  1.00  0.00    -0.237 OA
ATOM    113  O   UNL     1      -8.693  10.838   1.755  1.00  0.00    -0.237 OA
ATOM    114  O   UNL     1      -8.870  13.157   2.551  1.00  0.00    -0.744 OA
ENDBRANCH 107 111
ENDBRANCH  81 104
ENDBRANCH  55  56
ENDBRANCH  48  50
ENDBRANCH  47  48
ENDBRANCH  46  47
ENDBRANCH  45  46
ENDBRANCH  44  45
ENDBRANCH  43  44
ENDBRANCH  42  43
ENDBRANCH  41  42
ENDBRANCH  40  41
ENDBRANCH   1  40
TORSDOF 29
