REMARK SMILES O=C(CSc1nnnn1-c1ccc(C(=O)OCCOCCOCCOCCOC(=O)c2ccc(-c3c4nc(c(-c5cc(S(=O)(=O)[O-])ccc5F)c5ccc([nH]5)c(-c5cc(S(=O)(=O)[O-])ccc5F)c5nc(c(-c6cc(S(=O)(=O)[O-])ccc6F)c6ccc3[nH]6)C=C5)C=C4)cc2)cc1)Nc1nc(-c2ccccc2)cs1
REMARK SMILES IDX 20 1 19 2 18 3 17 4 16 5 14 6 15 7 13 8 10 9 11 10 95 11
REMARK SMILES IDX 12 12 94 13 9 14 5 15 6 16 7 17 8 18 4 19 3 20 2 21 1 22
REMARK SMILES IDX 96 23 97 25 98 26 107 27 99 28 106 29 100 30 101 31 105 32
REMARK SMILES IDX 102 33 104 34 103 35 21 36 22 37 23 38 24 39 25 40 26 41
REMARK SMILES IDX 27 42 28 43 29 44 30 45 31 46 32 47 93 48 33 49 92 50 34 51
REMARK SMILES IDX 35 52 36 53 86 54 37 55 91 56 85 57 87 58 38 59 90 60 84 61
REMARK SMILES IDX 83 62 39 64 71 65 51 66 70 67 52 68 55 69 69 70 88 71 53 72
REMARK SMILES IDX 54 73 68 75 89 76 56 77 40 78 41 79 49 80 42 81 48 82 50 83
REMARK SMILES IDX 47 84 43 85 44 86 45 87 46 88 72 89 73 90 81 91 74 92 80 93
REMARK SMILES IDX 82 94 79 95 75 96 76 97 77 98 78 99 57 100 58 101 66 102
REMARK SMILES IDX 59 103 65 104 67 105 64 106 60 107 61 108 62 109 63 110
REMARK H PARENT 96 24 87 63 55 74
REMARK Flexibility Score: inf
ROOT
ATOM      1  C   UNL     1       7.712   7.216   0.202  1.00  0.00     0.188 C 
ENDROOT
BRANCH   1   2
ATOM      2  O   UNL     1       8.640   7.329   1.273  1.00  0.00    -0.376 OA
BRANCH   2   3
ATOM      3  C   UNL     1       9.747   6.458   1.429  1.00  0.00     0.202 C 
BRANCH   3   4
ATOM      4  C   UNL     1       9.656   4.936   1.240  1.00  0.00     0.261 C 
BRANCH   4   5
ATOM      5  O   UNL     1       8.624   4.461   0.381  1.00  0.00    -0.460 OA
BRANCH   5   6
ATOM      6  C   UNL     1       7.454   4.173   0.985  1.00  0.00     0.338 C 
ATOM      7  O   UNL     1       7.204   4.191   2.177  1.00  0.00    -0.246 OA
BRANCH   6   8
ATOM      8  C   UNL     1       6.431   3.973  -0.062  1.00  0.00     0.060 A 
ATOM      9  C   UNL     1       4.394   3.470  -1.864  1.00  0.00     0.069 A 
ATOM     10  C   UNL     1       4.151   4.341  -0.799  1.00  0.00     0.029 A 
ATOM     11  C   UNL     1       5.684   2.978  -2.119  1.00  0.00     0.029 A 
ATOM     12  C   UNL     1       5.169   4.558   0.125  1.00  0.00     0.018 A 
ATOM     13  C   UNL     1       6.711   3.241  -1.218  1.00  0.00     0.018 A 
BRANCH   9  14
ATOM     14  N   UNL     1       3.289   2.912  -2.538  1.00  0.00    -0.187 N 
ATOM     15  C   UNL     1       2.979   1.566  -2.668  1.00  0.00     0.214 A 
ATOM     16  N   UNL     1       1.779   1.453  -3.183  1.00  0.00    -0.101 NA
ATOM     17  N   UNL     1       1.310   2.737  -3.319  1.00  0.00    -0.022 NA
ATOM     18  N   UNL     1       2.183   3.622  -2.851  1.00  0.00    -0.039 NA
BRANCH  15  19
ATOM     19  S   UNL     1       3.932   0.286  -1.982  1.00  0.00    -0.074 SA
BRANCH  19  20
ATOM     20  C   UNL     1       2.696  -0.727  -1.146  1.00  0.00     0.178 C 
BRANCH  20  21
ATOM     21  C   UNL     1       1.941  -0.052  -0.010  1.00  0.00     0.236 C 
ATOM     22  O   UNL     1       0.753  -0.323   0.154  1.00  0.00    -0.274 OA
ATOM     23  N   UNL     1       2.698   0.756   0.813  1.00  0.00    -0.301 N 
ATOM     24  H   UNL     1       3.625   0.968   0.559  1.00  0.00     0.172 HD
BRANCH  23  25
ATOM     25  C   UNL     1       2.188   1.269   1.978  1.00  0.00     0.189 A 
ATOM     26  N   UNL     1       1.106   0.926   2.629  1.00  0.00    -0.220 NA
ATOM     27  S   UNL     1       3.121   2.519   2.674  1.00  0.00    -0.105 S 
ATOM     28  C   UNL     1       0.942   1.751   3.726  1.00  0.00     0.084 A 
ATOM     29  C   UNL     1       1.925   2.708   3.895  1.00  0.00     0.097 A 
BRANCH  28  30
ATOM     30  C   UNL     1      -0.176   1.589   4.637  1.00  0.00     0.001 A 
ATOM     31  C   UNL     1      -0.287   0.420   5.401  1.00  0.00     0.010 A 
ATOM     32  C   UNL     1      -1.154   2.583   4.758  1.00  0.00     0.010 A 
ATOM     33  C   UNL     1      -1.355   0.255   6.287  1.00  0.00     0.001 A 
ATOM     34  C   UNL     1      -2.227   2.412   5.637  1.00  0.00     0.001 A 
ATOM     35  C   UNL     1      -2.324   1.251   6.404  1.00  0.00     0.000 A 
ENDBRANCH  28  30
ENDBRANCH  23  25
ENDBRANCH  20  21
ENDBRANCH  19  20
ENDBRANCH  15  19
ENDBRANCH   9  14
ENDBRANCH   6   8
ENDBRANCH   5   6
ENDBRANCH   4   5
ENDBRANCH   3   4
ENDBRANCH   2   3
ENDBRANCH   1   2
BRANCH   1  36
ATOM     36  C   UNL     1       8.147   6.873  -1.242  1.00  0.00     0.188 C 
BRANCH  36  37
ATOM     37  O   UNL     1       9.500   6.470  -1.357  1.00  0.00    -0.377 OA
BRANCH  37  38
ATOM     38  C   UNL     1      10.424   7.496  -1.722  1.00  0.00     0.188 C 
BRANCH  38  39
ATOM     39  C   UNL     1      10.307   8.880  -1.031  1.00  0.00     0.188 C 
BRANCH  39  40
ATOM     40  O   UNL     1       8.972   9.340  -0.853  1.00  0.00    -0.376 OA
BRANCH  40  41
ATOM     41  C   UNL     1       8.444  10.418  -1.605  1.00  0.00     0.202 C 
BRANCH  41  42
ATOM     42  C   UNL     1       8.185  10.167  -3.086  1.00  0.00     0.261 C 
BRANCH  42  43
ATOM     43  O   UNL     1       9.222   9.452  -3.724  1.00  0.00    -0.460 OA
BRANCH  43  44
ATOM     44  C   UNL     1      10.378  10.123  -3.848  1.00  0.00     0.338 C 
ATOM     45  O   UNL     1      10.691  11.167  -3.282  1.00  0.00    -0.246 OA
BRANCH  44  46
ATOM     46  C   UNL     1      11.175   9.460  -4.873  1.00  0.00     0.060 A 
ATOM     47  C   UNL     1      12.419  10.026  -5.140  1.00  0.00     0.016 A 
ATOM     48  C   UNL     1      10.522   8.596  -5.769  1.00  0.00     0.016 A 
ATOM     49  C   UNL     1      12.863   9.976  -6.435  1.00  0.00     0.010 A 
ATOM     50  C   UNL     1      10.954   8.570  -7.065  1.00  0.00     0.010 A 
ATOM     51  C   UNL     1      12.054   9.353  -7.392  1.00  0.00    -0.014 A 
BRANCH  51  52
ATOM     52  C   UNL     1      12.436   9.472  -8.774  1.00  0.00     0.031 A 
ATOM     53  C   UNL     1      13.571   8.596  -9.097  1.00  0.00     0.074 A 
ATOM     54  C   UNL     1      11.778  10.252  -9.649  1.00  0.00     0.049 A 
ATOM     55  N   UNL     1      14.798   8.958  -9.247  1.00  0.00    -0.248 NA
ATOM     56  C   UNL     1      13.377   7.142  -8.988  1.00  0.00     0.031 C 
ATOM     57  C   UNL     1      10.513  10.967  -9.473  1.00  0.00     0.029 A 
ATOM     58  N   UNL     1      12.084  10.489 -10.948  1.00  0.00    -0.354 N 
ATOM     59  C   UNL     1      15.486   7.790  -9.524  1.00  0.00     0.074 A 
ATOM     60  C   UNL     1      14.634   6.713  -9.099  1.00  0.00     0.031 C 
ATOM     61  C   UNL     1      10.052  11.352 -10.687  1.00  0.00     0.029 A 
ATOM     62  C   UNL     1      11.042  11.017 -11.700  1.00  0.00     0.049 A 
ATOM     63  H   UNL     1      12.972  10.303 -11.328  1.00  0.00     0.167 HD
ATOM     64  C   UNL     1      16.566   7.806 -10.347  1.00  0.00     0.034 A 
ATOM     65  C   UNL     1      10.986  11.078 -13.059  1.00  0.00     0.034 A 
ATOM     66  C   UNL     1      17.067   9.152 -10.521  1.00  0.00     0.049 A 
ATOM     67  C   UNL     1      12.395  11.021 -13.543  1.00  0.00     0.074 A 
ATOM     68  C   UNL     1      17.534  10.123  -9.654  1.00  0.00     0.029 A 
ATOM     69  N   UNL     1      16.742   9.818 -11.684  1.00  0.00    -0.354 N 
ATOM     70  N   UNL     1      13.267  11.964 -13.302  1.00  0.00    -0.248 NA
ATOM     71  C   UNL     1      12.974   9.713 -13.825  1.00  0.00     0.031 C 
ATOM     72  C   UNL     1      17.004  11.349 -10.153  1.00  0.00     0.029 A 
ATOM     73  C   UNL     1      16.320  11.081 -11.341  1.00  0.00     0.049 A 
ATOM     74  H   UNL     1      16.800   9.453 -12.597  1.00  0.00     0.167 HD
ATOM     75  C   UNL     1      14.436  11.299 -12.958  1.00  0.00     0.074 A 
ATOM     76  C   UNL     1      14.223   9.918 -13.391  1.00  0.00     0.031 C 
ATOM     77  C   UNL     1      15.340  11.850 -12.092  1.00  0.00     0.034 A 
BRANCH  64  78
ATOM     78  C   UNL     1      16.921   6.680 -11.282  1.00  0.00     0.023 A 
ATOM     79  C   UNL     1      18.117   6.807 -12.005  1.00  0.00     0.031 A 
ATOM     80  C   UNL     1      16.044   5.654 -11.707  1.00  0.00     0.131 A 
ATOM     81  C   UNL     1      18.358   6.011 -13.135  1.00  0.00     0.055 A 
ATOM     82  C   UNL     1      16.323   4.814 -12.785  1.00  0.00     0.041 A 
ATOM     83  F   UNL     1      14.829   5.466 -11.179  1.00  0.00    -0.206 F 
ATOM     84  C   UNL     1      17.473   5.010 -13.528  1.00  0.00     0.022 A 
BRANCH  81  85
ATOM     85  S   UNL     1      19.768   6.429 -14.186  1.00  0.00     0.124 S 
ATOM     86  O   UNL     1      19.496   7.828 -14.499  1.00  0.00    -0.237 OA
ATOM     87  O   UNL     1      20.893   6.176 -13.292  1.00  0.00    -0.237 OA
ATOM     88  O   UNL     1      19.640   5.502 -15.307  1.00  0.00    -0.744 OA
ENDBRANCH  81  85
ENDBRANCH  64  78
BRANCH  65  89
ATOM     89  C   UNL     1       9.798  10.781 -13.915  1.00  0.00     0.023 A 
ATOM     90  C   UNL     1       9.737  11.113 -15.288  1.00  0.00     0.031 A 
ATOM     91  C   UNL     1       8.774   9.932 -13.431  1.00  0.00     0.131 A 
ATOM     92  C   UNL     1       8.693  10.604 -16.102  1.00  0.00     0.055 A 
ATOM     93  C   UNL     1       7.746   9.439 -14.237  1.00  0.00     0.041 A 
ATOM     94  F   UNL     1       8.783   9.476 -12.169  1.00  0.00    -0.206 F 
ATOM     95  C   UNL     1       7.707   9.764 -15.581  1.00  0.00     0.022 A 
BRANCH  92  96
ATOM     96  S   UNL     1       8.650  10.953 -17.892  1.00  0.00     0.124 S 
ATOM     97  O   UNL     1       8.306  12.369 -17.924  1.00  0.00    -0.237 OA
ATOM     98  O   UNL     1      10.002  10.603 -18.314  1.00  0.00    -0.237 OA
ATOM     99  O   UNL     1       7.605  10.056 -18.390  1.00  0.00    -0.744 OA
ENDBRANCH  92  96
ENDBRANCH  65  89
BRANCH  77 100
ATOM    100  C   UNL     1      15.196  13.319 -11.730  1.00  0.00     0.023 A 
ATOM    101  C   UNL     1      14.042  13.909 -11.162  1.00  0.00     0.031 A 
ATOM    102  C   UNL     1      16.337  14.129 -11.866  1.00  0.00     0.131 A 
ATOM    103  C   UNL     1      14.062  15.264 -10.769  1.00  0.00     0.055 A 
ATOM    104  C   UNL     1      16.360  15.461 -11.453  1.00  0.00     0.041 A 
ATOM    105  F   UNL     1      17.474  13.624 -12.375  1.00  0.00    -0.206 F 
ATOM    106  C   UNL     1      15.219  16.036 -10.910  1.00  0.00     0.022 A 
BRANCH 103 107
ATOM    107  S   UNL     1      12.570  16.062 -10.089  1.00  0.00     0.124 S 
ATOM    108  O   UNL     1      11.512  15.645 -11.002  1.00  0.00    -0.237 OA
ATOM    109  O   UNL     1      12.504  15.509  -8.739  1.00  0.00    -0.237 OA
ATOM    110  O   UNL     1      12.893  17.489 -10.145  1.00  0.00    -0.744 OA
ENDBRANCH 103 107
ENDBRANCH  77 100
ENDBRANCH  51  52
ENDBRANCH  44  46
ENDBRANCH  43  44
ENDBRANCH  42  43
ENDBRANCH  41  42
ENDBRANCH  40  41
ENDBRANCH  39  40
ENDBRANCH  38  39
ENDBRANCH  37  38
ENDBRANCH  36  37
ENDBRANCH   1  36
TORSDOF 29
