REMARK SMILES CC(C)(C)c1cc2c(cc1Cl)C=C(C(=O)OCCOCCOCCOCCOC(=O)c1ccc(-c3c4nc(c(-c5cc(S(=O)(=O)[O-])ccc5F)c5ccc([nH]5)c(-c5cc(S(=O)(=O)[O-])ccc5F)c5nc(c(-c6cc(S(=O)(=O)[O-])ccc6F)c6ccc3[nH]6)C=C5)C=C4)cc1)[C@@H](C(F)(F)F)O2
REMARK SMILES IDX 23 1 22 2 21 3 20 4 19 5 18 6 17 7 16 8 14 9 15 10 13 11
REMARK SMILES IDX 5 12 6 13 10 14 7 15 9 16 11 17 8 18 99 19 12 20 94 21 2 22
REMARK SMILES IDX 1 23 3 24 4 25 95 26 96 27 97 28 98 29 24 30 25 31 26 32
REMARK SMILES IDX 27 33 28 34 29 35 30 36 31 37 32 38 93 39 33 40 92 41 34 42
REMARK SMILES IDX 35 43 36 44 86 45 37 46 91 47 85 48 87 49 38 50 90 51 84 52
REMARK SMILES IDX 83 53 39 55 71 56 51 57 70 58 52 59 55 60 69 61 88 62 53 63
REMARK SMILES IDX 54 64 68 66 89 67 56 68 40 69 41 70 49 71 42 72 48 73 50 74
REMARK SMILES IDX 47 75 43 76 44 77 45 78 46 79 72 80 73 81 81 82 74 83 80 84
REMARK SMILES IDX 82 85 79 86 75 87 76 88 77 89 78 90 57 91 58 92 66 93 59 94
REMARK SMILES IDX 65 95 67 96 64 97 60 98 61 99 62 100 63 101
REMARK H PARENT 87 54 55 65
REMARK Flexibility Score: inf
ROOT
ATOM      1  C   UNL     1       0.629   4.438  10.637  1.00  0.00     0.188 C 
ENDROOT
BRANCH   1   2
ATOM      2  O   UNL     1       1.309   4.181   9.408  1.00  0.00    -0.377 OA
BRANCH   2   3
ATOM      3  C   UNL     1       1.122   2.900   8.826  1.00  0.00     0.188 C 
BRANCH   3   4
ATOM      4  C   UNL     1       2.142   1.871   9.347  1.00  0.00     0.188 C 
BRANCH   4   5
ATOM      5  O   UNL     1       2.831   2.313  10.510  1.00  0.00    -0.376 OA
BRANCH   5   6
ATOM      6  C   UNL     1       4.116   2.904  10.357  1.00  0.00     0.202 C 
BRANCH   6   7
ATOM      7  C   UNL     1       4.302   4.132   9.447  1.00  0.00     0.261 C 
BRANCH   7   8
ATOM      8  O   UNL     1       3.767   4.020   8.120  1.00  0.00    -0.460 OA
BRANCH   8   9
ATOM      9  C   UNL     1       4.345   3.153   7.272  1.00  0.00     0.338 C 
ATOM     10  O   UNL     1       5.327   2.463   7.481  1.00  0.00    -0.246 OA
BRANCH   9  11
ATOM     11  C   UNL     1       3.462   3.032   6.089  1.00  0.00     0.087 C 
ATOM     12  C   UNL     1       0.921   1.372   2.047  1.00  0.00    -0.020 A 
ATOM     13  C   UNL     1       1.159   2.631   2.650  1.00  0.00     0.053 A 
ATOM     14  C   UNL     1       1.247   0.247   2.833  1.00  0.00     0.045 A 
ATOM     15  C   UNL     1       1.845   2.769   3.861  1.00  0.00     0.128 A 
ATOM     16  C   UNL     1       1.954   0.387   4.041  1.00  0.00     0.032 A 
ATOM     17  Cl  UNL     1       0.794  -1.377   2.454  1.00  0.00    -0.084 Cl
ATOM     18  C   UNL     1       2.309   1.645   4.523  1.00  0.00     0.019 A 
ATOM     19  O   UNL     1       2.042   4.045   4.297  1.00  0.00    -0.475 OA
ATOM     20  C   UNL     1       3.183   1.790   5.672  1.00  0.00     0.027 C 
ATOM     21  C   UNL     1       2.854   4.275   5.485  1.00  0.00     0.316 C 
BRANCH  12  22
ATOM     22  C   UNL     1       0.354   1.336   0.604  1.00  0.00    -0.012 C 
ATOM     23  C   UNL     1       0.835   0.132  -0.243  1.00  0.00     0.016 C 
ATOM     24  C   UNL     1       0.800   2.582  -0.216  1.00  0.00     0.016 C 
ATOM     25  C   UNL     1      -1.183   1.328   0.665  1.00  0.00     0.016 C 
ENDBRANCH  12  22
BRANCH  21  26
ATOM     26  C   UNL     1       3.909   5.332   5.126  1.00  0.00     0.430 C 
ATOM     27  F   UNL     1       3.340   6.414   4.544  1.00  0.00    -0.167 F 
ATOM     28  F   UNL     1       4.581   5.775   6.211  1.00  0.00    -0.167 F 
ATOM     29  F   UNL     1       4.824   4.841   4.256  1.00  0.00    -0.167 F 
ENDBRANCH  21  26
ENDBRANCH   9  11
ENDBRANCH   8   9
ENDBRANCH   7   8
ENDBRANCH   6   7
ENDBRANCH   5   6
ENDBRANCH   4   5
ENDBRANCH   3   4
ENDBRANCH   2   3
ENDBRANCH   1   2
BRANCH   1  30
ATOM     30  C   UNL     1       0.378   3.302  11.654  1.00  0.00     0.188 C 
BRANCH  30  31
ATOM     31  O   UNL     1      -0.254   2.154  11.085  1.00  0.00    -0.376 OA
BRANCH  31  32
ATOM     32  C   UNL     1      -1.615   1.938  11.434  1.00  0.00     0.202 C 
BRANCH  32  33
ATOM     33  C   UNL     1      -2.604   2.828  10.671  1.00  0.00     0.261 C 
BRANCH  33  34
ATOM     34  O   UNL     1      -2.474   4.237  10.911  1.00  0.00    -0.460 OA
BRANCH  34  35
ATOM     35  C   UNL     1      -2.594   4.676  12.184  1.00  0.00     0.338 C 
ATOM     36  O   UNL     1      -2.868   4.009  13.165  1.00  0.00    -0.246 OA
BRANCH  35  37
ATOM     37  C   UNL     1      -2.125   6.079  12.209  1.00  0.00     0.060 A 
ATOM     38  C   UNL     1      -2.605   6.997  11.272  1.00  0.00     0.016 A 
ATOM     39  C   UNL     1      -1.163   6.463  13.151  1.00  0.00     0.016 A 
ATOM     40  C   UNL     1      -2.142   8.313  11.297  1.00  0.00     0.010 A 
ATOM     41  C   UNL     1      -0.697   7.781  13.172  1.00  0.00     0.010 A 
ATOM     42  C   UNL     1      -1.201   8.720  12.260  1.00  0.00    -0.014 A 
BRANCH  42  43
ATOM     43  C   UNL     1      -0.921  10.166  12.431  1.00  0.00     0.031 A 
ATOM     44  C   UNL     1       0.323  10.812  11.906  1.00  0.00     0.074 A 
ATOM     45  C   UNL     1      -1.843  10.900  13.083  1.00  0.00     0.049 A 
ATOM     46  N   UNL     1       0.632  12.083  11.881  1.00  0.00    -0.248 NA
ATOM     47  C   UNL     1       1.354   9.928  11.346  1.00  0.00     0.031 C 
ATOM     48  C   UNL     1      -3.070  10.357  13.668  1.00  0.00     0.029 A 
ATOM     49  N   UNL     1      -1.905  12.242  13.357  1.00  0.00    -0.354 N 
ATOM     50  C   UNL     1       1.882  12.162  11.281  1.00  0.00     0.074 A 
ATOM     51  C   UNL     1       2.296  10.801  11.005  1.00  0.00     0.031 C 
ATOM     52  C   UNL     1      -3.775  11.358  14.210  1.00  0.00     0.029 A 
ATOM     53  C   UNL     1      -3.042  12.611  14.037  1.00  0.00     0.049 A 
ATOM     54  H   UNL     1      -1.204  12.880  13.093  1.00  0.00     0.167 HD
ATOM     55  C   UNL     1       2.598  13.272  10.976  1.00  0.00     0.034 A 
ATOM     56  C   UNL     1      -3.459  13.818  14.468  1.00  0.00     0.034 A 
ATOM     57  C   UNL     1       2.168  14.618  11.279  1.00  0.00     0.049 A 
ATOM     58  C   UNL     1      -2.632  15.032  14.136  1.00  0.00     0.074 A 
ATOM     59  C   UNL     1       2.797  15.808  10.954  1.00  0.00     0.029 A 
ATOM     60  N   UNL     1       1.022  14.958  11.986  1.00  0.00    -0.354 N 
ATOM     61  N   UNL     1      -1.515  15.105  13.452  1.00  0.00    -0.248 NA
ATOM     62  C   UNL     1      -3.127  16.330  14.613  1.00  0.00     0.031 C 
ATOM     63  C   UNL     1       2.076  16.857  11.526  1.00  0.00     0.029 A 
ATOM     64  C   UNL     1       0.950  16.334  12.141  1.00  0.00     0.049 A 
ATOM     65  H   UNL     1       0.358  14.316  12.327  1.00  0.00     0.167 HD
ATOM     66  C   UNL     1      -1.183  16.455  13.400  1.00  0.00     0.074 A 
ATOM     67  C   UNL     1      -2.236  17.166  14.095  1.00  0.00     0.031 C 
ATOM     68  C   UNL     1      -0.101  17.047  12.833  1.00  0.00     0.034 A 
BRANCH  55  69
ATOM     69  C   UNL     1       3.912  13.116  10.247  1.00  0.00     0.023 A 
ATOM     70  C   UNL     1       5.108  13.576  10.832  1.00  0.00     0.031 A 
ATOM     71  C   UNL     1       3.954  12.670   8.914  1.00  0.00     0.131 A 
ATOM     72  C   UNL     1       6.285  13.619  10.072  1.00  0.00     0.055 A 
ATOM     73  C   UNL     1       5.138  12.676   8.174  1.00  0.00     0.041 A 
ATOM     74  F   UNL     1       2.840  12.230   8.306  1.00  0.00    -0.206 F 
ATOM     75  C   UNL     1       6.307  13.166   8.748  1.00  0.00     0.022 A 
BRANCH  72  76
ATOM     76  S   UNL     1       7.812  14.334  10.741  1.00  0.00     0.124 S 
ATOM     77  O   UNL     1       8.739  13.209  10.640  1.00  0.00    -0.237 OA
ATOM     78  O   UNL     1       8.065  15.435   9.815  1.00  0.00    -0.237 OA
ATOM     79  O   UNL     1       7.452  14.722  12.100  1.00  0.00    -0.744 OA
ENDBRANCH  72  76
ENDBRANCH  55  69
BRANCH  56  80
ATOM     80  C   UNL     1      -4.762  13.915  15.186  1.00  0.00     0.023 A 
ATOM     81  C   UNL     1      -4.964  13.240  16.404  1.00  0.00     0.031 A 
ATOM     82  C   UNL     1      -5.857  14.572  14.604  1.00  0.00     0.131 A 
ATOM     83  C   UNL     1      -6.248  13.175  16.960  1.00  0.00     0.055 A 
ATOM     84  C   UNL     1      -7.119  14.569  15.200  1.00  0.00     0.041 A 
ATOM     85  F   UNL     1      -5.717  15.213  13.434  1.00  0.00    -0.206 F 
ATOM     86  C   UNL     1      -7.324  13.851  16.375  1.00  0.00     0.022 A 
BRANCH  83  87
ATOM     87  S   UNL     1      -6.595  12.092  18.374  1.00  0.00     0.124 S 
ATOM     88  O   UNL     1      -7.075  13.040  19.373  1.00  0.00    -0.237 OA
ATOM     89  O   UNL     1      -7.605  11.193  17.819  1.00  0.00    -0.237 OA
ATOM     90  O   UNL     1      -5.305  11.473  18.658  1.00  0.00    -0.744 OA
ENDBRANCH  83  87
ENDBRANCH  56  80
BRANCH  68  91
ATOM     91  C   UNL     1       0.038  18.549  12.936  1.00  0.00     0.023 A 
ATOM     92  C   UNL     1       0.076  19.339  11.770  1.00  0.00     0.031 A 
ATOM     93  C   UNL     1       0.279  19.179  14.170  1.00  0.00     0.131 A 
ATOM     94  C   UNL     1       0.393  20.701  11.859  1.00  0.00     0.055 A 
ATOM     95  C   UNL     1       0.541  20.547  14.258  1.00  0.00     0.041 A 
ATOM     96  F   UNL     1       0.264  18.471  15.311  1.00  0.00    -0.206 F 
ATOM     97  C   UNL     1       0.615  21.311  13.098  1.00  0.00     0.022 A 
BRANCH  94  98
ATOM     98  S   UNL     1       0.619  21.712  10.369  1.00  0.00     0.124 S 
ATOM     99  O   UNL     1      -0.408  22.737  10.540  1.00  0.00    -0.237 OA
ATOM    100  O   UNL     1       1.995  22.177  10.519  1.00  0.00    -0.237 OA
ATOM    101  O   UNL     1       0.387  20.778   9.271  1.00  0.00    -0.744 OA
ENDBRANCH  94  98
ENDBRANCH  68  91
ENDBRANCH  42  43
ENDBRANCH  35  37
ENDBRANCH  34  35
ENDBRANCH  33  34
ENDBRANCH  32  33
ENDBRANCH  31  32
ENDBRANCH  30  31
ENDBRANCH   1  30
TORSDOF 25
