REMARK SMILES Cc1ccc(NC(=O)C[C@H]2C(=O)NCCN2C(=O)CCC(=O)OCCOCCOCCOCCOC(=O)c2ccc(-c3c4nc(c(-c5cc(S(=O)(=O)[O-])ccc5F)c5ccc([nH]5)c(-c5cc(S(=O)(=O)[O-])ccc5F)c5nc(c(-c6cc(S(=O)(=O)[O-])ccc6F)c6ccc3[nH]6)C=C5)C=C4)cc2)c(C)c1
REMARK SMILES IDX 27 1 26 2 25 3 24 4 23 5 21 6 22 7 20 8 19 9 17 10 18 11
REMARK SMILES IDX 16 12 10 13 11 14 12 15 13 16 15 17 14 18 9 20 7 21 6 22
REMARK SMILES IDX 8 24 5 25 1 26 2 27 3 28 103 29 4 30 101 31 102 32 28 33
REMARK SMILES IDX 29 34 30 35 31 36 32 37 33 38 34 39 35 40 36 41 37 42 38 43
REMARK SMILES IDX 39 44 100 45 40 46 99 47 41 48 42 49 43 50 93 51 44 52 98 53
REMARK SMILES IDX 92 54 94 55 45 56 97 57 91 58 90 59 46 61 78 62 58 63 77 64
REMARK SMILES IDX 59 65 62 66 76 67 95 68 60 69 61 70 75 72 96 73 63 74 47 75
REMARK SMILES IDX 48 76 56 77 49 78 55 79 57 80 54 81 50 82 51 83 52 84 53 85
REMARK SMILES IDX 79 86 80 87 88 88 81 89 87 90 89 91 86 92 82 93 83 94 84 95
REMARK SMILES IDX 85 96 64 97 65 98 73 99 66 100 72 101 74 102 71 103 67 104
REMARK SMILES IDX 68 105 69 106 70 107
REMARK H PARENT 13 19 6 23 94 60 62 71
REMARK Flexibility Score: inf
ROOT
ATOM      1  C   UNL     1      -3.496  -1.908  -1.155  1.00  0.00     0.188 C 
ENDROOT
BRANCH   1   2
ATOM      2  O   UNL     1      -2.972  -2.829  -0.208  1.00  0.00    -0.376 OA
BRANCH   2   3
ATOM      3  C   UNL     1      -1.924  -2.357   0.656  1.00  0.00     0.202 C 
BRANCH   3   4
ATOM      4  C   UNL     1      -0.816  -1.490   0.028  1.00  0.00     0.261 C 
BRANCH   4   5
ATOM      5  O   UNL     1      -1.309  -0.141  -0.173  1.00  0.00    -0.463 OA
BRANCH   5   6
ATOM      6  C   UNL     1      -1.301   0.376  -1.420  1.00  0.00     0.306 C 
ATOM      7  O   UNL     1      -0.647  -0.087  -2.347  1.00  0.00    -0.252 OA
BRANCH   6   8
ATOM      8  C   UNL     1      -2.234   1.572  -1.602  1.00  0.00     0.132 C 
BRANCH   8   9
ATOM      9  C   UNL     1      -3.473   1.804  -0.731  1.00  0.00     0.112 C 
BRANCH   9  10
ATOM     10  C   UNL     1      -3.656   2.885   0.351  1.00  0.00     0.223 C 
ATOM     11  O   UNL     1      -4.503   3.763   0.138  1.00  0.00    -0.275 OA
BRANCH  10  12
ATOM     12  N   UNL     1      -3.057   2.791   1.597  1.00  0.00    -0.328 N 
ATOM     13  C   UNL     1      -2.166   1.729   2.039  1.00  0.00     0.183 C 
ATOM     14  C   UNL     1      -2.639   0.966   3.297  1.00  0.00     0.243 C 
ATOM     15  O   UNL     1      -2.116  -0.089   3.653  1.00  0.00    -0.273 OA
ATOM     16  N   UNL     1      -3.696   1.481   3.994  1.00  0.00    -0.353 N 
ATOM     17  C   UNL     1      -3.595   3.592   2.707  1.00  0.00     0.141 C 
ATOM     18  C   UNL     1      -4.422   2.680   3.614  1.00  0.00     0.137 C 
ATOM     19  H   UNL     1      -3.984   1.007   4.808  1.00  0.00     0.163 HD
BRANCH  13  20
ATOM     20  C   UNL     1      -0.669   2.054   2.076  1.00  0.00     0.135 C 
BRANCH  20  21
ATOM     21  C   UNL     1      -0.217   3.371   2.673  1.00  0.00     0.227 C 
ATOM     22  N   UNL     1      -0.356   4.595   2.085  1.00  0.00    -0.326 N 
ATOM     23  H   UNL     1       0.048   5.326   2.605  1.00  0.00     0.169 HD
ATOM     24  O   UNL     1       0.288   3.367   3.802  1.00  0.00    -0.275 OA
BRANCH  22  25
ATOM     25  C   UNL     1      -0.957   5.024   0.891  1.00  0.00     0.044 A 
ATOM     26  C   UNL     1      -3.584   6.110  -2.346  1.00  0.00     0.044 C 
ATOM     27  C   UNL     1      -2.562   5.863  -1.274  1.00  0.00    -0.051 A 
ATOM     28  C   UNL     1      -2.704   6.463  -0.026  1.00  0.00     0.005 A 
ATOM     29  C   UNL     1      -1.514   4.955  -1.460  1.00  0.00     0.009 A 
ATOM     30  C   UNL     1      -1.888   6.067   1.036  1.00  0.00     0.026 A 
ATOM     31  C   UNL     1      -0.685   4.536  -0.391  1.00  0.00    -0.027 A 
ATOM     32  C   UNL     1       0.479   3.640  -0.711  1.00  0.00     0.046 C 
ENDBRANCH  22  25
ENDBRANCH  20  21
ENDBRANCH  13  20
ENDBRANCH  10  12
ENDBRANCH   9  10
ENDBRANCH   8   9
ENDBRANCH   6   8
ENDBRANCH   5   6
ENDBRANCH   4   5
ENDBRANCH   3   4
ENDBRANCH   2   3
ENDBRANCH   1   2
BRANCH   1  33
ATOM     33  C   UNL     1      -5.016  -1.849  -1.175  1.00  0.00     0.188 C 
BRANCH  33  34
ATOM     34  O   UNL     1      -5.542  -0.816  -0.328  1.00  0.00    -0.377 OA
BRANCH  34  35
ATOM     35  C   UNL     1      -5.254  -0.929   1.065  1.00  0.00     0.188 C 
BRANCH  35  36
ATOM     36  C   UNL     1      -5.705  -2.231   1.717  1.00  0.00     0.188 C 
BRANCH  36  37
ATOM     37  O   UNL     1      -7.054  -2.659   1.598  1.00  0.00    -0.376 OA
BRANCH  37  38
ATOM     38  C   UNL     1      -7.941  -2.065   0.664  1.00  0.00     0.202 C 
BRANCH  38  39
ATOM     39  C   UNL     1      -8.431  -0.639   0.969  1.00  0.00     0.261 C 
BRANCH  39  40
ATOM     40  O   UNL     1      -7.934  -0.050   2.175  1.00  0.00    -0.460 OA
BRANCH  40  41
ATOM     41  C   UNL     1      -8.279  -0.675   3.323  1.00  0.00     0.338 C 
ATOM     42  O   UNL     1      -9.012  -1.633   3.458  1.00  0.00    -0.246 OA
BRANCH  41  43
ATOM     43  C   UNL     1      -7.560  -0.001   4.420  1.00  0.00     0.060 A 
ATOM     44  C   UNL     1      -6.739  -0.751   5.265  1.00  0.00     0.016 A 
ATOM     45  C   UNL     1      -7.787   1.358   4.661  1.00  0.00     0.016 A 
ATOM     46  C   UNL     1      -6.200  -0.157   6.407  1.00  0.00     0.010 A 
ATOM     47  C   UNL     1      -7.256   1.949   5.808  1.00  0.00     0.010 A 
ATOM     48  C   UNL     1      -6.508   1.177   6.713  1.00  0.00    -0.014 A 
BRANCH  48  49
ATOM     49  C   UNL     1      -6.284   1.676   8.092  1.00  0.00     0.031 A 
ATOM     50  C   UNL     1      -7.428   1.574   9.067  1.00  0.00     0.074 A 
ATOM     51  C   UNL     1      -5.098   2.175   8.482  1.00  0.00     0.049 A 
ATOM     52  N   UNL     1      -7.482   1.924  10.325  1.00  0.00    -0.248 NA
ATOM     53  C   UNL     1      -8.679   0.998   8.547  1.00  0.00     0.031 C 
ATOM     54  C   UNL     1      -3.912   2.286   7.640  1.00  0.00     0.029 A 
ATOM     55  N   UNL     1      -4.697   2.684   9.690  1.00  0.00    -0.354 N 
ATOM     56  C   UNL     1      -8.764   1.595  10.752  1.00  0.00     0.074 A 
ATOM     57  C   UNL     1      -9.472   1.072   9.604  1.00  0.00     0.031 C 
ATOM     58  C   UNL     1      -2.916   2.840   8.351  1.00  0.00     0.029 A 
ATOM     59  C   UNL     1      -3.401   3.145   9.693  1.00  0.00     0.049 A 
ATOM     60  H   UNL     1      -5.282   2.717  10.482  1.00  0.00     0.167 HD
ATOM     61  C   UNL     1      -9.297   1.701  11.993  1.00  0.00     0.034 A 
ATOM     62  C   UNL     1      -2.693   3.753  10.665  1.00  0.00     0.034 A 
ATOM     63  C   UNL     1      -8.587   2.253  13.120  1.00  0.00     0.049 A 
ATOM     64  C   UNL     1      -3.338   3.950  12.014  1.00  0.00     0.074 A 
ATOM     65  C   UNL     1      -9.024   2.409  14.423  1.00  0.00     0.029 A 
ATOM     66  N   UNL     1      -7.293   2.756  13.072  1.00  0.00    -0.354 N 
ATOM     67  N   UNL     1      -4.543   3.610  12.413  1.00  0.00    -0.248 NA
ATOM     68  C   UNL     1      -2.521   4.596  13.049  1.00  0.00     0.031 C 
ATOM     69  C   UNL     1      -8.024   3.073  15.143  1.00  0.00     0.029 A 
ATOM     70  C   UNL     1      -6.929   3.258  14.312  1.00  0.00     0.049 A 
ATOM     71  H   UNL     1      -6.717   2.757  12.273  1.00  0.00     0.167 HD
ATOM     72  C   UNL     1      -4.614   3.970  13.756  1.00  0.00     0.074 A 
ATOM     73  C   UNL     1      -3.326   4.538  14.099  1.00  0.00     0.031 C 
ATOM     74  C   UNL     1      -5.646   3.839  14.630  1.00  0.00     0.034 A 
BRANCH  61  75
ATOM     75  C   UNL     1     -10.730   1.260  12.166  1.00  0.00     0.023 A 
ATOM     76  C   UNL     1     -11.121  -0.078  11.972  1.00  0.00     0.031 A 
ATOM     77  C   UNL     1     -11.729   2.198  12.478  1.00  0.00     0.131 A 
ATOM     78  C   UNL     1     -12.480  -0.424  12.020  1.00  0.00     0.055 A 
ATOM     79  C   UNL     1     -13.070   1.832  12.603  1.00  0.00     0.041 A 
ATOM     80  F   UNL     1     -11.421   3.494  12.646  1.00  0.00    -0.206 F 
ATOM     81  C   UNL     1     -13.455   0.517  12.358  1.00  0.00     0.022 A 
BRANCH  78  82
ATOM     82  S   UNL     1     -12.972  -2.088  11.488  1.00  0.00     0.124 S 
ATOM     83  O   UNL     1     -12.472  -2.119  10.116  1.00  0.00    -0.237 OA
ATOM     84  O   UNL     1     -12.276  -2.943  12.443  1.00  0.00    -0.237 OA
ATOM     85  O   UNL     1     -14.428  -2.071  11.613  1.00  0.00    -0.744 OA
ENDBRANCH  78  82
ENDBRANCH  61  75
BRANCH  62  86
ATOM     86  C   UNL     1      -1.310   4.244  10.399  1.00  0.00     0.023 A 
ATOM     87  C   UNL     1      -0.204   3.724  11.090  1.00  0.00     0.031 A 
ATOM     88  C   UNL     1      -1.083   5.286   9.481  1.00  0.00     0.131 A 
ATOM     89  C   UNL     1       1.070   4.280  10.891  1.00  0.00     0.055 A 
ATOM     90  C   UNL     1       0.194   5.798   9.247  1.00  0.00     0.041 A 
ATOM     91  F   UNL     1      -2.105   5.819   8.792  1.00  0.00    -0.206 F 
ATOM     92  C   UNL     1       1.278   5.304   9.965  1.00  0.00     0.022 A 
BRANCH  89  93
ATOM     93  S   UNL     1       2.441   3.705  11.930  1.00  0.00     0.124 S 
ATOM     94  O   UNL     1       1.935   3.982  13.270  1.00  0.00    -0.237 OA
ATOM     95  O   UNL     1       2.534   2.297  11.558  1.00  0.00    -0.237 OA
ATOM     96  O   UNL     1       3.565   4.536  11.503  1.00  0.00    -0.744 OA
ENDBRANCH  89  93
ENDBRANCH  62  86
BRANCH  74  97
ATOM     97  C   UNL     1      -5.396   4.287  16.050  1.00  0.00     0.023 A 
ATOM     98  C   UNL     1      -5.160   5.635  16.370  1.00  0.00     0.031 A 
ATOM     99  C   UNL     1      -5.367   3.345  17.095  1.00  0.00     0.131 A 
ATOM    100  C   UNL     1      -4.836   5.995  17.686  1.00  0.00     0.055 A 
ATOM    101  C   UNL     1      -5.112   3.720  18.415  1.00  0.00     0.041 A 
ATOM    102  F   UNL     1      -5.584   2.043  16.848  1.00  0.00    -0.206 F 
ATOM    103  C   UNL     1      -4.828   5.049  18.714  1.00  0.00     0.022 A 
BRANCH 100 104
ATOM    104  S   UNL     1      -4.315   7.701  18.017  1.00  0.00     0.124 S 
ATOM    105  O   UNL     1      -3.179   7.852  17.114  1.00  0.00    -0.237 OA
ATOM    106  O   UNL     1      -5.510   8.464  17.672  1.00  0.00    -0.237 OA
ATOM    107  O   UNL     1      -3.979   7.687  19.440  1.00  0.00    -0.744 OA
ENDBRANCH 100 104
ENDBRANCH  74  97
ENDBRANCH  48  49
ENDBRANCH  41  43
ENDBRANCH  40  41
ENDBRANCH  39  40
ENDBRANCH  38  39
ENDBRANCH  37  38
ENDBRANCH  36  37
ENDBRANCH  35  36
ENDBRANCH  34  35
ENDBRANCH  33  34
ENDBRANCH   1  33
TORSDOF 29
