REMARK SMILES Cc1cc(Br)cc2c1O[C@H](C(F)(F)F)C(C(=O)OCCOCCOCCOCCOC(=O)c1ccc(-c3c4nc(c(-c5cc(S(=O)(=O)[O-])ccc5F)c5ccc([nH]5)c(-c5cc(S(=O)(=O)[O-])ccc5F)c5nc(c(-c6cc(S(=O)(=O)[O-])ccc6F)c6ccc3[nH]6)C=C5)C=C4)cc1)=C2
REMARK SMILES IDX 25 1 24 2 23 3 22 4 21 5 20 6 19 7 18 8 16 9 17 10 15 11
REMARK SMILES IDX 1 12 2 13 3 14 8 15 4 16 7 17 9 18 5 19 6 20 96 21 10 22
REMARK SMILES IDX 11 23 12 24 13 25 14 26 26 27 27 28 28 29 29 30 30 31 31 32
REMARK SMILES IDX 32 33 33 34 34 35 95 36 35 37 94 38 36 39 37 40 38 41 88 42
REMARK SMILES IDX 39 43 93 44 87 45 89 46 40 47 92 48 86 49 85 50 41 52 73 53
REMARK SMILES IDX 53 54 72 55 54 56 57 57 71 58 90 59 55 60 56 61 70 63 91 64
REMARK SMILES IDX 58 65 42 66 43 67 51 68 44 69 50 70 52 71 49 72 45 73 46 74
REMARK SMILES IDX 47 75 48 76 74 77 75 78 83 79 76 80 82 81 84 82 81 83 77 84
REMARK SMILES IDX 78 85 79 86 80 87 59 88 60 89 68 90 61 91 67 92 69 93 66 94
REMARK SMILES IDX 62 95 63 96 64 97 65 98
REMARK H PARENT 89 51 57 62
REMARK Flexibility Score: inf
ROOT
ATOM      1  C   UNL     1       6.969  -6.472   0.048  1.00  0.00     0.188 C 
ENDROOT
BRANCH   1   2
ATOM      2  O   UNL     1       5.774  -5.863  -0.442  1.00  0.00    -0.377 OA
BRANCH   2   3
ATOM      3  C   UNL     1       4.592  -6.054   0.316  1.00  0.00     0.188 C 
BRANCH   3   4
ATOM      4  C   UNL     1       3.830  -7.333  -0.077  1.00  0.00     0.188 C 
BRANCH   4   5
ATOM      5  O   UNL     1       4.581  -8.298  -0.787  1.00  0.00    -0.376 OA
BRANCH   5   6
ATOM      6  C   UNL     1       4.872  -8.186  -2.172  1.00  0.00     0.202 C 
BRANCH   6   7
ATOM      7  C   UNL     1       4.761  -6.918  -3.045  1.00  0.00     0.261 C 
BRANCH   7   8
ATOM      8  O   UNL     1       4.043  -5.803  -2.523  1.00  0.00    -0.460 OA
BRANCH   8   9
ATOM      9  C   UNL     1       2.708  -5.800  -2.672  1.00  0.00     0.338 C 
ATOM     10  O   UNL     1       2.024  -6.647  -3.220  1.00  0.00    -0.246 OA
BRANCH   9  11
ATOM     11  C   UNL     1       2.180  -4.665  -1.885  1.00  0.00     0.087 C 
ATOM     12  C   UNL     1       1.022  -0.059   0.014  1.00  0.00     0.048 C 
ATOM     13  C   UNL     1       0.529  -1.463   0.231  1.00  0.00    -0.007 A 
ATOM     14  C   UNL     1      -0.610  -1.688   1.018  1.00  0.00     0.023 A 
ATOM     15  C   UNL     1       1.138  -2.550  -0.419  1.00  0.00     0.130 A 
ATOM     16  C   UNL     1      -1.108  -2.980   1.179  1.00  0.00     0.019 A 
ATOM     17  C   UNL     1       0.601  -3.836  -0.293  1.00  0.00     0.019 A 
ATOM     18  O   UNL     1       2.241  -2.273  -1.175  1.00  0.00    -0.475 OA
ATOM     19  Br  UNL     1      -2.646  -3.269   2.240  1.00  0.00    -0.051 Br
ATOM     20  C   UNL     1      -0.505  -4.056   0.534  1.00  0.00     0.027 A 
ATOM     21  C   UNL     1       1.142  -4.927  -1.082  1.00  0.00     0.027 C 
ATOM     22  C   UNL     1       2.869  -3.327  -1.957  1.00  0.00     0.316 C 
BRANCH  22  23
ATOM     23  C   UNL     1       3.003  -2.820  -3.398  1.00  0.00     0.430 C 
ATOM     24  F   UNL     1       3.552  -1.581  -3.436  1.00  0.00    -0.167 F 
ATOM     25  F   UNL     1       3.789  -3.621  -4.152  1.00  0.00    -0.167 F 
ATOM     26  F   UNL     1       1.797  -2.744  -4.010  1.00  0.00    -0.167 F 
ENDBRANCH  22  23
ENDBRANCH   9  11
ENDBRANCH   8   9
ENDBRANCH   7   8
ENDBRANCH   6   7
ENDBRANCH   5   6
ENDBRANCH   4   5
ENDBRANCH   3   4
ENDBRANCH   2   3
ENDBRANCH   1   2
BRANCH   1  27
ATOM     27  C   UNL     1       6.908  -7.780   0.871  1.00  0.00     0.188 C 
BRANCH  27  28
ATOM     28  O   UNL     1       5.926  -7.770   1.904  1.00  0.00    -0.376 OA
BRANCH  28  29
ATOM     29  C   UNL     1       6.379  -7.631   3.242  1.00  0.00     0.202 C 
BRANCH  29  30
ATOM     30  C   UNL     1       6.891  -6.236   3.626  1.00  0.00     0.261 C 
BRANCH  30  31
ATOM     31  O   UNL     1       8.005  -5.752   2.862  1.00  0.00    -0.460 OA
BRANCH  31  32
ATOM     32  C   UNL     1       9.148  -6.470   2.915  1.00  0.00     0.338 C 
ATOM     33  O   UNL     1       9.356  -7.465   3.586  1.00  0.00    -0.246 OA
BRANCH  32  34
ATOM     34  C   UNL     1      10.045  -5.955   1.860  1.00  0.00     0.060 A 
ATOM     35  C   UNL     1      10.475  -6.824   0.849  1.00  0.00     0.016 A 
ATOM     36  C   UNL     1      10.447  -4.617   1.865  1.00  0.00     0.016 A 
ATOM     37  C   UNL     1      11.338  -6.362  -0.145  1.00  0.00     0.010 A 
ATOM     38  C   UNL     1      11.333  -4.164   0.884  1.00  0.00     0.010 A 
ATOM     39  C   UNL     1      11.808  -5.043  -0.104  1.00  0.00    -0.014 A 
BRANCH  39  40
ATOM     40  C   UNL     1      12.966  -4.653  -0.945  1.00  0.00     0.031 A 
ATOM     41  C   UNL     1      14.338  -4.745  -0.333  1.00  0.00     0.074 A 
ATOM     42  C   UNL     1      12.815  -4.268  -2.225  1.00  0.00     0.049 A 
ATOM     43  N   UNL     1      15.496  -4.410  -0.837  1.00  0.00    -0.248 NA
ATOM     44  C   UNL     1      14.412  -5.293   1.032  1.00  0.00     0.031 C 
ATOM     45  C   UNL     1      11.547  -4.209  -2.948  1.00  0.00     0.029 A 
ATOM     46  N   UNL     1      13.747  -3.856  -3.145  1.00  0.00    -0.354 N 
ATOM     47  C   UNL     1      16.434  -4.711   0.143  1.00  0.00     0.074 A 
ATOM     48  C   UNL     1      15.709  -5.223   1.285  1.00  0.00     0.031 C 
ATOM     49  C   UNL     1      11.781  -3.786  -4.204  1.00  0.00     0.029 A 
ATOM     50  C   UNL     1      13.208  -3.505  -4.361  1.00  0.00     0.049 A 
ATOM     51  H   UNL     1      14.712  -3.815  -2.953  1.00  0.00     0.167 HD
ATOM     52  C   UNL     1      17.780  -4.583   0.092  1.00  0.00     0.034 A 
ATOM     53  C   UNL     1      13.797  -2.995  -5.463  1.00  0.00     0.034 A 
ATOM     54  C   UNL     1      18.494  -4.066  -1.045  1.00  0.00     0.049 A 
ATOM     55  C   UNL     1      15.288  -2.749  -5.453  1.00  0.00     0.074 A 
ATOM     56  C   UNL     1      19.857  -3.887  -1.193  1.00  0.00     0.029 A 
ATOM     57  N   UNL     1      17.903  -3.643  -2.227  1.00  0.00    -0.354 N 
ATOM     58  N   UNL     1      16.160  -3.004  -4.505  1.00  0.00    -0.248 NA
ATOM     59  C   UNL     1      15.872  -2.142  -6.658  1.00  0.00     0.031 C 
ATOM     60  C   UNL     1      20.086  -3.293  -2.437  1.00  0.00     0.029 A 
ATOM     61  C   UNL     1      18.873  -3.171  -3.096  1.00  0.00     0.049 A 
ATOM     62  H   UNL     1      16.938  -3.672  -2.419  1.00  0.00     0.167 HD
ATOM     63  C   UNL     1      17.398  -2.610  -5.010  1.00  0.00     0.074 A 
ATOM     64  C   UNL     1      17.161  -2.108  -6.348  1.00  0.00     0.031 C 
ATOM     65  C   UNL     1      18.620  -2.663  -4.422  1.00  0.00     0.034 A 
BRANCH  52  66
ATOM     66  C   UNL     1      18.567  -4.976   1.313  1.00  0.00     0.023 A 
ATOM     67  C   UNL     1      18.689  -6.319   1.707  1.00  0.00     0.031 A 
ATOM     68  C   UNL     1      19.226  -3.996   2.075  1.00  0.00     0.131 A 
ATOM     69  C   UNL     1      19.431  -6.643   2.852  1.00  0.00     0.055 A 
ATOM     70  C   UNL     1      20.011  -4.330   3.178  1.00  0.00     0.041 A 
ATOM     71  F   UNL     1      19.120  -2.697   1.753  1.00  0.00    -0.206 F 
ATOM     72  C   UNL     1      20.114  -5.660   3.575  1.00  0.00     0.022 A 
BRANCH  69  73
ATOM     73  S   UNL     1      19.440  -8.362   3.425  1.00  0.00     0.124 S 
ATOM     74  O   UNL     1      18.037  -8.561   3.781  1.00  0.00    -0.237 OA
ATOM     75  O   UNL     1      19.909  -9.087   2.250  1.00  0.00    -0.237 OA
ATOM     76  O   UNL     1      20.367  -8.342   4.555  1.00  0.00    -0.744 OA
ENDBRANCH  69  73
ENDBRANCH  52  66
BRANCH  53  77
ATOM     77  C   UNL     1      12.981  -2.642  -6.660  1.00  0.00     0.023 A 
ATOM     78  C   UNL     1      13.147  -3.321  -7.877  1.00  0.00     0.031 A 
ATOM     79  C   UNL     1      12.046  -1.592  -6.612  1.00  0.00     0.131 A 
ATOM     80  C   UNL     1      12.407  -2.928  -9.004  1.00  0.00     0.055 A 
ATOM     81  C   UNL     1      11.282  -1.233  -7.723  1.00  0.00     0.041 A 
ATOM     82  F   UNL     1      11.853  -0.907  -5.473  1.00  0.00    -0.206 F 
ATOM     83  C   UNL     1      11.466  -1.898  -8.931  1.00  0.00     0.022 A 
BRANCH  80  84
ATOM     84  S   UNL     1      12.723  -3.756 -10.586  1.00  0.00     0.124 S 
ATOM     85  O   UNL     1      14.111  -3.387 -10.841  1.00  0.00    -0.237 OA
ATOM     86  O   UNL     1      12.481  -5.155 -10.252  1.00  0.00    -0.237 OA
ATOM     87  O   UNL     1      11.742  -3.155 -11.487  1.00  0.00    -0.744 OA
ENDBRANCH  80  84
ENDBRANCH  53  77
BRANCH  65  88
ATOM     88  C   UNL     1      19.805  -2.190  -5.224  1.00  0.00     0.023 A 
ATOM     89  C   UNL     1      19.995  -0.831  -5.519  1.00  0.00     0.031 A 
ATOM     90  C   UNL     1      20.784  -3.107  -5.648  1.00  0.00     0.131 A 
ATOM     91  C   UNL     1      21.126  -0.427  -6.245  1.00  0.00     0.055 A 
ATOM     92  C   UNL     1      21.933  -2.693  -6.324  1.00  0.00     0.041 A 
ATOM     93  F   UNL     1      20.653  -4.417  -5.385  1.00  0.00    -0.206 F 
ATOM     94  C   UNL     1      22.105  -1.347  -6.631  1.00  0.00     0.022 A 
BRANCH  91  95
ATOM     95  S   UNL     1      21.284   1.318  -6.712  1.00  0.00     0.124 S 
ATOM     96  O   UNL     1      20.126   1.503  -7.581  1.00  0.00    -0.237 OA
ATOM     97  O   UNL     1      21.227   1.997  -5.422  1.00  0.00    -0.237 OA
ATOM     98  O   UNL     1      22.580   1.377  -7.385  1.00  0.00    -0.744 OA
ENDBRANCH  91  95
ENDBRANCH  65  88
ENDBRANCH  39  40
ENDBRANCH  32  34
ENDBRANCH  31  32
ENDBRANCH  30  31
ENDBRANCH  29  30
ENDBRANCH  28  29
ENDBRANCH  27  28
ENDBRANCH   1  27
TORSDOF 24
