REMARK SMILES O=C(OCCOCCOCCOCCOC(=O)c1[nH]ncc1C[N@H+]1CCC[C@H](C(=O)c2ccc3ccccc3c2)C1)c1ccc(-c2c3nc(c(-c4cc(S(=O)(=O)[O-])ccc4F)c4ccc([nH]4)c(-c4cc(S(=O)(=O)[O-])ccc4F)c4nc(c(-c5cc(S(=O)(=O)[O-])ccc5F)c5ccc2[nH]5)C=C4)C=C3)cc1
REMARK SMILES IDX 10 1 9 2 8 3 7 4 6 5 5 6 4 7 3 8 2 9 1 10 42 11 43 12 104 13
REMARK SMILES IDX 44 14 103 15 45 16 46 17 47 18 97 19 48 20 102 21 96 22
REMARK SMILES IDX 98 23 49 24 101 25 95 26 94 27 50 29 82 30 62 31 81 32 63 33
REMARK SMILES IDX 66 34 80 35 99 36 64 37 65 38 79 40 100 41 67 42 51 43 52 44
REMARK SMILES IDX 60 45 53 46 59 47 61 48 58 49 54 50 55 51 56 52 57 53 83 54
REMARK SMILES IDX 84 55 92 56 85 57 91 58 93 59 90 60 86 61 87 62 88 63 89 64
REMARK SMILES IDX 68 65 69 66 77 67 70 68 76 69 78 70 75 71 71 72 72 73 73 74
REMARK SMILES IDX 74 75 11 76 12 77 13 78 14 79 15 80 16 81 17 82 18 83 19 84
REMARK SMILES IDX 22 85 20 86 21 88 23 89 24 90 25 91 41 92 26 94 28 95 27 96
REMARK SMILES IDX 29 97 30 98 31 99 32 100 40 101 33 102 39 103 34 104 38 105
REMARK SMILES IDX 35 106 37 107 36 108
REMARK H PARENT 98 28 66 39 19 87 24 93
REMARK Flexibility Score: inf
ROOT
ATOM      1  C   UNL     1       4.279   0.472  -3.470  1.00  0.00     0.188 C 
ENDROOT
BRANCH   1   2
ATOM      2  O   UNL     1       2.896   0.531  -3.813  1.00  0.00    -0.377 OA
BRANCH   2   3
ATOM      3  C   UNL     1       1.987   0.548  -2.706  1.00  0.00     0.188 C 
BRANCH   3   4
ATOM      4  C   UNL     1       2.296  -0.481  -1.613  1.00  0.00     0.188 C 
BRANCH   4   5
ATOM      5  O   UNL     1       3.488  -0.096  -0.938  1.00  0.00    -0.376 OA
BRANCH   5   6
ATOM      6  C   UNL     1       4.320  -1.121  -0.411  1.00  0.00     0.202 C 
BRANCH   6   7
ATOM      7  C   UNL     1       3.760  -1.841   0.810  1.00  0.00     0.261 C 
BRANCH   7   8
ATOM      8  O   UNL     1       2.372  -1.559   1.063  1.00  0.00    -0.460 OA
BRANCH   8   9
ATOM      9  C   UNL     1       1.837  -0.511   1.738  1.00  0.00     0.338 C 
ATOM     10  O   UNL     1       0.619  -0.462   1.898  1.00  0.00    -0.246 OA
BRANCH   9  11
ATOM     11  C   UNL     1       2.666   0.551   2.363  1.00  0.00     0.060 A 
ATOM     12  C   UNL     1       3.697   1.228   1.717  1.00  0.00     0.016 A 
ATOM     13  C   UNL     1       2.306   0.971   3.650  1.00  0.00     0.016 A 
ATOM     14  C   UNL     1       4.487   2.151   2.384  1.00  0.00     0.010 A 
ATOM     15  C   UNL     1       3.036   1.973   4.298  1.00  0.00     0.010 A 
ATOM     16  C   UNL     1       4.179   2.514   3.690  1.00  0.00    -0.014 A 
BRANCH  16  17
ATOM     17  C   UNL     1       5.181   3.279   4.464  1.00  0.00     0.031 A 
ATOM     18  C   UNL     1       5.872   2.563   5.591  1.00  0.00     0.074 A 
ATOM     19  C   UNL     1       5.566   4.510   4.079  1.00  0.00     0.049 A 
ATOM     20  N   UNL     1       6.679   3.026   6.505  1.00  0.00    -0.248 NA
ATOM     21  C   UNL     1       5.599   1.120   5.706  1.00  0.00     0.031 C 
ATOM     22  C   UNL     1       5.059   5.226   2.905  1.00  0.00     0.029 A 
ATOM     23  N   UNL     1       6.503   5.360   4.604  1.00  0.00    -0.354 N 
ATOM     24  C   UNL     1       6.950   1.948   7.344  1.00  0.00     0.074 A 
ATOM     25  C   UNL     1       6.214   0.815   6.835  1.00  0.00     0.031 C 
ATOM     26  C   UNL     1       5.730   6.382   2.772  1.00  0.00     0.029 A 
ATOM     27  C   UNL     1       6.639   6.536   3.901  1.00  0.00     0.049 A 
ATOM     28  H   UNL     1       7.029   5.150   5.409  1.00  0.00     0.167 HD
ATOM     29  C   UNL     1       7.739   1.921   8.444  1.00  0.00     0.034 A 
ATOM     30  C   UNL     1       7.387   7.624   4.173  1.00  0.00     0.034 A 
ATOM     31  C   UNL     1       8.482   3.073   8.889  1.00  0.00     0.049 A 
ATOM     32  C   UNL     1       8.214   7.596   5.436  1.00  0.00     0.074 A 
ATOM     33  C   UNL     1       9.253   3.230  10.024  1.00  0.00     0.029 A 
ATOM     34  N   UNL     1       8.553   4.274   8.187  1.00  0.00    -0.354 N 
ATOM     35  N   UNL     1       8.360   6.621   6.307  1.00  0.00    -0.248 NA
ATOM     36  C   UNL     1       8.961   8.814   5.763  1.00  0.00     0.031 C 
ATOM     37  C   UNL     1       9.750   4.540  10.033  1.00  0.00     0.029 A 
ATOM     38  C   UNL     1       9.347   5.179   8.869  1.00  0.00     0.049 A 
ATOM     39  H   UNL     1       8.103   4.453   7.330  1.00  0.00     0.167 HD
ATOM     40  C   UNL     1       9.228   7.104   7.279  1.00  0.00     0.074 A 
ATOM     41  C   UNL     1       9.594   8.448   6.868  1.00  0.00     0.031 C 
ATOM     42  C   UNL     1       9.681   6.509   8.414  1.00  0.00     0.034 A 
BRANCH  29  43
ATOM     43  C   UNL     1       7.722   0.652   9.263  1.00  0.00     0.023 A 
ATOM     44  C   UNL     1       8.174  -0.578   8.751  1.00  0.00     0.031 A 
ATOM     45  C   UNL     1       7.116   0.651  10.532  1.00  0.00     0.131 A 
ATOM     46  C   UNL     1       7.917  -1.766   9.455  1.00  0.00     0.055 A 
ATOM     47  C   UNL     1       6.947  -0.524  11.269  1.00  0.00     0.041 A 
ATOM     48  F   UNL     1       6.636   1.787  11.061  1.00  0.00    -0.206 F 
ATOM     49  C   UNL     1       7.328  -1.745  10.722  1.00  0.00     0.022 A 
BRANCH  46  50
ATOM     50  S   UNL     1       8.189  -3.352   8.612  1.00  0.00     0.124 S 
ATOM     51  O   UNL     1       7.291  -3.233   7.465  1.00  0.00    -0.237 OA
ATOM     52  O   UNL     1       9.615  -3.311   8.312  1.00  0.00    -0.237 OA
ATOM     53  O   UNL     1       7.788  -4.344   9.608  1.00  0.00    -0.744 OA
ENDBRANCH  46  50
ENDBRANCH  29  43
BRANCH  30  54
ATOM     54  C   UNL     1       7.337   8.835   3.298  1.00  0.00     0.023 A 
ATOM     55  C   UNL     1       8.491   9.336   2.672  1.00  0.00     0.031 A 
ATOM     56  C   UNL     1       6.134   9.542   3.107  1.00  0.00     0.131 A 
ATOM     57  C   UNL     1       8.425  10.521   1.919  1.00  0.00     0.055 A 
ATOM     58  C   UNL     1       6.062  10.687   2.311  1.00  0.00     0.041 A 
ATOM     59  F   UNL     1       4.998   9.121   3.686  1.00  0.00    -0.206 F 
ATOM     60  C   UNL     1       7.215  11.191   1.722  1.00  0.00     0.022 A 
BRANCH  57  61
ATOM     61  S   UNL     1       9.963  11.232   1.268  1.00  0.00     0.124 S 
ATOM     62  O   UNL     1      10.758  11.385   2.481  1.00  0.00    -0.237 OA
ATOM     63  O   UNL     1      10.403  10.197   0.337  1.00  0.00    -0.237 OA
ATOM     64  O   UNL     1       9.525  12.480   0.646  1.00  0.00    -0.744 OA
ENDBRANCH  57  61
ENDBRANCH  30  54
BRANCH  42  65
ATOM     65  C   UNL     1      10.654   7.303   9.242  1.00  0.00     0.023 A 
ATOM     66  C   UNL     1      10.259   8.461   9.931  1.00  0.00     0.031 A 
ATOM     67  C   UNL     1      11.998   6.901   9.325  1.00  0.00     0.131 A 
ATOM     68  C   UNL     1      11.214   9.217  10.623  1.00  0.00     0.055 A 
ATOM     69  C   UNL     1      12.932   7.623  10.067  1.00  0.00     0.041 A 
ATOM     70  F   UNL     1      12.423   5.800   8.685  1.00  0.00    -0.206 F 
ATOM     71  C   UNL     1      12.545   8.797  10.709  1.00  0.00     0.022 A 
BRANCH  68  72
ATOM     72  S   UNL     1      10.715  10.813  11.322  1.00  0.00     0.124 S 
ATOM     73  O   UNL     1      10.215  11.517  10.146  1.00  0.00    -0.237 OA
ATOM     74  O   UNL     1       9.710  10.421  12.306  1.00  0.00    -0.237 OA
ATOM     75  O   UNL     1      11.956  11.344  11.882  1.00  0.00    -0.744 OA
ENDBRANCH  68  72
ENDBRANCH  42  65
ENDBRANCH  16  17
ENDBRANCH   9  11
ENDBRANCH   8   9
ENDBRANCH   7   8
ENDBRANCH   6   7
ENDBRANCH   5   6
ENDBRANCH   4   5
ENDBRANCH   3   4
ENDBRANCH   2   3
ENDBRANCH   1   2
BRANCH   1  76
ATOM     76  C   UNL     1       4.894   1.673  -2.715  1.00  0.00     0.188 C 
BRANCH  76  77
ATOM     77  O   UNL     1       3.926   2.577  -2.202  1.00  0.00    -0.376 OA
BRANCH  77  78
ATOM     78  C   UNL     1       3.971   3.906  -2.703  1.00  0.00     0.202 C 
BRANCH  78  79
ATOM     79  C   UNL     1       3.476   4.115  -4.144  1.00  0.00     0.261 C 
BRANCH  79  80
ATOM     80  O   UNL     1       3.869   3.115  -5.093  1.00  0.00    -0.459 OA
BRANCH  80  81
ATOM     81  C   UNL     1       5.148   3.072  -5.511  1.00  0.00     0.356 C 
ATOM     82  O   UNL     1       6.034   3.877  -5.197  1.00  0.00    -0.244 OA
BRANCH  81  83
ATOM     83  C   UNL     1       5.360   1.866  -6.252  1.00  0.00     0.152 A 
ATOM     84  N   UNL     1       6.479   1.087  -6.155  1.00  0.00    -0.271 N 
ATOM     85  C   UNL     1       4.571   1.249  -7.220  1.00  0.00     0.059 A 
ATOM     86  N   UNL     1       6.377  -0.087  -6.807  1.00  0.00    -0.183 NA
ATOM     87  H   UNL     1       7.283   1.359  -5.657  1.00  0.00     0.190 HD
ATOM     88  C   UNL     1       5.214   0.015  -7.457  1.00  0.00     0.145 A 
BRANCH  85  89
ATOM     89  C   UNL     1       3.390   1.841  -7.914  1.00  0.00     0.303 C 
BRANCH  89  90
ATOM     90  N   UNL     1       3.816   2.734  -9.025  1.00  0.00    -0.330 N 
ATOM     91  C   UNL     1       4.917   3.639  -8.657  1.00  0.00     0.262 C 
ATOM     92  C   UNL     1       4.100   1.985 -10.248  1.00  0.00     0.274 C 
ATOM     93  H   UNL     1       3.019   3.340  -9.219  1.00  0.00     0.348 HD
ATOM     94  C   UNL     1       5.465   4.544  -9.746  1.00  0.00     0.062 C 
ATOM     95  C   UNL     1       4.409   2.916 -11.423  1.00  0.00     0.116 C 
ATOM     96  C   UNL     1       5.569   3.861 -11.101  1.00  0.00     0.023 C 
BRANCH  95  97
ATOM     97  C   UNL     1       3.139   3.563 -11.993  1.00  0.00     0.171 C 
ATOM     98  O   UNL     1       2.681   3.233 -13.087  1.00  0.00    -0.294 OA
BRANCH  97  99
ATOM     99  C   UNL     1       2.372   4.544 -11.192  1.00  0.00     0.019 A 
ATOM    100  C   UNL     1       2.837   5.846 -11.037  1.00  0.00     0.012 A 
ATOM    101  C   UNL     1       1.175   4.146 -10.591  1.00  0.00     0.020 A 
ATOM    102  C   UNL     1       2.197   6.708 -10.146  1.00  0.00     0.009 A 
ATOM    103  C   UNL     1       0.488   5.026  -9.737  1.00  0.00    -0.018 A 
ATOM    104  C   UNL     1       1.031   6.307  -9.478  1.00  0.00    -0.018 A 
ATOM    105  C   UNL     1      -0.719   4.660  -9.120  1.00  0.00     0.009 A 
ATOM    106  C   UNL     1       0.390   7.157  -8.564  1.00  0.00     0.009 A 
ATOM    107  C   UNL     1      -1.363   5.531  -8.239  1.00  0.00     0.001 A 
ATOM    108  C   UNL     1      -0.801   6.771  -7.948  1.00  0.00     0.001 A 
ENDBRANCH  97  99
ENDBRANCH  95  97
ENDBRANCH  89  90
ENDBRANCH  85  89
ENDBRANCH  81  83
ENDBRANCH  80  81
ENDBRANCH  79  80
ENDBRANCH  78  79
ENDBRANCH  77  78
ENDBRANCH  76  77
ENDBRANCH   1  76
TORSDOF 27
