REMARK SMILES CCOC(=O)c1c(NC(=O)[C@@H]2[C@@H]3CC[C@@H](C3)[C@@H]2C(=O)OCCOCCOCCOCCOC(=O)c2ccc(-c3c4nc(c(-c5cc(S(=O)(=O)[O-])ccc5F)c5ccc([nH]5)c(-c5cc(S(=O)(=O)[O-])ccc5F)c5nc(c(-c6cc(S(=O)(=O)[O-])ccc6F)c6ccc3[nH]6)C=C5)C=C4)cc2)sc2c1CCCC2
REMARK SMILES IDX 25 1 24 2 23 3 22 4 21 5 20 6 18 7 19 8 17 9 11 10 12 11
REMARK SMILES IDX 13 12 16 13 15 14 14 15 9 16 8 17 10 19 7 20 6 21 100 22
REMARK SMILES IDX 98 23 99 24 101 25 104 26 102 27 103 28 4 29 5 30 3 31 2 32
REMARK SMILES IDX 1 33 26 34 27 35 28 36 29 37 30 38 31 39 32 40 33 41 34 42
REMARK SMILES IDX 35 43 36 44 97 45 37 46 96 47 38 48 39 49 40 50 90 51 41 52
REMARK SMILES IDX 95 53 89 54 91 55 42 56 94 57 88 58 87 59 43 61 75 62 55 63
REMARK SMILES IDX 74 64 56 65 59 66 73 67 92 68 57 69 58 70 72 72 93 73 60 74
REMARK SMILES IDX 44 75 45 76 53 77 46 78 52 79 54 80 51 81 47 82 48 83 49 84
REMARK SMILES IDX 50 85 76 86 77 87 85 88 78 89 84 90 86 91 83 92 79 93 80 94
REMARK SMILES IDX 81 95 82 96 61 97 62 98 70 99 63 100 69 101 71 102 68 103
REMARK SMILES IDX 64 104 65 105 66 106 67 107
REMARK H PARENT 8 18 91 60 59 71
REMARK Flexibility Score: inf
ROOT
ATOM      1  C   UNL     1       2.246  -3.913   0.541  1.00  0.00     0.188 C 
ENDROOT
BRANCH   1   2
ATOM      2  C   UNL     1       1.350  -3.030   1.444  1.00  0.00     0.188 C 
BRANCH   2   3
ATOM      3  O   UNL     1       0.167  -3.619   1.936  1.00  0.00    -0.376 OA
BRANCH   3   4
ATOM      4  C   UNL     1      -1.055  -3.366   1.269  1.00  0.00     0.202 C 
BRANCH   4   5
ATOM      5  C   UNL     1      -1.179  -3.460  -0.278  1.00  0.00     0.261 C 
BRANCH   5   6
ATOM      6  O   UNL     1       0.049  -3.276  -1.011  1.00  0.00    -0.463 OA
BRANCH   6   7
ATOM      7  C   UNL     1       0.040  -2.504  -2.146  1.00  0.00     0.310 C 
ATOM      8  O   UNL     1      -0.945  -2.257  -2.826  1.00  0.00    -0.252 OA
BRANCH   7   9
ATOM      9  C   UNL     1       1.541  -1.913  -2.471  1.00  0.00     0.115 C 
ATOM     10  C   UNL     1       2.940  -1.109  -1.020  1.00  0.00     0.096 C 
ATOM     11  C   UNL     1       3.771   0.527  -1.993  1.00  0.00     0.003 C 
ATOM     12  C   UNL     1       2.821   1.803  -2.281  1.00  0.00     0.005 C 
ATOM     13  C   UNL     1       3.485   0.315  -3.924  1.00  0.00     0.009 C 
ATOM     14  C   UNL     1       1.621  -0.399  -3.953  1.00  0.00     0.004 C 
ATOM     15  C   UNL     1       1.613   1.375  -3.514  1.00  0.00     0.005 C 
BRANCH  10  16
ATOM     16  C   UNL     1       2.695  -0.265   0.502  1.00  0.00     0.229 C 
ATOM     17  N   UNL     1       1.765   0.768   0.837  1.00  0.00    -0.317 N 
ATOM     18  H   UNL     1       1.862   1.150   1.739  1.00  0.00     0.170 HD
ATOM     19  O   UNL     1       3.509  -0.548   1.402  1.00  0.00    -0.274 OA
BRANCH  17  20
ATOM     20  C   UNL     1       0.728   1.315   0.053  1.00  0.00     0.110 A 
ATOM     21  C   UNL     1       0.485   0.981  -1.250  1.00  0.00     0.098 A 
ATOM     22  C   UNL     1      -0.826   1.259  -1.714  1.00  0.00    -0.017 A 
ATOM     23  S   UNL     1      -0.572   2.239   0.661  1.00  0.00    -0.122 S 
ATOM     24  C   UNL     1      -1.505   2.015  -0.793  1.00  0.00     0.011 A 
ATOM     25  C   UNL     1      -1.468   0.754  -2.983  1.00  0.00     0.038 C 
ATOM     26  C   UNL     1      -2.901   2.520  -1.056  1.00  0.00     0.047 C 
ATOM     27  C   UNL     1      -2.392   1.836  -3.511  1.00  0.00     0.005 C 
ATOM     28  C   UNL     1      -3.464   2.060  -2.442  1.00  0.00     0.006 C 
BRANCH  21  29
ATOM     29  C   UNL     1       1.163  -0.192  -1.569  1.00  0.00     0.341 C 
ATOM     30  O   UNL     1       0.718  -1.013  -0.749  1.00  0.00    -0.246 OA
BRANCH  29  31
ATOM     31  O   UNL     1       2.600  -0.608  -2.587  1.00  0.00    -0.462 OA
BRANCH  31  32
ATOM     32  C   UNL     1       3.636  -2.002  -3.309  1.00  0.00     0.230 C 
ATOM     33  C   UNL     1       5.149  -2.058  -3.092  1.00  0.00     0.049 C 
ENDBRANCH  31  32
ENDBRANCH  29  31
ENDBRANCH  21  29
ENDBRANCH  17  20
ENDBRANCH  10  16
ENDBRANCH   7   9
ENDBRANCH   6   7
ENDBRANCH   5   6
ENDBRANCH   4   5
ENDBRANCH   3   4
ENDBRANCH   2   3
ENDBRANCH   1   2
BRANCH   1  34
ATOM     34  O   UNL     1       1.926  -5.262   0.244  1.00  0.00    -0.377 OA
BRANCH  34  35
ATOM     35  C   UNL     1       1.075  -5.967   1.131  1.00  0.00     0.188 C 
BRANCH  35  36
ATOM     36  C   UNL     1       1.391  -5.906   2.646  1.00  0.00     0.188 C 
BRANCH  36  37
ATOM     37  O   UNL     1       2.443  -5.032   2.998  1.00  0.00    -0.376 OA
BRANCH  37  38
ATOM     38  C   UNL     1       3.776  -5.500   3.043  1.00  0.00     0.202 C 
BRANCH  38  39
ATOM     39  C   UNL     1       4.338  -6.593   2.111  1.00  0.00     0.261 C 
BRANCH  39  40
ATOM     40  O   UNL     1       3.442  -7.558   1.546  1.00  0.00    -0.460 OA
BRANCH  40  41
ATOM     41  C   UNL     1       2.989  -8.548   2.351  1.00  0.00     0.338 C 
ATOM     42  O   UNL     1       3.270  -8.713   3.523  1.00  0.00    -0.246 OA
BRANCH  41  43
ATOM     43  C   UNL     1       1.912  -9.263   1.618  1.00  0.00     0.060 A 
ATOM     44  C   UNL     1       0.585  -9.195   2.080  1.00  0.00     0.016 A 
ATOM     45  C   UNL     1       2.204  -9.944   0.435  1.00  0.00     0.016 A 
ATOM     46  C   UNL     1      -0.445  -9.816   1.372  1.00  0.00     0.010 A 
ATOM     47  C   UNL     1       1.180 -10.611  -0.243  1.00  0.00     0.010 A 
ATOM     48  C   UNL     1      -0.143 -10.576   0.238  1.00  0.00    -0.014 A 
BRANCH  48  49
ATOM     49  C   UNL     1      -1.143 -11.535  -0.294  1.00  0.00     0.031 A 
ATOM     50  C   UNL     1      -1.021 -12.973   0.130  1.00  0.00     0.074 A 
ATOM     51  C   UNL     1      -2.137 -11.152  -1.114  1.00  0.00     0.049 A 
ATOM     52  N   UNL     1      -1.691 -14.021  -0.271  1.00  0.00    -0.248 NA
ATOM     53  C   UNL     1       0.012 -13.264   1.137  1.00  0.00     0.031 C 
ATOM     54  C   UNL     1      -2.404  -9.780  -1.537  1.00  0.00     0.029 A 
ATOM     55  N   UNL     1      -3.103 -11.895  -1.748  1.00  0.00    -0.354 N 
ATOM     56  C   UNL     1      -1.151 -15.099   0.424  1.00  0.00     0.074 A 
ATOM     57  C   UNL     1      -0.072 -14.580   1.235  1.00  0.00     0.031 C 
ATOM     58  C   UNL     1      -3.458  -9.781  -2.372  1.00  0.00     0.029 A 
ATOM     59  C   UNL     1      -3.908 -11.157  -2.583  1.00  0.00     0.049 A 
ATOM     60  H   UNL     1      -3.209 -12.865  -1.616  1.00  0.00     0.167 HD
ATOM     61  C   UNL     1      -1.528 -16.400   0.391  1.00  0.00     0.034 A 
ATOM     62  C   UNL     1      -4.870 -11.553  -3.443  1.00  0.00     0.034 A 
ATOM     63  C   UNL     1      -2.594 -16.900  -0.440  1.00  0.00     0.049 A 
ATOM     64  C   UNL     1      -5.192 -13.027  -3.558  1.00  0.00     0.074 A 
ATOM     65  C   UNL     1      -3.063 -18.197  -0.548  1.00  0.00     0.029 A 
ATOM     66  N   UNL     1      -3.345 -16.132  -1.321  1.00  0.00    -0.354 N 
ATOM     67  N   UNL     1      -4.673 -14.042  -2.904  1.00  0.00    -0.248 NA
ATOM     68  C   UNL     1      -6.232 -13.407  -4.524  1.00  0.00     0.031 C 
ATOM     69  C   UNL     1      -4.024 -18.231  -1.562  1.00  0.00     0.029 A 
ATOM     70  C   UNL     1      -4.240 -16.937  -2.008  1.00  0.00     0.049 A 
ATOM     71  H   UNL     1      -3.255 -15.159  -1.439  1.00  0.00     0.167 HD
ATOM     72  C   UNL     1      -5.355 -15.173  -3.352  1.00  0.00     0.074 A 
ATOM     73  C   UNL     1      -6.324 -14.713  -4.324  1.00  0.00     0.031 C 
ATOM     74  C   UNL     1      -5.200 -16.471  -2.983  1.00  0.00     0.034 A 
BRANCH  61  75
ATOM     75  C   UNL     1      -0.734 -17.372   1.231  1.00  0.00     0.023 A 
ATOM     76  C   UNL     1      -0.664 -17.259   2.630  1.00  0.00     0.031 A 
ATOM     77  C   UNL     1      -0.002 -18.405   0.618  1.00  0.00     0.131 A 
ATOM     78  C   UNL     1       0.187 -18.104   3.358  1.00  0.00     0.055 A 
ATOM     79  C   UNL     1       0.764 -19.305   1.359  1.00  0.00     0.041 A 
ATOM     80  F   UNL     1      -0.004 -18.546  -0.717  1.00  0.00    -0.206 F 
ATOM     81  C   UNL     1       0.877 -19.146   2.737  1.00  0.00     0.022 A 
BRANCH  78  82
ATOM     82  S   UNL     1       0.518 -17.703   5.096  1.00  0.00     0.124 S 
ATOM     83  O   UNL     1       1.029 -16.338   4.991  1.00  0.00    -0.237 OA
ATOM     84  O   UNL     1      -0.796 -17.849   5.709  1.00  0.00    -0.237 OA
ATOM     85  O   UNL     1       1.508 -18.702   5.494  1.00  0.00    -0.744 OA
ENDBRANCH  78  82
ENDBRANCH  61  75
BRANCH  62  86
ATOM     86  C   UNL     1      -5.577 -10.555  -4.300  1.00  0.00     0.023 A 
ATOM     87  C   UNL     1      -6.966 -10.373  -4.206  1.00  0.00     0.031 A 
ATOM     88  C   UNL     1      -4.881  -9.811  -5.271  1.00  0.00     0.131 A 
ATOM     89  C   UNL     1      -7.620  -9.505  -5.095  1.00  0.00     0.055 A 
ATOM     90  C   UNL     1      -5.527  -8.898  -6.106  1.00  0.00     0.041 A 
ATOM     91  F   UNL     1      -3.554  -9.956  -5.418  1.00  0.00    -0.206 F 
ATOM     92  C   UNL     1      -6.908  -8.751  -6.030  1.00  0.00     0.022 A 
BRANCH  89  93
ATOM     93  S   UNL     1      -9.434  -9.458  -5.085  1.00  0.00     0.124 S 
ATOM     94  O   UNL     1      -9.766 -10.849  -5.371  1.00  0.00    -0.237 OA
ATOM     95  O   UNL     1      -9.718  -8.995  -3.731  1.00  0.00    -0.237 OA
ATOM     96  O   UNL     1      -9.755  -8.507  -6.147  1.00  0.00    -0.744 OA
ENDBRANCH  89  93
ENDBRANCH  62  86
BRANCH  74  97
ATOM     97  C   UNL     1      -6.144 -17.488  -3.585  1.00  0.00     0.023 A 
ATOM     98  C   UNL     1      -6.155 -17.777  -4.960  1.00  0.00     0.031 A 
ATOM     99  C   UNL     1      -7.044 -18.187  -2.758  1.00  0.00     0.131 A 
ATOM    100  C   UNL     1      -7.084 -18.696  -5.474  1.00  0.00     0.055 A 
ATOM    101  C   UNL     1      -7.911 -19.156  -3.264  1.00  0.00     0.041 A 
ATOM    102  F   UNL     1      -7.087 -17.947  -1.438  1.00  0.00    -0.206 F 
ATOM    103  C   UNL     1      -7.944 -19.405  -4.631  1.00  0.00     0.022 A 
BRANCH 100 104
ATOM    104  S   UNL     1      -7.236 -18.868  -7.273  1.00  0.00     0.124 S 
ATOM    105  O   UNL     1      -7.543 -17.501  -7.682  1.00  0.00    -0.237 OA
ATOM    106  O   UNL     1      -5.918 -19.366  -7.652  1.00  0.00    -0.237 OA
ATOM    107  O   UNL     1      -8.330 -19.824  -7.436  1.00  0.00    -0.744 OA
ENDBRANCH 100 104
ENDBRANCH  74  97
ENDBRANCH  48  49
ENDBRANCH  41  43
ENDBRANCH  40  41
ENDBRANCH  39  40
ENDBRANCH  38  39
ENDBRANCH  37  38
ENDBRANCH  36  37
ENDBRANCH  35  36
ENDBRANCH  34  35
ENDBRANCH   1  34
TORSDOF 28
