REMARK SMILES Cc1ccc(S(=O)(=O)Nc2cc3c(cc2C(=O)OCCOCCOCCOCCOC(=O)c2ccc(-c4c5nc(c(-c6cc(S(=O)(=O)[O-])ccc6F)c6ccc([nH]6)c(-c6cc(S(=O)(=O)[O-])ccc6F)c6nc(c(-c7cc(S(=O)(=O)[O-])ccc7F)c7ccc4[nH]7)C=C6)C=C5)cc2)OCCO3)s1
REMARK SMILES IDX 24 1 23 2 22 3 21 4 20 5 19 6 18 7 16 8 17 9 15 10 10 11
REMARK SMILES IDX 11 12 12 13 14 14 13 15 99 16 96 17 98 18 97 19 9 20 6 22
REMARK SMILES IDX 7 23 8 24 5 25 1 26 2 27 3 28 100 29 4 30 25 31 26 32 27 33
REMARK SMILES IDX 28 34 29 35 30 36 31 37 32 38 33 39 34 40 95 41 35 42 94 43
REMARK SMILES IDX 36 44 37 45 38 46 88 47 39 48 93 49 87 50 89 51 40 52 92 53
REMARK SMILES IDX 86 54 85 55 41 57 73 58 53 59 72 60 54 61 57 62 71 63 90 64
REMARK SMILES IDX 55 65 56 66 70 68 91 69 58 70 42 71 43 72 51 73 44 74 50 75
REMARK SMILES IDX 52 76 49 77 45 78 46 79 47 80 48 81 74 82 75 83 83 84 76 85
REMARK SMILES IDX 82 86 84 87 81 88 77 89 78 90 79 91 80 92 59 93 60 94 68 95
REMARK SMILES IDX 61 96 67 97 69 98 66 99 62 100 63 101 64 102 65 103
REMARK H PARENT 9 21 89 56 57 67
REMARK Flexibility Score: inf
ROOT
ATOM      1  O   UNL     1       0.702   0.862   2.602  1.00  0.00    -0.377 OA
ENDROOT
BRANCH   1   2
ATOM      2  C   UNL     1      -0.456   0.467   1.880  1.00  0.00     0.188 C 
BRANCH   2   3
ATOM      3  C   UNL     1      -1.697   1.142   2.461  1.00  0.00     0.188 C 
BRANCH   3   4
ATOM      4  O   UNL     1      -1.927   1.106   3.868  1.00  0.00    -0.376 OA
BRANCH   4   5
ATOM      5  C   UNL     1      -1.267   0.120   4.647  1.00  0.00     0.202 C 
BRANCH   5   6
ATOM      6  C   UNL     1      -1.907  -1.266   4.634  1.00  0.00     0.261 C 
BRANCH   6   7
ATOM      7  O   UNL     1      -2.127  -1.819   3.324  1.00  0.00    -0.460 OA
BRANCH   7   8
ATOM      8  C   UNL     1      -3.395  -1.693   2.861  1.00  0.00     0.340 C 
ATOM      9  O   UNL     1      -4.312  -1.081   3.387  1.00  0.00    -0.246 OA
BRANCH   8  10
ATOM     10  C   UNL     1      -3.606  -2.505   1.645  1.00  0.00     0.088 A 
ATOM     11  C   UNL     1      -4.452  -2.029   0.627  1.00  0.00     0.067 A 
ATOM     12  C   UNL     1      -5.033  -2.930  -0.264  1.00  0.00     0.078 A 
ATOM     13  C   UNL     1      -4.577  -4.245  -0.299  1.00  0.00     0.163 A 
ATOM     14  C   UNL     1      -3.138  -3.825   1.601  1.00  0.00     0.068 A 
ATOM     15  C   UNL     1      -3.576  -4.668   0.583  1.00  0.00     0.162 A 
ATOM     16  O   UNL     1      -5.086  -5.032  -1.300  1.00  0.00    -0.486 OA
ATOM     17  O   UNL     1      -2.990  -5.904   0.497  1.00  0.00    -0.486 OA
ATOM     18  C   UNL     1      -4.663  -6.394  -1.179  1.00  0.00     0.271 C 
ATOM     19  C   UNL     1      -3.193  -6.473  -0.803  1.00  0.00     0.271 C 
BRANCH  11  20
ATOM     20  N   UNL     1      -4.593  -0.615   0.405  1.00  0.00    -0.278 N 
ATOM     21  H   UNL     1      -4.981  -0.018   1.085  1.00  0.00     0.180 HD
BRANCH  20  22
ATOM     22  S   UNL     1      -4.046  -0.026  -1.114  1.00  0.00     0.271 S 
ATOM     23  O   UNL     1      -3.627   1.343  -0.911  1.00  0.00    -0.200 OA
ATOM     24  O   UNL     1      -5.069  -0.354  -2.086  1.00  0.00    -0.200 OA
BRANCH  22  25
ATOM     25  C   UNL     1      -2.619  -0.977  -1.621  1.00  0.00     0.140 A 
ATOM     26  C   UNL     1       1.122  -1.899  -1.078  1.00  0.00     0.056 C 
ATOM     27  C   UNL     1      -0.295  -1.764  -1.512  1.00  0.00     0.003 A 
ATOM     28  C   UNL     1      -1.145  -2.745  -1.974  1.00  0.00     0.016 A 
ATOM     29  S   UNL     1      -1.090  -0.251  -1.477  1.00  0.00    -0.127 S 
ATOM     30  C   UNL     1      -2.477  -2.259  -2.127  1.00  0.00     0.034 A 
ENDBRANCH  22  25
ENDBRANCH  20  22
ENDBRANCH  11  20
ENDBRANCH   8  10
ENDBRANCH   7   8
ENDBRANCH   6   7
ENDBRANCH   5   6
ENDBRANCH   4   5
ENDBRANCH   3   4
ENDBRANCH   2   3
ENDBRANCH   1   2
BRANCH   1  31
ATOM     31  C   UNL     1       1.902   0.844   1.843  1.00  0.00     0.188 C 
BRANCH  31  32
ATOM     32  C   UNL     1       1.935   2.021   0.867  1.00  0.00     0.188 C 
BRANCH  32  33
ATOM     33  O   UNL     1       1.449   1.583  -0.405  1.00  0.00    -0.376 OA
BRANCH  33  34
ATOM     34  C   UNL     1       2.041   2.252  -1.516  1.00  0.00     0.202 C 
BRANCH  34  35
ATOM     35  C   UNL     1       2.814   1.237  -2.373  1.00  0.00     0.261 C 
BRANCH  35  36
ATOM     36  O   UNL     1       3.645   0.349  -1.597  1.00  0.00    -0.460 OA
BRANCH  36  37
ATOM     37  C   UNL     1       4.609   0.950  -0.866  1.00  0.00     0.338 C 
ATOM     38  O   UNL     1       4.927   2.127  -0.922  1.00  0.00    -0.246 OA
BRANCH  37  39
ATOM     39  C   UNL     1       5.107   0.014   0.165  1.00  0.00     0.060 A 
ATOM     40  C   UNL     1       5.371   0.534   1.438  1.00  0.00     0.016 A 
ATOM     41  C   UNL     1       5.362  -1.333  -0.111  1.00  0.00     0.016 A 
ATOM     42  C   UNL     1       5.945  -0.269   2.419  1.00  0.00     0.010 A 
ATOM     43  C   UNL     1       5.960  -2.136   0.867  1.00  0.00     0.010 A 
ATOM     44  C   UNL     1       6.300  -1.590   2.117  1.00  0.00    -0.014 A 
BRANCH  44  45
ATOM     45  C   UNL     1       7.265  -2.276   3.011  1.00  0.00     0.031 A 
ATOM     46  C   UNL     1       8.730  -2.151   2.683  1.00  0.00     0.074 A 
ATOM     47  C   UNL     1       6.863  -2.916   4.123  1.00  0.00     0.049 A 
ATOM     48  N   UNL     1       9.772  -2.603   3.330  1.00  0.00    -0.248 NA
ATOM     49  C   UNL     1       9.062  -1.409   1.455  1.00  0.00     0.031 C 
ATOM     50  C   UNL     1       5.476  -3.055   4.564  1.00  0.00     0.029 A 
ATOM     51  N   UNL     1       7.590  -3.562   5.091  1.00  0.00    -0.354 N 
ATOM     52  C   UNL     1      10.880  -2.191   2.596  1.00  0.00     0.074 A 
ATOM     53  C   UNL     1      10.382  -1.494   1.432  1.00  0.00     0.031 C 
ATOM     54  C   UNL     1       5.453  -3.752   5.715  1.00  0.00     0.029 A 
ATOM     55  C   UNL     1       6.819  -4.127   6.079  1.00  0.00     0.049 A 
ATOM     56  H   UNL     1       8.573  -3.617   5.079  1.00  0.00     0.167 HD
ATOM     57  C   UNL     1      12.194  -2.367   2.875  1.00  0.00     0.034 A 
ATOM     58  C   UNL     1       7.179  -4.872   7.145  1.00  0.00     0.034 A 
ATOM     59  C   UNL     1      12.674  -3.084   4.029  1.00  0.00     0.049 A 
ATOM     60  C   UNL     1       8.650  -5.130   7.388  1.00  0.00     0.074 A 
ATOM     61  C   UNL     1      13.981  -3.325   4.412  1.00  0.00     0.029 A 
ATOM     62  N   UNL     1      11.861  -3.691   4.979  1.00  0.00    -0.354 N 
ATOM     63  N   UNL     1       9.689  -4.716   6.698  1.00  0.00    -0.248 NA
ATOM     64  C   UNL     1       8.995  -5.944   8.560  1.00  0.00     0.031 C 
ATOM     65  C   UNL     1      13.958  -4.140   5.550  1.00  0.00     0.029 A 
ATOM     66  C   UNL     1      12.639  -4.338   5.926  1.00  0.00     0.049 A 
ATOM     67  H   UNL     1      10.877  -3.665   4.979  1.00  0.00     0.167 HD
ATOM     68  C   UNL     1      10.810  -5.194   7.374  1.00  0.00     0.074 A 
ATOM     69  C   UNL     1      10.319  -5.908   8.534  1.00  0.00     0.031 C 
ATOM     70  C   UNL     1      12.127  -5.056   7.069  1.00  0.00     0.034 A 
BRANCH  57  71
ATOM     71  C   UNL     1      13.190  -1.826   1.879  1.00  0.00     0.023 A 
ATOM     72  C   UNL     1      13.321  -0.447   1.633  1.00  0.00     0.031 A 
ATOM     73  C   UNL     1      13.996  -2.707   1.136  1.00  0.00     0.131 A 
ATOM     74  C   UNL     1      14.188   0.005   0.627  1.00  0.00     0.055 A 
ATOM     75  C   UNL     1      14.912  -2.245   0.190  1.00  0.00     0.041 A 
ATOM     76  F   UNL     1      13.893  -4.034   1.307  1.00  0.00    -0.206 F 
ATOM     77  C   UNL     1      15.003  -0.883  -0.079  1.00  0.00     0.022 A 
BRANCH  74  78
ATOM     78  S   UNL     1      14.140   1.757   0.158  1.00  0.00     0.124 S 
ATOM     79  O   UNL     1      12.750   1.910  -0.266  1.00  0.00    -0.237 OA
ATOM     80  O   UNL     1      14.507   2.427   1.400  1.00  0.00    -0.237 OA
ATOM     81  O   UNL     1      15.126   1.852  -0.917  1.00  0.00    -0.744 OA
ENDBRANCH  74  78
ENDBRANCH  57  71
BRANCH  58  82
ATOM     82  C   UNL     1       6.146  -5.468   8.044  1.00  0.00     0.023 A 
ATOM     83  C   UNL     1       6.085  -5.144   9.409  1.00  0.00     0.031 A 
ATOM     84  C   UNL     1       5.251  -6.440   7.560  1.00  0.00     0.131 A 
ATOM     85  C   UNL     1       5.188  -5.823  10.251  1.00  0.00     0.055 A 
ATOM     86  C   UNL     1       4.323  -7.071   8.390  1.00  0.00     0.041 A 
ATOM     87  F   UNL     1       5.267  -6.794   6.265  1.00  0.00    -0.206 F 
ATOM     88  C   UNL     1       4.299  -6.775   9.748  1.00  0.00     0.022 A 
BRANCH  85  89
ATOM     89  S   UNL     1       5.272  -5.519  12.039  1.00  0.00     0.124 S 
ATOM     90  O   UNL     1       6.662  -5.851  12.331  1.00  0.00    -0.237 OA
ATOM     91  O   UNL     1       4.917  -4.107  12.121  1.00  0.00    -0.237 OA
ATOM     92  O   UNL     1       4.281  -6.442  12.587  1.00  0.00    -0.744 OA
ENDBRANCH  85  89
ENDBRANCH  58  82
BRANCH  70  93
ATOM     93  C   UNL     1      13.121  -5.660   8.032  1.00  0.00     0.023 A 
ATOM     94  C   UNL     1      13.212  -7.049   8.227  1.00  0.00     0.031 A 
ATOM     95  C   UNL     1      13.982  -4.831   8.775  1.00  0.00     0.131 A 
ATOM     96  C   UNL     1      14.095  -7.564   9.188  1.00  0.00     0.055 A 
ATOM     97  C   UNL     1      14.905  -5.354   9.681  1.00  0.00     0.041 A 
ATOM     98  F   UNL     1      13.940  -3.497   8.630  1.00  0.00    -0.206 F 
ATOM     99  C   UNL     1      14.955  -6.727   9.903  1.00  0.00     0.022 A 
BRANCH  96 100
ATOM    100  S   UNL     1      14.029  -9.337   9.567  1.00  0.00     0.124 S 
ATOM    101  O   UNL     1      12.634  -9.512   9.957  1.00  0.00    -0.237 OA
ATOM    102  O   UNL     1      14.417  -9.942   8.297  1.00  0.00    -0.237 OA
ATOM    103  O   UNL     1      15.000  -9.492  10.649  1.00  0.00    -0.744 OA
ENDBRANCH  96 100
ENDBRANCH  70  93
ENDBRANCH  44  45
ENDBRANCH  37  39
ENDBRANCH  36  37
ENDBRANCH  35  36
ENDBRANCH  34  35
ENDBRANCH  33  34
ENDBRANCH  32  33
ENDBRANCH  31  32
ENDBRANCH   1  31
TORSDOF 26
