REMARK SMILES CCC(CC)([NH2+]CC(=O)Nc1ccc(C)cc1)C(=O)OCCOCCOCCOCCOC(=O)c1ccc(-c2c3nc(c(-c4cc(S(=O)(=O)[O-])ccc4F)c4ccc([nH]4)c(-c4cc(S(=O)(=O)[O-])ccc4F)c4nc(c(-c5cc(S(=O)(=O)[O-])ccc5F)c5ccc2[nH]5)C=C4)C=C3)cc1
REMARK SMILES IDX 25 1 24 2 23 3 22 4 21 5 20 6 18 7 19 8 3 9 2 10 1 11 4 12
REMARK SMILES IDX 5 13 6 14 7 17 8 18 9 19 10 20 11 22 12 23 17 24 13 25 16 26
REMARK SMILES IDX 14 27 15 28 26 29 27 30 28 31 29 32 30 33 31 34 32 35 33 36
REMARK SMILES IDX 34 37 35 38 36 39 97 40 37 41 96 42 38 43 39 44 40 45 90 46
REMARK SMILES IDX 41 47 95 48 89 49 91 50 42 51 94 52 88 53 87 54 43 56 75 57
REMARK SMILES IDX 55 58 74 59 56 60 59 61 73 62 92 63 57 64 58 65 72 67 93 68
REMARK SMILES IDX 60 69 44 70 45 71 53 72 46 73 52 74 54 75 51 76 47 77 48 78
REMARK SMILES IDX 49 79 50 80 76 81 77 82 85 83 78 84 84 85 86 86 83 87 79 88
REMARK SMILES IDX 80 89 81 90 82 91 61 92 62 93 70 94 63 95 69 96 71 97 68 98
REMARK SMILES IDX 64 99 65 100 66 101 67 102
REMARK H PARENT 6 15 6 16 10 21 91 55 59 66
REMARK Flexibility Score: inf
ROOT
ATOM      1  C   UNL     1       0.840  -2.160   4.468  1.00  0.00     0.188 C 
ENDROOT
BRANCH   1   2
ATOM      2  C   UNL     1       1.659  -2.735   3.286  1.00  0.00     0.188 C 
BRANCH   2   3
ATOM      3  O   UNL     1       3.051  -2.496   3.171  1.00  0.00    -0.376 OA
BRANCH   3   4
ATOM      4  C   UNL     1       3.516  -1.305   2.539  1.00  0.00     0.202 C 
BRANCH   4   5
ATOM      5  C   UNL     1       2.675  -0.722   1.405  1.00  0.00     0.261 C 
BRANCH   5   6
ATOM      6  O   UNL     1       1.470  -0.124   1.923  1.00  0.00    -0.459 OA
BRANCH   6   7
ATOM      7  C   UNL     1       0.387  -0.100   1.086  1.00  0.00     0.368 C 
ATOM      8  O   UNL     1       0.409  -0.578  -0.042  1.00  0.00    -0.245 OA
BRANCH   7   9
ATOM      9  C   UNL     1      -0.948   0.330   1.798  1.00  0.00     0.194 C 
BRANCH   9  10
ATOM     10  C   UNL     1      -1.641  -1.067   2.021  1.00  0.00     0.077 C 
ATOM     11  C   UNL     1      -1.918  -1.861   0.723  1.00  0.00     0.011 C 
ENDBRANCH   9  10
BRANCH   9  12
ATOM     12  C   UNL     1      -1.960   1.172   0.980  1.00  0.00     0.077 C 
ATOM     13  C   UNL     1      -3.353   1.341   1.593  1.00  0.00     0.011 C 
ENDBRANCH   9  12
BRANCH   9  14
ATOM     14  N   UNL     1      -0.666   1.051   3.075  1.00  0.00    -0.324 N 
ATOM     15  H   UNL     1      -0.204   0.393   3.703  1.00  0.00     0.347 HD
ATOM     16  H   UNL     1      -1.575   1.389   3.390  1.00  0.00     0.347 HD
BRANCH  14  17
ATOM     17  C   UNL     1       0.195   2.281   2.999  1.00  0.00     0.363 C 
BRANCH  17  18
ATOM     18  C   UNL     1      -0.452   3.558   2.404  1.00  0.00     0.279 C 
ATOM     19  O   UNL     1      -1.344   4.149   3.029  1.00  0.00    -0.268 OA
ATOM     20  N   UNL     1      -0.145   4.050   1.140  1.00  0.00    -0.321 N 
ATOM     21  H   UNL     1      -0.426   4.974   0.949  1.00  0.00     0.170 HD
BRANCH  20  22
ATOM     22  C   UNL     1       0.522   3.371   0.105  1.00  0.00     0.041 A 
ATOM     23  C   UNL     1      -0.177   2.867  -0.993  1.00  0.00     0.026 A 
ATOM     24  C   UNL     1       1.871   3.139   0.168  1.00  0.00     0.026 A 
ATOM     25  C   UNL     1       0.406   1.888  -1.812  1.00  0.00     0.005 A 
ATOM     26  C   UNL     1       2.430   2.124  -0.591  1.00  0.00     0.005 A 
ATOM     27  C   UNL     1       1.699   1.447  -1.555  1.00  0.00    -0.051 A 
ATOM     28  C   UNL     1       2.306   0.270  -2.259  1.00  0.00     0.044 C 
ENDBRANCH  20  22
ENDBRANCH  17  18
ENDBRANCH  14  17
ENDBRANCH   9  14
ENDBRANCH   7   9
ENDBRANCH   6   7
ENDBRANCH   5   6
ENDBRANCH   4   5
ENDBRANCH   3   4
ENDBRANCH   2   3
ENDBRANCH   1   2
BRANCH   1  29
ATOM     29  O   UNL     1       1.485  -1.839   5.682  1.00  0.00    -0.377 OA
BRANCH  29  30
ATOM     30  C   UNL     1       2.211  -0.611   5.630  1.00  0.00     0.188 C 
BRANCH  30  31
ATOM     31  C   UNL     1       3.607  -0.842   6.197  1.00  0.00     0.188 C 
BRANCH  31  32
ATOM     32  O   UNL     1       4.127  -2.136   5.870  1.00  0.00    -0.376 OA
BRANCH  32  33
ATOM     33  C   UNL     1       3.773  -3.174   6.786  1.00  0.00     0.202 C 
BRANCH  33  34
ATOM     34  C   UNL     1       4.628  -3.125   8.054  1.00  0.00     0.261 C 
BRANCH  34  35
ATOM     35  O   UNL     1       6.018  -3.153   7.680  1.00  0.00    -0.460 OA
BRANCH  35  36
ATOM     36  C   UNL     1       6.670  -1.982   7.944  1.00  0.00     0.338 C 
ATOM     37  O   UNL     1       6.789  -1.489   9.033  1.00  0.00    -0.246 OA
BRANCH  36  38
ATOM     38  C   UNL     1       7.105  -1.338   6.664  1.00  0.00     0.060 A 
ATOM     39  C   UNL     1       7.413   0.029   6.671  1.00  0.00     0.016 A 
ATOM     40  C   UNL     1       6.989  -2.009   5.447  1.00  0.00     0.016 A 
ATOM     41  C   UNL     1       7.468   0.742   5.465  1.00  0.00     0.010 A 
ATOM     42  C   UNL     1       6.956  -1.283   4.262  1.00  0.00     0.010 A 
ATOM     43  C   UNL     1       7.135   0.109   4.257  1.00  0.00    -0.014 A 
BRANCH  43  44
ATOM     44  C   UNL     1       6.626   0.852   3.078  1.00  0.00     0.031 A 
ATOM     45  C   UNL     1       6.965   0.536   1.649  1.00  0.00     0.074 A 
ATOM     46  C   UNL     1       5.582   1.680   3.296  1.00  0.00     0.049 A 
ATOM     47  N   UNL     1       6.610   1.224   0.601  1.00  0.00    -0.248 NA
ATOM     48  C   UNL     1       7.804  -0.594   1.295  1.00  0.00     0.031 C 
ATOM     49  C   UNL     1       4.582   2.059   2.312  1.00  0.00     0.029 A 
ATOM     50  N   UNL     1       5.155   2.325   4.447  1.00  0.00    -0.354 N 
ATOM     51  C   UNL     1       6.911   0.503  -0.544  1.00  0.00     0.074 A 
ATOM     52  C   UNL     1       7.730  -0.573  -0.037  1.00  0.00     0.031 C 
ATOM     53  C   UNL     1       3.708   2.890   2.880  1.00  0.00     0.029 A 
ATOM     54  C   UNL     1       4.250   3.322   4.117  1.00  0.00     0.049 A 
ATOM     55  H   UNL     1       5.451   2.107   5.361  1.00  0.00     0.167 HD
ATOM     56  C   UNL     1       6.370   0.831  -1.770  1.00  0.00     0.034 A 
ATOM     57  C   UNL     1       4.520   4.642   4.299  1.00  0.00     0.034 A 
ATOM     58  C   UNL     1       5.728   2.195  -1.802  1.00  0.00     0.049 A 
ATOM     59  C   UNL     1       4.822   5.420   3.017  1.00  0.00     0.074 A 
ATOM     60  C   UNL     1       4.702   2.790  -2.527  1.00  0.00     0.029 A 
ATOM     61  N   UNL     1       6.141   3.227  -0.915  1.00  0.00    -0.354 N 
ATOM     62  N   UNL     1       5.173   4.883   1.861  1.00  0.00    -0.248 NA
ATOM     63  C   UNL     1       4.665   6.865   2.921  1.00  0.00     0.031 C 
ATOM     64  C   UNL     1       4.398   4.059  -1.972  1.00  0.00     0.029 A 
ATOM     65  C   UNL     1       5.342   4.353  -1.007  1.00  0.00     0.049 A 
ATOM     66  H   UNL     1       6.908   3.149  -0.304  1.00  0.00     0.167 HD
ATOM     67  C   UNL     1       5.305   5.870   0.903  1.00  0.00     0.074 A 
ATOM     68  C   UNL     1       4.950   7.085   1.626  1.00  0.00     0.031 C 
ATOM     69  C   UNL     1       5.643   5.661  -0.416  1.00  0.00     0.034 A 
BRANCH  56  70
ATOM     70  C   UNL     1       6.217  -0.229  -2.940  1.00  0.00     0.023 A 
ATOM     71  C   UNL     1       5.286  -0.047  -3.995  1.00  0.00     0.031 A 
ATOM     72  C   UNL     1       6.860  -1.486  -3.029  1.00  0.00     0.131 A 
ATOM     73  C   UNL     1       4.919  -1.071  -4.912  1.00  0.00     0.055 A 
ATOM     74  C   UNL     1       6.509  -2.509  -3.936  1.00  0.00     0.041 A 
ATOM     75  F   UNL     1       7.933  -1.801  -2.306  1.00  0.00    -0.206 F 
ATOM     76  C   UNL     1       5.515  -2.318  -4.870  1.00  0.00     0.022 A 
BRANCH  73  77
ATOM     77  S   UNL     1       3.655  -0.769  -6.190  1.00  0.00     0.124 S 
ATOM     78  O   UNL     1       2.417  -0.980  -5.448  1.00  0.00    -0.237 OA
ATOM     79  O   UNL     1       3.931   0.602  -6.604  1.00  0.00    -0.237 OA
ATOM     80  O   UNL     1       3.949  -1.787  -7.199  1.00  0.00    -0.744 OA
ENDBRANCH  73  77
ENDBRANCH  56  70
BRANCH  57  81
ATOM     81  C   UNL     1       4.731   4.904   5.748  1.00  0.00     0.023 A 
ATOM     82  C   UNL     1       3.591   4.602   6.538  1.00  0.00     0.031 A 
ATOM     83  C   UNL     1       5.996   4.676   6.310  1.00  0.00     0.131 A 
ATOM     84  C   UNL     1       3.735   3.825   7.697  1.00  0.00     0.055 A 
ATOM     85  C   UNL     1       6.132   3.979   7.520  1.00  0.00     0.041 A 
ATOM     86  F   UNL     1       7.107   4.924   5.601  1.00  0.00    -0.206 F 
ATOM     87  C   UNL     1       5.002   3.496   8.183  1.00  0.00     0.022 A 
BRANCH  84  88
ATOM     88  S   UNL     1       2.287   2.919   8.345  1.00  0.00     0.124 S 
ATOM     89  O   UNL     1       1.915   3.728   9.499  1.00  0.00    -0.237 OA
ATOM     90  O   UNL     1       1.354   2.937   7.223  1.00  0.00    -0.237 OA
ATOM     91  O   UNL     1       2.849   1.603   8.641  1.00  0.00    -0.744 OA
ENDBRANCH  84  88
ENDBRANCH  57  81
BRANCH  69  92
ATOM     92  C   UNL     1       6.066   6.746  -1.431  1.00  0.00     0.023 A 
ATOM     93  C   UNL     1       6.284   8.090  -1.110  1.00  0.00     0.031 A 
ATOM     94  C   UNL     1       6.339   6.421  -2.794  1.00  0.00     0.131 A 
ATOM     95  C   UNL     1       6.599   9.044  -2.103  1.00  0.00     0.055 A 
ATOM     96  C   UNL     1       6.632   7.365  -3.782  1.00  0.00     0.041 A 
ATOM     97  F   UNL     1       6.407   5.156  -3.233  1.00  0.00    -0.206 F 
ATOM     98  C   UNL     1       6.747   8.696  -3.442  1.00  0.00     0.022 A 
BRANCH  95  99
ATOM     99  S   UNL     1       6.870  10.760  -1.594  1.00  0.00     0.124 S 
ATOM    100  O   UNL     1       5.520  11.184  -1.237  1.00  0.00    -0.237 OA
ATOM    101  O   UNL     1       7.804  10.611  -0.482  1.00  0.00    -0.237 OA
ATOM    102  O   UNL     1       7.428  11.389  -2.789  1.00  0.00    -0.744 OA
ENDBRANCH  95  99
ENDBRANCH  69  92
ENDBRANCH  43  44
ENDBRANCH  36  38
ENDBRANCH  35  36
ENDBRANCH  34  35
ENDBRANCH  33  34
ENDBRANCH  32  33
ENDBRANCH  31  32
ENDBRANCH  30  31
ENDBRANCH  29  30
ENDBRANCH   1  29
TORSDOF 29
