REMARK SMILES C[C@]12CCC[C@](C)(C(=O)OCCOCCOCCOCCOC(=O)c3ccc(-c4c5nc(c(-c6cc(S(=O)(=O)[O-])ccc6F)c6ccc([nH]6)c(-c6cc(S(=O)(=O)[O-])ccc6F)c6nc(c(-c7cc(S(=O)(=O)[O-])ccc7F)c7ccc4[nH]7)C=C6)C=C5)cc3)[C@@H]1CC[C@]13C=C(CO)[C@H](CC[C@H]12)C3
REMARK SMILES IDX 17 1 16 2 15 3 14 4 13 5 12 6 11 7 10 8 8 9 9 10 6 11 1 12
REMARK SMILES IDX 2 13 3 14 88 15 99 16 4 17 89 18 91 19 98 20 5 21 7 22 90 23
REMARK SMILES IDX 92 24 100 25 97 26 93 27 96 28 94 29 95 30 18 32 19 33 20 34
REMARK SMILES IDX 21 35 22 36 23 37 24 38 25 39 26 40 87 41 27 42 86 43 28 44
REMARK SMILES IDX 29 45 30 46 80 47 31 48 85 49 79 50 81 51 32 52 84 53 78 54
REMARK SMILES IDX 77 55 33 57 65 58 45 59 64 60 46 61 49 62 63 63 82 64 47 65
REMARK SMILES IDX 48 66 62 68 83 69 50 70 34 71 35 72 43 73 36 74 42 75 44 76
REMARK SMILES IDX 41 77 37 78 38 79 39 80 40 81 66 82 67 83 75 84 68 85 74 86
REMARK SMILES IDX 76 87 73 88 69 89 70 90 71 91 72 92 51 93 52 94 60 95 53 96
REMARK SMILES IDX 59 97 61 98 58 99 54 100 55 101 56 102 57 103
REMARK H PARENT 95 31 81 56 49 67
REMARK Flexibility Score: inf
ROOT
ATOM      1  C   UNL     1       0.183   0.708   3.579  1.00  0.00     0.188 C 
ENDROOT
BRANCH   1   2
ATOM      2  O   UNL     1      -0.954   0.008   3.111  1.00  0.00    -0.377 OA
BRANCH   2   3
ATOM      3  C   UNL     1      -1.057  -1.402   3.056  1.00  0.00     0.188 C 
BRANCH   3   4
ATOM      4  C   UNL     1      -0.047  -2.385   3.660  1.00  0.00     0.188 C 
BRANCH   4   5
ATOM      5  O   UNL     1       1.143  -1.792   4.099  1.00  0.00    -0.376 OA
BRANCH   5   6
ATOM      6  C   UNL     1       2.343  -1.992   3.382  1.00  0.00     0.202 C 
BRANCH   6   7
ATOM      7  C   UNL     1       2.367  -2.240   1.867  1.00  0.00     0.261 C 
BRANCH   7   8
ATOM      8  O   UNL     1       1.331  -1.649   1.057  1.00  0.00    -0.463 OA
BRANCH   8   9
ATOM      9  C   UNL     1       0.691  -2.477   0.181  1.00  0.00     0.312 C 
ATOM     10  O   UNL     1       0.585  -3.683   0.395  1.00  0.00    -0.252 OA
BRANCH   9  11
ATOM     11  C   UNL     1       0.152  -1.790  -1.137  1.00  0.00     0.069 C 
ATOM     12  C   UNL     1       0.230   0.778   0.395  1.00  0.00     0.012 C 
ATOM     13  C   UNL     1       0.486   0.789  -1.141  1.00  0.00    -0.025 C 
ATOM     14  C   UNL     1      -0.896   0.992  -1.786  1.00  0.00     0.007 C 
ATOM     15  C   UNL     1       1.031  -0.571  -1.657  1.00  0.00     0.012 C 
ATOM     16  C   UNL     1       1.442   1.989  -1.356  1.00  0.00     0.005 C 
ATOM     17  C   UNL     1      -1.904  -0.013  -1.236  1.00  0.00     0.002 C 
ATOM     18  C   UNL     1       2.564  -0.773  -1.529  1.00  0.00     0.006 C 
ATOM     19  C   UNL     1       2.991   1.719  -1.141  1.00  0.00    -0.008 C 
ATOM     20  C   UNL     1       1.265   3.166  -2.306  1.00  0.00     0.006 C 
ATOM     21  C   UNL     1      -1.394  -1.461  -1.069  1.00  0.00     0.019 C 
ATOM     22  C   UNL     1       0.234  -2.951  -2.177  1.00  0.00     0.024 C 
ATOM     23  C   UNL     1       3.452   0.444  -1.814  1.00  0.00     0.012 C 
ATOM     24  C   UNL     1       3.196   1.846   0.334  1.00  0.00    -0.018 C 
ATOM     25  C   UNL     1       3.854   2.961  -1.497  1.00  0.00     0.019 C 
ATOM     26  C   UNL     1       1.851   4.393  -1.501  1.00  0.00     0.008 C 
ATOM     27  C   UNL     1       3.006   3.149   0.624  1.00  0.00    -0.045 C 
ATOM     28  C   UNL     1       3.125   4.018  -0.653  1.00  0.00     0.018 C 
BRANCH  27  29
ATOM     29  C   UNL     1       2.587   3.603   1.966  1.00  0.00     0.187 C 
BRANCH  29  30
ATOM     30  O   UNL     1       3.211   2.777   2.943  1.00  0.00    -0.392 OA
ATOM     31  H   UNL     1       2.943   1.854   2.805  1.00  0.00     0.211 HD
ENDBRANCH  29  30
ENDBRANCH  27  29
ENDBRANCH   9  11
ENDBRANCH   8   9
ENDBRANCH   7   8
ENDBRANCH   6   7
ENDBRANCH   5   6
ENDBRANCH   4   5
ENDBRANCH   3   4
ENDBRANCH   2   3
ENDBRANCH   1   2
BRANCH   1  32
ATOM     32  C   UNL     1       0.318   0.860   5.099  1.00  0.00     0.188 C 
BRANCH  32  33
ATOM     33  O   UNL     1      -0.857   0.964   5.898  1.00  0.00    -0.376 OA
BRANCH  33  34
ATOM     34  C   UNL     1      -2.035   1.504   5.328  1.00  0.00     0.202 C 
BRANCH  34  35
ATOM     35  C   UNL     1      -2.096   3.011   5.065  1.00  0.00     0.261 C 
BRANCH  35  36
ATOM     36  O   UNL     1      -0.899   3.628   4.579  1.00  0.00    -0.460 OA
BRANCH  36  37
ATOM     37  C   UNL     1      -0.124   4.179   5.547  1.00  0.00     0.338 C 
ATOM     38  O   UNL     1      -0.255   4.048   6.754  1.00  0.00    -0.246 OA
BRANCH  37  39
ATOM     39  C   UNL     1       0.971   4.955   4.929  1.00  0.00     0.060 A 
ATOM     40  C   UNL     1       2.271   4.803   5.428  1.00  0.00     0.016 A 
ATOM     41  C   UNL     1       0.711   5.881   3.913  1.00  0.00     0.016 A 
ATOM     42  C   UNL     1       3.318   5.572   4.906  1.00  0.00     0.010 A 
ATOM     43  C   UNL     1       1.756   6.665   3.406  1.00  0.00     0.010 A 
ATOM     44  C   UNL     1       3.067   6.524   3.907  1.00  0.00    -0.014 A 
BRANCH  44  45
ATOM     45  C   UNL     1       4.109   7.523   3.548  1.00  0.00     0.031 A 
ATOM     46  C   UNL     1       4.058   8.841   4.270  1.00  0.00     0.074 A 
ATOM     47  C   UNL     1       5.072   7.296   2.631  1.00  0.00     0.049 A 
ATOM     48  N   UNL     1       4.844   9.879   4.167  1.00  0.00    -0.248 NA
ATOM     49  C   UNL     1       2.972   8.998   5.253  1.00  0.00     0.031 C 
ATOM     50  C   UNL     1       5.291   6.046   1.912  1.00  0.00     0.029 A 
ATOM     51  N   UNL     1       6.052   8.124   2.135  1.00  0.00    -0.354 N 
ATOM     52  C   UNL     1       4.371  10.797   5.096  1.00  0.00     0.074 A 
ATOM     53  C   UNL     1       3.185  10.226   5.695  1.00  0.00     0.031 C 
ATOM     54  C   UNL     1       6.285   6.204   1.021  1.00  0.00     0.029 A 
ATOM     55  C   UNL     1       6.808   7.559   1.131  1.00  0.00     0.049 A 
ATOM     56  H   UNL     1       6.200   9.039   2.468  1.00  0.00     0.167 HD
ATOM     57  C   UNL     1       4.894  11.997   5.442  1.00  0.00     0.034 A 
ATOM     58  C   UNL     1       7.819   8.066   0.394  1.00  0.00     0.034 A 
ATOM     59  C   UNL     1       6.046  12.577   4.803  1.00  0.00     0.049 A 
ATOM     60  C   UNL     1       8.309   9.459   0.708  1.00  0.00     0.074 A 
ATOM     61  C   UNL     1       6.651  13.793   5.059  1.00  0.00     0.029 A 
ATOM     62  N   UNL     1       6.753  11.990   3.760  1.00  0.00    -0.354 N 
ATOM     63  N   UNL     1       7.881  10.298   1.625  1.00  0.00    -0.248 NA
ATOM     64  C   UNL     1       9.437   9.963  -0.087  1.00  0.00     0.031 C 
ATOM     65  C   UNL     1       7.672  13.977   4.120  1.00  0.00     0.029 A 
ATOM     66  C   UNL     1       7.763  12.838   3.336  1.00  0.00     0.049 A 
ATOM     67  H   UNL     1       6.564  11.102   3.379  1.00  0.00     0.167 HD
ATOM     68  C   UNL     1       8.721  11.405   1.547  1.00  0.00     0.074 A 
ATOM     69  C   UNL     1       9.681  11.126   0.499  1.00  0.00     0.031 C 
ATOM     70  C   UNL     1       8.709  12.545   2.284  1.00  0.00     0.034 A 
BRANCH  57  71
ATOM     71  C   UNL     1       4.174  12.761   6.523  1.00  0.00     0.023 A 
ATOM     72  C   UNL     1       4.069  12.255   7.832  1.00  0.00     0.031 A 
ATOM     73  C   UNL     1       3.517  13.966   6.226  1.00  0.00     0.131 A 
ATOM     74  C   UNL     1       3.253  12.905   8.768  1.00  0.00     0.055 A 
ATOM     75  C   UNL     1       2.777  14.654   7.188  1.00  0.00     0.041 A 
ATOM     76  F   UNL     1       3.557  14.478   4.986  1.00  0.00    -0.206 F 
ATOM     77  C   UNL     1       2.626  14.115   8.463  1.00  0.00     0.022 A 
BRANCH  74  78
ATOM     78  S   UNL     1       2.884  12.059  10.330  1.00  0.00     0.124 S 
ATOM     79  O   UNL     1       2.247  10.832   9.857  1.00  0.00    -0.237 OA
ATOM     80  O   UNL     1       4.206  11.905  10.926  1.00  0.00    -0.237 OA
ATOM     81  O   UNL     1       1.992  12.989  11.020  1.00  0.00    -0.744 OA
ENDBRANCH  74  78
ENDBRANCH  57  71
BRANCH  58  82
ATOM     82  C   UNL     1       8.446   7.272  -0.707  1.00  0.00     0.023 A 
ATOM     83  C   UNL     1       9.801   6.902  -0.664  1.00  0.00     0.031 A 
ATOM     84  C   UNL     1       7.714   6.943  -1.863  1.00  0.00     0.131 A 
ATOM     85  C   UNL     1      10.397   6.283  -1.776  1.00  0.00     0.055 A 
ATOM     86  C   UNL     1       8.298   6.280  -2.945  1.00  0.00     0.041 A 
ATOM     87  F   UNL     1       6.415   7.270  -1.961  1.00  0.00    -0.206 F 
ATOM     88  C   UNL     1       9.652   5.961  -2.912  1.00  0.00     0.022 A 
BRANCH  85  89
ATOM     89  S   UNL     1      12.190   5.997  -1.760  1.00  0.00     0.124 S 
ATOM     90  O   UNL     1      12.703   7.347  -1.558  1.00  0.00    -0.237 OA
ATOM     91  O   UNL     1      12.340   5.078  -0.637  1.00  0.00    -0.237 OA
ATOM     92  O   UNL     1      12.454   5.419  -3.076  1.00  0.00    -0.744 OA
ENDBRANCH  85  89
ENDBRANCH  58  82
BRANCH  70  93
ATOM     93  C   UNL     1       9.800  13.554   2.017  1.00  0.00     0.023 A 
ATOM     94  C   UNL     1       9.889  14.248   0.799  1.00  0.00     0.031 A 
ATOM     95  C   UNL     1      10.758  13.831   3.009  1.00  0.00     0.131 A 
ATOM     96  C   UNL     1      10.943  15.149   0.585  1.00  0.00     0.055 A 
ATOM     97  C   UNL     1      11.766  14.775   2.814  1.00  0.00     0.041 A 
ATOM     98  F   UNL     1      10.723  13.195   4.191  1.00  0.00    -0.206 F 
ATOM     99  C   UNL     1      11.870  15.432   1.592  1.00  0.00     0.022 A 
BRANCH  96 100
ATOM    100  S   UNL     1      11.139  15.884  -1.061  1.00  0.00     0.124 S 
ATOM    101  O   UNL     1      11.282  14.704  -1.907  1.00  0.00    -0.237 OA
ATOM    102  O   UNL     1       9.896  16.634  -1.218  1.00  0.00    -0.237 OA
ATOM    103  O   UNL     1      12.343  16.703  -0.930  1.00  0.00    -0.744 OA
ENDBRANCH  96 100
ENDBRANCH  70  93
ENDBRANCH  44  45
ENDBRANCH  37  39
ENDBRANCH  36  37
ENDBRANCH  35  36
ENDBRANCH  34  35
ENDBRANCH  33  34
ENDBRANCH  32  33
ENDBRANCH   1  32
TORSDOF 25
