REMARK SMILES COc1ccccc1[C@@H]1C[N@@H+](Cc2cn3cc(C)ccc3n2)C[C@H]1C(=O)OCCOCCOCCOCCOC(=O)c1ccc(-c2c3nc(c(-c4cc(S(=O)(=O)[O-])ccc4F)c4ccc([nH]4)c(-c4cc(S(=O)(=O)[O-])ccc4F)c4nc(c(-c5cc(S(=O)(=O)[O-])ccc5F)c5ccc2[nH]5)C=C4)C=C3)cc1
REMARK SMILES IDX 34 1 33 2 32 3 31 4 30 5 29 6 28 7 27 8 25 9 26 10 24 11
REMARK SMILES IDX 9 12 10 13 11 14 23 15 8 17 3 18 4 19 5 20 7 21 6 22 2 23
REMARK SMILES IDX 1 24 12 25 13 26 14 27 22 28 15 29 21 30 16 31 20 32 17 33
REMARK SMILES IDX 19 34 18 35 35 36 36 37 37 38 38 39 39 40 40 41 41 42 42 43
REMARK SMILES IDX 43 44 104 45 44 46 103 47 45 48 46 49 47 50 97 51 48 52
REMARK SMILES IDX 102 53 96 54 98 55 49 56 101 57 95 58 94 59 50 61 82 62
REMARK SMILES IDX 62 63 81 64 63 65 66 66 80 67 99 68 64 69 65 70 79 72 100 73
REMARK SMILES IDX 67 74 51 75 52 76 60 77 53 78 59 79 61 80 58 81 54 82 55 83
REMARK SMILES IDX 56 84 57 85 83 86 84 87 92 88 85 89 91 90 93 91 90 92 86 93
REMARK SMILES IDX 87 94 88 95 89 96 68 97 69 98 77 99 70 100 76 101 78 102
REMARK SMILES IDX 75 103 71 104 72 105 73 106 74 107
REMARK H PARENT 11 16 98 60 66 71
REMARK Flexibility Score: inf
ROOT
ATOM      1  C   UNL     1       3.838  -2.433  -5.670  1.00  0.00     0.188 C 
ENDROOT
BRANCH   1   2
ATOM      2  O   UNL     1       3.669  -1.850  -4.388  1.00  0.00    -0.377 OA
BRANCH   2   3
ATOM      3  C   UNL     1       2.363  -1.638  -3.897  1.00  0.00     0.188 C 
BRANCH   3   4
ATOM      4  C   UNL     1       1.582  -0.411  -4.396  1.00  0.00     0.188 C 
BRANCH   4   5
ATOM      5  O   UNL     1       2.071   0.325  -5.506  1.00  0.00    -0.376 OA
BRANCH   5   6
ATOM      6  C   UNL     1       3.399   0.827  -5.463  1.00  0.00     0.202 C 
BRANCH   6   7
ATOM      7  C   UNL     1       3.939   1.409  -4.153  1.00  0.00     0.261 C 
BRANCH   7   8
ATOM      8  O   UNL     1       3.896   0.514  -3.017  1.00  0.00    -0.463 OA
BRANCH   8   9
ATOM      9  C   UNL     1       3.383   1.047  -1.891  1.00  0.00     0.315 C 
ATOM     10  O   UNL     1       3.022   2.226  -1.818  1.00  0.00    -0.252 OA
BRANCH   9  11
ATOM     11  C   UNL     1       3.228   0.166  -0.661  1.00  0.00     0.167 C 
ATOM     12  C   UNL     1       3.376  -1.360  -0.480  1.00  0.00     0.098 C 
ATOM     13  C   UNL     1       3.947  -1.475   0.941  1.00  0.00     0.272 C 
ATOM     14  N   UNL     1       4.797  -0.305   1.141  1.00  0.00    -0.329 N 
ATOM     15  C   UNL     1       4.181   0.778   0.373  1.00  0.00     0.278 C 
ATOM     16  H   UNL     1       4.837  -0.069   2.133  1.00  0.00     0.348 HD
BRANCH  12  17
ATOM     17  C   UNL     1       2.178  -2.318  -0.575  1.00  0.00     0.004 A 
ATOM     18  C   UNL     1       0.875  -2.067  -0.111  1.00  0.00     0.122 A 
ATOM     19  C   UNL     1      -0.169  -2.968  -0.382  1.00  0.00     0.047 A 
ATOM     20  C   UNL     1       0.095  -4.189  -1.008  1.00  0.00     0.004 A 
ATOM     21  C   UNL     1       2.429  -3.598  -1.121  1.00  0.00     0.008 A 
ATOM     22  C   UNL     1       1.406  -4.529  -1.317  1.00  0.00     0.001 A 
BRANCH  18  23
ATOM     23  O   UNL     1       0.676  -1.149   0.889  1.00  0.00    -0.496 OA
ATOM     24  C   UNL     1       0.051   0.064   0.495  1.00  0.00     0.278 C 
ENDBRANCH  18  23
ENDBRANCH  12  17
BRANCH  14  25
ATOM     25  C   UNL     1       6.220  -0.519   0.838  1.00  0.00     0.321 C 
BRANCH  25  26
ATOM     26  C   UNL     1       6.533  -1.073  -0.521  1.00  0.00     0.114 A 
ATOM     27  C   UNL     1       6.856  -2.375  -0.858  1.00  0.00     0.122 A 
ATOM     28  N   UNL     1       6.563  -0.269  -1.644  1.00  0.00    -0.228 NA
ATOM     29  N   UNL     1       7.101  -2.369  -2.207  1.00  0.00    -0.306 N 
ATOM     30  C   UNL     1       6.901  -1.065  -2.642  1.00  0.00     0.137 A 
ATOM     31  C   UNL     1       7.515  -3.410  -3.036  1.00  0.00     0.096 A 
ATOM     32  C   UNL     1       7.112  -0.814  -4.028  1.00  0.00     0.048 A 
ATOM     33  C   UNL     1       7.754  -3.167  -4.340  1.00  0.00    -0.034 A 
ATOM     34  C   UNL     1       7.523  -1.810  -4.838  1.00  0.00     0.009 A 
ATOM     35  C   UNL     1       8.246  -4.203  -5.303  1.00  0.00     0.046 C 
ENDBRANCH  25  26
ENDBRANCH  14  25
ENDBRANCH   9  11
ENDBRANCH   8   9
ENDBRANCH   7   8
ENDBRANCH   6   7
ENDBRANCH   5   6
ENDBRANCH   4   5
ENDBRANCH   3   4
ENDBRANCH   2   3
ENDBRANCH   1   2
BRANCH   1  36
ATOM     36  C   UNL     1       2.662  -2.511  -6.669  1.00  0.00     0.188 C 
BRANCH  36  37
ATOM     37  O   UNL     1       1.362  -2.604  -6.098  1.00  0.00    -0.376 OA
BRANCH  37  38
ATOM     38  C   UNL     1       0.696  -3.854  -6.003  1.00  0.00     0.202 C 
BRANCH  38  39
ATOM     39  C   UNL     1       1.286  -4.897  -5.061  1.00  0.00     0.261 C 
BRANCH  39  40
ATOM     40  O   UNL     1       2.680  -5.076  -5.196  1.00  0.00    -0.460 OA
BRANCH  40  41
ATOM     41  C   UNL     1       3.096  -5.530  -6.389  1.00  0.00     0.338 C 
ATOM     42  O   UNL     1       2.426  -5.642  -7.412  1.00  0.00    -0.246 OA
BRANCH  41  43
ATOM     43  C   UNL     1       4.478  -5.986  -6.245  1.00  0.00     0.060 A 
ATOM     44  C   UNL     1       5.034  -6.563  -7.384  1.00  0.00     0.016 A 
ATOM     45  C   UNL     1       4.909  -6.290  -4.945  1.00  0.00     0.016 A 
ATOM     46  C   UNL     1       5.745  -7.720  -7.207  1.00  0.00     0.010 A 
ATOM     47  C   UNL     1       5.564  -7.473  -4.772  1.00  0.00     0.010 A 
ATOM     48  C   UNL     1       5.867  -8.217  -5.907  1.00  0.00    -0.014 A 
BRANCH  48  49
ATOM     49  C   UNL     1       6.382  -9.548  -5.728  1.00  0.00     0.031 A 
ATOM     50  C   UNL     1       7.852  -9.550  -5.694  1.00  0.00     0.074 A 
ATOM     51  C   UNL     1       5.583 -10.604  -5.498  1.00  0.00     0.049 A 
ATOM     52  N   UNL     1       8.650  -9.786  -6.679  1.00  0.00    -0.248 NA
ATOM     53  C   UNL     1       8.499  -8.914  -4.534  1.00  0.00     0.031 C 
ATOM     54  C   UNL     1       4.144 -10.635  -5.226  1.00  0.00     0.029 A 
ATOM     55  N   UNL     1       5.943 -11.903  -5.380  1.00  0.00    -0.354 N 
ATOM     56  C   UNL     1       9.920  -9.599  -6.155  1.00  0.00     0.074 A 
ATOM     57  C   UNL     1       9.738  -8.769  -5.001  1.00  0.00     0.031 C 
ATOM     58  C   UNL     1       3.806 -11.864  -4.762  1.00  0.00     0.029 A 
ATOM     59  C   UNL     1       4.970 -12.735  -4.840  1.00  0.00     0.049 A 
ATOM     60  H   UNL     1       6.828 -12.235  -5.656  1.00  0.00     0.167 HD
ATOM     61  C   UNL     1      10.947 -10.420  -6.507  1.00  0.00     0.034 A 
ATOM     62  C   UNL     1       5.160 -14.020  -4.434  1.00  0.00     0.034 A 
ATOM     63  C   UNL     1      10.591 -11.186  -7.688  1.00  0.00     0.049 A 
ATOM     64  C   UNL     1       6.391 -14.500  -5.122  1.00  0.00     0.074 A 
ATOM     65  C   UNL     1      10.264 -10.867  -8.991  1.00  0.00     0.029 A 
ATOM     66  N   UNL     1      10.138 -12.476  -7.494  1.00  0.00    -0.354 N 
ATOM     67  N   UNL     1       6.473 -14.641  -6.418  1.00  0.00    -0.248 NA
ATOM     68  C   UNL     1       7.671 -14.332  -4.445  1.00  0.00     0.031 C 
ATOM     69  C   UNL     1       9.242 -11.792  -9.358  1.00  0.00     0.029 A 
ATOM     70  C   UNL     1       9.044 -12.681  -8.299  1.00  0.00     0.049 A 
ATOM     71  H   UNL     1      10.532 -13.137  -6.881  1.00  0.00     0.167 HD
ATOM     72  C   UNL     1       7.729 -14.159  -6.762  1.00  0.00     0.074 A 
ATOM     73  C   UNL     1       8.459 -14.081  -5.498  1.00  0.00     0.031 C 
ATOM     74  C   UNL     1       7.952 -13.591  -7.986  1.00  0.00     0.034 A 
BRANCH  61  75
ATOM     75  C   UNL     1      12.057 -10.853  -5.567  1.00  0.00     0.023 A 
ATOM     76  C   UNL     1      12.943 -11.825  -6.066  1.00  0.00     0.031 A 
ATOM     77  C   UNL     1      12.157 -10.603  -4.178  1.00  0.00     0.131 A 
ATOM     78  C   UNL     1      13.743 -12.590  -5.203  1.00  0.00     0.055 A 
ATOM     79  C   UNL     1      12.995 -11.331  -3.329  1.00  0.00     0.041 A 
ATOM     80  F   UNL     1      11.419  -9.698  -3.531  1.00  0.00    -0.206 F 
ATOM     81  C   UNL     1      13.767 -12.359  -3.833  1.00  0.00     0.022 A 
BRANCH  78  82
ATOM     82  S   UNL     1      14.613 -14.014  -5.896  1.00  0.00     0.124 S 
ATOM     83  O   UNL     1      13.523 -14.729  -6.550  1.00  0.00    -0.237 OA
ATOM     84  O   UNL     1      15.583 -13.368  -6.774  1.00  0.00    -0.237 OA
ATOM     85  O   UNL     1      15.175 -14.669  -4.717  1.00  0.00    -0.744 OA
ENDBRANCH  78  82
ENDBRANCH  61  75
BRANCH  62  86
ATOM     86  C   UNL     1       4.595 -14.665  -3.216  1.00  0.00     0.023 A 
ATOM     87  C   UNL     1       4.500 -16.065  -3.055  1.00  0.00     0.031 A 
ATOM     88  C   UNL     1       4.362 -13.880  -2.064  1.00  0.00     0.131 A 
ATOM     89  C   UNL     1       4.186 -16.618  -1.789  1.00  0.00     0.055 A 
ATOM     90  C   UNL     1       4.055 -14.431  -0.818  1.00  0.00     0.041 A 
ATOM     91  F   UNL     1       4.510 -12.546  -2.092  1.00  0.00    -0.206 F 
ATOM     92  C   UNL     1       3.975 -15.806  -0.673  1.00  0.00     0.022 A 
BRANCH  89  93
ATOM     93  S   UNL     1       4.121 -18.427  -1.554  1.00  0.00     0.124 S 
ATOM     94  O   UNL     1       2.974 -18.805  -2.371  1.00  0.00    -0.237 OA
ATOM     95  O   UNL     1       5.430 -18.852  -2.034  1.00  0.00    -0.237 OA
ATOM     96  O   UNL     1       3.922 -18.577  -0.111  1.00  0.00    -0.744 OA
ENDBRANCH  89  93
ENDBRANCH  62  86
BRANCH  74  97
ATOM     97  C   UNL     1       6.888 -13.773  -9.053  1.00  0.00     0.023 A 
ATOM     98  C   UNL     1       5.560 -13.290  -8.972  1.00  0.00     0.031 A 
ATOM     99  C   UNL     1       7.292 -14.367 -10.261  1.00  0.00     0.131 A 
ATOM    100  C   UNL     1       4.694 -13.420 -10.077  1.00  0.00     0.055 A 
ATOM    101  C   UNL     1       6.439 -14.475 -11.358  1.00  0.00     0.041 A 
ATOM    102  F   UNL     1       8.548 -14.820 -10.408  1.00  0.00    -0.206 F 
ATOM    103  C   UNL     1       5.134 -14.006 -11.269  1.00  0.00     0.022 A 
BRANCH 100 104
ATOM    104  S   UNL     1       2.968 -12.837  -9.987  1.00  0.00     0.124 S 
ATOM    105  O   UNL     1       2.480 -13.407  -8.737  1.00  0.00    -0.237 OA
ATOM    106  O   UNL     1       3.125 -11.385 -10.010  1.00  0.00    -0.237 OA
ATOM    107  O   UNL     1       2.355 -13.399 -11.192  1.00  0.00    -0.744 OA
ENDBRANCH 100 104
ENDBRANCH  74  97
ENDBRANCH  48  49
ENDBRANCH  41  43
ENDBRANCH  40  41
ENDBRANCH  39  40
ENDBRANCH  38  39
ENDBRANCH  37  38
ENDBRANCH  36  37
ENDBRANCH   1  36
TORSDOF 27
