REMARK SMILES CCc1nnc(/[NH+]=C2/S/C(=C/c3ccccc3OCCC(=O)OCCOCCOCCOCCOC(=O)c3ccc(-c4c5nc(c(-c6cc(S(=O)(=O)[O-])ccc6F)c6ccc([nH]6)c(-c6cc(S(=O)(=O)[O-])ccc6F)c6nc(c(-c7cc(S(=O)(=O)[O-])ccc7F)c7ccc4[nH]7)C=C6)C=C5)cc3)C(=O)N2C)s1
REMARK SMILES IDX 27 1 26 2 25 3 24 4 23 5 21 6 22 7 20 8 19 9 18 10 17 11
REMARK SMILES IDX 12 12 13 13 14 14 16 15 15 16 11 17 7 18 8 19 9 21 103 22
REMARK SMILES IDX 10 23 101 24 104 25 102 26 6 27 3 28 4 29 105 30 5 31 2 32
REMARK SMILES IDX 1 33 28 34 29 35 30 36 31 37 32 38 33 39 34 40 35 41 36 42
REMARK SMILES IDX 37 43 38 44 39 45 100 46 40 47 99 48 41 49 42 50 43 51 93 52
REMARK SMILES IDX 44 53 98 54 92 55 94 56 45 57 97 58 91 59 90 60 46 62 78 63
REMARK SMILES IDX 58 64 77 65 59 66 62 67 76 68 95 69 60 70 61 71 75 73 96 74
REMARK SMILES IDX 63 75 47 76 48 77 56 78 49 79 55 80 57 81 54 82 50 83 51 84
REMARK SMILES IDX 52 85 53 86 79 87 80 88 88 89 81 90 87 91 89 92 86 93 82 94
REMARK SMILES IDX 83 95 84 96 85 97 64 98 65 99 73 100 66 101 72 102 74 103
REMARK SMILES IDX 71 104 67 105 68 106 69 107 70 108
REMARK H PARENT 7 20 94 61 62 72
REMARK Flexibility Score: inf
ROOT
ATOM      1  C   UNL     1       7.270   6.017   6.698  1.00  0.00     0.188 C 
ENDROOT
BRANCH   1   2
ATOM      2  O   UNL     1       8.166   5.720   7.761  1.00  0.00    -0.376 OA
BRANCH   2   3
ATOM      3  C   UNL     1       8.812   4.435   7.688  1.00  0.00     0.202 C 
BRANCH   3   4
ATOM      4  C   UNL     1       7.881   3.197   7.721  1.00  0.00     0.261 C 
BRANCH   4   5
ATOM      5  O   UNL     1       7.726   2.554   6.423  1.00  0.00    -0.463 OA
BRANCH   5   6
ATOM      6  C   UNL     1       6.936   1.438   6.425  1.00  0.00     0.309 C 
ATOM      7  O   UNL     1       6.333   1.036   7.419  1.00  0.00    -0.252 OA
BRANCH   6   8
ATOM      8  C   UNL     1       6.976   0.613   5.132  1.00  0.00     0.164 C 
BRANCH   8   9
ATOM      9  C   UNL     1       6.126   1.011   3.911  1.00  0.00     0.241 C 
BRANCH   9  10
ATOM     10  O   UNL     1       6.747   1.535   2.720  1.00  0.00    -0.492 OA
BRANCH  10  11
ATOM     11  C   UNL     1       7.850   2.281   3.002  1.00  0.00     0.126 A 
ATOM     12  C   UNL     1       7.780   3.512   3.648  1.00  0.00     0.018 A 
ATOM     13  C   UNL     1       8.995   3.986   4.147  1.00  0.00     0.012 A 
ATOM     14  C   UNL     1      10.226   3.363   3.929  1.00  0.00     0.001 A 
ATOM     15  C   UNL     1       9.087   1.702   2.656  1.00  0.00     0.047 A 
ATOM     16  C   UNL     1      10.281   2.248   3.117  1.00  0.00     0.004 A 
BRANCH  12  17
ATOM     17  C   UNL     1       6.633   4.456   3.581  1.00  0.00     0.035 C 
ATOM     18  N   UNL     1       2.065   4.603   2.522  1.00  0.00    -0.226 N 
ATOM     19  C   UNL     1       2.987   4.478   3.414  1.00  0.00     0.271 C 
ATOM     20  H   UNL     1       1.932   5.460   2.057  1.00  0.00     0.268 HD
ATOM     21  S   UNL     1       4.254   5.711   3.421  1.00  0.00    -0.012 SA
ATOM     22  N   UNL     1       3.292   3.514   4.343  1.00  0.00    -0.222 N 
ATOM     23  C   UNL     1       5.373   4.537   4.049  1.00  0.00     0.100 C 
ATOM     24  C   UNL     1       4.544   3.661   4.913  1.00  0.00     0.321 C 
ATOM     25  C   UNL     1       2.443   2.422   4.801  1.00  0.00     0.252 C 
ATOM     26  O   UNL     1       4.909   3.186   5.978  1.00  0.00    -0.250 OA
BRANCH  18  27
ATOM     27  C   UNL     1       1.285   3.542   2.236  1.00  0.00     0.345 A 
ATOM     28  C   UNL     1       0.450   1.436   1.466  1.00  0.00     0.138 A 
ATOM     29  N   UNL     1      -0.457   2.126   2.125  1.00  0.00    -0.067 NA
ATOM     30  S   UNL     1       1.936   2.263   1.262  1.00  0.00    -0.044 S 
ATOM     31  N   UNL     1       0.022   3.349   2.553  1.00  0.00     0.023 NA
BRANCH  28  32
ATOM     32  C   UNL     1       0.262   0.022   1.019  1.00  0.00     0.068 C 
ATOM     33  C   UNL     1       0.814  -0.290  -0.363  1.00  0.00     0.012 C 
ENDBRANCH  28  32
ENDBRANCH  18  27
ENDBRANCH  12  17
ENDBRANCH  10  11
ENDBRANCH   9  10
ENDBRANCH   8   9
ENDBRANCH   6   8
ENDBRANCH   5   6
ENDBRANCH   4   5
ENDBRANCH   3   4
ENDBRANCH   2   3
ENDBRANCH   1   2
BRANCH   1  34
ATOM     34  C   UNL     1       7.739   7.106   5.718  1.00  0.00     0.188 C 
BRANCH  34  35
ATOM     35  O   UNL     1       8.999   6.879   5.097  1.00  0.00    -0.377 OA
BRANCH  35  36
ATOM     36  C   UNL     1      10.128   7.353   5.819  1.00  0.00     0.188 C 
BRANCH  36  37
ATOM     37  C   UNL     1      10.372   8.857   5.652  1.00  0.00     0.188 C 
BRANCH  37  38
ATOM     38  O   UNL     1       9.209   9.555   5.213  1.00  0.00    -0.376 OA
BRANCH  38  39
ATOM     39  C   UNL     1       9.271  10.041   3.872  1.00  0.00     0.202 C 
BRANCH  39  40
ATOM     40  C   UNL     1       9.247   8.996   2.741  1.00  0.00     0.261 C 
BRANCH  40  41
ATOM     41  O   UNL     1      10.312   8.030   2.732  1.00  0.00    -0.460 OA
BRANCH  41  42
ATOM     42  C   UNL     1      11.554   8.492   2.480  1.00  0.00     0.338 C 
ATOM     43  O   UNL     1      11.890   9.651   2.326  1.00  0.00    -0.246 OA
BRANCH  42  44
ATOM     44  C   UNL     1      12.477   7.343   2.487  1.00  0.00     0.060 A 
ATOM     45  C   UNL     1      13.321   7.140   3.584  1.00  0.00     0.016 A 
ATOM     46  C   UNL     1      12.560   6.517   1.363  1.00  0.00     0.016 A 
ATOM     47  C   UNL     1      14.282   6.127   3.543  1.00  0.00     0.010 A 
ATOM     48  C   UNL     1      13.534   5.515   1.317  1.00  0.00     0.010 A 
ATOM     49  C   UNL     1      14.426   5.342   2.390  1.00  0.00    -0.014 A 
BRANCH  49  50
ATOM     50  C   UNL     1      15.660   4.536   2.202  1.00  0.00     0.031 A 
ATOM     51  C   UNL     1      16.834   5.197   1.528  1.00  0.00     0.074 A 
ATOM     52  C   UNL     1      15.754   3.264   2.628  1.00  0.00     0.049 A 
ATOM     53  N   UNL     1      18.007   4.707   1.223  1.00  0.00    -0.248 NA
ATOM     54  C   UNL     1      16.650   6.606   1.149  1.00  0.00     0.031 C 
ATOM     55  C   UNL     1      14.711   2.533   3.343  1.00  0.00     0.029 A 
ATOM     56  N   UNL     1      16.782   2.361   2.514  1.00  0.00    -0.354 N 
ATOM     57  C   UNL     1      18.708   5.752   0.628  1.00  0.00     0.074 A 
ATOM     58  C   UNL     1      17.809   6.885   0.576  1.00  0.00     0.031 C 
ATOM     59  C   UNL     1      15.149   1.286   3.594  1.00  0.00     0.029 A 
ATOM     60  C   UNL     1      16.488   1.119   3.028  1.00  0.00     0.049 A 
ATOM     61  H   UNL     1      17.649   2.582   2.103  1.00  0.00     0.167 HD
ATOM     62  C   UNL     1      19.986   5.770   0.174  1.00  0.00     0.034 A 
ATOM     63  C   UNL     1      17.210  -0.021   3.019  1.00  0.00     0.034 A 
ATOM     64  C   UNL     1      20.855   4.620   0.187  1.00  0.00     0.049 A 
ATOM     65  C   UNL     1      18.587  -0.017   2.392  1.00  0.00     0.074 A 
ATOM     66  C   UNL     1      22.160   4.519  -0.263  1.00  0.00     0.029 A 
ATOM     67  N   UNL     1      20.498   3.361   0.655  1.00  0.00    -0.354 N 
ATOM     68  N   UNL     1      19.242   0.977   1.837  1.00  0.00    -0.248 NA
ATOM     69  C   UNL     1      19.322  -1.290   2.395  1.00  0.00     0.031 C 
ATOM     70  C   UNL     1      22.563   3.184  -0.140  1.00  0.00     0.029 A 
ATOM     71  C   UNL     1      21.543   2.469   0.469  1.00  0.00     0.049 A 
ATOM     72  H   UNL     1      19.630   3.135   1.059  1.00  0.00     0.167 HD
ATOM     73  C   UNL     1      20.481   0.457   1.463  1.00  0.00     0.074 A 
ATOM     74  C   UNL     1      20.480  -0.936   1.857  1.00  0.00     0.031 C 
ATOM     75  C   UNL     1      21.528   1.077   0.859  1.00  0.00     0.034 A 
BRANCH  62  76
ATOM     76  C   UNL     1      20.475   7.063  -0.434  1.00  0.00     0.023 A 
ATOM     77  C   UNL     1      20.566   8.246   0.323  1.00  0.00     0.031 A 
ATOM     78  C   UNL     1      20.786   7.133  -1.803  1.00  0.00     0.131 A 
ATOM     79  C   UNL     1      20.867   9.461  -0.311  1.00  0.00     0.055 A 
ATOM     80  C   UNL     1      21.171   8.330  -2.410  1.00  0.00     0.041 A 
ATOM     81  F   UNL     1      20.692   6.044  -2.582  1.00  0.00    -0.206 F 
ATOM     82  C   UNL     1      21.195   9.507  -1.667  1.00  0.00     0.022 A 
BRANCH  79  83
ATOM     83  S   UNL     1      20.652  11.001   0.625  1.00  0.00     0.124 S 
ATOM     84  O   UNL     1      19.250  10.909   1.025  1.00  0.00    -0.237 OA
ATOM     85  O   UNL     1      21.632  10.859   1.695  1.00  0.00    -0.237 OA
ATOM     86  O   UNL     1      20.945  12.042  -0.358  1.00  0.00    -0.744 OA
ENDBRANCH  79  83
ENDBRANCH  62  76
BRANCH  63  87
ATOM     87  C   UNL     1      16.642  -1.281   3.584  1.00  0.00     0.023 A 
ATOM     88  C   UNL     1      17.230  -1.916   4.689  1.00  0.00     0.031 A 
ATOM     89  C   UNL     1      15.530  -1.900   2.984  1.00  0.00     0.131 A 
ATOM     90  C   UNL     1      16.730  -3.151   5.135  1.00  0.00     0.055 A 
ATOM     91  C   UNL     1      15.007  -3.103   3.461  1.00  0.00     0.041 A 
ATOM     92  F   UNL     1      14.931  -1.339   1.921  1.00  0.00    -0.206 F 
ATOM     93  C   UNL     1      15.615  -3.741   4.537  1.00  0.00     0.022 A 
BRANCH  90  94
ATOM     94  S   UNL     1      17.607  -4.016   6.468  1.00  0.00     0.124 S 
ATOM     95  O   UNL     1      18.927  -4.206   5.879  1.00  0.00    -0.237 OA
ATOM     96  O   UNL     1      17.523  -3.052   7.560  1.00  0.00    -0.237 OA
ATOM     97  O   UNL     1      16.823  -5.235   6.654  1.00  0.00    -0.744 OA
ENDBRANCH  90  94
ENDBRANCH  63  87
BRANCH  75  98
ATOM     98  C   UNL     1      22.784   0.267   0.639  1.00  0.00     0.023 A 
ATOM     99  C   UNL     1      22.828  -0.817  -0.256  1.00  0.00     0.031 A 
ATOM    100  C   UNL     1      23.962   0.594   1.337  1.00  0.00     0.131 A 
ATOM    101  C   UNL     1      24.009  -1.564  -0.393  1.00  0.00     0.055 A 
ATOM    102  C   UNL     1      25.149  -0.115   1.151  1.00  0.00     0.041 A 
ATOM    103  F   UNL     1      23.979   1.617   2.206  1.00  0.00    -0.206 F 
ATOM    104  C   UNL     1      25.174  -1.208   0.291  1.00  0.00     0.022 A 
BRANCH 101 105
ATOM    105  S   UNL     1      23.981  -3.064  -1.413  1.00  0.00     0.124 S 
ATOM    106  O   UNL     1      22.936  -3.851  -0.766  1.00  0.00    -0.237 OA
ATOM    107  O   UNL     1      23.655  -2.537  -2.735  1.00  0.00    -0.237 OA
ATOM    108  O   UNL     1      25.334  -3.598  -1.276  1.00  0.00    -0.744 OA
ENDBRANCH 101 105
ENDBRANCH  75  98
ENDBRANCH  49  50
ENDBRANCH  42  44
ENDBRANCH  41  42
ENDBRANCH  40  41
ENDBRANCH  39  40
ENDBRANCH  38  39
ENDBRANCH  37  38
ENDBRANCH  36  37
ENDBRANCH  35  36
ENDBRANCH  34  35
ENDBRANCH   1  34
TORSDOF 29
