REMARK SMILES CC(C)Cn1c([C@@H](O)[C@@H](O)C(=O)OCCOCCOCCOCCOC(=O)c2ccc(-c3c4nc(c(-c5cc(S(=O)(=O)[O-])ccc5F)c5ccc([nH]5)c(-c5cc(S(=O)(=O)[O-])ccc5F)c5nc(c(-c6cc(S(=O)(=O)[O-])ccc6F)c6ccc3[nH]6)C=C5)C=C4)cc2)nc2cc(Cl)ccc21
REMARK SMILES IDX 18 1 17 2 16 3 15 4 14 5 13 6 11 7 12 8 9 9 7 10 6 11 5 12
REMARK SMILES IDX 98 13 91 14 92 15 97 16 93 17 96 18 94 19 95 20 4 21 2 22
REMARK SMILES IDX 1 23 3 24 8 25 10 27 19 29 20 30 21 31 22 32 23 33 24 34
REMARK SMILES IDX 25 35 26 36 27 37 28 38 29 39 90 40 30 41 89 42 31 43 32 44
REMARK SMILES IDX 33 45 83 46 34 47 88 48 82 49 84 50 35 51 87 52 81 53 80 54
REMARK SMILES IDX 36 56 68 57 48 58 67 59 49 60 52 61 66 62 85 63 50 64 51 65
REMARK SMILES IDX 65 67 86 68 53 69 37 70 38 71 46 72 39 73 45 74 47 75 44 76
REMARK SMILES IDX 40 77 41 78 42 79 43 80 69 81 70 82 78 83 71 84 77 85 79 86
REMARK SMILES IDX 76 87 72 88 73 89 74 90 75 91 54 92 55 93 63 94 56 95 62 96
REMARK SMILES IDX 64 97 61 98 57 99 58 100 59 101 60 102
REMARK H PARENT 8 26 10 28 84 55 52 66
REMARK Flexibility Score: inf
ROOT
ATOM      1  C   UNL     1      -1.709  -4.391   2.286  1.00  0.00     0.188 C 
ENDROOT
BRANCH   1   2
ATOM      2  C   UNL     1      -2.797  -5.432   2.007  1.00  0.00     0.188 C 
BRANCH   2   3
ATOM      3  O   UNL     1      -2.489  -6.252   0.904  1.00  0.00    -0.376 OA
BRANCH   3   4
ATOM      4  C   UNL     1      -3.271  -6.132  -0.271  1.00  0.00     0.202 C 
BRANCH   4   5
ATOM      5  C   UNL     1      -3.508  -4.774  -0.975  1.00  0.00     0.261 C 
BRANCH   5   6
ATOM      6  O   UNL     1      -3.063  -3.555  -0.342  1.00  0.00    -0.461 OA
BRANCH   6   7
ATOM      7  C   UNL     1      -4.005  -2.875   0.357  1.00  0.00     0.338 C 
ATOM      8  O   UNL     1      -5.116  -3.338   0.618  1.00  0.00    -0.249 OA
BRANCH   7   9
ATOM      9  C   UNL     1      -3.624  -1.451   0.776  1.00  0.00     0.260 C 
BRANCH   9  10
ATOM     10  C   UNL     1      -2.169  -0.955   0.705  1.00  0.00     0.220 C 
BRANCH  10  11
ATOM     11  C   UNL     1      -2.151   0.505   1.106  1.00  0.00     0.142 A 
ATOM     12  N   UNL     1      -1.598   1.531   0.370  1.00  0.00    -0.325 N 
ATOM     13  C   UNL     1      -1.742   2.697   1.096  1.00  0.00     0.068 A 
ATOM     14  N   UNL     1      -2.633   0.960   2.253  1.00  0.00    -0.230 NA
ATOM     15  C   UNL     1      -2.361   2.294   2.275  1.00  0.00     0.090 A 
ATOM     16  C   UNL     1      -1.393   4.032   0.857  1.00  0.00     0.030 A 
ATOM     17  C   UNL     1      -2.626   3.221   3.291  1.00  0.00     0.051 A 
ATOM     18  C   UNL     1      -1.674   4.954   1.876  1.00  0.00     0.023 A 
ATOM     19  C   UNL     1      -2.269   4.550   3.073  1.00  0.00     0.043 A 
ATOM     20  Cl  UNL     1      -2.566   5.714   4.310  1.00  0.00    -0.084 Cl
BRANCH  12  21
ATOM     21  C   UNL     1      -0.985   1.417  -0.940  1.00  0.00     0.127 C 
BRANCH  21  22
ATOM     22  C   UNL     1       0.553   1.320  -0.926  1.00  0.00     0.003 C 
ATOM     23  C   UNL     1       1.090   0.151  -0.095  1.00  0.00     0.009 C 
ATOM     24  C   UNL     1       1.065   1.192  -2.363  1.00  0.00     0.009 C 
ENDBRANCH  21  22
ENDBRANCH  12  21
ENDBRANCH  10  11
BRANCH  10  25
ATOM     25  O   UNL     1      -1.291  -1.518   1.672  1.00  0.00    -0.382 OA
ATOM     26  H   UNL     1      -1.597  -1.284   2.562  1.00  0.00     0.211 HD
ENDBRANCH  10  25
ENDBRANCH   9  10
BRANCH   9  27
ATOM     27  O   UNL     1      -4.434  -0.583  -0.051  1.00  0.00    -0.379 OA
ATOM     28  H   UNL     1      -4.181  -0.693  -0.981  1.00  0.00     0.211 HD
ENDBRANCH   9  27
ENDBRANCH   7   9
ENDBRANCH   6   7
ENDBRANCH   5   6
ENDBRANCH   4   5
ENDBRANCH   3   4
ENDBRANCH   2   3
ENDBRANCH   1   2
BRANCH   1  29
ATOM     29  O   UNL     1      -0.897  -3.951   1.199  1.00  0.00    -0.377 OA
BRANCH  29  30
ATOM     30  C   UNL     1      -0.173  -4.931   0.463  1.00  0.00     0.188 C 
BRANCH  30  31
ATOM     31  C   UNL     1       0.377  -6.147   1.223  1.00  0.00     0.188 C 
BRANCH  31  32
ATOM     32  O   UNL     1       0.914  -5.957   2.512  1.00  0.00    -0.376 OA
BRANCH  32  33
ATOM     33  C   UNL     1       1.941  -5.023   2.765  1.00  0.00     0.202 C 
BRANCH  33  34
ATOM     34  C   UNL     1       2.923  -4.455   1.716  1.00  0.00     0.261 C 
BRANCH  34  35
ATOM     35  O   UNL     1       2.722  -4.845   0.358  1.00  0.00    -0.460 OA
BRANCH  35  36
ATOM     36  C   UNL     1       3.476  -5.849  -0.161  1.00  0.00     0.338 C 
ATOM     37  O   UNL     1       4.473  -6.332   0.320  1.00  0.00    -0.246 OA
BRANCH  36  38
ATOM     38  C   UNL     1       2.649  -6.440  -1.255  1.00  0.00     0.060 A 
ATOM     39  C   UNL     1       1.914  -5.636  -2.133  1.00  0.00     0.016 A 
ATOM     40  C   UNL     1       2.389  -7.818  -1.180  1.00  0.00     0.016 A 
ATOM     41  C   UNL     1       0.869  -6.203  -2.863  1.00  0.00     0.010 A 
ATOM     42  C   UNL     1       1.329  -8.378  -1.901  1.00  0.00     0.010 A 
ATOM     43  C   UNL     1       0.550  -7.571  -2.732  1.00  0.00    -0.014 A 
BRANCH  43  44
ATOM     44  C   UNL     1      -0.403  -8.140  -3.704  1.00  0.00     0.031 A 
ATOM     45  C   UNL     1       0.091  -7.993  -5.102  1.00  0.00     0.074 A 
ATOM     46  C   UNL     1      -1.520  -8.876  -3.507  1.00  0.00     0.049 A 
ATOM     47  N   UNL     1      -0.383  -7.239  -6.039  1.00  0.00    -0.248 NA
ATOM     48  C   UNL     1       1.368  -8.641  -5.430  1.00  0.00     0.031 C 
ATOM     49  C   UNL     1      -2.019  -9.460  -2.262  1.00  0.00     0.029 A 
ATOM     50  N   UNL     1      -2.417  -9.334  -4.442  1.00  0.00    -0.354 N 
ATOM     51  C   UNL     1       0.442  -7.449  -7.144  1.00  0.00     0.074 A 
ATOM     52  C   UNL     1       1.584  -8.183  -6.662  1.00  0.00     0.031 C 
ATOM     53  C   UNL     1      -2.993 -10.360  -2.550  1.00  0.00     0.029 A 
ATOM     54  C   UNL     1      -3.289 -10.310  -3.974  1.00  0.00     0.049 A 
ATOM     55  H   UNL     1      -2.440  -8.998  -5.367  1.00  0.00     0.167 HD
ATOM     56  C   UNL     1       0.032  -7.176  -8.414  1.00  0.00     0.034 A 
ATOM     57  C   UNL     1      -4.157 -11.057  -4.705  1.00  0.00     0.034 A 
ATOM     58  C   UNL     1      -1.184  -6.414  -8.418  1.00  0.00     0.049 A 
ATOM     59  C   UNL     1      -4.418 -10.377  -5.990  1.00  0.00     0.074 A 
ATOM     60  C   UNL     1      -1.556  -5.128  -8.096  1.00  0.00     0.029 A 
ATOM     61  N   UNL     1      -2.334  -7.153  -8.517  1.00  0.00    -0.354 N 
ATOM     62  N   UNL     1      -5.111  -9.283  -6.115  1.00  0.00    -0.248 NA
ATOM     63  C   UNL     1      -3.662 -10.777  -7.169  1.00  0.00     0.031 C 
ATOM     64  C   UNL     1      -2.920  -5.212  -7.697  1.00  0.00     0.029 A 
ATOM     65  C   UNL     1      -3.334  -6.541  -7.811  1.00  0.00     0.049 A 
ATOM     66  H   UNL     1      -2.426  -7.995  -9.018  1.00  0.00     0.167 HD
ATOM     67  C   UNL     1      -4.518  -8.630  -7.177  1.00  0.00     0.074 A 
ATOM     68  C   UNL     1      -3.786  -9.664  -7.895  1.00  0.00     0.031 C 
ATOM     69  C   UNL     1      -4.421  -7.271  -7.186  1.00  0.00     0.034 A 
BRANCH  56  70
ATOM     70  C   UNL     1       0.505  -7.919  -9.644  1.00  0.00     0.023 A 
ATOM     71  C   UNL     1       1.240  -9.117  -9.580  1.00  0.00     0.031 A 
ATOM     72  C   UNL     1       0.017  -7.568 -10.921  1.00  0.00     0.131 A 
ATOM     73  C   UNL     1       1.482  -9.895 -10.719  1.00  0.00     0.055 A 
ATOM     74  C   UNL     1       0.197  -8.382 -12.047  1.00  0.00     0.041 A 
ATOM     75  F   UNL     1      -0.705  -6.451 -11.103  1.00  0.00    -0.206 F 
ATOM     76  C   UNL     1       0.935  -9.554 -11.951  1.00  0.00     0.022 A 
BRANCH  73  77
ATOM     77  S   UNL     1       2.510 -11.385 -10.604  1.00  0.00     0.124 S 
ATOM     78  O   UNL     1       1.583 -12.424 -11.039  1.00  0.00    -0.237 OA
ATOM     79  O   UNL     1       3.592 -11.069 -11.532  1.00  0.00    -0.237 OA
ATOM     80  O   UNL     1       2.896 -11.424  -9.196  1.00  0.00    -0.744 OA
ENDBRANCH  73  77
ENDBRANCH  56  70
BRANCH  57  81
ATOM     81  C   UNL     1      -4.544 -12.479  -4.537  1.00  0.00     0.023 A 
ATOM     82  C   UNL     1      -3.588 -13.387  -4.054  1.00  0.00     0.031 A 
ATOM     83  C   UNL     1      -5.679 -13.013  -5.181  1.00  0.00     0.131 A 
ATOM     84  C   UNL     1      -3.738 -14.762  -4.285  1.00  0.00     0.055 A 
ATOM     85  C   UNL     1      -5.837 -14.389  -5.388  1.00  0.00     0.041 A 
ATOM     86  F   UNL     1      -6.616 -12.203  -5.697  1.00  0.00    -0.206 F 
ATOM     87  C   UNL     1      -4.852 -15.270  -4.957  1.00  0.00     0.022 A 
BRANCH  84  88
ATOM     88  S   UNL     1      -2.418 -15.913  -3.815  1.00  0.00     0.124 S 
ATOM     89  O   UNL     1      -3.159 -16.963  -3.120  1.00  0.00    -0.237 OA
ATOM     90  O   UNL     1      -1.873 -16.283  -5.116  1.00  0.00    -0.237 OA
ATOM     91  O   UNL     1      -1.548 -15.104  -2.966  1.00  0.00    -0.744 OA
ENDBRANCH  84  88
ENDBRANCH  57  81
BRANCH  69  92
ATOM     92  C   UNL     1      -5.362  -6.479  -6.311  1.00  0.00     0.023 A 
ATOM     93  C   UNL     1      -6.068  -5.436  -6.936  1.00  0.00     0.031 A 
ATOM     94  C   UNL     1      -5.467  -6.591  -4.912  1.00  0.00     0.131 A 
ATOM     95  C   UNL     1      -6.801  -4.522  -6.175  1.00  0.00     0.055 A 
ATOM     96  C   UNL     1      -6.275  -5.729  -4.165  1.00  0.00     0.041 A 
ATOM     97  F   UNL     1      -4.738  -7.477  -4.218  1.00  0.00    -0.206 F 
ATOM     98  C   UNL     1      -6.931  -4.675  -4.793  1.00  0.00     0.022 A 
BRANCH  95  99
ATOM     99  S   UNL     1      -7.464  -3.024  -6.947  1.00  0.00     0.124 S 
ATOM    100  O   UNL     1      -8.903  -3.200  -6.780  1.00  0.00    -0.237 OA
ATOM    101  O   UNL     1      -6.861  -1.969  -6.135  1.00  0.00    -0.237 OA
ATOM    102  O   UNL     1      -6.980  -3.092  -8.323  1.00  0.00    -0.744 OA
ENDBRANCH  95  99
ENDBRANCH  69  92
ENDBRANCH  43  44
ENDBRANCH  36  38
ENDBRANCH  35  36
ENDBRANCH  34  35
ENDBRANCH  33  34
ENDBRANCH  32  33
ENDBRANCH  31  32
ENDBRANCH  30  31
ENDBRANCH  29  30
ENDBRANCH   1  29
TORSDOF 29
