REMARK SMILES Cc1ccc(Nc2c(Cl)cccc2Cl)c(CC(=O)OCCOCCOCCOCCOC(=O)c2ccc(-c3c4nc(c(-c5cc(S(=O)(=O)[O-])ccc5F)c5ccc([nH]5)c(-c5cc(S(=O)(=O)[O-])ccc5F)c5nc(c(-c6cc(S(=O)(=O)[O-])ccc6F)c6ccc3[nH]6)C=C5)C=C4)cc2)c1
REMARK SMILES IDX 25 1 24 2 23 3 22 4 21 5 20 6 19 7 17 8 18 9 16 10 15 11
REMARK SMILES IDX 1 12 2 13 3 14 97 15 4 16 5 17 6 18 7 20 8 21 13 22 9 23
REMARK SMILES IDX 10 24 12 25 14 26 11 27 26 28 27 29 28 30 29 31 30 32 31 33
REMARK SMILES IDX 32 34 33 35 34 36 35 37 96 38 36 39 95 40 37 41 38 42 39 43
REMARK SMILES IDX 89 44 40 45 94 46 88 47 90 48 41 49 93 50 87 51 86 52 42 54
REMARK SMILES IDX 74 55 54 56 73 57 55 58 58 59 72 60 91 61 56 62 57 63 71 65
REMARK SMILES IDX 92 66 59 67 43 68 44 69 52 70 45 71 51 72 53 73 50 74 46 75
REMARK SMILES IDX 47 76 48 77 49 78 75 79 76 80 84 81 77 82 83 83 85 84 82 85
REMARK SMILES IDX 78 86 79 87 80 88 81 89 60 90 61 91 69 92 62 93 68 94 70 95
REMARK SMILES IDX 67 96 63 97 64 98 65 99 66 100
REMARK H PARENT 6 19 90 53 58 64
REMARK Flexibility Score: inf
ROOT
ATOM      1  O   UNL     1      -2.103   0.088  -1.540  1.00  0.00    -0.377 OA
ENDROOT
BRANCH   1   2
ATOM      2  C   UNL     1      -3.423  -0.325  -1.243  1.00  0.00     0.188 C 
BRANCH   2   3
ATOM      3  C   UNL     1      -4.124   0.480  -0.185  1.00  0.00     0.188 C 
BRANCH   3   4
ATOM      4  O   UNL     1      -5.144   1.376  -0.572  1.00  0.00    -0.376 OA
BRANCH   4   5
ATOM      5  C   UNL     1      -4.605   2.540  -1.157  1.00  0.00     0.202 C 
BRANCH   5   6
ATOM      6  C   UNL     1      -3.931   3.532  -0.214  1.00  0.00     0.261 C 
BRANCH   6   7
ATOM      7  O   UNL     1      -2.751   2.993   0.403  1.00  0.00    -0.463 OA
BRANCH   7   8
ATOM      8  C   UNL     1      -2.748   3.028   1.755  1.00  0.00     0.310 C 
ATOM      9  O   UNL     1      -3.555   3.647   2.442  1.00  0.00    -0.252 OA
BRANCH   8  10
ATOM     10  C   UNL     1      -1.617   2.268   2.392  1.00  0.00     0.160 C 
BRANCH  10  11
ATOM     11  C   UNL     1      -1.130   0.962   1.782  1.00  0.00    -0.013 A 
ATOM     12  C   UNL     1       2.111   0.061  -0.106  1.00  0.00     0.044 C 
ATOM     13  C   UNL     1       0.763  -0.042   0.542  1.00  0.00    -0.051 A 
ATOM     14  C   UNL     1       0.135  -1.272   0.636  1.00  0.00     0.005 A 
ATOM     15  C   UNL     1       0.109   1.067   1.081  1.00  0.00     0.009 A 
ATOM     16  C   UNL     1      -1.115  -1.384   1.256  1.00  0.00     0.026 A 
ATOM     17  C   UNL     1      -1.775  -0.308   1.886  1.00  0.00     0.042 A 
BRANCH  17  18
ATOM     18  N   UNL     1      -3.037  -0.513   2.560  1.00  0.00    -0.353 N 
ATOM     19  H   UNL     1      -3.335   0.231   3.131  1.00  0.00     0.167 HD
BRANCH  18  20
ATOM     20  C   UNL     1      -3.926  -1.656   2.517  1.00  0.00     0.076 A 
ATOM     21  C   UNL     1      -3.486  -2.986   2.579  1.00  0.00     0.066 A 
ATOM     22  C   UNL     1      -5.279  -1.500   2.128  1.00  0.00     0.066 A 
ATOM     23  Cl  UNL     1      -2.142  -3.440   3.577  1.00  0.00    -0.082 Cl
ATOM     24  C   UNL     1      -4.185  -4.024   1.937  1.00  0.00     0.023 A 
ATOM     25  C   UNL     1      -5.966  -2.515   1.435  1.00  0.00     0.023 A 
ATOM     26  Cl  UNL     1      -6.145  -0.031   2.453  1.00  0.00    -0.082 Cl
ATOM     27  C   UNL     1      -5.385  -3.768   1.283  1.00  0.00     0.003 A 
ENDBRANCH  18  20
ENDBRANCH  17  18
ENDBRANCH  10  11
ENDBRANCH   8  10
ENDBRANCH   7   8
ENDBRANCH   6   7
ENDBRANCH   5   6
ENDBRANCH   4   5
ENDBRANCH   3   4
ENDBRANCH   2   3
ENDBRANCH   1   2
BRANCH   1  28
ATOM     28  C   UNL     1      -1.693  -0.364  -2.838  1.00  0.00     0.188 C 
BRANCH  28  29
ATOM     29  C   UNL     1      -1.765  -1.866  -3.125  1.00  0.00     0.188 C 
BRANCH  29  30
ATOM     30  O   UNL     1      -3.126  -2.293  -3.085  1.00  0.00    -0.376 OA
BRANCH  30  31
ATOM     31  C   UNL     1      -3.436  -3.416  -2.278  1.00  0.00     0.202 C 
BRANCH  31  32
ATOM     32  C   UNL     1      -4.143  -4.435  -3.163  1.00  0.00     0.261 C 
BRANCH  32  33
ATOM     33  O   UNL     1      -5.277  -3.790  -3.788  1.00  0.00    -0.460 OA
BRANCH  33  34
ATOM     34  C   UNL     1      -5.026  -3.355  -5.060  1.00  0.00     0.338 C 
ATOM     35  O   UNL     1      -4.657  -4.070  -5.971  1.00  0.00    -0.246 OA
BRANCH  34  36
ATOM     36  C   UNL     1      -5.175  -1.868  -5.158  1.00  0.00     0.060 A 
ATOM     37  C   UNL     1      -4.552  -1.180  -6.212  1.00  0.00     0.016 A 
ATOM     38  C   UNL     1      -5.754  -1.139  -4.122  1.00  0.00     0.016 A 
ATOM     39  C   UNL     1      -4.401   0.219  -6.167  1.00  0.00     0.010 A 
ATOM     40  C   UNL     1      -5.571   0.240  -4.067  1.00  0.00     0.010 A 
ATOM     41  C   UNL     1      -4.845   0.934  -5.053  1.00  0.00    -0.014 A 
BRANCH  41  42
ATOM     42  C   UNL     1      -4.432   2.320  -4.707  1.00  0.00     0.031 A 
ATOM     43  C   UNL     1      -5.446   3.328  -4.249  1.00  0.00     0.074 A 
ATOM     44  C   UNL     1      -3.124   2.522  -4.393  1.00  0.00     0.049 A 
ATOM     45  N   UNL     1      -5.163   4.499  -3.780  1.00  0.00    -0.248 NA
ATOM     46  C   UNL     1      -6.891   3.096  -4.258  1.00  0.00     0.031 C 
ATOM     47  C   UNL     1      -2.577   3.461  -3.408  1.00  0.00     0.029 A 
ATOM     48  N   UNL     1      -1.976   1.890  -4.836  1.00  0.00    -0.354 N 
ATOM     49  C   UNL     1      -6.257   4.965  -3.074  1.00  0.00     0.074 A 
ATOM     50  C   UNL     1      -7.342   4.135  -3.539  1.00  0.00     0.031 C 
ATOM     51  C   UNL     1      -1.239   3.383  -3.365  1.00  0.00     0.029 A 
ATOM     52  C   UNL     1      -0.862   2.695  -4.570  1.00  0.00     0.049 A 
ATOM     53  H   UNL     1      -1.947   1.008  -5.272  1.00  0.00     0.167 HD
ATOM     54  C   UNL     1      -6.068   5.868  -2.055  1.00  0.00     0.034 A 
ATOM     55  C   UNL     1      -0.163   3.285  -5.587  1.00  0.00     0.034 A 
ATOM     56  C   UNL     1      -4.701   6.442  -2.043  1.00  0.00     0.049 A 
ATOM     57  C   UNL     1      -0.438   4.804  -5.636  1.00  0.00     0.074 A 
ATOM     58  C   UNL     1      -3.758   6.793  -1.086  1.00  0.00     0.029 A 
ATOM     59  N   UNL     1      -4.064   6.670  -3.259  1.00  0.00    -0.354 N 
ATOM     60  N   UNL     1      -1.209   5.430  -4.777  1.00  0.00    -0.248 NA
ATOM     61  C   UNL     1       0.096   5.744  -6.617  1.00  0.00     0.031 C 
ATOM     62  C   UNL     1      -2.538   7.140  -1.753  1.00  0.00     0.029 A 
ATOM     63  C   UNL     1      -2.770   7.106  -3.115  1.00  0.00     0.049 A 
ATOM     64  H   UNL     1      -4.497   6.534  -4.132  1.00  0.00     0.167 HD
ATOM     65  C   UNL     1      -1.322   6.758  -5.056  1.00  0.00     0.074 A 
ATOM     66  C   UNL     1      -0.494   6.902  -6.247  1.00  0.00     0.031 C 
ATOM     67  C   UNL     1      -2.090   7.610  -4.298  1.00  0.00     0.034 A 
BRANCH  54  68
ATOM     68  C   UNL     1      -7.066   6.153  -0.921  1.00  0.00     0.023 A 
ATOM     69  C   UNL     1      -6.826   7.233  -0.035  1.00  0.00     0.031 A 
ATOM     70  C   UNL     1      -8.174   5.347  -0.571  1.00  0.00     0.131 A 
ATOM     71  C   UNL     1      -7.612   7.446   1.121  1.00  0.00     0.055 A 
ATOM     72  C   UNL     1      -9.001   5.605   0.536  1.00  0.00     0.041 A 
ATOM     73  F   UNL     1      -8.487   4.232  -1.242  1.00  0.00    -0.206 F 
ATOM     74  C   UNL     1      -8.716   6.650   1.399  1.00  0.00     0.022 A 
BRANCH  71  75
ATOM     75  S   UNL     1      -7.147   8.754   2.297  1.00  0.00     0.124 S 
ATOM     76  O   UNL     1      -5.913   8.228   2.871  1.00  0.00    -0.237 OA
ATOM     77  O   UNL     1      -7.011   9.922   1.434  1.00  0.00    -0.237 OA
ATOM     78  O   UNL     1      -8.283   8.803   3.218  1.00  0.00    -0.744 OA
ENDBRANCH  71  75
ENDBRANCH  54  68
BRANCH  55  79
ATOM     79  C   UNL     1       0.085   2.266  -6.667  1.00  0.00     0.023 A 
ATOM     80  C   UNL     1       0.859   1.146  -6.246  1.00  0.00     0.031 A 
ATOM     81  C   UNL     1      -0.871   2.043  -7.673  1.00  0.00     0.131 A 
ATOM     82  C   UNL     1       0.494  -0.160  -6.624  1.00  0.00     0.055 A 
ATOM     83  C   UNL     1      -1.198   0.736  -8.083  1.00  0.00     0.041 A 
ATOM     84  F   UNL     1      -1.662   3.041  -8.093  1.00  0.00    -0.206 F 
ATOM     85  C   UNL     1      -0.563  -0.370  -7.510  1.00  0.00     0.022 A 
BRANCH  82  86
ATOM     86  S   UNL     1       1.213  -1.583  -5.727  1.00  0.00     0.124 S 
ATOM     87  O   UNL     1       2.460  -1.798  -6.449  1.00  0.00    -0.237 OA
ATOM     88  O   UNL     1       1.343  -1.080  -4.364  1.00  0.00    -0.237 OA
ATOM     89  O   UNL     1       0.206  -2.628  -5.891  1.00  0.00    -0.744 OA
ENDBRANCH  82  86
ENDBRANCH  55  79
BRANCH  67  90
ATOM     90  C   UNL     1      -2.367   9.051  -4.643  1.00  0.00     0.023 A 
ATOM     91  C   UNL     1      -1.427   9.833  -5.302  1.00  0.00     0.031 A 
ATOM     92  C   UNL     1      -3.596   9.688  -4.319  1.00  0.00     0.131 A 
ATOM     93  C   UNL     1      -1.781  11.096  -5.792  1.00  0.00     0.055 A 
ATOM     94  C   UNL     1      -3.901  10.992  -4.704  1.00  0.00     0.041 A 
ATOM     95  F   UNL     1      -4.581   9.067  -3.655  1.00  0.00    -0.206 F 
ATOM     96  C   UNL     1      -3.005  11.692  -5.489  1.00  0.00     0.022 A 
BRANCH  93  97
ATOM     97  S   UNL     1      -0.658  11.853  -6.982  1.00  0.00     0.124 S 
ATOM     98  O   UNL     1       0.602  11.889  -6.248  1.00  0.00    -0.237 OA
ATOM     99  O   UNL     1      -0.719  10.896  -8.085  1.00  0.00    -0.237 OA
ATOM    100  O   UNL     1      -1.267  13.153  -7.251  1.00  0.00    -0.744 OA
ENDBRANCH  93  97
ENDBRANCH  67  90
ENDBRANCH  41  42
ENDBRANCH  34  36
ENDBRANCH  33  34
ENDBRANCH  32  33
ENDBRANCH  31  32
ENDBRANCH  30  31
ENDBRANCH  29  30
ENDBRANCH  28  29
ENDBRANCH   1  28
TORSDOF 26
