REMARK SMILES N#C/C(=C/c1ccc(-c2cccc(C(=O)OCCOCCOCCOCCOC(=O)c3ccc(-c4c5nc(c(-c6cc(S(=O)(=O)[O-])ccc6F)c6ccc([nH]6)c(-c6cc(S(=O)(=O)[O-])ccc6F)c6nc(c(-c7cc(S(=O)(=O)[O-])ccc7F)c7ccc4[nH]7)C=C6)C=C5)cc3)c2)o1)c1ccc(F)cc1
REMARK SMILES IDX 22 1 21 2 20 3 19 4 18 5 17 6 16 7 14 8 15 9 13 10 9 11
REMARK SMILES IDX 10 12 94 13 11 14 12 15 8 16 5 17 6 18 95 19 7 20 4 21 3 22
REMARK SMILES IDX 2 23 1 24 96 25 97 26 102 27 98 28 101 29 99 30 100 31 23 32
REMARK SMILES IDX 24 33 25 34 26 35 27 36 28 37 29 38 30 39 31 40 32 41 93 42
REMARK SMILES IDX 33 43 92 44 34 45 35 46 36 47 86 48 37 49 91 50 85 51 87 52
REMARK SMILES IDX 38 53 90 54 84 55 83 56 39 58 71 59 51 60 70 61 52 62 55 63
REMARK SMILES IDX 69 64 88 65 53 66 54 67 68 69 89 70 56 71 40 72 41 73 49 74
REMARK SMILES IDX 42 75 48 76 50 77 47 78 43 79 44 80 45 81 46 82 72 83 73 84
REMARK SMILES IDX 81 85 74 86 80 87 82 88 79 89 75 90 76 91 77 92 78 93 57 94
REMARK SMILES IDX 58 95 66 96 59 97 65 98 67 99 64 100 60 101 61 102 62 103
REMARK SMILES IDX 63 104
REMARK H PARENT 87 57 55 68
REMARK Flexibility Score: inf
ROOT
ATOM      1  O   UNL     1      10.886  -4.302   4.493  1.00  0.00    -0.377 OA
ENDROOT
BRANCH   1   2
ATOM      2  C   UNL     1      10.976  -5.078   3.313  1.00  0.00     0.188 C 
BRANCH   2   3
ATOM      3  C   UNL     1      12.423  -5.416   2.909  1.00  0.00     0.188 C 
BRANCH   3   4
ATOM      4  O   UNL     1      13.421  -5.284   3.901  1.00  0.00    -0.376 OA
BRANCH   4   5
ATOM      5  C   UNL     1      13.878  -4.029   4.380  1.00  0.00     0.202 C 
BRANCH   5   6
ATOM      6  C   UNL     1      13.386  -2.629   3.960  1.00  0.00     0.261 C 
BRANCH   6   7
ATOM      7  O   UNL     1      12.383  -2.534   2.954  1.00  0.00    -0.460 OA
BRANCH   7   8
ATOM      8  C   UNL     1      12.786  -2.485   1.664  1.00  0.00     0.338 C 
ATOM      9  O   UNL     1      13.919  -2.502   1.241  1.00  0.00    -0.246 OA
BRANCH   8  10
ATOM     10  C   UNL     1      11.559  -2.629   0.838  1.00  0.00     0.060 A 
ATOM     11  C   UNL     1       9.197  -2.152   0.457  1.00  0.00     0.018 A 
ATOM     12  C   UNL     1       9.192  -3.104  -0.569  1.00  0.00     0.012 A 
ATOM     13  C   UNL     1      10.388  -1.943   1.172  1.00  0.00     0.027 A 
ATOM     14  C   UNL     1      10.364  -3.800  -0.901  1.00  0.00     0.002 A 
ATOM     15  C   UNL     1      11.552  -3.550  -0.212  1.00  0.00     0.016 A 
BRANCH  11  16
ATOM     16  C   UNL     1       8.045  -1.315   0.772  1.00  0.00     0.134 A 
ATOM     17  C   UNL     1       5.878  -0.811   0.895  1.00  0.00     0.128 A 
ATOM     18  C   UNL     1       6.605   0.264   1.399  1.00  0.00     0.051 A 
ATOM     19  O   UNL     1       6.785  -1.794   0.532  1.00  0.00    -0.457 OA
ATOM     20  C   UNL     1       7.970  -0.041   1.288  1.00  0.00     0.051 A 
BRANCH  17  21
ATOM     21  C   UNL     1       4.459  -0.905   0.729  1.00  0.00     0.067 C 
ATOM     22  C   UNL     1       3.756   0.051   0.083  1.00  0.00     0.063 C 
BRANCH  22  23
ATOM     23  C   UNL     1       2.236   0.051   0.083  1.00  0.00     0.100 C 
ATOM     24  N   UNL     1       0.975   0.051   0.083  1.00  0.00    -0.192 NA
ENDBRANCH  22  23
BRANCH  22  25
ATOM     25  C   UNL     1       4.386   1.188  -0.652  1.00  0.00    -0.007 A 
ATOM     26  C   UNL     1       5.377   0.961  -1.627  1.00  0.00     0.012 A 
ATOM     27  C   UNL     1       4.012   2.514  -0.371  1.00  0.00     0.012 A 
ATOM     28  C   UNL     1       6.022   2.029  -2.253  1.00  0.00     0.040 A 
ATOM     29  C   UNL     1       4.646   3.581  -1.015  1.00  0.00     0.040 A 
ATOM     30  C   UNL     1       5.653   3.329  -1.938  1.00  0.00     0.123 A 
ATOM     31  F   UNL     1       6.278   4.355  -2.531  1.00  0.00    -0.207 F 
ENDBRANCH  22  25
ENDBRANCH  17  21
ENDBRANCH  11  16
ENDBRANCH   8  10
ENDBRANCH   7   8
ENDBRANCH   6   7
ENDBRANCH   5   6
ENDBRANCH   4   5
ENDBRANCH   3   4
ENDBRANCH   2   3
ENDBRANCH   1   2
BRANCH   1  32
ATOM     32  C   UNL     1      10.872  -4.992   5.741  1.00  0.00     0.188 C 
BRANCH  32  33
ATOM     33  C   UNL     1      11.538  -6.379   5.894  1.00  0.00     0.188 C 
BRANCH  33  34
ATOM     34  O   UNL     1      11.323  -7.266   4.802  1.00  0.00    -0.376 OA
BRANCH  34  35
ATOM     35  C   UNL     1      10.403  -8.332   4.969  1.00  0.00     0.202 C 
BRANCH  35  36
ATOM     36  C   UNL     1       8.922  -7.936   5.047  1.00  0.00     0.261 C 
BRANCH  36  37
ATOM     37  O   UNL     1       8.581  -7.032   6.108  1.00  0.00    -0.460 OA
BRANCH  37  38
ATOM     38  C   UNL     1       8.781  -7.487   7.365  1.00  0.00     0.338 C 
ATOM     39  O   UNL     1       9.181  -8.592   7.683  1.00  0.00    -0.246 OA
BRANCH  38  40
ATOM     40  C   UNL     1       8.627  -6.353   8.297  1.00  0.00     0.060 A 
ATOM     41  C   UNL     1       9.694  -6.041   9.146  1.00  0.00     0.016 A 
ATOM     42  C   UNL     1       7.439  -5.618   8.349  1.00  0.00     0.016 A 
ATOM     43  C   UNL     1       9.554  -5.032  10.094  1.00  0.00     0.010 A 
ATOM     44  C   UNL     1       7.296  -4.613   9.311  1.00  0.00     0.010 A 
ATOM     45  C   UNL     1       8.337  -4.348  10.218  1.00  0.00    -0.014 A 
BRANCH  45  46
ATOM     46  C   UNL     1       8.111  -3.515  11.426  1.00  0.00     0.031 A 
ATOM     47  C   UNL     1       7.324  -4.102  12.568  1.00  0.00     0.074 A 
ATOM     48  C   UNL     1       8.661  -2.293  11.538  1.00  0.00     0.049 A 
ATOM     49  N   UNL     1       7.054  -3.594  13.742  1.00  0.00    -0.248 NA
ATOM     50  C   UNL     1       6.765  -5.445  12.351  1.00  0.00     0.031 C 
ATOM     51  C   UNL     1       9.466  -1.635  10.510  1.00  0.00     0.029 A 
ATOM     52  N   UNL     1       8.633  -1.392  12.573  1.00  0.00    -0.354 N 
ATOM     53  C   UNL     1       6.292  -4.552  14.403  1.00  0.00     0.074 A 
ATOM     54  C   UNL     1       6.104  -5.649  13.479  1.00  0.00     0.031 C 
ATOM     55  C   UNL     1       9.857  -0.433  10.968  1.00  0.00     0.029 A 
ATOM     56  C   UNL     1       9.306  -0.223  12.306  1.00  0.00     0.049 A 
ATOM     57  H   UNL     1       8.174  -1.566  13.426  1.00  0.00     0.167 HD
ATOM     58  C   UNL     1       5.804  -4.523  15.668  1.00  0.00     0.034 A 
ATOM     59  C   UNL     1       9.446   0.894  13.049  1.00  0.00     0.034 A 
ATOM     60  C   UNL     1       5.991  -3.411  16.571  1.00  0.00     0.049 A 
ATOM     61  C   UNL     1       8.845   0.930  14.434  1.00  0.00     0.074 A 
ATOM     62  C   UNL     1       5.565  -3.285  17.881  1.00  0.00     0.029 A 
ATOM     63  N   UNL     1       6.641  -2.224  16.251  1.00  0.00    -0.354 N 
ATOM     64  N   UNL     1       8.153   0.005  15.062  1.00  0.00    -0.248 NA
ATOM     65  C   UNL     1       9.061   2.153  15.216  1.00  0.00     0.031 C 
ATOM     66  C   UNL     1       5.873  -1.993  18.320  1.00  0.00     0.029 A 
ATOM     67  C   UNL     1       6.588  -1.346  17.324  1.00  0.00     0.049 A 
ATOM     68  H   UNL     1       7.075  -2.034  15.388  1.00  0.00     0.167 HD
ATOM     69  C   UNL     1       7.881   0.525  16.326  1.00  0.00     0.074 A 
ATOM     70  C   UNL     1       8.500   1.835  16.373  1.00  0.00     0.031 C 
ATOM     71  C   UNL     1       7.191  -0.032  17.356  1.00  0.00     0.034 A 
BRANCH  58  72
ATOM     72  C   UNL     1       4.965  -5.699  16.117  1.00  0.00     0.023 A 
ATOM     73  C   UNL     1       5.483  -7.005  16.186  1.00  0.00     0.031 A 
ATOM     74  C   UNL     1       3.608  -5.515  16.439  1.00  0.00     0.131 A 
ATOM     75  C   UNL     1       4.633  -8.082  16.485  1.00  0.00     0.055 A 
ATOM     76  C   UNL     1       2.790  -6.578  16.826  1.00  0.00     0.041 A 
ATOM     77  F   UNL     1       3.047  -4.298  16.366  1.00  0.00    -0.206 F 
ATOM     78  C   UNL     1       3.297  -7.874  16.834  1.00  0.00     0.022 A 
BRANCH  75  79
ATOM     79  S   UNL     1       5.253  -9.771  16.247  1.00  0.00     0.124 S 
ATOM     80  O   UNL     1       5.661  -9.740  14.845  1.00  0.00    -0.237 OA
ATOM     81  O   UNL     1       6.331  -9.851  17.225  1.00  0.00    -0.237 OA
ATOM     82  O   UNL     1       4.088 -10.607  16.530  1.00  0.00    -0.744 OA
ENDBRANCH  75  79
ENDBRANCH  58  72
BRANCH  59  83
ATOM     83  C   UNL     1      10.152   2.083  12.488  1.00  0.00     0.023 A 
ATOM     84  C   UNL     1      11.335   2.579  13.059  1.00  0.00     0.031 A 
ATOM     85  C   UNL     1       9.620   2.768  11.380  1.00  0.00     0.131 A 
ATOM     86  C   UNL     1      11.925   3.746  12.545  1.00  0.00     0.055 A 
ATOM     87  C   UNL     1      10.240   3.894  10.837  1.00  0.00     0.041 A 
ATOM     88  F   UNL     1       8.489   2.340  10.797  1.00  0.00    -0.206 F 
ATOM     89  C   UNL     1      11.395   4.396  11.428  1.00  0.00     0.022 A 
BRANCH  86  90
ATOM     90  S   UNL     1      13.358   4.453  13.405  1.00  0.00     0.124 S 
ATOM     91  O   UNL     1      12.815   4.697  14.736  1.00  0.00    -0.237 OA
ATOM     92  O   UNL     1      14.337   3.377  13.297  1.00  0.00    -0.237 OA
ATOM     93  O   UNL     1      13.665   5.651  12.625  1.00  0.00    -0.744 OA
ENDBRANCH  86  90
ENDBRANCH  59  83
BRANCH  71  94
ATOM     94  C   UNL     1       7.114   0.761  18.643  1.00  0.00     0.023 A 
ATOM     95  C   UNL     1       6.476   2.012  18.712  1.00  0.00     0.031 A 
ATOM     96  C   UNL     1       7.718   0.267  19.815  1.00  0.00     0.131 A 
ATOM     97  C   UNL     1       6.529   2.761  19.899  1.00  0.00     0.055 A 
ATOM     98  C   UNL     1       7.695   0.980  21.014  1.00  0.00     0.041 A 
ATOM     99  F   UNL     1       8.346  -0.920  19.813  1.00  0.00    -0.206 F 
ATOM    100  C   UNL     1       7.116   2.244  21.056  1.00  0.00     0.022 A 
BRANCH  97 101
ATOM    101  S   UNL     1       5.944   4.478  19.870  1.00  0.00     0.124 S 
ATOM    102  O   UNL     1       6.736   5.048  18.785  1.00  0.00    -0.237 OA
ATOM    103  O   UNL     1       4.519   4.318  19.605  1.00  0.00    -0.237 OA
ATOM    104  O   UNL     1       6.275   4.975  21.205  1.00  0.00    -0.744 OA
ENDBRANCH  97 101
ENDBRANCH  71  94
ENDBRANCH  45  46
ENDBRANCH  38  40
ENDBRANCH  37  38
ENDBRANCH  36  37
ENDBRANCH  35  36
ENDBRANCH  34  35
ENDBRANCH  33  34
ENDBRANCH  32  33
ENDBRANCH   1  32
TORSDOF 27
