REMARK SMILES C[C@H](C(=O)OCCOCCOCCOCCOC(=O)c1ccc(-c2c3nc(c(-c4cc(S(=O)(=O)[O-])ccc4F)c4ccc([nH]4)c(-c4cc(S(=O)(=O)[O-])ccc4F)c4nc(c(-c5cc(S(=O)(=O)[O-])ccc5F)c5ccc2[nH]5)C=C4)C=C3)cc1)[C@H](C)[NH+]1CC[NH+](CCO)CC1
REMARK SMILES IDX 10 1 9 2 8 3 7 4 6 5 5 6 3 7 4 8 2 9 1 10 83 11 84 12 85 13
REMARK SMILES IDX 86 14 93 15 87 17 92 18 88 19 89 21 90 22 91 23 11 25 12 26
REMARK SMILES IDX 13 27 14 28 15 29 16 30 17 31 18 32 19 33 20 34 21 35 82 36
REMARK SMILES IDX 22 37 81 38 23 39 24 40 25 41 75 42 26 43 80 44 74 45 76 46
REMARK SMILES IDX 27 47 79 48 73 49 72 50 28 52 60 53 40 54 59 55 41 56 44 57
REMARK SMILES IDX 58 58 77 59 42 60 43 61 57 63 78 64 45 65 29 66 30 67 38 68
REMARK SMILES IDX 31 69 37 70 39 71 36 72 32 73 33 74 34 75 35 76 61 77 62 78
REMARK SMILES IDX 70 79 63 80 69 81 71 82 68 83 64 84 65 85 66 86 67 87 46 88
REMARK SMILES IDX 47 89 55 90 48 91 54 92 56 93 53 94 49 95 50 96 51 97 52 98
REMARK H PARENT 85 16 88 20 91 24 76 51 44 62
REMARK Flexibility Score: inf
ROOT
ATOM      1  C   UNL     1      -1.581   0.386   2.421  1.00  0.00     0.188 C 
ENDROOT
BRANCH   1   2
ATOM      2  C   UNL     1      -2.253   1.757   2.285  1.00  0.00     0.188 C 
BRANCH   2   3
ATOM      3  O   UNL     1      -3.604   1.858   2.720  1.00  0.00    -0.376 OA
BRANCH   3   4
ATOM      4  C   UNL     1      -4.587   1.117   1.994  1.00  0.00     0.202 C 
BRANCH   4   5
ATOM      5  C   UNL     1      -4.636   1.297   0.466  1.00  0.00     0.261 C 
BRANCH   5   6
ATOM      6  O   UNL     1      -3.434   0.840  -0.192  1.00  0.00    -0.463 OA
BRANCH   6   7
ATOM      7  C   UNL     1      -2.970   1.591  -1.220  1.00  0.00     0.314 C 
ATOM      8  O   UNL     1      -3.559   2.573  -1.664  1.00  0.00    -0.252 OA
BRANCH   7   9
ATOM      9  C   UNL     1      -1.571   1.198  -1.713  1.00  0.00     0.154 C 
ATOM     10  C   UNL     1      -0.625   2.277  -1.157  1.00  0.00     0.026 C 
BRANCH   9  11
ATOM     11  C   UNL     1      -1.104  -0.286  -1.465  1.00  0.00     0.195 C 
ATOM     12  C   UNL     1       0.439  -0.375  -1.324  1.00  0.00     0.076 C 
BRANCH  11  13
ATOM     13  N   UNL     1      -1.540  -1.196  -2.566  1.00  0.00    -0.323 N 
ATOM     14  C   UNL     1      -1.022  -2.584  -2.483  1.00  0.00     0.324 C 
ATOM     15  C   UNL     1      -3.007  -1.306  -2.719  1.00  0.00     0.324 C 
ATOM     16  H   UNL     1      -1.128  -0.728  -3.373  1.00  0.00     0.348 HD
ATOM     17  C   UNL     1      -1.698  -3.494  -1.429  1.00  0.00     0.324 C 
ATOM     18  C   UNL     1      -3.726  -2.178  -1.661  1.00  0.00     0.324 C 
ATOM     19  N   UNL     1      -3.164  -3.514  -1.432  1.00  0.00    -0.324 N 
ATOM     20  H   UNL     1      -3.424  -3.784  -0.483  1.00  0.00     0.348 HD
BRANCH  19  21
ATOM     21  C   UNL     1      -3.796  -4.587  -2.212  1.00  0.00     0.291 C 
BRANCH  21  22
ATOM     22  C   UNL     1      -3.658  -4.606  -3.745  1.00  0.00     0.217 C 
BRANCH  22  23
ATOM     23  O   UNL     1      -2.335  -4.921  -4.169  1.00  0.00    -0.391 OA
ATOM     24  H   UNL     1      -1.720  -4.246  -3.841  1.00  0.00     0.210 HD
ENDBRANCH  22  23
ENDBRANCH  21  22
ENDBRANCH  19  21
ENDBRANCH  11  13
ENDBRANCH   9  11
ENDBRANCH   7   9
ENDBRANCH   6   7
ENDBRANCH   5   6
ENDBRANCH   4   5
ENDBRANCH   3   4
ENDBRANCH   2   3
ENDBRANCH   1   2
BRANCH   1  25
ATOM     25  O   UNL     1      -2.213  -0.633   1.662  1.00  0.00    -0.377 OA
BRANCH  25  26
ATOM     26  C   UNL     1      -2.754  -1.791   2.296  1.00  0.00     0.188 C 
BRANCH  26  27
ATOM     27  C   UNL     1      -2.484  -1.983   3.787  1.00  0.00     0.188 C 
BRANCH  27  28
ATOM     28  O   UNL     1      -1.116  -2.115   4.186  1.00  0.00    -0.376 OA
BRANCH  28  29
ATOM     29  C   UNL     1      -0.184  -2.655   3.252  1.00  0.00     0.202 C 
BRANCH  29  30
ATOM     30  C   UNL     1      -0.148  -4.180   3.145  1.00  0.00     0.261 C 
BRANCH  30  31
ATOM     31  O   UNL     1      -1.350  -4.730   2.585  1.00  0.00    -0.460 OA
BRANCH  31  32
ATOM     32  C   UNL     1      -2.246  -5.177   3.492  1.00  0.00     0.338 C 
ATOM     33  O   UNL     1      -2.131  -5.155   4.713  1.00  0.00    -0.246 OA
BRANCH  32  34
ATOM     34  C   UNL     1      -3.483  -5.591   2.814  1.00  0.00     0.060 A 
ATOM     35  C   UNL     1      -4.707  -5.130   3.318  1.00  0.00     0.016 A 
ATOM     36  C   UNL     1      -3.445  -6.511   1.764  1.00  0.00     0.016 A 
ATOM     37  C   UNL     1      -5.901  -5.635   2.812  1.00  0.00     0.010 A 
ATOM     38  C   UNL     1      -4.642  -7.026   1.266  1.00  0.00     0.010 A 
ATOM     39  C   UNL     1      -5.870  -6.622   1.819  1.00  0.00    -0.014 A 
BRANCH  39  40
ATOM     40  C   UNL     1      -7.104  -7.372   1.494  1.00  0.00     0.031 A 
ATOM     41  C   UNL     1      -7.303  -8.728   2.113  1.00  0.00     0.074 A 
ATOM     42  C   UNL     1      -8.030  -6.846   0.674  1.00  0.00     0.049 A 
ATOM     43  N   UNL     1      -8.253  -9.602   1.915  1.00  0.00    -0.248 NA
ATOM     44  C   UNL     1      -6.281  -9.156   3.082  1.00  0.00     0.031 C 
ATOM     45  C   UNL     1      -7.962  -5.517   0.068  1.00  0.00     0.029 A 
ATOM     46  N   UNL     1      -9.205  -7.373   0.204  1.00  0.00    -0.354 N 
ATOM     47  C   UNL     1      -7.939 -10.691   2.723  1.00  0.00     0.074 A 
ATOM     48  C   UNL     1      -6.691 -10.378   3.385  1.00  0.00     0.031 C 
ATOM     49  C   UNL     1      -9.048  -5.336  -0.702  1.00  0.00     0.029 A 
ATOM     50  C   UNL     1      -9.859  -6.551  -0.682  1.00  0.00     0.049 A 
ATOM     51  H   UNL     1      -9.547  -8.255   0.476  1.00  0.00     0.167 HD
ATOM     52  C   UNL     1      -8.634 -11.842   2.897  1.00  0.00     0.034 A 
ATOM     53  C   UNL     1     -10.968  -6.774  -1.415  1.00  0.00     0.034 A 
ATOM     54  C   UNL     1      -9.872 -12.132   2.215  1.00  0.00     0.049 A 
ATOM     55  C   UNL     1     -11.676  -8.101  -1.276  1.00  0.00     0.074 A 
ATOM     56  C   UNL     1     -10.672 -13.256   2.322  1.00  0.00     0.029 A 
ATOM     57  N   UNL     1     -10.483 -11.297   1.287  1.00  0.00    -0.354 N 
ATOM     58  N   UNL     1     -11.374  -9.125  -0.509  1.00  0.00    -0.248 NA
ATOM     59  C   UNL     1     -12.877  -8.300  -2.097  1.00  0.00     0.031 C 
ATOM     60  C   UNL     1     -11.718 -13.137   1.400  1.00  0.00     0.029 A 
ATOM     61  C   UNL     1     -11.626 -11.899   0.784  1.00  0.00     0.049 A 
ATOM     62  H   UNL     1     -10.152 -10.408   1.024  1.00  0.00     0.167 HD
ATOM     63  C   UNL     1     -12.370 -10.074  -0.731  1.00  0.00     0.074 A 
ATOM     64  C   UNL     1     -13.285  -9.494  -1.693  1.00  0.00     0.031 C 
ATOM     65  C   UNL     1     -12.522 -11.309  -0.185  1.00  0.00     0.034 A 
BRANCH  52  66
ATOM     66  C   UNL     1      -8.034 -12.887   3.807  1.00  0.00     0.023 A 
ATOM     67  C   UNL     1      -7.824 -12.651   5.178  1.00  0.00     0.031 A 
ATOM     68  C   UNL     1      -7.632 -14.131   3.287  1.00  0.00     0.131 A 
ATOM     69  C   UNL     1      -7.163 -13.611   5.961  1.00  0.00     0.055 A 
ATOM     70  C   UNL     1      -7.052 -15.115   4.090  1.00  0.00     0.041 A 
ATOM     71  F   UNL     1      -7.780 -14.406   1.981  1.00  0.00    -0.206 F 
ATOM     72  C   UNL     1      -6.800 -14.852   5.433  1.00  0.00     0.022 A 
BRANCH  69  73
ATOM     73  S   UNL     1      -6.644 -13.154   7.638  1.00  0.00     0.124 S 
ATOM     74  O   UNL     1      -5.803 -11.988   7.379  1.00  0.00    -0.237 OA
ATOM     75  O   UNL     1      -7.917 -12.890   8.300  1.00  0.00    -0.237 OA
ATOM     76  O   UNL     1      -5.928 -14.337   8.110  1.00  0.00    -0.744 OA
ENDBRANCH  69  73
ENDBRANCH  52  66
BRANCH  53  77
ATOM     77  C   UNL     1     -11.461  -5.742  -2.372  1.00  0.00     0.023 A 
ATOM     78  C   UNL     1     -12.723  -5.151  -2.213  1.00  0.00     0.031 A 
ATOM     79  C   UNL     1     -10.694  -5.366  -3.490  1.00  0.00     0.131 A 
ATOM     80  C   UNL     1     -13.202  -4.253  -3.179  1.00  0.00     0.055 A 
ATOM     81  C   UNL     1     -11.150  -4.429  -4.418  1.00  0.00     0.041 A 
ATOM     82  F   UNL     1      -9.478  -5.900  -3.691  1.00  0.00    -0.206 F 
ATOM     83  C   UNL     1     -12.419  -3.876  -4.272  1.00  0.00     0.022 A 
BRANCH  80  84
ATOM     84  S   UNL     1     -14.907  -3.651  -3.033  1.00  0.00     0.124 S 
ATOM     85  O   UNL     1     -15.663  -4.898  -3.050  1.00  0.00    -0.237 OA
ATOM     86  O   UNL     1     -14.867  -2.941  -1.759  1.00  0.00    -0.237 OA
ATOM     87  O   UNL     1     -15.070  -2.804  -4.212  1.00  0.00    -0.744 OA
ENDBRANCH  80  84
ENDBRANCH  53  77
BRANCH  65  88
ATOM     88  C   UNL     1     -13.752 -12.091  -0.581  1.00  0.00     0.023 A 
ATOM     89  C   UNL     1     -13.953 -12.547  -1.895  1.00  0.00     0.031 A 
ATOM     90  C   UNL     1     -14.743 -12.378   0.376  1.00  0.00     0.131 A 
ATOM     91  C   UNL     1     -15.142 -13.213  -2.229  1.00  0.00     0.055 A 
ATOM     92  C   UNL     1     -15.892 -13.101   0.053  1.00  0.00     0.041 A 
ATOM     93  F   UNL     1     -14.607 -11.964   1.646  1.00  0.00    -0.206 F 
ATOM     94  C   UNL     1     -16.103 -13.510  -1.260  1.00  0.00     0.022 A 
BRANCH  91  95
ATOM     95  S   UNL     1     -15.465 -13.595  -3.973  1.00  0.00     0.124 S 
ATOM     96  O   UNL     1     -15.405 -12.273  -4.588  1.00  0.00    -0.237 OA
ATOM     97  O   UNL     1     -14.370 -14.502  -4.302  1.00  0.00    -0.237 OA
ATOM     98  O   UNL     1     -16.792 -14.208  -3.950  1.00  0.00    -0.744 OA
ENDBRANCH  91  95
ENDBRANCH  65  88
ENDBRANCH  39  40
ENDBRANCH  32  34
ENDBRANCH  31  32
ENDBRANCH  30  31
ENDBRANCH  29  30
ENDBRANCH  28  29
ENDBRANCH  27  28
ENDBRANCH  26  27
ENDBRANCH  25  26
ENDBRANCH   1  25
TORSDOF 28
