REMARK SMILES O=C(OCCOCCOCCOCCOC(=O)c1ccc(-c2c3nc(c(-c4cc(S(=O)(=O)[O-])ccc4F)c4ccc([nH]4)c(-c4cc(S(=O)(=O)[O-])ccc4F)c4nc(c(-c5cc(S(=O)(=O)[O-])ccc5F)c5ccc2[nH]5)C=C4)C=C3)cc1)C1=Cc2c(Cl)ccc(Cl)c2O[C@@H]1C(F)(F)F
REMARK SMILES IDX 10 1 9 2 8 3 7 4 6 5 5 6 4 7 3 8 2 9 1 10 81 11 82 12 92 13
REMARK SMILES IDX 83 14 91 15 84 16 90 17 85 18 86 19 88 20 87 21 89 22 93 23
REMARK SMILES IDX 94 24 95 25 96 26 11 27 12 28 13 29 14 30 15 31 16 32 17 33
REMARK SMILES IDX 18 34 19 35 80 36 20 37 79 38 21 39 22 40 23 41 73 42 24 43
REMARK SMILES IDX 78 44 72 45 74 46 25 47 77 48 71 49 70 50 26 52 58 53 38 54
REMARK SMILES IDX 57 55 39 56 42 57 56 58 75 59 40 60 41 61 55 63 76 64 43 65
REMARK SMILES IDX 27 66 28 67 36 68 29 69 35 70 37 71 34 72 30 73 31 74 32 75
REMARK SMILES IDX 33 76 59 77 60 78 68 79 61 80 67 81 69 82 66 83 62 84 63 85
REMARK SMILES IDX 64 86 65 87 44 88 45 89 53 90 46 91 52 92 54 93 51 94 47 95
REMARK SMILES IDX 48 96 49 97 50 98
REMARK H PARENT 74 51 42 62
REMARK Flexibility Score: inf
ROOT
ATOM      1  C   UNL     1       4.042   1.220   3.481  1.00  0.00     0.188 C 
ENDROOT
BRANCH   1   2
ATOM      2  O   UNL     1       2.699   1.100   3.893  1.00  0.00    -0.377 OA
BRANCH   2   3
ATOM      3  C   UNL     1       1.856   0.761   2.819  1.00  0.00     0.188 C 
BRANCH   3   4
ATOM      4  C   UNL     1       2.145  -0.610   2.196  1.00  0.00     0.188 C 
BRANCH   4   5
ATOM      5  O   UNL     1       3.456  -1.026   1.691  1.00  0.00    -0.376 OA
BRANCH   5   6
ATOM      6  C   UNL     1       4.198  -0.922   0.222  1.00  0.00     0.202 C 
BRANCH   6   7
ATOM      7  C   UNL     1       3.510   0.141  -1.554  1.00  0.00     0.261 C 
BRANCH   7   8
ATOM      8  O   UNL     1       2.624  -0.424  -2.659  1.00  0.00    -0.460 OA
BRANCH   8   9
ATOM      9  C   UNL     1       2.813  -1.735  -2.852  1.00  0.00     0.338 C 
ATOM     10  O   UNL     1       2.184  -2.497  -3.542  1.00  0.00    -0.246 OA
BRANCH   9  11
ATOM     11  C   UNL     1       3.629  -1.954  -1.674  1.00  0.00     0.087 C 
ATOM     12  C   UNL     1       5.021  -1.511  -1.839  1.00  0.00     0.029 C 
ATOM     13  C   UNL     1       2.358  -1.169  -0.465  1.00  0.00     0.316 C 
ATOM     14  C   UNL     1       5.705  -0.000  -1.101  1.00  0.00     0.037 A 
ATOM     15  O   UNL     1       3.010   0.521   0.244  1.00  0.00    -0.474 OA
ATOM     16  C   UNL     1       6.992   0.402  -1.379  1.00  0.00     0.052 A 
ATOM     17  C   UNL     1       4.718   1.075  -0.155  1.00  0.00     0.148 A 
ATOM     18  Cl  UNL     1       8.072  -0.502  -2.357  1.00  0.00    -0.084 Cl
ATOM     19  C   UNL     1       7.388   1.640  -0.841  1.00  0.00     0.023 A 
ATOM     20  C   UNL     1       5.178   2.300   0.270  1.00  0.00     0.083 A 
ATOM     21  C   UNL     1       6.534   2.533  -0.070  1.00  0.00     0.026 A 
ATOM     22  Cl  UNL     1       4.253   3.518   1.014  1.00  0.00    -0.080 Cl
BRANCH  13  23
ATOM     23  C   UNL     1       1.985  -2.611   0.256  1.00  0.00     0.430 C 
ATOM     24  F   UNL     1       1.059  -2.614   1.232  1.00  0.00    -0.167 F 
ATOM     25  F   UNL     1       1.432  -3.397  -0.721  1.00  0.00    -0.167 F 
ATOM     26  F   UNL     1       3.049  -3.327   0.693  1.00  0.00    -0.167 F 
ENDBRANCH  13  23
ENDBRANCH   9  11
ENDBRANCH   8   9
ENDBRANCH   7   8
ENDBRANCH   6   7
ENDBRANCH   5   6
ENDBRANCH   4   5
ENDBRANCH   3   4
ENDBRANCH   2   3
ENDBRANCH   1   2
BRANCH   1  27
ATOM     27  C   UNL     1       5.018   0.181   4.039  1.00  0.00     0.188 C 
BRANCH  27  28
ATOM     28  O   UNL     1       4.587  -1.006   4.683  1.00  0.00    -0.376 OA
BRANCH  28  29
ATOM     29  C   UNL     1       3.405  -1.035   5.463  1.00  0.00     0.202 C 
BRANCH  29  30
ATOM     30  C   UNL     1       3.181  -0.083   6.650  1.00  0.00     0.261 C 
BRANCH  30  31
ATOM     31  O   UNL     1       3.471   1.303   6.430  1.00  0.00    -0.460 OA
BRANCH  31  32
ATOM     32  C   UNL     1       4.726   1.687   6.758  1.00  0.00     0.338 C 
ATOM     33  O   UNL     1       5.587   0.992   7.269  1.00  0.00    -0.246 OA
BRANCH  32  34
ATOM     34  C   UNL     1       4.990   3.039   6.212  1.00  0.00     0.060 A 
ATOM     35  C   UNL     1       6.182   3.233   5.495  1.00  0.00     0.016 A 
ATOM     36  C   UNL     1       4.103   4.101   6.400  1.00  0.00     0.016 A 
ATOM     37  C   UNL     1       6.512   4.491   5.002  1.00  0.00     0.010 A 
ATOM     38  C   UNL     1       4.458   5.376   5.947  1.00  0.00     0.010 A 
ATOM     39  C   UNL     1       5.684   5.581   5.287  1.00  0.00    -0.014 A 
BRANCH  39  40
ATOM     40  C   UNL     1       6.239   6.948   5.141  1.00  0.00     0.031 A 
ATOM     41  C   UNL     1       6.824   7.598   6.366  1.00  0.00     0.074 A 
ATOM     42  C   UNL     1       6.285   7.570   3.950  1.00  0.00     0.049 A 
ATOM     43  N   UNL     1       7.322   8.797   6.516  1.00  0.00    -0.248 NA
ATOM     44  C   UNL     1       6.846   6.779   7.589  1.00  0.00     0.031 C 
ATOM     45  C   UNL     1       5.819   7.005   2.686  1.00  0.00     0.029 A 
ATOM     46  N   UNL     1       6.745   8.818   3.614  1.00  0.00    -0.354 N 
ATOM     47  C   UNL     1       7.701   8.881   7.851  1.00  0.00     0.074 A 
ATOM     48  C   UNL     1       7.344   7.626   8.474  1.00  0.00     0.031 C 
ATOM     49  C   UNL     1       6.007   7.911   1.710  1.00  0.00     0.029 A 
ATOM     50  C   UNL     1       6.559   9.136   2.289  1.00  0.00     0.049 A 
ATOM     51  H   UNL     1       7.169   9.429   4.260  1.00  0.00     0.167 HD
ATOM     52  C   UNL     1       8.299   9.913   8.496  1.00  0.00     0.034 A 
ATOM     53  C   UNL     1       6.775  10.295   1.633  1.00  0.00     0.034 A 
ATOM     54  C   UNL     1       8.632  11.162   7.859  1.00  0.00     0.049 A 
ATOM     55  C   UNL     1       7.334  11.473   2.399  1.00  0.00     0.074 A 
ATOM     56  C   UNL     1       9.241  12.273   8.412  1.00  0.00     0.029 A 
ATOM     57  N   UNL     1       8.368  11.473   6.531  1.00  0.00    -0.354 N 
ATOM     58  N   UNL     1       7.686  11.547   3.663  1.00  0.00    -0.248 NA
ATOM     59  C   UNL     1       7.529  12.720   1.649  1.00  0.00     0.031 C 
ATOM     60  C   UNL     1       9.258  13.286   7.448  1.00  0.00     0.029 A 
ATOM     61  C   UNL     1       8.760  12.774   6.260  1.00  0.00     0.049 A 
ATOM     62  H   UNL     1       7.961  10.858   5.877  1.00  0.00     0.167 HD
ATOM     63  C   UNL     1       8.176  12.839   3.847  1.00  0.00     0.074 A 
ATOM     64  C   UNL     1       8.088  13.500   2.562  1.00  0.00     0.031 C 
ATOM     65  C   UNL     1       8.659  13.425   4.974  1.00  0.00     0.034 A 
BRANCH  52  66
ATOM     66  C   UNL     1       8.560   9.751   9.974  1.00  0.00     0.023 A 
ATOM     67  C   UNL     1       9.422   8.760  10.474  1.00  0.00     0.031 A 
ATOM     68  C   UNL     1       7.908  10.584  10.901  1.00  0.00     0.131 A 
ATOM     69  C   UNL     1       9.550   8.578  11.860  1.00  0.00     0.055 A 
ATOM     70  C   UNL     1       8.111  10.457  12.276  1.00  0.00     0.041 A 
ATOM     71  F   UNL     1       7.049  11.528  10.486  1.00  0.00    -0.206 F 
ATOM     72  C   UNL     1       8.924   9.439  12.764  1.00  0.00     0.022 A 
BRANCH  69  73
ATOM     73  S   UNL     1      10.414   7.102  12.463  1.00  0.00     0.124 S 
ATOM     74  O   UNL     1       9.640   6.032  11.838  1.00  0.00    -0.237 OA
ATOM     75  O   UNL     1      11.765   7.296  11.950  1.00  0.00    -0.237 OA
ATOM     76  O   UNL     1      10.277   7.194  13.915  1.00  0.00    -0.744 OA
ENDBRANCH  69  73
ENDBRANCH  52  66
BRANCH  53  77
ATOM     77  C   UNL     1       6.417  10.429   0.190  1.00  0.00     0.023 A 
ATOM     78  C   UNL     1       7.387  10.739  -0.776  1.00  0.00     0.031 A 
ATOM     79  C   UNL     1       5.081  10.312  -0.237  1.00  0.00     0.131 A 
ATOM     80  C   UNL     1       7.003  10.971  -2.107  1.00  0.00     0.055 A 
ATOM     81  C   UNL     1       4.713  10.478  -1.574  1.00  0.00     0.041 A 
ATOM     82  F   UNL     1       4.108  10.029   0.643  1.00  0.00    -0.206 F 
ATOM     83  C   UNL     1       5.676  10.824  -2.515  1.00  0.00     0.022 A 
BRANCH  80  84
ATOM     84  S   UNL     1       8.250  11.573  -3.278  1.00  0.00     0.124 S 
ATOM     85  O   UNL     1       8.697  12.800  -2.629  1.00  0.00    -0.237 OA
ATOM     86  O   UNL     1       9.206  10.470  -3.294  1.00  0.00    -0.237 OA
ATOM     87  O   UNL     1       7.494  11.758  -4.514  1.00  0.00    -0.744 OA
ENDBRANCH  80  84
ENDBRANCH  53  77
BRANCH  65  88
ATOM     88  C   UNL     1       9.182  14.838   4.853  1.00  0.00     0.023 A 
ATOM     89  C   UNL     1       8.344  15.916   4.520  1.00  0.00     0.031 A 
ATOM     90  C   UNL     1      10.546  15.107   5.073  1.00  0.00     0.131 A 
ATOM     91  C   UNL     1       8.889  17.199   4.354  1.00  0.00     0.055 A 
ATOM     92  C   UNL     1      11.066  16.398   4.985  1.00  0.00     0.041 A 
ATOM     93  F   UNL     1      11.396  14.116   5.387  1.00  0.00    -0.206 F 
ATOM     94  C   UNL     1      10.239  17.451   4.608  1.00  0.00     0.022 A 
BRANCH  91  95
ATOM     95  S   UNL     1       7.832  18.512   3.683  1.00  0.00     0.124 S 
ATOM     96  O   UNL     1       7.405  17.935   2.413  1.00  0.00    -0.237 OA
ATOM     97  O   UNL     1       6.800  18.635   4.707  1.00  0.00    -0.237 OA
ATOM     98  O   UNL     1       8.735  19.655   3.572  1.00  0.00    -0.744 OA
ENDBRANCH  91  95
ENDBRANCH  65  88
ENDBRANCH  39  40
ENDBRANCH  32  34
ENDBRANCH  31  32
ENDBRANCH  30  31
ENDBRANCH  29  30
ENDBRANCH  28  29
ENDBRANCH  27  28
ENDBRANCH   1  27
TORSDOF 24
