REMARK SMILES CC(C)=CC[C@@]1(C(=O)OCCOCCOCCOCCOC(=O)c2ccc(-c3c4nc(c(-c5cc(S(=O)(=O)[O-])ccc5F)c5ccc([nH]5)c(-c5cc(S(=O)(=O)[O-])ccc5F)c5nc(c(-c6cc(S(=O)(=O)[O-])ccc6F)c6ccc3[nH]6)C=C5)C=C4)cc2)CCC[C@H](C)C1
REMARK SMILES IDX 16 1 15 2 14 3 13 4 12 5 11 6 10 7 9 8 7 9 8 10 6 11 87 12
REMARK SMILES IDX 92 13 88 14 90 15 89 16 91 17 5 18 4 19 1 20 2 21 3 22 17 23
REMARK SMILES IDX 18 24 19 25 20 26 21 27 22 28 23 29 24 30 25 31 86 32 26 33
REMARK SMILES IDX 85 34 27 35 28 36 29 37 79 38 30 39 84 40 78 41 80 42 31 43
REMARK SMILES IDX 83 44 77 45 76 46 32 48 64 49 44 50 63 51 45 52 48 53 62 54
REMARK SMILES IDX 81 55 46 56 47 57 61 59 82 60 49 61 33 62 34 63 42 64 35 65
REMARK SMILES IDX 41 66 43 67 40 68 36 69 37 70 38 71 39 72 65 73 66 74 74 75
REMARK SMILES IDX 67 76 73 77 75 78 72 79 68 80 69 81 70 82 71 83 50 84 51 85
REMARK SMILES IDX 59 86 52 87 58 88 60 89 57 90 53 91 54 92 55 93 56 94
REMARK H PARENT 80 47 48 58
REMARK Flexibility Score: inf
ROOT
ATOM      1  C   UNL     1      -0.644   4.895   2.832  1.00  0.00     0.188 C 
ENDROOT
BRANCH   1   2
ATOM      2  O   UNL     1      -0.718   3.630   3.459  1.00  0.00    -0.377 OA
BRANCH   2   3
ATOM      3  C   UNL     1       0.397   2.791   3.265  1.00  0.00     0.188 C 
BRANCH   3   4
ATOM      4  C   UNL     1       1.708   3.140   3.968  1.00  0.00     0.188 C 
BRANCH   4   5
ATOM      5  O   UNL     1       2.701   3.895   3.281  1.00  0.00    -0.376 OA
BRANCH   5   6
ATOM      6  C   UNL     1       2.728   3.972   1.863  1.00  0.00     0.202 C 
BRANCH   6   7
ATOM      7  C   UNL     1       3.044   2.725   1.021  1.00  0.00     0.261 C 
BRANCH   7   8
ATOM      8  O   UNL     1       2.161   1.602   1.216  1.00  0.00    -0.463 OA
BRANCH   8   9
ATOM      9  C   UNL     1       2.638   0.603   1.999  1.00  0.00     0.312 C 
ATOM     10  O   UNL     1       3.755   0.637   2.508  1.00  0.00    -0.252 OA
BRANCH   9  11
ATOM     11  C   UNL     1       1.673  -0.609   2.152  1.00  0.00     0.072 C 
ATOM     12  C   UNL     1       2.018  -1.210   3.552  1.00  0.00     0.019 C 
ATOM     13  C   UNL     1       2.061  -1.600   1.029  1.00  0.00     0.022 C 
ATOM     14  C   UNL     1       1.579  -2.652   3.755  1.00  0.00     0.001 C 
ATOM     15  C   UNL     1       1.588  -3.042   1.279  1.00  0.00    -0.013 C 
ATOM     16  C   UNL     1       2.093  -3.546   2.630  1.00  0.00     0.003 C 
ATOM     17  C   UNL     1       1.988  -3.948   0.122  1.00  0.00     0.007 C 
BRANCH  11  18
ATOM     18  C   UNL     1       0.155  -0.211   2.108  1.00  0.00     0.046 C 
BRANCH  18  19
ATOM     19  C   UNL     1      -0.840  -1.075   1.379  1.00  0.00    -0.027 C 
ATOM     20  C   UNL     1      -0.908   0.289  -0.744  1.00  0.00     0.039 C 
ATOM     21  C   UNL     1      -1.313  -0.865   0.134  1.00  0.00    -0.080 C 
ATOM     22  C   UNL     1      -2.289  -1.823  -0.494  1.00  0.00     0.039 C 
ENDBRANCH  18  19
ENDBRANCH  11  18
ENDBRANCH   9  11
ENDBRANCH   8   9
ENDBRANCH   7   8
ENDBRANCH   6   7
ENDBRANCH   5   6
ENDBRANCH   4   5
ENDBRANCH   3   4
ENDBRANCH   2   3
ENDBRANCH   1   2
BRANCH   1  23
ATOM     23  C   UNL     1      -0.230   5.977   3.827  1.00  0.00     0.188 C 
BRANCH  23  24
ATOM     24  O   UNL     1      -1.000   6.163   5.019  1.00  0.00    -0.376 OA
BRANCH  24  25
ATOM     25  C   UNL     1      -1.649   5.044   5.607  1.00  0.00     0.202 C 
BRANCH  25  26
ATOM     26  C   UNL     1      -3.125   4.889   5.188  1.00  0.00     0.261 C 
BRANCH  26  27
ATOM     27  O   UNL     1      -3.422   5.234   3.825  1.00  0.00    -0.460 OA
BRANCH  27  28
ATOM     28  C   UNL     1      -3.560   6.560   3.566  1.00  0.00     0.338 C 
ATOM     29  O   UNL     1      -3.544   7.476   4.372  1.00  0.00    -0.246 OA
BRANCH  28  30
ATOM     30  C   UNL     1      -3.612   6.757   2.098  1.00  0.00     0.060 A 
ATOM     31  C   UNL     1      -2.700   7.634   1.495  1.00  0.00     0.016 A 
ATOM     32  C   UNL     1      -4.551   6.076   1.319  1.00  0.00     0.016 A 
ATOM     33  C   UNL     1      -2.733   7.840   0.112  1.00  0.00     0.010 A 
ATOM     34  C   UNL     1      -4.603   6.306  -0.060  1.00  0.00     0.010 A 
ATOM     35  C   UNL     1      -3.707   7.203  -0.669  1.00  0.00    -0.014 A 
BRANCH  35  36
ATOM     36  C   UNL     1      -3.915   7.602  -2.085  1.00  0.00     0.031 A 
ATOM     37  C   UNL     1      -4.926   8.677  -2.379  1.00  0.00     0.074 A 
ATOM     38  C   UNL     1      -3.244   7.006  -3.088  1.00  0.00     0.049 A 
ATOM     39  N   UNL     1      -5.357   9.119  -3.531  1.00  0.00    -0.248 NA
ATOM     40  C   UNL     1      -5.533   9.336  -1.212  1.00  0.00     0.031 C 
ATOM     41  C   UNL     1      -2.211   5.986  -2.924  1.00  0.00     0.029 A 
ATOM     42  N   UNL     1      -3.350   7.159  -4.450  1.00  0.00    -0.354 N 
ATOM     43  C   UNL     1      -6.294  10.102  -3.230  1.00  0.00     0.074 A 
ATOM     44  C   UNL     1      -6.379  10.178  -1.787  1.00  0.00     0.031 C 
ATOM     45  C   UNL     1      -1.800   5.581  -4.139  1.00  0.00     0.029 A 
ATOM     46  C   UNL     1      -2.572   6.279  -5.167  1.00  0.00     0.049 A 
ATOM     47  H   UNL     1      -3.929   7.835  -4.873  1.00  0.00     0.167 HD
ATOM     48  C   UNL     1      -7.019  10.868  -4.081  1.00  0.00     0.034 A 
ATOM     49  C   UNL     1      -2.524   6.035  -6.495  1.00  0.00     0.034 A 
ATOM     50  C   UNL     1      -6.934  10.770  -5.516  1.00  0.00     0.049 A 
ATOM     51  C   UNL     1      -3.421   6.830  -7.419  1.00  0.00     0.074 A 
ATOM     52  C   UNL     1      -7.585  11.532  -6.470  1.00  0.00     0.029 A 
ATOM     53  N   UNL     1      -6.173   9.835  -6.204  1.00  0.00    -0.354 N 
ATOM     54  N   UNL     1      -4.271   7.787  -7.124  1.00  0.00    -0.248 NA
ATOM     55  C   UNL     1      -3.356   6.509  -8.852  1.00  0.00     0.031 C 
ATOM     56  C   UNL     1      -7.283  11.004  -7.730  1.00  0.00     0.029 A 
ATOM     57  C   UNL     1      -6.381   9.964  -7.567  1.00  0.00     0.049 A 
ATOM     58  H   UNL     1      -5.573   9.177  -5.784  1.00  0.00     0.167 HD
ATOM     59  C   UNL     1      -4.825   8.192  -8.337  1.00  0.00     0.074 A 
ATOM     60  C   UNL     1      -4.200   7.390  -9.368  1.00  0.00     0.031 C 
ATOM     61  C   UNL     1      -5.763   9.142  -8.580  1.00  0.00     0.034 A 
BRANCH  48  62
ATOM     62  C   UNL     1      -8.012  11.829  -3.479  1.00  0.00     0.023 A 
ATOM     63  C   UNL     1      -7.608  12.938  -2.717  1.00  0.00     0.031 A 
ATOM     64  C   UNL     1      -9.390  11.621  -3.666  1.00  0.00     0.131 A 
ATOM     65  C   UNL     1      -8.573  13.766  -2.124  1.00  0.00     0.055 A 
ATOM     66  C   UNL     1     -10.344  12.488  -3.131  1.00  0.00     0.041 A 
ATOM     67  F   UNL     1      -9.833  10.564  -4.365  1.00  0.00    -0.206 F 
ATOM     68  C   UNL     1      -9.938  13.562  -2.345  1.00  0.00     0.022 A 
BRANCH  65  69
ATOM     69  S   UNL     1      -8.025  15.048  -0.964  1.00  0.00     0.124 S 
ATOM     70  O   UNL     1      -7.338  14.254   0.052  1.00  0.00    -0.237 OA
ATOM     71  O   UNL     1      -7.175  15.887  -1.801  1.00  0.00    -0.237 OA
ATOM     72  O   UNL     1      -9.273  15.668  -0.523  1.00  0.00    -0.744 OA
ENDBRANCH  65  69
ENDBRANCH  48  62
BRANCH  49  73
ATOM     73  C   UNL     1      -1.668   4.938  -7.038  1.00  0.00     0.023 A 
ATOM     74  C   UNL     1      -0.634   5.200  -7.951  1.00  0.00     0.031 A 
ATOM     75  C   UNL     1      -1.928   3.594  -6.709  1.00  0.00     0.131 A 
ATOM     76  C   UNL     1       0.067   4.134  -8.541  1.00  0.00     0.055 A 
ATOM     77  C   UNL     1      -1.192   2.542  -7.256  1.00  0.00     0.041 A 
ATOM     78  F   UNL     1      -2.910   3.283  -5.848  1.00  0.00    -0.206 F 
ATOM     79  C   UNL     1      -0.196   2.808  -8.189  1.00  0.00     0.022 A 
BRANCH  76  80
ATOM     80  S   UNL     1       1.264   4.500  -9.855  1.00  0.00     0.124 S 
ATOM     81  O   UNL     1       0.436   5.212 -10.821  1.00  0.00    -0.237 OA
ATOM     82  O   UNL     1       2.255   5.301  -9.144  1.00  0.00    -0.237 OA
ATOM     83  O   UNL     1       1.720   3.178 -10.277  1.00  0.00    -0.744 OA
ENDBRANCH  76  80
ENDBRANCH  49  73
BRANCH  61  84
ATOM     84  C   UNL     1      -6.151   9.382 -10.019  1.00  0.00     0.023 A 
ATOM     85  C   UNL     1      -6.875   8.428 -10.755  1.00  0.00     0.031 A 
ATOM     86  C   UNL     1      -5.811  10.590 -10.653  1.00  0.00     0.131 A 
ATOM     87  C   UNL     1      -7.203   8.683 -12.096  1.00  0.00     0.055 A 
ATOM     88  C   UNL     1      -6.188  10.861 -11.969  1.00  0.00     0.041 A 
ATOM     89  F   UNL     1      -5.120  11.535  -9.996  1.00  0.00    -0.206 F 
ATOM     90  C   UNL     1      -6.880   9.901 -12.701  1.00  0.00     0.022 A 
BRANCH  87  91
ATOM     91  S   UNL     1      -8.008   7.376 -13.062  1.00  0.00     0.124 S 
ATOM     92  O   UNL     1      -7.004   6.317 -13.034  1.00  0.00    -0.237 OA
ATOM     93  O   UNL     1      -9.224   7.122 -12.296  1.00  0.00    -0.237 OA
ATOM     94  O   UNL     1      -8.219   7.996 -14.369  1.00  0.00    -0.744 OA
ENDBRANCH  87  91
ENDBRANCH  61  84
ENDBRANCH  35  36
ENDBRANCH  28  30
ENDBRANCH  27  28
ENDBRANCH  26  27
ENDBRANCH  25  26
ENDBRANCH  24  25
ENDBRANCH  23  24
ENDBRANCH   1  23
TORSDOF 25
