REMARK SMILES COc1ccccc1[C@@H]1CN(C(=O)c2cnn3ccccc23)C[C@H]1C(=O)OCCOCCOCCOCCOC(=O)c1ccc(-c2c3nc(c(-c4cc(S(=O)(=O)[O-])ccc4F)c4ccc([nH]4)c(-c4cc(S(=O)(=O)[O-])ccc4F)c4nc(c(-c5cc(S(=O)(=O)[O-])ccc5F)c5ccc2[nH]5)C=C4)C=C3)cc1
REMARK SMILES IDX 34 1 33 2 32 3 31 4 30 5 29 6 28 7 27 8 25 9 26 10 24 11
REMARK SMILES IDX 9 12 10 13 11 14 23 15 8 16 3 17 4 18 5 19 7 20 6 21 2 22
REMARK SMILES IDX 1 23 12 24 13 25 14 26 15 27 22 28 16 29 17 30 21 31 18 32
REMARK SMILES IDX 20 33 19 34 35 35 36 36 37 37 38 38 39 39 40 40 41 41 42 42
REMARK SMILES IDX 43 43 104 44 44 45 103 46 45 47 46 48 47 49 97 50 48 51
REMARK SMILES IDX 102 52 96 53 98 54 49 55 101 56 95 57 94 58 50 60 82 61
REMARK SMILES IDX 62 62 81 63 63 64 66 65 80 66 99 67 64 68 65 69 79 71 100 72
REMARK SMILES IDX 67 73 51 74 52 75 60 76 53 77 59 78 61 79 58 80 54 81 55 82
REMARK SMILES IDX 56 83 57 84 83 85 84 86 92 87 85 88 91 89 93 90 90 91 86 92
REMARK SMILES IDX 87 93 88 94 89 95 68 96 69 97 77 98 70 99 76 100 78 101
REMARK SMILES IDX 75 102 71 103 72 104 73 105 74 106
REMARK H PARENT 98 59 66 70
REMARK Flexibility Score: inf
ROOT
ATOM      1  C   UNL     1       4.540  -1.950   5.656  1.00  0.00     0.188 C 
ENDROOT
BRANCH   1   2
ATOM      2  O   UNL     1       4.206  -1.917   4.278  1.00  0.00    -0.377 OA
BRANCH   2   3
ATOM      3  C   UNL     1       2.883  -1.530   3.960  1.00  0.00     0.188 C 
BRANCH   3   4
ATOM      4  C   UNL     1       1.883  -2.652   3.620  1.00  0.00     0.188 C 
BRANCH   4   5
ATOM      5  O   UNL     1       2.269  -4.021   3.616  1.00  0.00    -0.376 OA
BRANCH   5   6
ATOM      6  C   UNL     1       3.624  -4.379   3.411  1.00  0.00     0.202 C 
BRANCH   6   7
ATOM      7  C   UNL     1       4.326  -3.952   2.107  1.00  0.00     0.261 C 
BRANCH   7   8
ATOM      8  O   UNL     1       4.130  -2.585   1.671  1.00  0.00    -0.463 OA
BRANCH   8   9
ATOM      9  C   UNL     1       3.170  -2.417   0.740  1.00  0.00     0.311 C 
ATOM     10  O   UNL     1       2.554  -3.349   0.223  1.00  0.00    -0.252 OA
BRANCH   9  11
ATOM     11  C   UNL     1       2.911  -1.000   0.260  1.00  0.00     0.128 C 
ATOM     12  C   UNL     1       3.166   0.355   0.984  1.00  0.00     0.058 C 
ATOM     13  C   UNL     1       3.541   1.303  -0.154  1.00  0.00     0.129 C 
ATOM     14  N   UNL     1       4.226   0.450  -1.099  1.00  0.00    -0.337 N 
ATOM     15  C   UNL     1       3.701  -0.895  -1.044  1.00  0.00     0.135 C 
BRANCH  12  16
ATOM     16  C   UNL     1       2.101   1.053   1.842  1.00  0.00    -0.000 A 
ATOM     17  C   UNL     1       0.746   1.287   1.532  1.00  0.00     0.122 A 
ATOM     18  C   UNL     1      -0.111   1.881   2.482  1.00  0.00     0.047 A 
ATOM     19  C   UNL     1       0.377   2.374   3.691  1.00  0.00     0.004 A 
ATOM     20  C   UNL     1       2.577   1.650   3.040  1.00  0.00     0.008 A 
ATOM     21  C   UNL     1       1.738   2.313   3.940  1.00  0.00     0.001 A 
BRANCH  17  22
ATOM     22  O   UNL     1       0.252   1.378   0.254  1.00  0.00    -0.496 OA
ATOM     23  C   UNL     1      -0.032   0.183  -0.444  1.00  0.00     0.278 C 
ENDBRANCH  17  22
ENDBRANCH  12  16
BRANCH  14  24
ATOM     24  C   UNL     1       5.115   0.811  -2.088  1.00  0.00     0.257 C 
ATOM     25  O   UNL     1       5.431   0.033  -2.986  1.00  0.00    -0.269 OA
BRANCH  24  26
ATOM     26  C   UNL     1       5.627   2.161  -2.064  1.00  0.00     0.085 A 
ATOM     27  C   UNL     1       5.596   3.080  -3.128  1.00  0.00     0.150 A 
ATOM     28  C   UNL     1       6.304   2.828  -1.061  1.00  0.00     0.079 A 
ATOM     29  N   UNL     1       6.123   4.263  -2.817  1.00  0.00    -0.176 NA
ATOM     30  N   UNL     1       6.551   4.121  -1.535  1.00  0.00    -0.240 N 
ATOM     31  C   UNL     1       6.754   2.507   0.258  1.00  0.00     0.029 A 
ATOM     32  C   UNL     1       7.156   5.096  -0.741  1.00  0.00     0.113 A 
ATOM     33  C   UNL     1       7.329   3.460   1.015  1.00  0.00     0.004 A 
ATOM     34  C   UNL     1       7.536   4.808   0.514  1.00  0.00     0.020 A 
ENDBRANCH  24  26
ENDBRANCH  14  24
ENDBRANCH   9  11
ENDBRANCH   8   9
ENDBRANCH   7   8
ENDBRANCH   6   7
ENDBRANCH   5   6
ENDBRANCH   4   5
ENDBRANCH   3   4
ENDBRANCH   2   3
ENDBRANCH   1   2
BRANCH   1  35
ATOM     35  C   UNL     1       3.503  -2.579   6.611  1.00  0.00     0.188 C 
BRANCH  35  36
ATOM     36  O   UNL     1       2.156  -2.185   6.365  1.00  0.00    -0.376 OA
BRANCH  36  37
ATOM     37  C   UNL     1       1.509  -1.226   7.188  1.00  0.00     0.202 C 
BRANCH  37  38
ATOM     38  C   UNL     1       1.963   0.230   7.095  1.00  0.00     0.261 C 
BRANCH  38  39
ATOM     39  O   UNL     1       3.363   0.409   7.042  1.00  0.00    -0.460 OA
BRANCH  39  40
ATOM     40  C   UNL     1       4.018   0.035   8.152  1.00  0.00     0.338 C 
ATOM     41  O   UNL     1       3.561  -0.599   9.100  1.00  0.00    -0.246 OA
BRANCH  40  42
ATOM     42  C   UNL     1       5.364   0.598   8.109  1.00  0.00     0.060 A 
ATOM     43  C   UNL     1       6.171   0.294   9.201  1.00  0.00     0.016 A 
ATOM     44  C   UNL     1       5.598   1.696   7.265  1.00  0.00     0.016 A 
ATOM     45  C   UNL     1       6.997   1.285   9.656  1.00  0.00     0.010 A 
ATOM     46  C   UNL     1       6.410   2.692   7.731  1.00  0.00     0.010 A 
ATOM     47  C   UNL     1       6.997   2.509   8.978  1.00  0.00    -0.014 A 
BRANCH  47  48
ATOM     48  C   UNL     1       7.723   3.597   9.577  1.00  0.00     0.031 A 
ATOM     49  C   UNL     1       9.175   3.412   9.427  1.00  0.00     0.074 A 
ATOM     50  C   UNL     1       7.111   4.661  10.123  1.00  0.00     0.049 A 
ATOM     51  N   UNL     1      10.006   3.045  10.341  1.00  0.00    -0.248 NA
ATOM     52  C   UNL     1       9.716   3.355   8.059  1.00  0.00     0.031 C 
ATOM     53  C   UNL     1       5.694   5.027  10.085  1.00  0.00     0.029 A 
ATOM     54  N   UNL     1       7.677   5.717  10.754  1.00  0.00    -0.354 N 
ATOM     55  C   UNL     1      11.234   2.992   9.701  1.00  0.00     0.074 A 
ATOM     56  C   UNL     1      10.947   2.907   8.297  1.00  0.00     0.031 C 
ATOM     57  C   UNL     1       5.568   6.329  10.437  1.00  0.00     0.029 A 
ATOM     58  C   UNL     1       6.871   6.845  10.827  1.00  0.00     0.049 A 
ATOM     59  H   UNL     1       8.586   5.687  11.130  1.00  0.00     0.167 HD
ATOM     60  C   UNL     1      12.367   3.352  10.358  1.00  0.00     0.034 A 
ATOM     61  C   UNL     1       7.303   8.114  11.069  1.00  0.00     0.034 A 
ATOM     62  C   UNL     1      12.162   3.327  11.793  1.00  0.00     0.049 A 
ATOM     63  C   UNL     1       8.627   7.986  11.749  1.00  0.00     0.074 A 
ATOM     64  C   UNL     1      11.721   2.357  12.676  1.00  0.00     0.029 A 
ATOM     65  N   UNL     1      12.005   4.526  12.457  1.00  0.00    -0.354 N 
ATOM     66  N   UNL     1       8.767   7.456  12.937  1.00  0.00    -0.248 NA
ATOM     67  C   UNL     1       9.822   7.932  10.914  1.00  0.00     0.031 C 
ATOM     68  C   UNL     1      10.856   3.047  13.576  1.00  0.00     0.029 A 
ATOM     69  C   UNL     1      10.897   4.407  13.264  1.00  0.00     0.049 A 
ATOM     70  H   UNL     1      12.580   5.321  12.369  1.00  0.00     0.167 HD
ATOM     71  C   UNL     1       9.887   6.639  12.847  1.00  0.00     0.074 A 
ATOM     72  C   UNL     1      10.540   7.034  11.598  1.00  0.00     0.031 C 
ATOM     73  C   UNL     1      10.023   5.515  13.616  1.00  0.00     0.034 A 
BRANCH  60  74
ATOM     74  C   UNL     1      13.499   4.110   9.703  1.00  0.00     0.023 A 
ATOM     75  C   UNL     1      14.601   4.416  10.517  1.00  0.00     0.031 A 
ATOM     76  C   UNL     1      13.447   4.785   8.459  1.00  0.00     0.131 A 
ATOM     77  C   UNL     1      15.508   5.422  10.148  1.00  0.00     0.055 A 
ATOM     78  C   UNL     1      14.395   5.731   8.065  1.00  0.00     0.041 A 
ATOM     79  F   UNL     1      12.442   4.651   7.587  1.00  0.00    -0.206 F 
ATOM     80  C   UNL     1      15.414   6.082   8.927  1.00  0.00     0.022 A 
BRANCH  77  81
ATOM     81  S   UNL     1      16.698   5.980  11.388  1.00  0.00     0.124 S 
ATOM     82  O   UNL     1      15.820   6.311  12.505  1.00  0.00    -0.237 OA
ATOM     83  O   UNL     1      17.533   4.795  11.552  1.00  0.00    -0.237 OA
ATOM     84  O   UNL     1      17.347   7.118  10.742  1.00  0.00    -0.744 OA
ENDBRANCH  77  81
ENDBRANCH  60  74
BRANCH  61  85
ATOM     85  C   UNL     1       6.818   9.354  10.385  1.00  0.00     0.023 A 
ATOM     86  C   UNL     1       7.090  10.657  10.857  1.00  0.00     0.031 A 
ATOM     87  C   UNL     1       6.236   9.269   9.096  1.00  0.00     0.131 A 
ATOM     88  C   UNL     1       6.768  11.789  10.064  1.00  0.00     0.055 A 
ATOM     89  C   UNL     1       5.912  10.387   8.325  1.00  0.00     0.041 A 
ATOM     90  F   UNL     1       6.034   8.087   8.494  1.00  0.00    -0.206 F 
ATOM     91  C   UNL     1       6.184  11.655   8.803  1.00  0.00     0.022 A 
BRANCH  88  92
ATOM     92  S   UNL     1       7.187  13.475  10.625  1.00  0.00     0.124 S 
ATOM     93  O   UNL     1       6.264  13.669  11.736  1.00  0.00    -0.237 OA
ATOM     94  O   UNL     1       8.599  13.350  10.966  1.00  0.00    -0.237 OA
ATOM     95  O   UNL     1       6.915  14.303   9.449  1.00  0.00    -0.744 OA
ENDBRANCH  88  92
ENDBRANCH  61  85
BRANCH  73  96
ATOM     96  C   UNL     1       9.072   5.290  14.780  1.00  0.00     0.023 A 
ATOM     97  C   UNL     1       7.660   5.273  14.690  1.00  0.00     0.031 A 
ATOM     98  C   UNL     1       9.644   4.937  16.017  1.00  0.00     0.131 A 
ATOM     99  C   UNL     1       6.884   4.919  15.814  1.00  0.00     0.055 A 
ATOM    100  C   UNL     1       8.875   4.564  17.118  1.00  0.00     0.041 A 
ATOM    101  F   UNL     1      10.979   4.908  16.166  1.00  0.00    -0.206 F 
ATOM    102  C   UNL     1       7.490   4.560  17.022  1.00  0.00     0.022 A 
BRANCH  99 103
ATOM    103  S   UNL     1       5.063   4.939  15.737  1.00  0.00     0.124 S 
ATOM    104  O   UNL     1       4.762   6.199  15.069  1.00  0.00    -0.237 OA
ATOM    105  O   UNL     1       4.767   3.726  14.979  1.00  0.00    -0.237 OA
ATOM    106  O   UNL     1       4.664   4.887  17.146  1.00  0.00    -0.744 OA
ENDBRANCH  99 103
ENDBRANCH  73  96
ENDBRANCH  47  48
ENDBRANCH  40  42
ENDBRANCH  39  40
ENDBRANCH  38  39
ENDBRANCH  37  38
ENDBRANCH  36  37
ENDBRANCH  35  36
ENDBRANCH   1  35
TORSDOF 27
