REMARK SMILES CC1(C)CCN(C(=O)NCCCCCC(=O)OCCOCCOCCOCCOC(=O)c2ccc(-c3c4nc(c(-c5cc(S(=O)(=O)[O-])ccc5F)c5ccc([nH]5)c(-c5cc(S(=O)(=O)[O-])ccc5F)c5nc(c(-c6cc(S(=O)(=O)[O-])ccc6F)c6ccc3[nH]6)C=C5)C=C4)cc2)C1
REMARK SMILES IDX 21 1 20 2 19 3 18 4 17 5 15 6 16 7 14 8 13 9 12 10 11 11
REMARK SMILES IDX 10 12 9 13 7 14 8 15 6 17 1 18 2 19 3 20 4 21 95 22 5 23
REMARK SMILES IDX 22 24 23 25 24 26 25 27 26 28 27 29 28 30 29 31 30 32 31 33
REMARK SMILES IDX 32 34 33 35 94 36 34 37 93 38 35 39 36 40 37 41 87 42 38 43
REMARK SMILES IDX 92 44 86 45 88 46 39 47 91 48 85 49 84 50 40 52 72 53 52 54
REMARK SMILES IDX 71 55 53 56 56 57 70 58 89 59 54 60 55 61 69 63 90 64 57 65
REMARK SMILES IDX 41 66 42 67 50 68 43 69 49 70 51 71 48 72 44 73 45 74 46 75
REMARK SMILES IDX 47 76 73 77 74 78 82 79 75 80 81 81 83 82 80 83 76 84 77 85
REMARK SMILES IDX 78 86 79 87 58 88 59 89 67 90 60 91 66 92 68 93 65 94 61 95
REMARK SMILES IDX 62 96 63 97 64 98
REMARK H PARENT 9 16 88 51 56 62
REMARK Flexibility Score: inf
ROOT
ATOM      1  C   UNL     1       1.310  10.242   1.076  1.00  0.00     0.188 C 
ENDROOT
BRANCH   1   2
ATOM      2  O   UNL     1       1.376  10.591   2.436  1.00  0.00    -0.376 OA
BRANCH   2   3
ATOM      3  C   UNL     1       0.778   9.770   3.424  1.00  0.00     0.202 C 
BRANCH   3   4
ATOM      4  C   UNL     1       0.268   8.328   3.217  1.00  0.00     0.261 C 
BRANCH   4   5
ATOM      5  O   UNL     1       0.556   7.671   1.975  1.00  0.00    -0.463 OA
BRANCH   5   6
ATOM      6  C   UNL     1      -0.491   7.400   1.169  1.00  0.00     0.305 C 
ATOM      7  O   UNL     1      -1.647   7.743   1.403  1.00  0.00    -0.252 OA
BRANCH   6   8
ATOM      8  C   UNL     1      -0.155   6.635  -0.101  1.00  0.00     0.123 C 
BRANCH   8   9
ATOM      9  C   UNL     1       1.255   6.187  -0.508  1.00  0.00     0.012 C 
BRANCH   9  10
ATOM     10  C   UNL     1       2.182   5.599   0.553  1.00  0.00     0.002 C 
BRANCH  10  11
ATOM     11  C   UNL     1       1.583   4.463   1.354  1.00  0.00     0.021 C 
BRANCH  11  12
ATOM     12  C   UNL     1       1.109   3.309   0.499  1.00  0.00     0.117 C 
BRANCH  12  13
ATOM     13  N   UNL     1       2.186   2.544  -0.090  1.00  0.00    -0.338 N 
ATOM     14  C   UNL     1       2.323   1.211  -0.286  1.00  0.00     0.317 C 
ATOM     15  O   UNL     1       3.416   0.801  -0.678  1.00  0.00    -0.249 OA
ATOM     16  H   UNL     1       2.948   3.083  -0.401  1.00  0.00     0.165 HD
BRANCH  14  17
ATOM     17  N   UNL     1       1.276   0.371  -0.055  1.00  0.00    -0.324 N 
ATOM     18  C   UNL     1      -1.213  -0.691  -1.628  1.00  0.00     0.013 C 
ATOM     19  C   UNL     1      -0.897  -0.585  -0.131  1.00  0.00    -0.016 C 
ATOM     20  C   UNL     1      -2.192  -0.591   0.683  1.00  0.00     0.013 C 
ATOM     21  C   UNL     1       0.114  -1.648   0.327  1.00  0.00     0.030 C 
ATOM     22  C   UNL     1      -0.121   0.694   0.155  1.00  0.00     0.127 C 
ATOM     23  C   UNL     1       1.467  -1.067  -0.083  1.00  0.00     0.122 C 
ENDBRANCH  14  17
ENDBRANCH  12  13
ENDBRANCH  11  12
ENDBRANCH  10  11
ENDBRANCH   9  10
ENDBRANCH   8   9
ENDBRANCH   6   8
ENDBRANCH   5   6
ENDBRANCH   4   5
ENDBRANCH   3   4
ENDBRANCH   2   3
ENDBRANCH   1   2
BRANCH   1  24
ATOM     24  C   UNL     1       2.425   9.324   0.573  1.00  0.00     0.188 C 
BRANCH  24  25
ATOM     25  O   UNL     1       3.153   8.532   1.490  1.00  0.00    -0.377 OA
BRANCH  25  26
ATOM     26  C   UNL     1       3.919   9.131   2.524  1.00  0.00     0.188 C 
BRANCH  26  27
ATOM     27  C   UNL     1       4.353  10.601   2.411  1.00  0.00     0.188 C 
BRANCH  27  28
ATOM     28  O   UNL     1       4.292  11.144   1.102  1.00  0.00    -0.376 OA
BRANCH  28  29
ATOM     29  C   UNL     1       5.476  11.110   0.316  1.00  0.00     0.202 C 
BRANCH  29  30
ATOM     30  C   UNL     1       6.087   9.735  -0.014  1.00  0.00     0.261 C 
BRANCH  30  31
ATOM     31  O   UNL     1       6.533   8.953   1.105  1.00  0.00    -0.460 OA
BRANCH  31  32
ATOM     32  C   UNL     1       7.465   9.512   1.909  1.00  0.00     0.338 C 
ATOM     33  O   UNL     1       8.003  10.589   1.763  1.00  0.00    -0.246 OA
BRANCH  32  34
ATOM     34  C   UNL     1       7.588   8.673   3.118  1.00  0.00     0.060 A 
ATOM     35  C   UNL     1       7.250   9.236   4.354  1.00  0.00     0.016 A 
ATOM     36  C   UNL     1       8.061   7.361   3.039  1.00  0.00     0.016 A 
ATOM     37  C   UNL     1       7.435   8.504   5.524  1.00  0.00     0.010 A 
ATOM     38  C   UNL     1       8.265   6.634   4.217  1.00  0.00     0.010 A 
ATOM     39  C   UNL     1       7.994   7.220   5.467  1.00  0.00    -0.014 A 
BRANCH  39  40
ATOM     40  C   UNL     1       8.478   6.604   6.728  1.00  0.00     0.031 A 
ATOM     41  C   UNL     1       9.941   6.719   7.065  1.00  0.00     0.074 A 
ATOM     42  C   UNL     1       7.620   6.043   7.600  1.00  0.00     0.049 A 
ATOM     43  N   UNL     1      10.584   6.317   8.130  1.00  0.00    -0.248 NA
ATOM     44  C   UNL     1      10.791   7.382   6.064  1.00  0.00     0.031 C 
ATOM     45  C   UNL     1       6.177   5.923   7.403  1.00  0.00     0.029 A 
ATOM     46  N   UNL     1       7.840   5.483   8.833  1.00  0.00    -0.354 N 
ATOM     47  C   UNL     1      11.912   6.680   7.930  1.00  0.00     0.074 A 
ATOM     48  C   UNL     1      11.988   7.293   6.622  1.00  0.00     0.031 C 
ATOM     49  C   UNL     1       5.638   5.330   8.483  1.00  0.00     0.029 A 
ATOM     50  C   UNL     1       6.700   4.997   9.431  1.00  0.00     0.049 A 
ATOM     51  H   UNL     1       8.730   5.432   9.251  1.00  0.00     0.167 HD
ATOM     52  C   UNL     1      12.969   6.528   8.767  1.00  0.00     0.034 A 
ATOM     53  C   UNL     1       6.538   4.345  10.600  1.00  0.00     0.034 A 
ATOM     54  C   UNL     1      12.878   5.900  10.063  1.00  0.00     0.049 A 
ATOM     55  C   UNL     1       7.747   4.108  11.476  1.00  0.00     0.074 A 
ATOM     56  C   UNL     1      13.882   5.697  10.994  1.00  0.00     0.029 A 
ATOM     57  N   UNL     1      11.720   5.358  10.607  1.00  0.00    -0.354 N 
ATOM     58  N   UNL     1       8.996   4.467  11.281  1.00  0.00    -0.248 NA
ATOM     59  C   UNL     1       7.518   3.391  12.736  1.00  0.00     0.031 C 
ATOM     60  C   UNL     1      13.351   4.960  12.058  1.00  0.00     0.029 A 
ATOM     61  C   UNL     1      11.993   4.787  11.841  1.00  0.00     0.049 A 
ATOM     62  H   UNL     1      10.834   5.377  10.178  1.00  0.00     0.167 HD
ATOM     63  C   UNL     1       9.693   4.047  12.413  1.00  0.00     0.074 A 
ATOM     64  C   UNL     1       8.719   3.433  13.292  1.00  0.00     0.031 C 
ATOM     65  C   UNL     1      11.017   4.160  12.703  1.00  0.00     0.034 A 
BRANCH  52  66
ATOM     66  C   UNL     1      14.319   6.997   8.274  1.00  0.00     0.023 A 
ATOM     67  C   UNL     1      14.579   8.348   7.984  1.00  0.00     0.031 A 
ATOM     68  C   UNL     1      15.354   6.069   8.064  1.00  0.00     0.131 A 
ATOM     69  C   UNL     1      15.817   8.721   7.436  1.00  0.00     0.055 A 
ATOM     70  C   UNL     1      16.612   6.459   7.599  1.00  0.00     0.041 A 
ATOM     71  F   UNL     1      15.158   4.761   8.296  1.00  0.00    -0.206 F 
ATOM     72  C   UNL     1      16.844   7.790   7.268  1.00  0.00     0.022 A 
BRANCH  69  73
ATOM     73  S   UNL     1      16.015  10.411   6.807  1.00  0.00     0.124 S 
ATOM     74  O   UNL     1      14.942  10.486   5.818  1.00  0.00    -0.237 OA
ATOM     75  O   UNL     1      15.835  11.218   8.008  1.00  0.00    -0.237 OA
ATOM     76  O   UNL     1      17.366  10.414   6.250  1.00  0.00    -0.744 OA
ENDBRANCH  69  73
ENDBRANCH  52  66
BRANCH  53  77
ATOM     77  C   UNL     1       5.195   3.833  11.005  1.00  0.00     0.023 A 
ATOM     78  C   UNL     1       4.566   4.271  12.181  1.00  0.00     0.031 A 
ATOM     79  C   UNL     1       4.550   2.838  10.247  1.00  0.00     0.131 A 
ATOM     80  C   UNL     1       3.359   3.681  12.592  1.00  0.00     0.055 A 
ATOM     81  C   UNL     1       3.320   2.299  10.628  1.00  0.00     0.041 A 
ATOM     82  F   UNL     1       5.107   2.376   9.117  1.00  0.00    -0.206 F 
ATOM     83  C   UNL     1       2.725   2.710  11.815  1.00  0.00     0.022 A 
BRANCH  80  84
ATOM     84  S   UNL     1       2.678   4.130  14.213  1.00  0.00     0.124 S 
ATOM     85  O   UNL     1       3.776   3.776  15.105  1.00  0.00    -0.237 OA
ATOM     86  O   UNL     1       2.418   5.556  14.047  1.00  0.00    -0.237 OA
ATOM     87  O   UNL     1       1.486   3.291  14.325  1.00  0.00    -0.744 OA
ENDBRANCH  80  84
ENDBRANCH  53  77
BRANCH  65  88
ATOM     88  C   UNL     1      11.471   3.645  14.050  1.00  0.00     0.023 A 
ATOM     89  C   UNL     1      11.363   2.287  14.401  1.00  0.00     0.031 A 
ATOM     90  C   UNL     1      11.985   4.532  15.013  1.00  0.00     0.131 A 
ATOM     91  C   UNL     1      11.680   1.873  15.704  1.00  0.00     0.055 A 
ATOM     92  C   UNL     1      12.377   4.100  16.281  1.00  0.00     0.041 A 
ATOM     93  F   UNL     1      12.110   5.841  14.740  1.00  0.00    -0.206 F 
ATOM     94  C   UNL     1      12.206   2.766  16.640  1.00  0.00     0.022 A 
BRANCH  91  95
ATOM     95  S   UNL     1      11.260   0.180  16.203  1.00  0.00     0.124 S 
ATOM     96  O   UNL     1       9.831   0.125  15.911  1.00  0.00    -0.237 OA
ATOM     97  O   UNL     1      12.118  -0.622  15.338  1.00  0.00    -0.237 OA
ATOM     98  O   UNL     1      11.604   0.145  17.623  1.00  0.00    -0.744 OA
ENDBRANCH  91  95
ENDBRANCH  65  88
ENDBRANCH  39  40
ENDBRANCH  32  34
ENDBRANCH  31  32
ENDBRANCH  30  31
ENDBRANCH  29  30
ENDBRANCH  28  29
ENDBRANCH  27  28
ENDBRANCH  26  27
ENDBRANCH  25  26
ENDBRANCH  24  25
ENDBRANCH   1  24
TORSDOF 29
