REMARK SMILES CC(C)(C)C(=O)NCCC(=O)N1C[C@@H](O)C[C@@H]1C(=O)OCCOCCOCCOCCOC(=O)c1ccc(-c2c3nc(c(-c4cc(S(=O)(=O)[O-])ccc4F)c4ccc([nH]4)c(-c4cc(S(=O)(=O)[O-])ccc4F)c4nc(c(-c5cc(S(=O)(=O)[O-])ccc5F)c5ccc2[nH]5)C=C4)C=C3)cc1
REMARK SMILES IDX 25 1 24 2 23 3 22 4 21 5 20 6 18 7 19 8 17 9 12 10 13 11
REMARK SMILES IDX 14 12 16 13 10 14 11 15 9 16 8 17 7 18 5 19 6 20 2 22 1 23
REMARK SMILES IDX 3 24 4 25 15 26 26 28 27 29 28 30 29 31 30 32 31 33 32 34
REMARK SMILES IDX 33 35 34 36 35 37 36 38 97 39 37 40 96 41 38 42 39 43 40 44
REMARK SMILES IDX 90 45 41 46 95 47 89 48 91 49 42 50 94 51 88 52 87 53 43 55
REMARK SMILES IDX 75 56 55 57 74 58 56 59 59 60 73 61 92 62 57 63 58 64 72 66
REMARK SMILES IDX 93 67 60 68 44 69 45 70 53 71 46 72 52 73 54 74 51 75 47 76
REMARK SMILES IDX 48 77 49 78 50 79 76 80 77 81 85 82 78 83 84 84 86 85 83 86
REMARK SMILES IDX 79 87 80 88 81 89 82 90 61 91 62 92 70 93 63 94 69 95 71 96
REMARK SMILES IDX 68 97 64 98 65 99 66 100 67 101
REMARK H PARENT 7 21 15 27 91 54 59 65
REMARK Flexibility Score: inf
ROOT
ATOM      1  C   UNL     1      -2.344  -0.812  -5.204  1.00  0.00     0.188 C 
ENDROOT
BRANCH   1   2
ATOM      2  C   UNL     1      -2.574  -0.142  -6.571  1.00  0.00     0.188 C 
BRANCH   2   3
ATOM      3  O   UNL     1      -3.817  -0.262  -7.251  1.00  0.00    -0.376 OA
BRANCH   3   4
ATOM      4  C   UNL     1      -4.574  -1.459  -7.136  1.00  0.00     0.202 C 
BRANCH   4   5
ATOM      5  C   UNL     1      -3.918  -2.812  -7.472  1.00  0.00     0.261 C 
BRANCH   5   6
ATOM      6  O   UNL     1      -2.605  -3.026  -6.914  1.00  0.00    -0.462 OA
BRANCH   6   7
ATOM      7  C   UNL     1      -1.570  -3.143  -7.781  1.00  0.00     0.329 C 
ATOM      8  O   UNL     1      -1.686  -3.096  -9.004  1.00  0.00    -0.250 OA
BRANCH   7   9
ATOM      9  C   UNL     1      -0.182  -3.290  -7.099  1.00  0.00     0.197 C 
ATOM     10  N   UNL     1      -0.055  -3.238  -5.631  1.00  0.00    -0.326 N 
ATOM     11  C   UNL     1       0.912  -2.244  -5.213  1.00  0.00     0.152 C 
ATOM     12  C   UNL     1       1.093  -1.306  -6.391  1.00  0.00     0.136 C 
ATOM     13  C   UNL     1       0.722  -2.146  -7.609  1.00  0.00     0.070 C 
BRANCH  10  14
ATOM     14  C   UNL     1      -0.586  -4.212  -4.807  1.00  0.00     0.225 C 
ATOM     15  O   UNL     1      -0.927  -5.305  -5.259  1.00  0.00    -0.275 OA
BRANCH  14  16
ATOM     16  C   UNL     1      -0.853  -3.847  -3.340  1.00  0.00     0.121 C 
BRANCH  16  17
ATOM     17  C   UNL     1       0.245  -4.161  -2.321  1.00  0.00     0.125 C 
BRANCH  17  18
ATOM     18  N   UNL     1       1.318  -3.172  -2.314  1.00  0.00    -0.355 N 
ATOM     19  C   UNL     1       1.509  -1.992  -1.665  1.00  0.00     0.225 C 
ATOM     20  O   UNL     1       2.297  -1.215  -2.217  1.00  0.00    -0.275 OA
ATOM     21  H   UNL     1       2.066  -3.411  -2.907  1.00  0.00     0.163 HD
BRANCH  19  22
ATOM     22  C   UNL     1       0.899  -1.665  -0.289  1.00  0.00     0.041 C 
ATOM     23  C   UNL     1       1.391  -0.262   0.150  1.00  0.00     0.021 C 
ATOM     24  C   UNL     1       1.433  -2.685   0.727  1.00  0.00     0.021 C 
ATOM     25  C   UNL     1      -0.627  -1.636  -0.253  1.00  0.00     0.021 C 
ENDBRANCH  19  22
ENDBRANCH  17  18
ENDBRANCH  16  17
ENDBRANCH  14  16
ENDBRANCH  10  14
BRANCH  12  26
ATOM     26  O   UNL     1       2.419  -0.810  -6.506  1.00  0.00    -0.391 OA
ATOM     27  H   UNL     1       3.034  -1.552  -6.609  1.00  0.00     0.211 HD
ENDBRANCH  12  26
ENDBRANCH   7   9
ENDBRANCH   6   7
ENDBRANCH   5   6
ENDBRANCH   4   5
ENDBRANCH   3   4
ENDBRANCH   2   3
ENDBRANCH   1   2
BRANCH   1  28
ATOM     28  O   UNL     1      -3.411  -1.591  -4.712  1.00  0.00    -0.377 OA
BRANCH  28  29
ATOM     29  C   UNL     1      -4.196  -1.000  -3.692  1.00  0.00     0.188 C 
BRANCH  29  30
ATOM     30  C   UNL     1      -4.588   0.477  -3.892  1.00  0.00     0.188 C 
BRANCH  30  31
ATOM     31  O   UNL     1      -3.480   1.326  -4.176  1.00  0.00    -0.376 OA
BRANCH  31  32
ATOM     32  C   UNL     1      -2.920   2.094  -3.123  1.00  0.00     0.202 C 
BRANCH  32  33
ATOM     33  C   UNL     1      -2.239   1.354  -1.964  1.00  0.00     0.261 C 
BRANCH  33  34
ATOM     34  O   UNL     1      -2.991   0.303  -1.343  1.00  0.00    -0.460 OA
BRANCH  34  35
ATOM     35  C   UNL     1      -4.088   0.626  -0.621  1.00  0.00     0.338 C 
ATOM     36  O   UNL     1      -4.525   1.738  -0.433  1.00  0.00    -0.246 OA
BRANCH  35  37
ATOM     37  C   UNL     1      -4.755  -0.651  -0.256  1.00  0.00     0.060 A 
ATOM     38  C   UNL     1      -6.006  -0.951  -0.808  1.00  0.00     0.016 A 
ATOM     39  C   UNL     1      -4.138  -1.559   0.608  1.00  0.00     0.016 A 
ATOM     40  C   UNL     1      -6.657  -2.141  -0.468  1.00  0.00     0.010 A 
ATOM     41  C   UNL     1      -4.790  -2.750   0.950  1.00  0.00     0.010 A 
ATOM     42  C   UNL     1      -6.074  -3.027   0.448  1.00  0.00    -0.014 A 
BRANCH  42  43
ATOM     43  C   UNL     1      -6.897  -4.110   1.053  1.00  0.00     0.031 A 
ATOM     44  C   UNL     1      -7.437  -3.898   2.444  1.00  0.00     0.074 A 
ATOM     45  C   UNL     1      -7.182  -5.243   0.388  1.00  0.00     0.049 A 
ATOM     46  N   UNL     1      -8.139  -4.701   3.201  1.00  0.00    -0.248 NA
ATOM     47  C   UNL     1      -7.125  -2.603   3.067  1.00  0.00     0.031 C 
ATOM     48  C   UNL     1      -6.744  -5.557  -0.971  1.00  0.00     0.029 A 
ATOM     49  N   UNL     1      -7.902  -6.348   0.773  1.00  0.00    -0.354 N 
ATOM     50  C   UNL     1      -8.340  -4.015   4.395  1.00  0.00     0.074 A 
ATOM     51  C   UNL     1      -7.639  -2.754   4.276  1.00  0.00     0.031 C 
ATOM     52  C   UNL     1      -7.192  -6.781  -1.300  1.00  0.00     0.029 A 
ATOM     53  C   UNL     1      -7.915  -7.354  -0.165  1.00  0.00     0.049 A 
ATOM     54  H   UNL     1      -8.366  -6.414   1.639  1.00  0.00     0.167 HD
ATOM     55  C   UNL     1      -9.053  -4.394   5.485  1.00  0.00     0.034 A 
ATOM     56  C   UNL     1      -8.421  -8.604  -0.103  1.00  0.00     0.034 A 
ATOM     57  C   UNL     1      -9.736  -5.660   5.589  1.00  0.00     0.049 A 
ATOM     58  C   UNL     1      -9.150  -9.042   1.145  1.00  0.00     0.074 A 
ATOM     59  C   UNL     1     -10.518  -6.134   6.628  1.00  0.00     0.029 A 
ATOM     60  N   UNL     1      -9.700  -6.666   4.630  1.00  0.00    -0.354 N 
ATOM     61  N   UNL     1      -9.364  -8.373   2.256  1.00  0.00    -0.248 NA
ATOM     62  C   UNL     1      -9.715 -10.398   1.144  1.00  0.00     0.031 C 
ATOM     63  C   UNL     1     -10.871  -7.457   6.341  1.00  0.00     0.029 A 
ATOM     64  C   UNL     1     -10.402  -7.777   5.076  1.00  0.00     0.049 A 
ATOM     65  H   UNL     1      -9.243  -6.600   3.761  1.00  0.00     0.167 HD
ATOM     66  C   UNL     1     -10.112  -9.219   3.074  1.00  0.00     0.074 A 
ATOM     67  C   UNL     1     -10.321 -10.440   2.322  1.00  0.00     0.031 C 
ATOM     68  C   UNL     1     -10.589  -9.001   4.328  1.00  0.00     0.034 A 
BRANCH  55  69
ATOM     69  C   UNL     1      -9.063  -3.449   6.667  1.00  0.00     0.023 A 
ATOM     70  C   UNL     1      -9.563  -2.138   6.569  1.00  0.00     0.031 A 
ATOM     71  C   UNL     1      -8.501  -3.844   7.894  1.00  0.00     0.131 A 
ATOM     72  C   UNL     1      -9.393  -1.242   7.636  1.00  0.00     0.055 A 
ATOM     73  C   UNL     1      -8.429  -2.978   8.986  1.00  0.00     0.041 A 
ATOM     74  F   UNL     1      -7.984  -5.074   8.045  1.00  0.00    -0.206 F 
ATOM     75  C   UNL     1      -8.856  -1.661   8.854  1.00  0.00     0.022 A 
BRANCH  72  76
ATOM     76  S   UNL     1      -9.695   0.523   7.337  1.00  0.00     0.124 S 
ATOM     77  O   UNL     1      -8.818   0.783   6.197  1.00  0.00    -0.237 OA
ATOM     78  O   UNL     1     -11.127   0.555   7.062  1.00  0.00    -0.237 OA
ATOM     79  O   UNL     1      -9.283   1.158   8.587  1.00  0.00    -0.744 OA
ENDBRANCH  72  76
ENDBRANCH  55  69
BRANCH  56  80
ATOM     80  C   UNL     1      -8.206  -9.550  -1.238  1.00  0.00     0.023 A 
ATOM     81  C   UNL     1      -9.274 -10.046  -2.002  1.00  0.00     0.031 A 
ATOM     82  C   UNL     1      -6.907  -9.987  -1.561  1.00  0.00     0.131 A 
ATOM     83  C   UNL     1      -9.027 -10.967  -3.034  1.00  0.00     0.055 A 
ATOM     84  C   UNL     1      -6.662 -10.861  -2.621  1.00  0.00     0.041 A 
ATOM     85  F   UNL     1      -5.850  -9.551  -0.857  1.00  0.00    -0.206 F 
ATOM     86  C   UNL     1      -7.727 -11.362  -3.361  1.00  0.00     0.022 A 
BRANCH  83  87
ATOM     87  S   UNL     1     -10.438 -11.697  -3.912  1.00  0.00     0.124 S 
ATOM     88  O   UNL     1     -11.153 -12.357  -2.826  1.00  0.00    -0.237 OA
ATOM     89  O   UNL     1     -11.083 -10.519  -4.482  1.00  0.00    -0.237 OA
ATOM     90  O   UNL     1      -9.811 -12.592  -4.882  1.00  0.00    -0.744 OA
ENDBRANCH  83  87
ENDBRANCH  56  80
BRANCH  68  91
ATOM     91  C   UNL     1     -11.426 -10.094   4.954  1.00  0.00     0.023 A 
ATOM     92  C   UNL     1     -10.891 -11.355   5.272  1.00  0.00     0.031 A 
ATOM     93  C   UNL     1     -12.785  -9.865   5.241  1.00  0.00     0.131 A 
ATOM     94  C   UNL     1     -11.722 -12.354   5.803  1.00  0.00     0.055 A 
ATOM     95  C   UNL     1     -13.588 -10.839   5.836  1.00  0.00     0.041 A 
ATOM     96  F   UNL     1     -13.355  -8.684   4.955  1.00  0.00    -0.206 F 
ATOM     97  C   UNL     1     -13.062 -12.097   6.108  1.00  0.00     0.022 A 
BRANCH  94  98
ATOM     98  S   UNL     1     -11.059 -14.032   5.992  1.00  0.00     0.124 S 
ATOM     99  O   UNL     1     -10.639 -14.345   4.630  1.00  0.00    -0.237 OA
ATOM    100  O   UNL     1      -9.986 -13.837   6.962  1.00  0.00    -0.237 OA
ATOM    101  O   UNL     1     -12.202 -14.801   6.480  1.00  0.00    -0.744 OA
ENDBRANCH  94  98
ENDBRANCH  68  91
ENDBRANCH  42  43
ENDBRANCH  35  37
ENDBRANCH  34  35
ENDBRANCH  33  34
ENDBRANCH  32  33
ENDBRANCH  31  32
ENDBRANCH  30  31
ENDBRANCH  29  30
ENDBRANCH  28  29
ENDBRANCH   1  28
TORSDOF 29
