REMARK SMILES CCOc1oc(C[C@H]2CCCCO2)nc1C(=O)OCCOCCOCCOCCOC(=O)c1ccc(-c2c3nc(c(-c4cc(S(=O)(=O)[O-])ccc4F)c4ccc([nH]4)c(-c4cc(S(=O)(=O)[O-])ccc4F)c4nc(c(-c5cc(S(=O)(=O)[O-])ccc5F)c5ccc2[nH]5)C=C4)C=C3)cc1
REMARK SMILES IDX 25 1 24 2 23 3 22 4 21 5 20 6 19 7 18 8 16 9 17 10 15 11
REMARK SMILES IDX 4 12 5 13 6 14 14 15 3 16 2 17 1 18 7 19 8 20 9 21 13 22
REMARK SMILES IDX 10 23 12 24 11 25 26 26 27 27 28 28 29 29 30 30 31 31 32 32
REMARK SMILES IDX 33 33 34 34 95 35 35 36 94 37 36 38 37 39 38 40 88 41 39 42
REMARK SMILES IDX 93 43 87 44 89 45 40 46 92 47 86 48 85 49 41 51 73 52 53 53
REMARK SMILES IDX 72 54 54 55 57 56 71 57 90 58 55 59 56 60 70 62 91 63 58 64
REMARK SMILES IDX 42 65 43 66 51 67 44 68 50 69 52 70 49 71 45 72 46 73 47 74
REMARK SMILES IDX 48 75 74 76 75 77 83 78 76 79 82 80 84 81 81 82 77 83 78 84
REMARK SMILES IDX 79 85 80 86 59 87 60 88 68 89 61 90 67 91 69 92 66 93 62 94
REMARK SMILES IDX 63 95 64 96 65 97
REMARK H PARENT 89 50 57 61
REMARK Flexibility Score: inf
ROOT
ATOM      1  C   UNL     1       9.905  12.332  -1.343  1.00  0.00     0.188 C 
ENDROOT
BRANCH   1   2
ATOM      2  O   UNL     1       8.892  11.551  -1.976  1.00  0.00    -0.377 OA
BRANCH   2   3
ATOM      3  C   UNL     1       8.425  10.461  -1.186  1.00  0.00     0.188 C 
BRANCH   3   4
ATOM      4  C   UNL     1       7.895  10.870   0.193  1.00  0.00     0.188 C 
BRANCH   4   5
ATOM      5  O   UNL     1       8.960  11.218   1.079  1.00  0.00    -0.376 OA
BRANCH   5   6
ATOM      6  C   UNL     1       9.272  10.292   2.114  1.00  0.00     0.202 C 
BRANCH   6   7
ATOM      7  C   UNL     1       9.894   8.970   1.638  1.00  0.00     0.261 C 
BRANCH   7   8
ATOM      8  O   UNL     1       9.024   8.170   0.820  1.00  0.00    -0.458 OA
BRANCH   8   9
ATOM      9  C   UNL     1       7.842   7.766   1.362  1.00  0.00     0.364 C 
ATOM     10  O   UNL     1       7.562   7.849   2.553  1.00  0.00    -0.244 OA
BRANCH   9  11
ATOM     11  C   UNL     1       6.890   7.433   0.319  1.00  0.00     0.233 A 
ATOM     12  C   UNL     1       5.541   7.710   0.337  1.00  0.00     0.320 A 
ATOM     13  O   UNL     1       5.018   7.385  -0.877  1.00  0.00    -0.409 OA
ATOM     14  C   UNL     1       6.085   6.897  -1.583  1.00  0.00     0.202 A 
ATOM     15  N   UNL     1       7.230   6.940  -0.934  1.00  0.00    -0.203 NA
BRANCH  12  16
ATOM     16  O   UNL     1       4.681   8.231   1.204  1.00  0.00    -0.464 OA
BRANCH  16  17
ATOM     17  C   UNL     1       4.413   9.621   0.995  1.00  0.00     0.230 C 
ATOM     18  C   UNL     1       4.838  10.389   2.234  1.00  0.00     0.049 C 
ENDBRANCH  16  17
ENDBRANCH  12  16
BRANCH  14  19
ATOM     19  C   UNL     1       5.805   6.349  -2.937  1.00  0.00     0.129 C 
BRANCH  19  20
ATOM     20  C   UNL     1       4.769   5.219  -2.870  1.00  0.00     0.127 C 
ATOM     21  C   UNL     1       3.328   5.745  -2.877  1.00  0.00     0.033 C 
ATOM     22  O   UNL     1       4.944   4.358  -4.009  1.00  0.00    -0.378 OA
ATOM     23  C   UNL     1       2.345   4.581  -2.814  1.00  0.00     0.005 C 
ATOM     24  C   UNL     1       4.122   3.192  -3.924  1.00  0.00     0.160 C 
ATOM     25  C   UNL     1       2.645   3.568  -3.912  1.00  0.00     0.029 C 
ENDBRANCH  19  20
ENDBRANCH  14  19
ENDBRANCH   9  11
ENDBRANCH   8   9
ENDBRANCH   7   8
ENDBRANCH   6   7
ENDBRANCH   5   6
ENDBRANCH   4   5
ENDBRANCH   3   4
ENDBRANCH   2   3
ENDBRANCH   1   2
BRANCH   1  26
ATOM     26  C   UNL     1       9.348  13.598  -0.661  1.00  0.00     0.188 C 
BRANCH  26  27
ATOM     27  O   UNL     1       7.944  13.785  -0.861  1.00  0.00    -0.376 OA
BRANCH  27  28
ATOM     28  C   UNL     1       7.588  14.748  -1.849  1.00  0.00     0.202 C 
BRANCH  28  29
ATOM     29  C   UNL     1       7.818  14.309  -3.302  1.00  0.00     0.261 C 
BRANCH  29  30
ATOM     30  O   UNL     1       9.189  14.105  -3.677  1.00  0.00    -0.460 OA
BRANCH  30  31
ATOM     31  C   UNL     1      10.053  15.134  -3.524  1.00  0.00     0.338 C 
ATOM     32  O   UNL     1       9.787  16.270  -3.178  1.00  0.00    -0.246 OA
BRANCH  31  33
ATOM     33  C   UNL     1      11.418  14.574  -3.637  1.00  0.00     0.060 A 
ATOM     34  C   UNL     1      12.350  14.857  -2.628  1.00  0.00     0.016 A 
ATOM     35  C   UNL     1      11.749  13.706  -4.683  1.00  0.00     0.016 A 
ATOM     36  C   UNL     1      13.625  14.290  -2.681  1.00  0.00     0.010 A 
ATOM     37  C   UNL     1      13.030  13.157  -4.746  1.00  0.00     0.010 A 
ATOM     38  C   UNL     1      13.982  13.471  -3.762  1.00  0.00    -0.014 A 
BRANCH  38  39
ATOM     39  C   UNL     1      15.410  13.156  -4.008  1.00  0.00     0.031 A 
ATOM     40  C   UNL     1      16.198  14.133  -4.837  1.00  0.00     0.074 A 
ATOM     41  C   UNL     1      15.988  12.039  -3.534  1.00  0.00     0.049 A 
ATOM     42  N   UNL     1      17.446  14.087  -5.220  1.00  0.00    -0.248 NA
ATOM     43  C   UNL     1      15.466  15.324  -5.302  1.00  0.00     0.031 C 
ATOM     44  C   UNL     1      15.331  11.028  -2.709  1.00  0.00     0.029 A 
ATOM     45  N   UNL     1      17.266  11.565  -3.696  1.00  0.00    -0.354 N 
ATOM     46  C   UNL     1      17.654  15.247  -5.957  1.00  0.00     0.074 A 
ATOM     47  C   UNL     1      16.392  15.952  -6.006  1.00  0.00     0.031 C 
ATOM     48  C   UNL     1      16.210  10.042  -2.448  1.00  0.00     0.029 A 
ATOM     49  C   UNL     1      17.481  10.341  -3.107  1.00  0.00     0.049 A 
ATOM     50  H   UNL     1      17.964  12.055  -4.187  1.00  0.00     0.167 HD
ATOM     51  C   UNL     1      18.796  15.692  -6.535  1.00  0.00     0.034 A 
ATOM     52  C   UNL     1      18.574   9.550  -3.119  1.00  0.00     0.034 A 
ATOM     53  C   UNL     1      20.034  14.957  -6.525  1.00  0.00     0.049 A 
ATOM     54  C   UNL     1      19.811  10.018  -3.853  1.00  0.00     0.074 A 
ATOM     55  C   UNL     1      21.252  15.308  -7.080  1.00  0.00     0.029 A 
ATOM     56  N   UNL     1      20.204  13.704  -5.950  1.00  0.00    -0.354 N 
ATOM     57  N   UNL     1      20.008  11.135  -4.516  1.00  0.00    -0.248 NA
ATOM     58  C   UNL     1      20.973   9.120  -3.834  1.00  0.00     0.031 C 
ATOM     59  C   UNL     1      22.138  14.240  -6.896  1.00  0.00     0.029 A 
ATOM     60  C   UNL     1      21.496  13.253  -6.165  1.00  0.00     0.049 A 
ATOM     61  H   UNL     1      19.508  13.209  -5.461  1.00  0.00     0.167 HD
ATOM     62  C   UNL     1      21.326  11.085  -4.965  1.00  0.00     0.074 A 
ATOM     63  C   UNL     1      21.877   9.832  -4.491  1.00  0.00     0.031 C 
ATOM     64  C   UNL     1      22.023  11.994  -5.694  1.00  0.00     0.034 A 
BRANCH  51  65
ATOM     65  C   UNL     1      18.716  17.006  -7.269  1.00  0.00     0.023 A 
ATOM     66  C   UNL     1      18.438  18.208  -6.592  1.00  0.00     0.031 A 
ATOM     67  C   UNL     1      18.844  17.050  -8.667  1.00  0.00     0.131 A 
ATOM     68  C   UNL     1      18.217  19.386  -7.321  1.00  0.00     0.055 A 
ATOM     69  C   UNL     1      18.700  18.241  -9.380  1.00  0.00     0.041 A 
ATOM     70  F   UNL     1      19.082  15.929  -9.367  1.00  0.00    -0.206 F 
ATOM     71  C   UNL     1      18.368  19.415  -8.709  1.00  0.00     0.022 A 
BRANCH  68  72
ATOM     72  S   UNL     1      17.578  20.840  -6.445  1.00  0.00     0.124 S 
ATOM     73  O   UNL     1      16.330  20.325  -5.887  1.00  0.00    -0.237 OA
ATOM     74  O   UNL     1      18.639  21.121  -5.484  1.00  0.00    -0.237 OA
ATOM     75  O   UNL     1      17.415  21.834  -7.504  1.00  0.00    -0.744 OA
ENDBRANCH  68  72
ENDBRANCH  51  65
BRANCH  52  76
ATOM     76  C   UNL     1      18.555   8.216  -2.454  1.00  0.00     0.023 A 
ATOM     77  C   UNL     1      19.376   7.942  -1.348  1.00  0.00     0.031 A 
ATOM     78  C   UNL     1      17.759   7.172  -2.959  1.00  0.00     0.131 A 
ATOM     79  C   UNL     1      19.415   6.645  -0.809  1.00  0.00     0.055 A 
ATOM     80  C   UNL     1      17.769   5.896  -2.393  1.00  0.00     0.041 A 
ATOM     81  F   UNL     1      16.959   7.381  -4.016  1.00  0.00    -0.206 F 
ATOM     82  C   UNL     1      18.609   5.624  -1.318  1.00  0.00     0.022 A 
BRANCH  79  83
ATOM     83  S   UNL     1      20.591   6.291   0.527  1.00  0.00     0.124 S 
ATOM     84  O   UNL     1      21.866   6.600  -0.109  1.00  0.00    -0.237 OA
ATOM     85  O   UNL     1      20.152   7.214   1.568  1.00  0.00    -0.237 OA
ATOM     86  O   UNL     1      20.363   4.877   0.816  1.00  0.00    -0.744 OA
ENDBRANCH  79  83
ENDBRANCH  52  76
BRANCH  64  87
ATOM     87  C   UNL     1      23.472  11.684  -5.979  1.00  0.00     0.023 A 
ATOM     88  C   UNL     1      23.851  10.646  -6.847  1.00  0.00     0.031 A 
ATOM     89  C   UNL     1      24.486  12.446  -5.372  1.00  0.00     0.131 A 
ATOM     90  C   UNL     1      25.212  10.368  -7.050  1.00  0.00     0.055 A 
ATOM     91  C   UNL     1      25.837  12.199  -5.619  1.00  0.00     0.041 A 
ATOM     92  F   UNL     1      24.178  13.450  -4.535  1.00  0.00    -0.206 F 
ATOM     93  C   UNL     1      26.206  11.148  -6.453  1.00  0.00     0.022 A 
BRANCH  90  94
ATOM     94  S   UNL     1      25.670   8.925  -8.048  1.00  0.00     0.124 S 
ATOM     95  O   UNL     1      25.034   7.834  -7.315  1.00  0.00    -0.237 OA
ATOM     96  O   UNL     1      25.088   9.245  -9.347  1.00  0.00    -0.237 OA
ATOM     97  O   UNL     1      27.131   8.928  -8.007  1.00  0.00    -0.744 OA
ENDBRANCH  90  94
ENDBRANCH  64  87
ENDBRANCH  38  39
ENDBRANCH  31  33
ENDBRANCH  30  31
ENDBRANCH  29  30
ENDBRANCH  28  29
ENDBRANCH  27  28
ENDBRANCH  26  27
ENDBRANCH   1  26
TORSDOF 27
