REMARK SMILES Cc1ccc(NC(=O)C[C@H]2SC[C@H](C(=O)OCCOCCOCCOCCOC(=O)c3ccc(-c4c5nc(c(-c6cc(S(=O)(=O)[O-])ccc6F)c6ccc([nH]6)c(-c6cc(S(=O)(=O)[O-])ccc6F)c6nc(c(-c7cc(S(=O)(=O)[O-])ccc7F)c7ccc4[nH]7)C=C6)C=C5)cc3)NC2=O)cc1
REMARK SMILES IDX 22 1 21 2 20 3 19 4 18 5 17 6 16 7 14 8 15 9 13 10 10 11
REMARK SMILES IDX 11 12 95 13 12 14 94 15 96 16 9 18 7 19 6 20 8 22 5 23 1 24
REMARK SMILES IDX 2 25 3 26 98 27 4 28 97 29 23 30 24 31 25 32 26 33 27 34
REMARK SMILES IDX 28 35 29 36 30 37 31 38 32 39 93 40 33 41 92 42 34 43 35 44
REMARK SMILES IDX 36 45 86 46 37 47 91 48 85 49 87 50 38 51 90 52 84 53 83 54
REMARK SMILES IDX 39 56 71 57 51 58 70 59 52 60 55 61 69 62 88 63 53 64 54 65
REMARK SMILES IDX 68 67 89 68 56 69 40 70 41 71 49 72 42 73 48 74 50 75 47 76
REMARK SMILES IDX 43 77 44 78 45 79 46 80 72 81 73 82 81 83 74 84 80 85 82 86
REMARK SMILES IDX 79 87 75 88 76 89 77 90 78 91 57 92 58 93 66 94 59 95 65 96
REMARK SMILES IDX 67 97 64 98 60 99 61 100 62 101 63 102
REMARK H PARENT 94 17 6 21 87 55 55 66
REMARK Flexibility Score: inf
ROOT
ATOM      1  O   UNL     1      -5.600  -1.908  -4.498  1.00  0.00    -0.377 OA
ENDROOT
BRANCH   1   2
ATOM      2  C   UNL     1      -5.075  -1.377  -5.694  1.00  0.00     0.188 C 
BRANCH   2   3
ATOM      3  C   UNL     1      -4.697  -2.453  -6.718  1.00  0.00     0.188 C 
BRANCH   3   4
ATOM      4  O   UNL     1      -5.704  -3.370  -7.129  1.00  0.00    -0.376 OA
BRANCH   4   5
ATOM      5  C   UNL     1      -6.139  -4.333  -6.169  1.00  0.00     0.202 C 
BRANCH   5   6
ATOM      6  C   UNL     1      -5.087  -5.269  -5.600  1.00  0.00     0.261 C 
BRANCH   6   7
ATOM      7  O   UNL     1      -4.478  -4.640  -4.468  1.00  0.00    -0.462 OA
BRANCH   7   8
ATOM      8  C   UNL     1      -3.175  -4.380  -4.601  1.00  0.00     0.329 C 
ATOM      9  O   UNL     1      -2.464  -4.775  -5.521  1.00  0.00    -0.250 OA
BRANCH   8  10
ATOM     10  C   UNL     1      -2.605  -3.622  -3.436  1.00  0.00     0.202 C 
ATOM     11  C   UNL     1      -1.154  -2.821  -1.030  1.00  0.00     0.145 C 
ATOM     12  S   UNL     1      -1.929  -1.437  -1.968  1.00  0.00    -0.145 SA
ATOM     13  C   UNL     1      -1.043  -4.140  -1.827  1.00  0.00     0.234 C 
ATOM     14  C   UNL     1      -3.248  -2.390  -2.835  1.00  0.00     0.107 C 
ATOM     15  N   UNL     1      -2.199  -4.552  -2.418  1.00  0.00    -0.341 N 
ATOM     16  O   UNL     1      -0.042  -4.825  -1.998  1.00  0.00    -0.274 OA
ATOM     17  H   UNL     1      -2.688  -5.372  -2.181  1.00  0.00     0.164 HD
BRANCH  11  18
ATOM     18  C   UNL     1       0.159  -2.338  -0.418  1.00  0.00     0.124 C 
BRANCH  18  19
ATOM     19  C   UNL     1       1.173  -3.423  -0.112  1.00  0.00     0.226 C 
ATOM     20  N   UNL     1       0.815  -4.594   0.495  1.00  0.00    -0.326 N 
ATOM     21  H   UNL     1       1.513  -5.288   0.475  1.00  0.00     0.169 HD
ATOM     22  O   UNL     1       2.348  -3.277  -0.471  1.00  0.00    -0.275 OA
BRANCH  20  23
ATOM     23  C   UNL     1      -0.368  -4.988   1.141  1.00  0.00     0.041 A 
ATOM     24  C   UNL     1      -3.989  -6.386   3.013  1.00  0.00     0.044 C 
ATOM     25  C   UNL     1      -2.729  -5.907   2.359  1.00  0.00    -0.051 A 
ATOM     26  C   UNL     1      -2.358  -4.562   2.449  1.00  0.00     0.005 A 
ATOM     27  C   UNL     1      -1.929  -6.784   1.621  1.00  0.00     0.005 A 
ATOM     28  C   UNL     1      -1.170  -4.112   1.867  1.00  0.00     0.026 A 
ATOM     29  C   UNL     1      -0.750  -6.329   1.027  1.00  0.00     0.026 A 
ENDBRANCH  20  23
ENDBRANCH  18  19
ENDBRANCH  11  18
ENDBRANCH   8  10
ENDBRANCH   7   8
ENDBRANCH   6   7
ENDBRANCH   5   6
ENDBRANCH   4   5
ENDBRANCH   3   4
ENDBRANCH   2   3
ENDBRANCH   1   2
BRANCH   1  30
ATOM     30  C   UNL     1      -6.837  -1.439  -3.964  1.00  0.00     0.188 C 
BRANCH  30  31
ATOM     31  C   UNL     1      -7.643  -0.356  -4.668  1.00  0.00     0.188 C 
BRANCH  31  32
ATOM     32  O   UNL     1      -7.851  -0.721  -6.036  1.00  0.00    -0.376 OA
BRANCH  32  33
ATOM     33  C   UNL     1      -7.918   0.386  -6.931  1.00  0.00     0.202 C 
BRANCH  33  34
ATOM     34  C   UNL     1      -9.179   1.220  -6.727  1.00  0.00     0.261 C 
BRANCH  34  35
ATOM     35  O   UNL     1     -10.329   0.405  -7.029  1.00  0.00    -0.460 OA
BRANCH  35  36
ATOM     36  C   UNL     1     -11.076   0.068  -5.949  1.00  0.00     0.338 C 
ATOM     37  O   UNL     1     -11.653   0.880  -5.222  1.00  0.00    -0.246 OA
BRANCH  36  38
ATOM     38  C   UNL     1     -10.999  -1.393  -5.677  1.00  0.00     0.060 A 
ATOM     39  C   UNL     1     -11.466  -1.910  -4.458  1.00  0.00     0.016 A 
ATOM     40  C   UNL     1     -10.223  -2.196  -6.506  1.00  0.00     0.016 A 
ATOM     41  C   UNL     1     -11.015  -3.159  -3.998  1.00  0.00     0.010 A 
ATOM     42  C   UNL     1      -9.697  -3.370  -5.999  1.00  0.00     0.010 A 
ATOM     43  C   UNL     1     -10.047  -3.853  -4.728  1.00  0.00    -0.014 A 
BRANCH  43  44
ATOM     44  C   UNL     1      -9.169  -4.919  -4.191  1.00  0.00     0.031 A 
ATOM     45  C   UNL     1      -8.839  -6.130  -5.017  1.00  0.00     0.074 A 
ATOM     46  C   UNL     1      -8.367  -4.588  -3.148  1.00  0.00     0.049 A 
ATOM     47  N   UNL     1      -7.986  -7.046  -4.697  1.00  0.00    -0.248 NA
ATOM     48  C   UNL     1      -9.464  -6.417  -6.308  1.00  0.00     0.031 C 
ATOM     49  C   UNL     1      -7.016  -5.086  -2.894  1.00  0.00     0.029 A 
ATOM     50  N   UNL     1      -8.518  -3.648  -2.145  1.00  0.00    -0.354 N 
ATOM     51  C   UNL     1      -7.706  -7.820  -5.811  1.00  0.00     0.074 A 
ATOM     52  C   UNL     1      -8.734  -7.449  -6.750  1.00  0.00     0.031 C 
ATOM     53  C   UNL     1      -6.479  -4.488  -1.822  1.00  0.00     0.029 A 
ATOM     54  C   UNL     1      -7.564  -3.839  -1.138  1.00  0.00     0.049 A 
ATOM     55  H   UNL     1      -9.202  -2.941  -2.140  1.00  0.00     0.167 HD
ATOM     56  C   UNL     1      -6.562  -8.580  -5.835  1.00  0.00     0.034 A 
ATOM     57  C   UNL     1      -7.964  -4.237   0.108  1.00  0.00     0.034 A 
ATOM     58  C   UNL     1      -5.913  -8.615  -4.502  1.00  0.00     0.049 A 
ATOM     59  C   UNL     1      -7.696  -5.731   0.346  1.00  0.00     0.074 A 
ATOM     60  C   UNL     1      -4.635  -8.372  -4.021  1.00  0.00     0.029 A 
ATOM     61  N   UNL     1      -6.705  -8.796  -3.365  1.00  0.00    -0.354 N 
ATOM     62  N   UNL     1      -7.297  -6.551  -0.603  1.00  0.00    -0.248 NA
ATOM     63  C   UNL     1      -7.744  -6.419   1.633  1.00  0.00     0.031 C 
ATOM     64  C   UNL     1      -4.706  -8.274  -2.597  1.00  0.00     0.029 A 
ATOM     65  C   UNL     1      -6.008  -8.542  -2.203  1.00  0.00     0.049 A 
ATOM     66  H   UNL     1      -7.649  -9.072  -3.391  1.00  0.00     0.167 HD
ATOM     67  C   UNL     1      -7.035  -7.799  -0.120  1.00  0.00     0.074 A 
ATOM     68  C   UNL     1      -7.321  -7.657   1.300  1.00  0.00     0.031 C 
ATOM     69  C   UNL     1      -6.622  -8.843  -0.912  1.00  0.00     0.034 A 
BRANCH  56  70
ATOM     70  C   UNL     1      -5.877  -9.169  -7.087  1.00  0.00     0.023 A 
ATOM     71  C   UNL     1      -4.685  -9.928  -6.943  1.00  0.00     0.031 A 
ATOM     72  C   UNL     1      -6.253  -8.947  -8.432  1.00  0.00     0.131 A 
ATOM     73  C   UNL     1      -3.933 -10.376  -8.058  1.00  0.00     0.055 A 
ATOM     74  C   UNL     1      -5.539  -9.445  -9.538  1.00  0.00     0.041 A 
ATOM     75  F   UNL     1      -7.304  -8.197  -8.771  1.00  0.00    -0.206 F 
ATOM     76  C   UNL     1      -4.366 -10.153  -9.358  1.00  0.00     0.022 A 
BRANCH  73  77
ATOM     77  S   UNL     1      -2.349 -11.235  -7.801  1.00  0.00     0.124 S 
ATOM     78  O   UNL     1      -1.498 -10.160  -7.303  1.00  0.00    -0.237 OA
ATOM     79  O   UNL     1      -2.706 -12.276  -6.844  1.00  0.00    -0.237 OA
ATOM     80  O   UNL     1      -2.007 -11.724  -9.137  1.00  0.00    -0.744 OA
ENDBRANCH  73  77
ENDBRANCH  56  70
BRANCH  57  81
ATOM     81  C   UNL     1      -8.974  -3.248   0.630  1.00  0.00     0.023 A 
ATOM     82  C   UNL     1      -8.427  -1.939   0.738  1.00  0.00     0.031 A 
ATOM     83  C   UNL     1     -10.317  -3.344   0.222  1.00  0.00     0.131 A 
ATOM     84  C   UNL     1      -9.061  -0.858   0.098  1.00  0.00     0.055 A 
ATOM     85  C   UNL     1     -10.987  -2.233  -0.328  1.00  0.00     0.041 A 
ATOM     86  F   UNL     1     -10.915  -4.540   0.126  1.00  0.00    -0.206 F 
ATOM     87  C   UNL     1     -10.330  -1.008  -0.465  1.00  0.00     0.022 A 
BRANCH  84  88
ATOM     88  S   UNL     1      -8.063   0.611  -0.349  1.00  0.00     0.124 S 
ATOM     89  O   UNL     1      -8.328   1.509   0.769  1.00  0.00    -0.237 OA
ATOM     90  O   UNL     1      -6.708   0.075  -0.430  1.00  0.00    -0.237 OA
ATOM     91  O   UNL     1      -8.627   1.010  -1.638  1.00  0.00    -0.744 OA
ENDBRANCH  84  88
ENDBRANCH  57  81
BRANCH  69  92
ATOM     92  C   UNL     1      -6.740 -10.311  -0.546  1.00  0.00     0.023 A 
ATOM     93  C   UNL     1      -7.476 -10.742   0.557  1.00  0.00     0.031 A 
ATOM     94  C   UNL     1      -6.231 -11.347  -1.377  1.00  0.00     0.131 A 
ATOM     95  C   UNL     1      -7.603 -12.103   0.866  1.00  0.00     0.055 A 
ATOM     96  C   UNL     1      -6.449 -12.705  -1.128  1.00  0.00     0.041 A 
ATOM     97  F   UNL     1      -5.520 -11.095  -2.485  1.00  0.00    -0.206 F 
ATOM     98  C   UNL     1      -7.124 -13.094   0.015  1.00  0.00     0.022 A 
BRANCH  95  99
ATOM     99  S   UNL     1      -8.338 -12.516   2.461  1.00  0.00     0.124 S 
ATOM    100  O   UNL     1      -7.387 -11.906   3.388  1.00  0.00    -0.237 OA
ATOM    101  O   UNL     1      -9.643 -11.866   2.381  1.00  0.00    -0.237 OA
ATOM    102  O   UNL     1      -8.364 -13.975   2.463  1.00  0.00    -0.744 OA
ENDBRANCH  95  99
ENDBRANCH  69  92
ENDBRANCH  43  44
ENDBRANCH  36  38
ENDBRANCH  35  36
ENDBRANCH  34  35
ENDBRANCH  33  34
ENDBRANCH  32  33
ENDBRANCH  31  32
ENDBRANCH  30  31
ENDBRANCH   1  30
TORSDOF 26
