REMARK SMILES Cn1nc(-c2cccs2)cc1C(=O)N1CC[C@@H](c2ccccc2C(=O)OCCOCCOCCOCCOC(=O)c2ccc(-c3c4nc(c(-c5cc(S(=O)(=O)[O-])ccc5F)c5ccc([nH]5)c(-c5cc(S(=O)(=O)[O-])ccc5F)c5nc(c(-c6cc(S(=O)(=O)[O-])ccc6F)c6ccc3[nH]6)C=C5)C=C4)cc2)C1
REMARK SMILES IDX 31 1 30 2 29 3 28 4 27 5 26 6 24 7 25 8 23 9 18 10 19 11
REMARK SMILES IDX 20 12 22 13 21 14 17 15 14 16 15 17 104 18 16 19 12 20 13 21
REMARK SMILES IDX 11 22 1 23 2 24 3 25 4 26 10 27 5 28 6 29 9 30 7 31 8 32
REMARK SMILES IDX 32 33 33 34 34 35 35 36 36 37 37 38 38 39 39 40 40 41 41 42
REMARK SMILES IDX 42 43 103 44 43 45 102 46 44 47 45 48 46 49 96 50 47 51
REMARK SMILES IDX 101 52 95 53 97 54 48 55 100 56 94 57 93 58 49 60 81 61
REMARK SMILES IDX 61 62 80 63 62 64 65 65 79 66 98 67 63 68 64 69 78 71 99 72
REMARK SMILES IDX 66 73 50 74 51 75 59 76 52 77 58 78 60 79 57 80 53 81 54 82
REMARK SMILES IDX 55 83 56 84 82 85 83 86 91 87 84 88 90 89 92 90 89 91 85 92
REMARK SMILES IDX 86 93 87 94 88 95 67 96 68 97 76 98 69 99 75 100 77 101
REMARK SMILES IDX 74 102 70 103 71 104 72 105 73 106
REMARK H PARENT 97 59 65 70
REMARK Flexibility Score: inf
ROOT
ATOM      1  C   UNL     1      -7.587  -3.518   1.270  1.00  0.00     0.188 C 
ENDROOT
BRANCH   1   2
ATOM      2  C   UNL     1      -8.268  -4.637   2.089  1.00  0.00     0.188 C 
BRANCH   2   3
ATOM      3  O   UNL     1      -8.444  -4.328   3.458  1.00  0.00    -0.376 OA
BRANCH   3   4
ATOM      4  C   UNL     1      -7.597  -4.921   4.426  1.00  0.00     0.202 C 
BRANCH   4   5
ATOM      5  C   UNL     1      -6.070  -4.853   4.267  1.00  0.00     0.261 C 
BRANCH   5   6
ATOM      6  O   UNL     1      -5.586  -4.914   2.921  1.00  0.00    -0.460 OA
BRANCH   6   7
ATOM      7  C   UNL     1      -5.404  -6.133   2.385  1.00  0.00     0.338 C 
ATOM      8  O   UNL     1      -5.618  -7.194   2.951  1.00  0.00    -0.246 OA
BRANCH   7   9
ATOM      9  C   UNL     1      -5.112  -6.046   0.921  1.00  0.00     0.063 A 
ATOM     10  C   UNL     1      -4.199  -5.178   0.280  1.00  0.00    -0.029 A 
ATOM     11  C   UNL     1      -3.890  -5.460  -1.069  1.00  0.00     0.005 A 
ATOM     12  C   UNL     1      -4.618  -6.382  -1.818  1.00  0.00     0.000 A 
ATOM     13  C   UNL     1      -5.856  -6.961   0.145  1.00  0.00     0.016 A 
ATOM     14  C   UNL     1      -5.647  -7.090  -1.224  1.00  0.00     0.001 A 
BRANCH  10  15
ATOM     15  C   UNL     1      -3.654  -3.889   0.887  1.00  0.00     0.041 C 
ATOM     16  N   UNL     1      -1.682  -2.714   0.206  1.00  0.00    -0.337 N 
ATOM     17  C   UNL     1      -2.707  -2.337  -0.739  1.00  0.00     0.120 C 
ATOM     18  C   UNL     1      -2.130  -3.813   1.053  1.00  0.00     0.128 C 
ATOM     19  C   UNL     1      -3.993  -2.650   0.008  1.00  0.00     0.032 C 
BRANCH  16  20
ATOM     20  C   UNL     1      -0.347  -2.371   0.172  1.00  0.00     0.272 C 
ATOM     21  O   UNL     1       0.498  -3.237   0.409  1.00  0.00    -0.267 OA
BRANCH  20  22
ATOM     22  C   UNL     1       0.046  -0.994  -0.064  1.00  0.00     0.126 A 
ATOM     23  C   UNL     1      -1.973   0.432   0.629  1.00  0.00     0.174 C 
ATOM     24  N   UNL     1      -0.618   0.185   0.199  1.00  0.00    -0.262 N 
ATOM     25  N   UNL     1       0.161   1.275   0.098  1.00  0.00    -0.172 NA
ATOM     26  C   UNL     1       1.369   0.809  -0.210  1.00  0.00     0.103 A 
ATOM     27  C   UNL     1       1.334  -0.584  -0.407  1.00  0.00     0.065 A 
BRANCH  26  28
ATOM     28  C   UNL     1       2.565   1.706  -0.262  1.00  0.00     0.055 A 
ATOM     29  C   UNL     1       3.696   1.483  -1.018  1.00  0.00     0.022 A 
ATOM     30  S   UNL     1       2.685   3.148   0.653  1.00  0.00    -0.142 S 
ATOM     31  C   UNL     1       4.668   2.516  -0.844  1.00  0.00     0.012 A 
ATOM     32  C   UNL     1       4.269   3.449   0.087  1.00  0.00     0.065 A 
ENDBRANCH  26  28
ENDBRANCH  20  22
ENDBRANCH  16  20
ENDBRANCH  10  15
ENDBRANCH   7   9
ENDBRANCH   6   7
ENDBRANCH   5   6
ENDBRANCH   4   5
ENDBRANCH   3   4
ENDBRANCH   2   3
ENDBRANCH   1   2
BRANCH   1  33
ATOM     33  O   UNL     1      -6.929  -2.463   1.957  1.00  0.00    -0.377 OA
BRANCH  33  34
ATOM     34  C   UNL     1      -7.612  -1.750   2.988  1.00  0.00     0.188 C 
BRANCH  34  35
ATOM     35  C   UNL     1      -9.158  -1.715   3.073  1.00  0.00     0.188 C 
BRANCH  35  36
ATOM     36  O   UNL     1      -9.828  -2.245   1.941  1.00  0.00    -0.376 OA
BRANCH  36  37
ATOM     37  C   UNL     1     -10.454  -1.329   1.061  1.00  0.00     0.202 C 
BRANCH  37  38
ATOM     38  C   UNL     1      -9.544  -0.331   0.332  1.00  0.00     0.261 C 
BRANCH  38  39
ATOM     39  O   UNL     1      -8.688   0.471   1.160  1.00  0.00    -0.460 OA
BRANCH  39  40
ATOM     40  C   UNL     1      -9.286   1.341   2.004  1.00  0.00     0.338 C 
ATOM     41  O   UNL     1     -10.487   1.520   2.138  1.00  0.00    -0.246 OA
BRANCH  40  42
ATOM     42  C   UNL     1      -8.239   1.903   2.881  1.00  0.00     0.060 A 
ATOM     43  C   UNL     1      -8.308   1.681   4.263  1.00  0.00     0.016 A 
ATOM     44  C   UNL     1      -7.181   2.632   2.333  1.00  0.00     0.016 A 
ATOM     45  C   UNL     1      -7.332   2.216   5.105  1.00  0.00     0.010 A 
ATOM     46  C   UNL     1      -6.217   3.185   3.180  1.00  0.00     0.010 A 
ATOM     47  C   UNL     1      -6.305   3.006   4.573  1.00  0.00    -0.014 A 
BRANCH  47  48
ATOM     48  C   UNL     1      -5.445   3.811   5.476  1.00  0.00     0.031 A 
ATOM     49  C   UNL     1      -5.785   5.264   5.670  1.00  0.00     0.074 A 
ATOM     50  C   UNL     1      -4.394   3.267   6.117  1.00  0.00     0.049 A 
ATOM     51  N   UNL     1      -5.147   6.187   6.340  1.00  0.00    -0.248 NA
ATOM     52  C   UNL     1      -7.011   5.738   5.009  1.00  0.00     0.031 C 
ATOM     53  C   UNL     1      -3.997   1.862   6.048  1.00  0.00     0.029 A 
ATOM     54  N   UNL     1      -3.459   3.840   6.944  1.00  0.00    -0.354 N 
ATOM     55  C   UNL     1      -5.884   7.354   6.170  1.00  0.00     0.074 A 
ATOM     56  C   UNL     1      -7.000   7.027   5.309  1.00  0.00     0.031 C 
ATOM     57  C   UNL     1      -2.889   1.686   6.789  1.00  0.00     0.029 A 
ATOM     58  C   UNL     1      -2.471   2.972   7.347  1.00  0.00     0.049 A 
ATOM     59  H   UNL     1      -3.494   4.784   7.224  1.00  0.00     0.167 HD
ATOM     60  C   UNL     1      -5.651   8.585   6.687  1.00  0.00     0.034 A 
ATOM     61  C   UNL     1      -1.342   3.199   8.052  1.00  0.00     0.034 A 
ATOM     62  C   UNL     1      -4.528   8.894   7.538  1.00  0.00     0.049 A 
ATOM     63  C   UNL     1      -1.056   4.601   8.544  1.00  0.00     0.074 A 
ATOM     64  C   UNL     1      -4.213  10.099   8.140  1.00  0.00     0.029 A 
ATOM     65  N   UNL     1      -3.525   8.000   7.890  1.00  0.00    -0.354 N 
ATOM     66  N   UNL     1      -1.771   5.694   8.397  1.00  0.00    -0.248 NA
ATOM     67  C   UNL     1       0.186   4.799   9.304  1.00  0.00     0.031 C 
ATOM     68  C   UNL     1      -2.977   9.959   8.779  1.00  0.00     0.029 A 
ATOM     69  C   UNL     1      -2.568   8.639   8.664  1.00  0.00     0.049 A 
ATOM     70  H   UNL     1      -3.497   7.051   7.629  1.00  0.00     0.167 HD
ATOM     71  C   UNL     1      -1.081   6.696   9.077  1.00  0.00     0.074 A 
ATOM     72  C   UNL     1       0.096   6.075   9.646  1.00  0.00     0.031 C 
ATOM     73  C   UNL     1      -1.394   8.010   9.224  1.00  0.00     0.034 A 
BRANCH  60  74
ATOM     74  C   UNL     1      -6.591   9.699   6.293  1.00  0.00     0.023 A 
ATOM     75  C   UNL     1      -7.952   9.687   6.642  1.00  0.00     0.031 A 
ATOM     76  C   UNL     1      -6.114  10.787   5.539  1.00  0.00     0.131 A 
ATOM     77  C   UNL     1      -8.801  10.707   6.184  1.00  0.00     0.055 A 
ATOM     78  C   UNL     1      -6.946  11.840   5.158  1.00  0.00     0.041 A 
ATOM     79  F   UNL     1      -4.830  10.839   5.152  1.00  0.00    -0.206 F 
ATOM     80  C   UNL     1      -8.302  11.798   5.469  1.00  0.00     0.022 A 
BRANCH  77  81
ATOM     81  S   UNL     1     -10.590  10.517   6.415  1.00  0.00     0.124 S 
ATOM     82  O   UNL     1     -10.845   9.255   5.724  1.00  0.00    -0.237 OA
ATOM     83  O   UNL     1     -10.720  10.488   7.867  1.00  0.00    -0.237 OA
ATOM     84  O   UNL     1     -11.147  11.699   5.761  1.00  0.00    -0.744 OA
ENDBRANCH  77  81
ENDBRANCH  60  74
BRANCH  61  85
ATOM     85  C   UNL     1      -0.361   2.099   8.294  1.00  0.00     0.023 A 
ATOM     86  C   UNL     1      -0.026   1.692   9.596  1.00  0.00     0.031 A 
ATOM     87  C   UNL     1       0.316   1.488   7.222  1.00  0.00     0.131 A 
ATOM     88  C   UNL     1       0.995   0.747   9.794  1.00  0.00     0.055 A 
ATOM     89  C   UNL     1       1.285   0.504   7.422  1.00  0.00     0.041 A 
ATOM     90  F   UNL     1       0.040   1.841   5.956  1.00  0.00    -0.206 F 
ATOM     91  C   UNL     1       1.642   0.140   8.716  1.00  0.00     0.022 A 
BRANCH  88  92
ATOM     92  S   UNL     1       1.543   0.404  11.489  1.00  0.00     0.124 S 
ATOM     93  O   UNL     1       1.934   1.732  11.949  1.00  0.00    -0.237 OA
ATOM     94  O   UNL     1       0.336  -0.154  12.090  1.00  0.00    -0.237 OA
ATOM     95  O   UNL     1       2.642  -0.542  11.308  1.00  0.00    -0.744 OA
ENDBRANCH  88  92
ENDBRANCH  61  85
BRANCH  73  96
ATOM     96  C   UNL     1      -0.480   8.852  10.085  1.00  0.00     0.023 A 
ATOM     97  C   UNL     1       0.853   9.116   9.725  1.00  0.00     0.031 A 
ATOM     98  C   UNL     1      -0.958   9.400  11.290  1.00  0.00     0.131 A 
ATOM     99  C   UNL     1       1.676   9.858  10.587  1.00  0.00     0.055 A 
ATOM    100  C   UNL     1      -0.155  10.196  12.108  1.00  0.00     0.041 A 
ATOM    101  F   UNL     1      -2.221   9.178  11.689  1.00  0.00    -0.206 F 
ATOM    102  C   UNL     1       1.174  10.417  11.765  1.00  0.00     0.022 A 
BRANCH  99 103
ATOM    103  S   UNL     1       3.443   9.998  10.201  1.00  0.00     0.124 S 
ATOM    104  O   UNL     1       3.853   8.598  10.148  1.00  0.00    -0.237 OA
ATOM    105  O   UNL     1       3.430  10.708   8.927  1.00  0.00    -0.237 OA
ATOM    106  O   UNL     1       3.981  10.758  11.328  1.00  0.00    -0.744 OA
ENDBRANCH  99 103
ENDBRANCH  73  96
ENDBRANCH  47  48
ENDBRANCH  40  42
ENDBRANCH  39  40
ENDBRANCH  38  39
ENDBRANCH  37  38
ENDBRANCH  36  37
ENDBRANCH  35  36
ENDBRANCH  34  35
ENDBRANCH  33  34
ENDBRANCH   1  33
TORSDOF 27
