REMARK SMILES O=C(OCCOCCOCCOCCOC(=O)c1ccc(-c2ccc(F)c(C(F)(F)F)c2)cc1[N+](=O)[O-])c1ccc(-c2c3nc(c(-c4cc(S(=O)(=O)[O-])ccc4F)c4ccc([nH]4)c(-c4cc(S(=O)(=O)[O-])ccc4F)c4nc(c(-c5cc(S(=O)(=O)[O-])ccc5F)c5ccc2[nH]5)C=C4)C=C3)cc1
REMARK SMILES IDX 8 1 7 2 6 3 5 4 4 5 3 6 2 7 1 8 38 9 39 10 100 11 40 12
REMARK SMILES IDX 99 13 41 14 42 15 43 16 93 17 44 18 98 19 92 20 94 21 45 22
REMARK SMILES IDX 97 23 91 24 90 25 46 27 78 28 58 29 77 30 59 31 62 32 76 33
REMARK SMILES IDX 95 34 60 35 61 36 75 38 96 39 63 40 47 41 48 42 56 43 49 44
REMARK SMILES IDX 55 45 57 46 54 47 50 48 51 49 52 50 53 51 79 52 80 53 88 54
REMARK SMILES IDX 81 55 87 56 89 57 86 58 82 59 83 60 84 61 85 62 64 63 65 64
REMARK SMILES IDX 73 65 66 66 72 67 74 68 71 69 67 70 68 71 69 72 70 73 9 74
REMARK SMILES IDX 10 75 11 76 12 77 13 78 14 79 15 80 16 81 17 82 18 83 19 84
REMARK SMILES IDX 34 85 20 86 33 87 21 88 35 89 36 90 37 91 22 92 23 93 32 94
REMARK SMILES IDX 24 95 27 96 25 97 26 98 28 99 29 100 30 101 31 102
REMARK H PARENT 94 26 62 37
REMARK Flexibility Score: inf
ROOT
ATOM      1  C   UNL     1       1.903   2.692   1.219  1.00  0.00     0.188 C 
ENDROOT
BRANCH   1   2
ATOM      2  C   UNL     1       2.309   1.793   0.046  1.00  0.00     0.188 C 
BRANCH   2   3
ATOM      3  O   UNL     1       3.598   1.240   0.285  1.00  0.00    -0.376 OA
BRANCH   3   4
ATOM      4  C   UNL     1       4.418   0.921  -0.831  1.00  0.00     0.202 C 
BRANCH   4   5
ATOM      5  C   UNL     1       3.921  -0.202  -1.745  1.00  0.00     0.261 C 
BRANCH   5   6
ATOM      6  O   UNL     1       2.525  -0.517  -1.590  1.00  0.00    -0.460 OA
BRANCH   6   7
ATOM      7  C   UNL     1       1.980  -1.486  -0.807  1.00  0.00     0.338 C 
ATOM      8  O   UNL     1       0.787  -1.757  -0.923  1.00  0.00    -0.246 OA
BRANCH   7   9
ATOM      9  C   UNL     1       2.790  -2.248   0.179  1.00  0.00     0.060 A 
ATOM     10  C   UNL     1       3.784  -1.665   0.953  1.00  0.00     0.016 A 
ATOM     11  C   UNL     1       2.486  -3.595   0.409  1.00  0.00     0.016 A 
ATOM     12  C   UNL     1       4.610  -2.413   1.763  1.00  0.00     0.010 A 
ATOM     13  C   UNL     1       3.233  -4.338   1.334  1.00  0.00     0.010 A 
ATOM     14  C   UNL     1       4.338  -3.757   1.974  1.00  0.00    -0.014 A 
BRANCH  14  15
ATOM     15  C   UNL     1       5.324  -4.528   2.759  1.00  0.00     0.031 A 
ATOM     16  C   UNL     1       6.123  -5.576   2.044  1.00  0.00     0.074 A 
ATOM     17  C   UNL     1       5.618  -4.154   4.021  1.00  0.00     0.049 A 
ATOM     18  N   UNL     1       6.991  -6.425   2.521  1.00  0.00    -0.248 NA
ATOM     19  C   UNL     1       5.922  -5.676   0.588  1.00  0.00     0.031 C 
ATOM     20  C   UNL     1       4.992  -3.035   4.739  1.00  0.00     0.029 A 
ATOM     21  N   UNL     1       6.547  -4.628   4.908  1.00  0.00    -0.354 N 
ATOM     22  C   UNL     1       7.410  -7.182   1.432  1.00  0.00     0.074 A 
ATOM     23  C   UNL     1       6.687  -6.708   0.275  1.00  0.00     0.031 C 
ATOM     24  C   UNL     1       5.593  -2.881   5.928  1.00  0.00     0.029 A 
ATOM     25  C   UNL     1       6.556  -3.956   6.111  1.00  0.00     0.049 A 
ATOM     26  H   UNL     1       7.152  -5.377   4.705  1.00  0.00     0.167 HD
ATOM     27  C   UNL     1       8.321  -8.183   1.413  1.00  0.00     0.034 A 
ATOM     28  C   UNL     1       7.229  -4.224   7.247  1.00  0.00     0.034 A 
ATOM     29  C   UNL     1       9.017  -8.617   2.596  1.00  0.00     0.049 A 
ATOM     30  C   UNL     1       8.143  -5.423   7.232  1.00  0.00     0.074 A 
ATOM     31  C   UNL     1       9.874  -9.688   2.759  1.00  0.00     0.029 A 
ATOM     32  N   UNL     1       8.934  -7.979   3.831  1.00  0.00    -0.354 N 
ATOM     33  N   UNL     1       8.438  -6.223   6.229  1.00  0.00    -0.248 NA
ATOM     34  C   UNL     1       8.804  -5.767   8.493  1.00  0.00     0.031 C 
ATOM     35  C   UNL     1      10.265  -9.728   4.103  1.00  0.00     0.029 A 
ATOM     36  C   UNL     1       9.713  -8.640   4.763  1.00  0.00     0.049 A 
ATOM     37  H   UNL     1       8.398  -7.173   4.014  1.00  0.00     0.167 HD
ATOM     38  C   UNL     1       9.328  -7.161   6.740  1.00  0.00     0.074 A 
ATOM     39  C   UNL     1       9.553  -6.795   8.127  1.00  0.00     0.031 C 
ATOM     40  C   UNL     1       9.898  -8.237   6.138  1.00  0.00     0.034 A 
BRANCH  27  41
ATOM     41  C   UNL     1       8.513  -8.906   0.104  1.00  0.00     0.023 A 
ATOM     42  C   UNL     1       9.051  -8.266  -1.028  1.00  0.00     0.031 A 
ATOM     43  C   UNL     1       8.058 -10.228  -0.041  1.00  0.00     0.131 A 
ATOM     44  C   UNL     1       9.047  -8.921  -2.269  1.00  0.00     0.055 A 
ATOM     45  C   UNL     1       8.130 -10.902  -1.262  1.00  0.00     0.041 A 
ATOM     46  F   UNL     1       7.501 -10.876   0.994  1.00  0.00    -0.206 F 
ATOM     47  C   UNL     1       8.613 -10.244  -2.389  1.00  0.00     0.022 A 
BRANCH  44  48
ATOM     48  S   UNL     1       9.474  -7.972  -3.756  1.00  0.00     0.124 S 
ATOM     49  O   UNL     1       8.420  -6.960  -3.772  1.00  0.00    -0.237 OA
ATOM     50  O   UNL     1      10.816  -7.490  -3.451  1.00  0.00    -0.237 OA
ATOM     51  O   UNL     1       9.395  -8.961  -4.830  1.00  0.00    -0.744 OA
ENDBRANCH  44  48
ENDBRANCH  27  41
BRANCH  28  52
ATOM     52  C   UNL     1       6.988  -3.438   8.498  1.00  0.00     0.023 A 
ATOM     53  C   UNL     1       8.039  -2.820   9.195  1.00  0.00     0.031 A 
ATOM     54  C   UNL     1       5.701  -3.365   9.068  1.00  0.00     0.131 A 
ATOM     55  C   UNL     1       7.798  -2.216  10.441  1.00  0.00     0.055 A 
ATOM     56  C   UNL     1       5.453  -2.699  10.270  1.00  0.00     0.041 A 
ATOM     57  F   UNL     1       4.652  -3.946   8.463  1.00  0.00    -0.206 F 
ATOM     58  C   UNL     1       6.510  -2.136  10.975  1.00  0.00     0.022 A 
BRANCH  55  59
ATOM     59  S   UNL     1       9.215  -1.651  11.425  1.00  0.00     0.124 S 
ATOM     60  O   UNL     1      10.040  -2.853  11.473  1.00  0.00    -0.237 OA
ATOM     61  O   UNL     1       9.727  -0.553  10.612  1.00  0.00    -0.237 OA
ATOM     62  O   UNL     1       8.612  -1.257  12.696  1.00  0.00    -0.744 OA
ENDBRANCH  55  59
ENDBRANCH  28  52
BRANCH  40  63
ATOM     63  C   UNL     1      10.839  -9.051   6.985  1.00  0.00     0.023 A 
ATOM     64  C   UNL     1      10.379  -9.777   8.096  1.00  0.00     0.031 A 
ATOM     65  C   UNL     1      12.214  -9.073   6.695  1.00  0.00     0.131 A 
ATOM     66  C   UNL     1      11.298 -10.433   8.924  1.00  0.00     0.055 A 
ATOM     67  C   UNL     1      13.114  -9.790   7.480  1.00  0.00     0.041 A 
ATOM     68  F   UNL     1      12.702  -8.394   5.644  1.00  0.00    -0.206 F 
ATOM     69  C   UNL     1      12.660 -10.461   8.613  1.00  0.00     0.022 A 
BRANCH  66  70
ATOM     70  S   UNL     1      10.702 -11.146  10.480  1.00  0.00     0.124 S 
ATOM     71  O   UNL     1      10.111  -9.985  11.137  1.00  0.00    -0.237 OA
ATOM     72  O   UNL     1       9.762 -12.162  10.017  1.00  0.00    -0.237 OA
ATOM     73  O   UNL     1      11.917 -11.664  11.106  1.00  0.00    -0.744 OA
ENDBRANCH  66  70
ENDBRANCH  40  63
ENDBRANCH  14  15
ENDBRANCH   7   9
ENDBRANCH   6   7
ENDBRANCH   5   6
ENDBRANCH   4   5
ENDBRANCH   3   4
ENDBRANCH   2   3
ENDBRANCH   1   2
BRANCH   1  74
ATOM     74  O   UNL     1       2.705   3.866   1.389  1.00  0.00    -0.377 OA
BRANCH  74  75
ATOM     75  C   UNL     1       4.116   3.663   1.348  1.00  0.00     0.188 C 
BRANCH  75  76
ATOM     76  C   UNL     1       4.774   2.775   2.432  1.00  0.00     0.188 C 
BRANCH  76  77
ATOM     77  O   UNL     1       3.856   1.956   3.142  1.00  0.00    -0.376 OA
BRANCH  77  78
ATOM     78  C   UNL     1       3.741   2.228   4.535  1.00  0.00     0.202 C 
BRANCH  78  79
ATOM     79  C   UNL     1       3.064   3.556   4.919  1.00  0.00     0.261 C 
BRANCH  79  80
ATOM     80  O   UNL     1       3.444   4.695   4.129  1.00  0.00    -0.459 OA
BRANCH  80  81
ATOM     81  C   UNL     1       4.554   5.373   4.483  1.00  0.00     0.345 C 
ATOM     82  O   UNL     1       5.331   5.114   5.386  1.00  0.00    -0.246 OA
BRANCH  81  83
ATOM     83  C   UNL     1       4.822   6.359   3.414  1.00  0.00     0.137 A 
ATOM     84  C   UNL     1       6.035   6.221   2.715  1.00  0.00     0.023 A 
ATOM     85  C   UNL     1       3.901   7.321   2.992  1.00  0.00     0.284 A 
ATOM     86  C   UNL     1       6.307   7.017   1.595  1.00  0.00     0.010 A 
ATOM     87  C   UNL     1       4.187   8.137   1.882  1.00  0.00     0.095 A 
ATOM     88  C   UNL     1       5.399   8.002   1.185  1.00  0.00    -0.011 A 
BRANCH  85  89
ATOM     89  N   UNL     1       2.675   7.588   3.740  1.00  0.00     0.063 N 
ATOM     90  O   UNL     1       1.742   8.129   3.126  1.00  0.00    -0.258 OA
ATOM     91  O   UNL     1       2.667   7.347   4.953  1.00  0.00    -0.258 OA
ENDBRANCH  85  89
BRANCH  88  92
ATOM     92  C   UNL     1       5.792   9.014   0.203  1.00  0.00    -0.017 A 
ATOM     93  C   UNL     1       5.648   8.860  -1.180  1.00  0.00     0.012 A 
ATOM     94  C   UNL     1       6.335  10.213   0.697  1.00  0.00     0.025 A 
ATOM     95  C   UNL     1       6.032   9.894  -2.042  1.00  0.00     0.040 A 
ATOM     96  C   UNL     1       6.720  11.253  -0.156  1.00  0.00     0.092 A 
ATOM     97  C   UNL     1       6.559  11.078  -1.524  1.00  0.00     0.135 A 
ATOM     98  F   UNL     1       6.907  12.057  -2.368  1.00  0.00    -0.206 F 
BRANCH  96  99
ATOM     99  C   UNL     1       7.274  12.531   0.390  1.00  0.00     0.419 C 
ATOM    100  F   UNL     1       8.503  12.840  -0.105  1.00  0.00    -0.166 F 
ATOM    101  F   UNL     1       6.476  13.604   0.137  1.00  0.00    -0.166 F 
ATOM    102  F   UNL     1       7.425  12.506   1.747  1.00  0.00    -0.166 F 
ENDBRANCH  96  99
ENDBRANCH  88  92
ENDBRANCH  81  83
ENDBRANCH  80  81
ENDBRANCH  79  80
ENDBRANCH  78  79
ENDBRANCH  77  78
ENDBRANCH  76  77
ENDBRANCH  75  76
ENDBRANCH  74  75
ENDBRANCH   1  74
TORSDOF 26
