REMARK SMILES CS(=O)(=O)c1cc(F)ccc1N1CCC[C@@H](C(=O)OCCOCCOCCOCCOC(=O)c2ccc(-c3c4nc(c(-c5cc(S(=O)(=O)[O-])ccc5F)c5ccc([nH]5)c(-c5cc(S(=O)(=O)[O-])ccc5F)c5nc(c(-c6cc(S(=O)(=O)[O-])ccc6F)c6ccc3[nH]6)C=C5)C=C4)cc2)C1
REMARK SMILES IDX 26 1 25 2 24 3 23 4 22 5 21 6 20 7 19 8 17 9 18 10 16 11
REMARK SMILES IDX 12 12 13 13 97 14 14 15 15 16 11 17 5 18 6 19 7 20 10 21
REMARK SMILES IDX 8 22 9 23 2 24 1 25 3 26 4 27 27 28 28 29 29 30 30 31 31 32
REMARK SMILES IDX 32 33 33 34 34 35 35 36 96 37 36 38 95 39 37 40 38 41 39 42
REMARK SMILES IDX 89 43 40 44 94 45 88 46 90 47 41 48 93 49 87 50 86 51 42 53
REMARK SMILES IDX 74 54 54 55 73 56 55 57 58 58 72 59 91 60 56 61 57 62 71 64
REMARK SMILES IDX 92 65 59 66 43 67 44 68 52 69 45 70 51 71 53 72 50 73 46 74
REMARK SMILES IDX 47 75 48 76 49 77 75 78 76 79 84 80 77 81 83 82 85 83 82 84
REMARK SMILES IDX 78 85 79 86 80 87 81 88 60 89 61 90 69 91 62 92 68 93 70 94
REMARK SMILES IDX 67 95 63 96 64 97 65 98 66 99
REMARK H PARENT 90 52 58 63
REMARK Flexibility Score: inf
ROOT
ATOM      1  C   UNL     1      -0.492   0.773  -3.126  1.00  0.00     0.188 C 
ENDROOT
BRANCH   1   2
ATOM      2  O   UNL     1      -0.747  -0.522  -2.590  1.00  0.00    -0.377 OA
BRANCH   2   3
ATOM      3  C   UNL     1      -0.062  -1.654  -3.087  1.00  0.00     0.188 C 
BRANCH   3   4
ATOM      4  C   UNL     1      -0.575  -2.266  -4.397  1.00  0.00     0.188 C 
BRANCH   4   5
ATOM      5  O   UNL     1      -1.176  -1.437  -5.367  1.00  0.00    -0.376 OA
BRANCH   5   6
ATOM      6  C   UNL     1      -2.450  -0.843  -5.155  1.00  0.00     0.202 C 
BRANCH   6   7
ATOM      7  C   UNL     1      -3.503  -1.349  -4.151  1.00  0.00     0.261 C 
BRANCH   7   8
ATOM      8  O   UNL     1      -3.048  -1.708  -2.833  1.00  0.00    -0.463 OA
BRANCH   8   9
ATOM      9  C   UNL     1      -3.128  -3.024  -2.535  1.00  0.00     0.310 C 
ATOM     10  O   UNL     1      -3.542  -3.874  -3.323  1.00  0.00    -0.252 OA
BRANCH   9  11
ATOM     11  C   UNL     1      -2.625  -3.435  -1.163  1.00  0.00     0.118 C 
ATOM     12  N   UNL     1      -1.631  -3.084   1.042  1.00  0.00    -0.370 N 
ATOM     13  C   UNL     1      -2.687  -3.798   1.759  1.00  0.00     0.116 C 
ATOM     14  C   UNL     1      -2.052  -2.388  -0.195  1.00  0.00     0.131 C 
ATOM     15  C   UNL     1      -3.336  -4.821   0.830  1.00  0.00     0.022 C 
ATOM     16  C   UNL     1      -3.784  -4.181  -0.478  1.00  0.00     0.019 C 
BRANCH  12  17
ATOM     17  C   UNL     1      -0.321  -3.215   1.462  1.00  0.00     0.056 A 
ATOM     18  C   UNL     1       0.515  -2.172   1.905  1.00  0.00     0.093 A 
ATOM     19  C   UNL     1       1.823  -2.433   2.376  1.00  0.00     0.061 A 
ATOM     20  C   UNL     1       2.306  -3.729   2.416  1.00  0.00     0.124 A 
ATOM     21  C   UNL     1       0.228  -4.519   1.518  1.00  0.00     0.030 A 
ATOM     22  F   UNL     1       3.538  -3.967   2.884  1.00  0.00    -0.207 F 
ATOM     23  C   UNL     1       1.519  -4.780   1.991  1.00  0.00     0.041 A 
BRANCH  18  24
ATOM     24  S   UNL     1      -0.005  -0.472   2.076  1.00  0.00     0.177 S 
ATOM     25  C   UNL     1       0.709   0.301   0.651  1.00  0.00     0.164 C 
ATOM     26  O   UNL     1       0.682   0.061   3.242  1.00  0.00    -0.224 OA
ATOM     27  O   UNL     1      -1.447  -0.368   1.984  1.00  0.00    -0.224 OA
ENDBRANCH  18  24
ENDBRANCH  12  17
ENDBRANCH   9  11
ENDBRANCH   8   9
ENDBRANCH   7   8
ENDBRANCH   6   7
ENDBRANCH   5   6
ENDBRANCH   4   5
ENDBRANCH   3   4
ENDBRANCH   2   3
ENDBRANCH   1   2
BRANCH   1  28
ATOM     28  C   UNL     1       0.477   0.965  -4.307  1.00  0.00     0.188 C 
BRANCH  28  29
ATOM     29  O   UNL     1       1.596   0.093  -4.293  1.00  0.00    -0.376 OA
BRANCH  29  30
ATOM     30  C   UNL     1       2.813   0.573  -3.742  1.00  0.00     0.202 C 
BRANCH  30  31
ATOM     31  C   UNL     1       2.808   0.951  -2.252  1.00  0.00     0.261 C 
BRANCH  31  32
ATOM     32  O   UNL     1       1.928   2.024  -1.871  1.00  0.00    -0.460 OA
BRANCH  32  33
ATOM     33  C   UNL     1       2.132   3.217  -2.479  1.00  0.00     0.338 C 
ATOM     34  O   UNL     1       3.029   3.486  -3.251  1.00  0.00    -0.246 OA
BRANCH  33  35
ATOM     35  C   UNL     1       0.972   4.096  -2.213  1.00  0.00     0.060 A 
ATOM     36  C   UNL     1       0.263   4.601  -3.309  1.00  0.00     0.016 A 
ATOM     37  C   UNL     1       0.626   4.476  -0.914  1.00  0.00     0.016 A 
ATOM     38  C   UNL     1      -0.745   5.544  -3.116  1.00  0.00     0.010 A 
ATOM     39  C   UNL     1      -0.378   5.435  -0.722  1.00  0.00     0.010 A 
ATOM     40  C   UNL     1      -1.032   6.012  -1.826  1.00  0.00    -0.014 A 
BRANCH  40  41
ATOM     41  C   UNL     1      -1.835   7.256  -1.683  1.00  0.00     0.031 A 
ATOM     42  C   UNL     1      -1.105   8.561  -1.486  1.00  0.00     0.074 A 
ATOM     43  C   UNL     1      -3.172   7.251  -1.838  1.00  0.00     0.049 A 
ATOM     44  N   UNL     1      -1.585   9.773  -1.385  1.00  0.00    -0.248 NA
ATOM     45  C   UNL     1       0.363   8.488  -1.401  1.00  0.00     0.031 C 
ATOM     46  C   UNL     1      -3.985   6.067  -2.110  1.00  0.00     0.029 A 
ATOM     47  N   UNL     1      -4.080   8.283  -1.814  1.00  0.00    -0.354 N 
ATOM     48  C   UNL     1      -0.480  10.605  -1.235  1.00  0.00     0.074 A 
ATOM     49  C   UNL     1       0.690   9.757  -1.211  1.00  0.00     0.031 C 
ATOM     50  C   UNL     1      -5.269   6.443  -2.249  1.00  0.00     0.029 A 
ATOM     51  C   UNL     1      -5.378   7.887  -2.039  1.00  0.00     0.049 A 
ATOM     52  H   UNL     1      -3.824   9.220  -1.650  1.00  0.00     0.167 HD
ATOM     53  C   UNL     1      -0.441  11.956  -1.147  1.00  0.00     0.034 A 
ATOM     54  C   UNL     1      -6.523   8.602  -2.063  1.00  0.00     0.034 A 
ATOM     55  C   UNL     1      -1.609  12.797  -1.173  1.00  0.00     0.049 A 
ATOM     56  C   UNL     1      -6.470  10.093  -1.837  1.00  0.00     0.074 A 
ATOM     57  C   UNL     1      -1.674  14.176  -1.086  1.00  0.00     0.029 A 
ATOM     58  N   UNL     1      -2.914  12.341  -1.290  1.00  0.00    -0.354 N 
ATOM     59  N   UNL     1      -5.420  10.861  -1.660  1.00  0.00    -0.248 NA
ATOM     60  C   UNL     1      -7.751  10.815  -1.808  1.00  0.00     0.031 C 
ATOM     61  C   UNL     1      -3.020  14.549  -1.076  1.00  0.00     0.029 A 
ATOM     62  C   UNL     1      -3.792  13.410  -1.240  1.00  0.00     0.049 A 
ATOM     63  H   UNL     1      -3.176  11.398  -1.394  1.00  0.00     0.167 HD
ATOM     64  C   UNL     1      -5.912  12.156  -1.526  1.00  0.00     0.074 A 
ATOM     65  C   UNL     1      -7.353  12.070  -1.635  1.00  0.00     0.031 C 
ATOM     66  C   UNL     1      -5.228  13.312  -1.343  1.00  0.00     0.034 A 
BRANCH  53  67
ATOM     67  C   UNL     1       0.905  12.610  -0.980  1.00  0.00     0.023 A 
ATOM     68  C   UNL     1       1.858  12.605  -2.013  1.00  0.00     0.031 A 
ATOM     69  C   UNL     1       1.229  13.268   0.219  1.00  0.00     0.131 A 
ATOM     70  C   UNL     1       3.106  13.214  -1.813  1.00  0.00     0.055 A 
ATOM     71  C   UNL     1       2.447  13.928   0.388  1.00  0.00     0.041 A 
ATOM     72  F   UNL     1       0.362  13.285   1.244  1.00  0.00    -0.206 F 
ATOM     73  C   UNL     1       3.397  13.897  -0.629  1.00  0.00     0.022 A 
BRANCH  70  74
ATOM     74  S   UNL     1       4.378  13.029  -3.091  1.00  0.00     0.124 S 
ATOM     75  O   UNL     1       4.585  11.583  -3.093  1.00  0.00    -0.237 OA
ATOM     76  O   UNL     1       3.724  13.582  -4.271  1.00  0.00    -0.237 OA
ATOM     77  O   UNL     1       5.498  13.813  -2.575  1.00  0.00    -0.744 OA
ENDBRANCH  70  74
ENDBRANCH  53  67
BRANCH  54  78
ATOM     78  C   UNL     1      -7.823   7.910  -2.289  1.00  0.00     0.023 A 
ATOM     79  C   UNL     1      -8.566   8.120  -3.461  1.00  0.00     0.031 A 
ATOM     80  C   UNL     1      -8.337   7.016  -1.331  1.00  0.00     0.131 A 
ATOM     81  C   UNL     1      -9.788   7.452  -3.642  1.00  0.00     0.055 A 
ATOM     82  C   UNL     1      -9.533   6.326  -1.533  1.00  0.00     0.041 A 
ATOM     83  F   UNL     1      -7.664   6.781  -0.194  1.00  0.00    -0.206 F 
ATOM     84  C   UNL     1     -10.268   6.545  -2.693  1.00  0.00     0.022 A 
BRANCH  81  85
ATOM     85  S   UNL     1     -10.759   7.795  -5.136  1.00  0.00     0.124 S 
ATOM     86  O   UNL     1     -11.098   9.201  -4.952  1.00  0.00    -0.237 OA
ATOM     87  O   UNL     1      -9.803   7.497  -6.197  1.00  0.00    -0.237 OA
ATOM     88  O   UNL     1     -11.880   6.863  -5.033  1.00  0.00    -0.744 OA
ENDBRANCH  81  85
ENDBRANCH  54  78
BRANCH  66  89
ATOM     89  C   UNL     1      -6.003  14.602  -1.278  1.00  0.00     0.023 A 
ATOM     90  C   UNL     1      -6.736  14.962  -0.136  1.00  0.00     0.031 A 
ATOM     91  C   UNL     1      -5.898  15.534  -2.327  1.00  0.00     0.131 A 
ATOM     92  C   UNL     1      -7.338  16.228  -0.069  1.00  0.00     0.055 A 
ATOM     93  C   UNL     1      -6.464  16.805  -2.237  1.00  0.00     0.041 A 
ATOM     94  F   UNL     1      -5.198  15.238  -3.434  1.00  0.00    -0.206 F 
ATOM     95  C   UNL     1      -7.188  17.159  -1.102  1.00  0.00     0.022 A 
BRANCH  92  96
ATOM     96  S   UNL     1      -8.315  16.657   1.398  1.00  0.00     0.124 S 
ATOM     97  O   UNL     1      -9.447  15.742   1.284  1.00  0.00    -0.237 OA
ATOM     98  O   UNL     1      -7.385  16.387   2.490  1.00  0.00    -0.237 OA
ATOM     99  O   UNL     1      -8.636  18.069   1.196  1.00  0.00    -0.744 OA
ENDBRANCH  92  96
ENDBRANCH  66  89
ENDBRANCH  40  41
ENDBRANCH  33  35
ENDBRANCH  32  33
ENDBRANCH  31  32
ENDBRANCH  30  31
ENDBRANCH  29  30
ENDBRANCH  28  29
ENDBRANCH   1  28
TORSDOF 25
