REMARK SMILES Cc1cc(C)cc(C[N@@H+]2CCO[C@@H](CC(=O)OCCOCCOCCOCCOC(=O)c3ccc(-c4c5nc(c(-c6cc(S(=O)(=O)[O-])ccc6F)c6ccc([nH]6)c(-c6cc(S(=O)(=O)[O-])ccc6F)c6nc(c(-c7cc(S(=O)(=O)[O-])ccc7F)c7ccc4[nH]7)C=C6)C=C5)cc3)C2)c1
REMARK SMILES IDX 23 1 22 2 21 3 20 4 19 5 18 6 17 7 15 8 16 9 14 10 13 11
REMARK SMILES IDX 9 12 10 13 95 14 11 16 12 17 8 18 7 19 1 20 2 21 3 22 96 23
REMARK SMILES IDX 4 24 5 25 6 26 24 27 25 28 26 29 27 30 28 31 29 32 30 33
REMARK SMILES IDX 31 34 32 35 33 36 94 37 34 38 93 39 35 40 36 41 37 42 87 43
REMARK SMILES IDX 38 44 92 45 86 46 88 47 39 48 91 49 85 50 84 51 40 53 72 54
REMARK SMILES IDX 52 55 71 56 53 57 56 58 70 59 89 60 54 61 55 62 69 64 90 65
REMARK SMILES IDX 57 66 41 67 42 68 50 69 43 70 49 71 51 72 48 73 44 74 45 75
REMARK SMILES IDX 46 76 47 77 73 78 74 79 82 80 75 81 81 82 83 83 80 84 76 85
REMARK SMILES IDX 77 86 78 87 79 88 58 89 59 90 67 91 60 92 66 93 68 94 65 95
REMARK SMILES IDX 61 96 62 97 63 98 64 99
REMARK H PARENT 9 15 88 52 56 63
REMARK Flexibility Score: inf
ROOT
ATOM      1  O   UNL     1       3.292  -2.659   1.723  1.00  0.00    -0.377 OA
ENDROOT
BRANCH   1   2
ATOM      2  C   UNL     1       3.366  -1.255   1.813  1.00  0.00     0.188 C 
BRANCH   2   3
ATOM      3  C   UNL     1       4.118  -0.746   3.041  1.00  0.00     0.188 C 
BRANCH   3   4
ATOM      4  O   UNL     1       5.209  -1.518   3.511  1.00  0.00    -0.376 OA
BRANCH   4   5
ATOM      5  C   UNL     1       4.968  -2.891   3.827  1.00  0.00     0.202 C 
BRANCH   5   6
ATOM      6  C   UNL     1       3.772  -3.257   4.732  1.00  0.00     0.261 C 
BRANCH   6   7
ATOM      7  O   UNL     1       2.448  -2.946   4.221  1.00  0.00    -0.463 OA
BRANCH   7   8
ATOM      8  C   UNL     1       1.749  -2.033   4.927  1.00  0.00     0.308 C 
ATOM      9  O   UNL     1       2.195  -1.447   5.914  1.00  0.00    -0.252 OA
BRANCH   8  10
ATOM     10  C   UNL     1       0.323  -1.787   4.509  1.00  0.00     0.160 C 
BRANCH  10  11
ATOM     11  C   UNL     1      -0.319  -1.982   3.133  1.00  0.00     0.184 C 
ATOM     12  N   UNL     1      -0.940  -3.483   1.178  1.00  0.00    -0.327 N 
ATOM     13  C   UNL     1      -2.345  -3.223   1.503  1.00  0.00     0.291 C 
ATOM     14  C   UNL     1      -0.079  -3.302   2.372  1.00  0.00     0.295 C 
ATOM     15  H   UNL     1      -0.852  -4.474   0.953  1.00  0.00     0.348 HD
ATOM     16  C   UNL     1      -2.582  -1.945   2.318  1.00  0.00     0.222 C 
ATOM     17  O   UNL     1      -1.736  -1.868   3.459  1.00  0.00    -0.366 OA
BRANCH  12  18
ATOM     18  C   UNL     1      -0.470  -2.956  -0.113  1.00  0.00     0.299 C 
BRANCH  18  19
ATOM     19  C   UNL     1      -0.499  -1.453  -0.327  1.00  0.00     0.007 A 
ATOM     20  C   UNL     1       1.882   1.541  -0.029  1.00  0.00     0.044 C 
ATOM     21  C   UNL     1       0.647   0.709  -0.213  1.00  0.00    -0.050 A 
ATOM     22  C   UNL     1      -0.580   1.356  -0.344  1.00  0.00     0.006 A 
ATOM     23  C   UNL     1       0.672  -0.693  -0.226  1.00  0.00     0.013 A 
ATOM     24  C   UNL     1      -1.757   0.623  -0.517  1.00  0.00    -0.050 A 
ATOM     25  C   UNL     1      -3.072   1.340  -0.531  1.00  0.00     0.044 C 
ATOM     26  C   UNL     1      -1.697  -0.775  -0.577  1.00  0.00     0.013 A 
ENDBRANCH  18  19
ENDBRANCH  12  18
ENDBRANCH  10  11
ENDBRANCH   8  10
ENDBRANCH   7   8
ENDBRANCH   6   7
ENDBRANCH   5   6
ENDBRANCH   4   5
ENDBRANCH   3   4
ENDBRANCH   2   3
ENDBRANCH   1   2
BRANCH   1  27
ATOM     27  C   UNL     1       3.635  -3.269   0.485  1.00  0.00     0.188 C 
BRANCH  27  28
ATOM     28  C   UNL     1       4.966  -2.842  -0.149  1.00  0.00     0.188 C 
BRANCH  28  29
ATOM     29  O   UNL     1       5.060  -1.623  -0.870  1.00  0.00    -0.376 OA
BRANCH  29  30
ATOM     30  C   UNL     1       4.090  -1.161  -1.790  1.00  0.00     0.202 C 
BRANCH  30  31
ATOM     31  C   UNL     1       3.282  -2.026  -2.770  1.00  0.00     0.261 C 
BRANCH  31  32
ATOM     32  O   UNL     1       3.091  -3.391  -2.426  1.00  0.00    -0.460 OA
BRANCH  32  33
ATOM     33  C   UNL     1       4.028  -4.222  -2.929  1.00  0.00     0.338 C 
ATOM     34  O   UNL     1       5.010  -3.911  -3.591  1.00  0.00    -0.246 OA
BRANCH  33  35
ATOM     35  C   UNL     1       3.773  -5.567  -2.402  1.00  0.00     0.060 A 
ATOM     36  C   UNL     1       4.792  -6.195  -1.678  1.00  0.00     0.016 A 
ATOM     37  C   UNL     1       2.561  -6.215  -2.653  1.00  0.00     0.016 A 
ATOM     38  C   UNL     1       4.619  -7.497  -1.232  1.00  0.00     0.010 A 
ATOM     39  C   UNL     1       2.397  -7.531  -2.227  1.00  0.00     0.010 A 
ATOM     40  C   UNL     1       3.443  -8.185  -1.552  1.00  0.00    -0.014 A 
BRANCH  40  41
ATOM     41  C   UNL     1       3.409  -9.652  -1.378  1.00  0.00     0.031 A 
ATOM     42  C   UNL     1       3.718 -10.508  -2.574  1.00  0.00     0.074 A 
ATOM     43  C   UNL     1       3.156 -10.194  -0.176  1.00  0.00     0.049 A 
ATOM     44  N   UNL     1       3.707 -11.808  -2.689  1.00  0.00    -0.248 NA
ATOM     45  C   UNL     1       4.085  -9.795  -3.809  1.00  0.00     0.031 C 
ATOM     46  C   UNL     1       2.910  -9.442   1.053  1.00  0.00     0.029 A 
ATOM     47  N   UNL     1       3.063 -11.507   0.205  1.00  0.00    -0.354 N 
ATOM     48  C   UNL     1       4.059 -12.070  -4.008  1.00  0.00     0.074 A 
ATOM     49  C   UNL     1       4.238 -10.793  -4.663  1.00  0.00     0.031 C 
ATOM     50  C   UNL     1       2.681 -10.310   2.054  1.00  0.00     0.029 A 
ATOM     51  C   UNL     1       2.720 -11.672   1.525  1.00  0.00     0.049 A 
ATOM     52  H   UNL     1       3.226 -12.259  -0.409  1.00  0.00     0.167 HD
ATOM     53  C   UNL     1       4.224 -13.272  -4.611  1.00  0.00     0.034 A 
ATOM     54  C   UNL     1       2.440 -12.797   2.212  1.00  0.00     0.034 A 
ATOM     55  C   UNL     1       4.023 -14.528  -3.935  1.00  0.00     0.049 A 
ATOM     56  C   UNL     1       2.529 -14.122   1.490  1.00  0.00     0.074 A 
ATOM     57  C   UNL     1       4.161 -15.809  -4.436  1.00  0.00     0.029 A 
ATOM     58  N   UNL     1       3.624 -14.660  -2.610  1.00  0.00    -0.354 N 
ATOM     59  N   UNL     1       2.862 -14.364   0.242  1.00  0.00    -0.248 NA
ATOM     60  C   UNL     1       2.210 -15.325   2.270  1.00  0.00     0.031 C 
ATOM     61  C   UNL     1       3.766 -16.711  -3.443  1.00  0.00     0.029 A 
ATOM     62  C   UNL     1       3.474 -15.999  -2.289  1.00  0.00     0.049 A 
ATOM     63  H   UNL     1       3.471 -13.911  -1.989  1.00  0.00     0.167 HD
ATOM     64  C   UNL     1       2.830 -15.749   0.101  1.00  0.00     0.074 A 
ATOM     65  C   UNL     1       2.454 -16.287   1.392  1.00  0.00     0.031 C 
ATOM     66  C   UNL     1       3.095 -16.511  -0.993  1.00  0.00     0.034 A 
BRANCH  53  67
ATOM     67  C   UNL     1       4.577 -13.272  -6.079  1.00  0.00     0.023 A 
ATOM     68  C   UNL     1       5.781 -12.722  -6.555  1.00  0.00     0.031 A 
ATOM     69  C   UNL     1       3.678 -13.801  -7.022  1.00  0.00     0.131 A 
ATOM     70  C   UNL     1       6.020 -12.650  -7.936  1.00  0.00     0.055 A 
ATOM     71  C   UNL     1       3.960 -13.803  -8.389  1.00  0.00     0.041 A 
ATOM     72  F   UNL     1       2.499 -14.311  -6.631  1.00  0.00    -0.206 F 
ATOM     73  C   UNL     1       5.131 -13.212  -8.854  1.00  0.00     0.022 A 
BRANCH  70  74
ATOM     74  S   UNL     1       7.436 -11.679  -8.521  1.00  0.00     0.124 S 
ATOM     75  O   UNL     1       7.139 -10.361  -7.964  1.00  0.00    -0.237 OA
ATOM     76  O   UNL     1       8.568 -12.383  -7.930  1.00  0.00    -0.237 OA
ATOM     77  O   UNL     1       7.335 -11.769  -9.976  1.00  0.00    -0.744 OA
ENDBRANCH  70  74
ENDBRANCH  53  67
BRANCH  54  78
ATOM     78  C   UNL     1       2.009 -12.727   3.637  1.00  0.00     0.023 A 
ATOM     79  C   UNL     1       2.756 -13.343   4.653  1.00  0.00     0.031 A 
ATOM     80  C   UNL     1       0.808 -12.090   3.999  1.00  0.00     0.131 A 
ATOM     81  C   UNL     1       2.271 -13.354   5.970  1.00  0.00     0.055 A 
ATOM     82  C   UNL     1       0.360 -12.049   5.321  1.00  0.00     0.041 A 
ATOM     83  F   UNL     1       0.050 -11.488   3.068  1.00  0.00    -0.206 F 
ATOM     84  C   UNL     1       1.087 -12.698   6.314  1.00  0.00     0.022 A 
BRANCH  81  85
ATOM     85  S   UNL     1       3.159 -14.332   7.212  1.00  0.00     0.124 S 
ATOM     86  O   UNL     1       3.142 -15.660   6.610  1.00  0.00    -0.237 OA
ATOM     87  O   UNL     1       4.455 -13.663   7.254  1.00  0.00    -0.237 OA
ATOM     88  O   UNL     1       2.341 -14.180   8.414  1.00  0.00    -0.744 OA
ENDBRANCH  81  85
ENDBRANCH  54  78
BRANCH  66  89
ATOM     89  C   UNL     1       3.044 -18.010  -0.820  1.00  0.00     0.023 A 
ATOM     90  C   UNL     1       1.844 -18.689  -0.550  1.00  0.00     0.031 A 
ATOM     91  C   UNL     1       4.221 -18.771  -0.944  1.00  0.00     0.131 A 
ATOM     92  C   UNL     1       1.855 -20.079  -0.366  1.00  0.00     0.055 A 
ATOM     93  C   UNL     1       4.215 -20.160  -0.827  1.00  0.00     0.041 A 
ATOM     94  F   UNL     1       5.397 -18.174  -1.198  1.00  0.00    -0.206 F 
ATOM     95  C   UNL     1       3.029 -20.821  -0.524  1.00  0.00     0.022 A 
BRANCH  92  96
ATOM     96  S   UNL     1       0.330 -20.899   0.172  1.00  0.00     0.124 S 
ATOM     97  O   UNL     1       0.048 -20.218   1.431  1.00  0.00    -0.237 OA
ATOM     98  O   UNL     1      -0.585 -20.611  -0.928  1.00  0.00    -0.237 OA
ATOM     99  O   UNL     1       0.721 -22.302   0.300  1.00  0.00    -0.744 OA
ENDBRANCH  92  96
ENDBRANCH  66  89
ENDBRANCH  40  41
ENDBRANCH  33  35
ENDBRANCH  32  33
ENDBRANCH  31  32
ENDBRANCH  30  31
ENDBRANCH  29  30
ENDBRANCH  28  29
ENDBRANCH  27  28
ENDBRANCH   1  27
TORSDOF 26
